# generated using pymatgen
data_HfZrTaTiMo
_symmetry_space_group_name_H-M   'P 1'
_cell_length_a   15.94296301
_cell_length_b   15.92457106
_cell_length_c   15.20023956
_cell_angle_alpha   89.93503468
_cell_angle_beta   89.95693737
_cell_angle_gamma   89.98169552
_symmetry_Int_Tables_number   1
_chemical_formula_structural   HfZrTaTiMo
_chemical_formula_sum   'Hf40 Zr40 Ta40 Ti40 Mo40'
_cell_volume   3859.10673344
_cell_formula_units_Z   40
loop_
 _symmetry_equiv_pos_site_id
 _symmetry_equiv_pos_as_xyz
  1  'x, y, z'
loop_
 _atom_site_type_symbol
 _atom_site_label
 _atom_site_symmetry_multiplicity
 _atom_site_fract_x
 _atom_site_fract_y
 _atom_site_fract_z
 _atom_site_occupancy
  Hf  Hf0  1  0.50558451  0.08735469  0.35134560  1
  Hf  Hf1  1  0.30465323  0.09686422  0.36021984  1
  Hf  Hf2  1  0.31147553  0.49819018  0.62918403  1
  Hf  Hf3  1  0.40425605  0.79746723  0.51003680  1
  Hf  Hf4  1  0.59502834  0.59304886  0.49249110  1
  Hf  Hf5  1  0.20637527  0.80984544  0.50520183  1
  Hf  Hf6  1  0.41063161  0.60002350  0.48562065  1
  Hf  Hf7  1  0.30546566  0.91872532  0.63654557  1
  Hf  Hf8  1  0.20805886  0.59870792  0.48587749  1
  Hf  Hf9  1  0.70242653  0.49337150  0.87161526  1
  Hf  Hf10  1  0.20675439  0.39771008  0.24957150  1
  Hf  Hf11  1  0.59945081  0.20804277  0.23338746  1
  Hf  Hf12  1  0.70385533  0.70631038  0.12489384  1
  Hf  Hf13  1  0.00250945  0.60103546  0.00294600  1
  Hf  Hf14  1  0.40747387  0.60465936  0.24443266  1
  Hf  Hf15  1  0.00181901  -0.00098582  0.00830637  1
  Hf  Hf16  1  0.90102095  0.49757868  0.14114496  1
  Hf  Hf17  1  0.59777420  0.60370321  0.00366794  1
  Hf  Hf18  1  0.30233819  0.10360032  0.11884871  1
  Hf  Hf19  1  0.90380473  0.50356797  0.87080332  1
  Hf  Hf20  1  0.41021094  0.40104442  0.49389542  1
  Hf  Hf21  1  0.39439140  0.18956934  0.77906330  1
  Hf  Hf22  1  0.70311178  0.50038544  0.13156212  1
  Hf  Hf23  1  0.13219254  0.10497693  0.62784026  1
  Hf  Hf24  1  0.50007244  0.28700772  0.63062406  1
  Hf  Hf25  1  0.39877117  0.38492673  0.77078272  1
  Hf  Hf26  1  0.09687864  0.30227288  0.86964223  1
  Hf  Hf27  1  0.88758662  0.09148489  0.12771562  1
  Hf  Hf28  1  0.60193355  -0.00402485  0.00077849  1
  Hf  Hf29  1  0.30372770  0.70552636  0.88247695  1
  Hf  Hf30  1  0.89674997  0.70469687  0.12793745  1
  Hf  Hf31  1  0.90007471  0.71280347  0.38726657  1
  Hf  Hf32  1  0.20112755  0.39959923  0.48924866  1
  Hf  Hf33  1  0.90312909  0.89292303  0.87787083  1
  Hf  Hf34  1  0.40060792  0.20906440  0.23437244  1
  Hf  Hf35  1  -0.00203302  0.39877774  0.72762784  1
  Hf  Hf36  1  0.89301312  0.70275421  0.60775003  1
  Hf  Hf37  1  0.69864032  0.90152775  0.62939210  1
  Hf  Hf38  1  0.09675236  0.70704787  0.38321756  1
  Hf  Hf39  1  -0.00400090  0.19973853  0.25161640  1
  Zr  Zr40  1  0.50522115  0.88437961  0.86948486  1
  Zr  Zr41  1  0.70828604  0.48423927  0.35529149  1
  Zr  Zr42  1  0.68362588  0.70604247  0.35821585  1
  Zr  Zr43  1  0.10100661  0.10184754  0.37809023  1
  Zr  Zr44  1  0.59133673  0.79576840  0.51020759  1
  Zr  Zr45  1  0.89983944  0.29402163  0.87376298  1
  Zr  Zr46  1  0.30082497  0.49697583  0.12017972  1
  Zr  Zr47  1  0.50421160  0.49465817  0.87725843  1
  Zr  Zr48  1  0.50739015  0.68344829  0.65031043  1
  Zr  Zr49  1  0.00394473  -0.00377244  0.73474023  1
  Zr  Zr50  1  0.39885905  -0.00617137  -0.00215763  1
  Zr  Zr51  1  0.70903682  0.90152417  0.12538787  1
  Zr  Zr52  1  -0.00554612  0.21089336  0.50655116  1
  Zr  Zr53  1  0.29193983  0.69562497  0.12766160  1
  Zr  Zr54  1  0.19720670  0.80825106  0.73902230  1
  Zr  Zr55  1  0.49951404  0.88377629  0.34928636  1
  Zr  Zr56  1  0.40430907  -0.00262975  0.49500591  1
  Zr  Zr57  1  0.69505434  0.70663451  0.87251960  1
  Zr  Zr58  1  0.69266787  0.90486270  0.37437813  1
  Zr  Zr59  1  0.19569404  0.00116848  0.00388834  1
  Zr  Zr60  1  -0.01721880  0.19286337  0.72148506  1
  Zr  Zr61  1  0.19922434  0.60103608  0.75290268  1
  Zr  Zr62  1  0.09461019  0.69960801  0.87406361  1
  Zr  Zr63  1  0.68899430  0.10220478  0.62654892  1
  Zr  Zr64  1  0.00016720  0.19852942  0.02028511  1
  Zr  Zr65  1  -0.00118371  0.01087112  0.51439993  1
  Zr  Zr66  1  -0.00853922  -0.00869062  0.25222163  1
  Zr  Zr67  1  0.80181539  0.39320062  0.73964772  1
  Zr  Zr68  1  0.89718161  0.32776301  0.37347519  1
  Zr  Zr69  1  0.79794196  0.19927320  0.25920388  1
  Zr  Zr70  1  0.79202999  0.59207004  0.49556053  1
  Zr  Zr71  1  0.29967683  0.29062626  0.61926779  1
  Zr  Zr72  1  0.79177147  0.20615769  0.00298152  1
  Zr  Zr73  1  0.60387538  0.40015400  0.50528215  1
  Zr  Zr74  1  0.09093150  0.10700738  0.86829765  1
  Zr  Zr75  1  0.18751346  -0.00298448  0.23563104  1
  Zr  Zr76  1  0.10720349  0.50360521  0.62409867  1
  Zr  Zr77  1  0.19133371  0.80735318  0.24776237  1
  Zr  Zr78  1  0.00086404  0.79840352  0.73461996  1
  Zr  Zr79  1  -0.00037363  0.39952494  0.01021230  1
  Ta  Ta80  1  0.00091973  0.60319720  0.26283897  1
  Ta  Ta81  1  0.20781592  0.39753597  0.76566961  1
  Ta  Ta82  1  0.19862832  0.20722875  0.00911021  1
  Ta  Ta83  1  0.40826304  0.79743756  0.01950545  1
  Ta  Ta84  1  0.50371356  0.49453883  0.12271932  1
  Ta  Ta85  1  0.79262814  0.20384840  0.49299894  1
  Ta  Ta86  1  0.39773377  0.79783306  0.74367866  1
  Ta  Ta87  1  0.19599586  0.39982934  0.00023054  1
  Ta  Ta88  1  0.19767422  0.80599759  0.00971114  1
  Ta  Ta89  1  0.29945137  0.49999537  0.89124066  1
  Ta  Ta90  1  0.51191165  0.49369681  0.34592601  1
  Ta  Ta91  1  0.10277182  0.50845876  0.13841828  1
  Ta  Ta92  1  0.70149863  0.09956824  0.87524868  1
  Ta  Ta93  1  0.60647482  0.38629257  0.00754933  1
  Ta  Ta94  1  0.21715558  0.01260841  0.77044640  1
  Ta  Ta95  1  -0.00451396  0.58830390  0.49397358  1
  Ta  Ta96  1  0.80402817  0.80064017  0.75096313  1
  Ta  Ta97  1  0.88681485  0.90033788  0.60948603  1
  Ta  Ta98  1  0.69297049  0.29638963  0.62952627  1
  Ta  Ta99  1  0.10080180  0.30317755  0.36985426  1
  Ta  Ta100  1  0.69164482  0.50808872  0.64616067  1
  Ta  Ta101  1  0.10399969  0.89867792  0.87725059  1
  Ta  Ta102  1  0.00255290  0.79841352  0.00575705  1
  Ta  Ta103  1  0.70107546  0.89705911  0.87034683  1
  Ta  Ta104  1  0.40574528  0.60309892  0.00314263  1
  Ta  Ta105  1  0.89323980  0.89965837  0.40094844  1
  Ta  Ta106  1  0.30607495  0.29768527  0.37151199  1
  Ta  Ta107  1  0.30361772  0.69313111  0.62703279  1
  Ta  Ta108  1  0.31113088  0.49633308  0.36215876  1
  Ta  Ta109  1  0.80788104  0.00595641  0.75593962  1
  Ta  Ta110  1  0.59835971  0.00601005  0.76062487  1
  Ta  Ta111  1  0.59000281  0.00344184  0.50582966  1
  Ta  Ta112  1  0.59723044  0.20725125  0.77403802  1
  Ta  Ta113  1  0.59892136  0.20180745  -0.00086348  1
  Ta  Ta114  1  0.31155405  0.71011101  0.36589885  1
  Ta  Ta115  1  0.19857856  0.20540338  0.23806517  1
  Ta  Ta116  1  0.79552532  0.19528110  0.74919059  1
  Ta  Ta117  1  0.40896058  0.19581964  0.48555395  1
  Ta  Ta118  1  0.80691551  0.60394306  0.26154171  1
  Ta  Ta119  1  0.59444366  0.19745176  0.48727117  1
  Ti  Ti120  1  0.09636561  0.69880992  0.13301957  1
  Ti  Ti121  1  -0.00532422  0.40601789  0.51410286  1
  Ti  Ti122  1  0.09966333  0.49909013  0.86889990  1
  Ti  Ti123  1  0.39760059  0.59647266  0.76649399  1
  Ti  Ti124  1  0.69285536  0.09674046  0.37507034  1
  Ti  Ti125  1  0.50407601  0.30303120  0.36701706  1
  Ti  Ti126  1  0.69715065  0.70056142  0.63739203  1
  Ti  Ti127  1  0.11440181  0.29901067  0.62694662  1
  Ti  Ti128  1  0.20721359  -0.00038936  0.49359059  1
  Ti  Ti129  1  0.20937380  0.20093930  0.48657445  1
  Ti  Ti130  1  0.31480622  0.10528828  0.62463875  1
  Ti  Ti131  1  0.50289870  0.70354844  0.87130933  1
  Ti  Ti132  1  0.79900868  0.39259348  0.00846518  1
  Ti  Ti133  1  0.80605313  0.80878808  0.25899553  1
  Ti  Ti134  1  0.09836914  0.70110174  0.60751227  1
  Ti  Ti135  1  0.19770985  0.59991813  0.26584240  1
  Ti  Ti136  1  0.08805294  0.48989466  0.36690985  1
  Ti  Ti137  1  0.30406231  0.89854356  0.36270600  1
  Ti  Ti138  1  0.09771824  0.30808448  0.13582971  1
  Ti  Ti139  1  0.50720068  0.49231476  0.65011880  1
  Ti  Ti140  1  0.69368017  0.30515351  0.36770507  1
  Ti  Ti141  1  0.49482762  0.09708417  0.63675433  1
  Ti  Ti142  1  -0.00700386  0.60198054  0.73803737  1
  Ti  Ti143  1  0.40703112  0.39154571  0.23514856  1
  Ti  Ti144  1  0.50122085  0.90770584  0.64650378  1
  Ti  Ti145  1  0.80172294  0.00117426  -0.01496898  1
  Ti  Ti146  1  0.08642200  0.89678196  0.39372015  1
  Ti  Ti147  1  0.19387241  0.59973675  -0.00153562  1
  Ti  Ti148  1  0.69868656  0.09542760  0.12609109  1
  Ti  Ti149  1  0.21414412  0.20649406  0.77006119  1
  Ti  Ti150  1  0.40015559  -0.01466799  0.22464493  1
  Ti  Ti151  1  0.30431530  0.89677057  0.87383631  1
  Ti  Ti152  1  0.80169650  0.00132086  0.26769791  1
  Ti  Ti153  1  -0.00278321  0.80815288  0.24559027  1
  Ti  Ti154  1  0.50208442  0.09692840  0.11976459  1
  Ti  Ti155  1  0.89225054  0.89316548  0.11402320  1
  Ti  Ti156  1  0.80274501  0.40617780  0.51946527  1
  Ti  Ti157  1  0.80639151  0.60632203  0.75027183  1
  Ti  Ti158  1  0.49907655  0.09665291  0.88526377  1
  Ti  Ti159  1  0.80665467  0.60579541  -0.00642295  1
  Mo  Mo160  1  0.87427977  0.09746666  0.60834647  1
  Mo  Mo161  1  0.00708387  0.40090312  0.24254244  1
  Mo  Mo162  1  0.80091949  0.39397730  0.23763341  1
  Mo  Mo163  1  0.29854831  0.10400941  0.89714360  1
  Mo  Mo164  1  0.80442560  0.79867818  -0.01587334  1
  Mo  Mo165  1  0.89661793  0.69836860  0.87824361  1
  Mo  Mo166  1  0.50474048  0.69926020  0.12922387  1
  Mo  Mo167  1  0.60324853  0.00541341  0.23041679  1
  Mo  Mo168  1  0.09735862  0.10565319  0.13260546  1
  Mo  Mo169  1  0.10981515  0.91256017  0.62151360  1
  Mo  Mo170  1  0.50141827  0.29580194  0.89343050  1
  Mo  Mo171  1  0.59541000  0.79959509  0.22938248  1
  Mo  Mo172  1  0.79101354  0.80095435  0.50569989  1
  Mo  Mo173  1  0.59545455  0.79940924  0.01230094  1
  Mo  Mo174  1  0.89083460  0.09453481  0.87952178  1
  Mo  Mo175  1  0.29803202  0.30223173  0.89901038  1
  Mo  Mo176  1  0.49903275  0.69673871  0.35397918  1
  Mo  Mo177  1  0.50576564  0.89708533  0.12764497  1
  Mo  Mo178  1  0.60471513  0.59763873  0.76498581  1
  Mo  Mo179  1  0.70034556  0.30048462  0.13081180  1
  Mo  Mo180  1  0.49575692  0.29951528  0.10513730  1
  Mo  Mo181  1  0.39516815  0.80206871  0.23161692  1
  Mo  Mo182  1  0.30031753  0.89686134  0.12361601  1
  Mo  Mo183  1  0.29778021  0.30363492  0.11381808  1
  Mo  Mo184  1  0.78950482  0.00700999  0.49151694  1
  Mo  Mo185  1  0.60287542  0.80325499  0.74093484  1
  Mo  Mo186  1  0.40160941  0.39866650  0.00078708  1
  Mo  Mo187  1  0.89695255  0.50740440  0.63017521  1
  Mo  Mo188  1  0.88696908  0.09623009  0.38805411  1
  Mo  Mo189  1  0.40329992  0.20132314  0.00025951  1
  Mo  Mo190  1  0.00427862  0.80432289  0.51296999  1
  Mo  Mo191  1  0.59591158  0.39203244  0.23147957  1
  Mo  Mo192  1  0.90569272  0.50389635  0.36715464  1
  Mo  Mo193  1  0.69671227  0.30039352  0.86878205  1
  Mo  Mo194  1  0.40146002  0.00291180  0.76568719  1
  Mo  Mo195  1  0.59950315  0.39256878  0.74854933  1
  Mo  Mo196  1  0.09050836  0.89328502  0.11391787  1
  Mo  Mo197  1  0.60145903  0.59861312  0.23865969  1
  Mo  Mo198  1  0.89627387  0.30341184  0.13529926  1
  Mo  Mo199  1  0.88633011  0.29918427  0.60958305  1
