# generated using pymatgen
data_HfZrTaTiMo
_symmetry_space_group_name_H-M   'P 1'
_cell_length_a   15.92355965
_cell_length_b   15.93954638
_cell_length_c   15.19552846
_cell_angle_alpha   90.00354283
_cell_angle_beta   89.95549581
_cell_angle_gamma   90.04180159
_symmetry_Int_Tables_number   1
_chemical_formula_structural   HfZrTaTiMo
_chemical_formula_sum   'Hf40 Zr40 Ta40 Ti40 Mo40'
_cell_volume   3856.84048836
_cell_formula_units_Z   40
loop_
 _symmetry_equiv_pos_site_id
 _symmetry_equiv_pos_as_xyz
  1  'x, y, z'
loop_
 _atom_site_type_symbol
 _atom_site_label
 _atom_site_symmetry_multiplicity
 _atom_site_fract_x
 _atom_site_fract_y
 _atom_site_fract_z
 _atom_site_occupancy
  Hf  Hf0  1  -0.00203916  0.40399747  0.24782599  1
  Hf  Hf1  1  0.70355078  0.30371880  0.13774949  1
  Hf  Hf2  1  0.79659846  -0.00187742  0.49046675  1
  Hf  Hf3  1  0.50484160  0.10532951  0.86575404  1
  Hf  Hf4  1  0.40325128  0.39930563  0.25858964  1
  Hf  Hf5  1  0.40537367  0.39673899  -0.02131219  1
  Hf  Hf6  1  0.20889575  -0.00187646  0.26573519  1
  Hf  Hf7  1  0.70233625  0.89443199  0.62317111  1
  Hf  Hf8  1  0.70306379  0.10878020  0.13464975  1
  Hf  Hf9  1  0.27893700  0.67671205  0.86951450  1
  Hf  Hf10  1  0.11138852  0.09179785  0.12611007  1
  Hf  Hf11  1  0.30592138  0.28497217  0.12591376  1
  Hf  Hf12  1  0.21166685  0.19413750  0.26146731  1
  Hf  Hf13  1  0.91491374  0.90124464  0.12619988  1
  Hf  Hf14  1  0.79750045  0.39669119  0.75178535  1
  Hf  Hf15  1  0.29445695  0.89958317  0.86903568  1
  Hf  Hf16  1  0.60117038  0.20276763  0.49039155  1
  Hf  Hf17  1  0.89452045  0.68828403  0.37454129  1
  Hf  Hf18  1  0.00855567  0.19982399  0.00685669  1
  Hf  Hf19  1  0.71013708  0.11483365  0.87544600  1
  Hf  Hf20  1  0.51980091  0.30656388  0.63314146  1
  Hf  Hf21  1  0.20194916  0.39508685  0.74854654  1
  Hf  Hf22  1  0.58630802  0.19846223  0.25912273  1
  Hf  Hf23  1  0.61625743  0.41391968  0.49078923  1
  Hf  Hf24  1  0.30435868  0.49974838  0.12387464  1
  Hf  Hf25  1  0.90506228  0.10485653  0.13448796  1
  Hf  Hf26  1  0.59864335  -0.00065363  -0.00068576  1
  Hf  Hf27  1  0.10028916  0.70376581  0.12680044  1
  Hf  Hf28  1  0.39768010  0.79259113  -0.01171825  1
  Hf  Hf29  1  0.40875606  0.40289282  0.50289506  1
  Hf  Hf30  1  0.20142732  -0.00191255  0.73284557  1
  Hf  Hf31  1  0.29511837  0.50192002  0.38270465  1
  Hf  Hf32  1  0.29133310  0.90940634  0.11514030  1
  Hf  Hf33  1  0.60344988  -0.00209200  0.75594115  1
  Hf  Hf34  1  0.90170305  0.11532675  0.37347880  1
  Hf  Hf35  1  0.09271117  0.30425945  0.87652254  1
  Hf  Hf36  1  0.59905963  0.20662639  0.00352404  1
  Hf  Hf37  1  0.09476548  0.09548583  0.61682964  1
  Hf  Hf38  1  0.71554147  0.88108162  0.88707417  1
  Hf  Hf39  1  0.00497948  -0.01052290  0.48382970  1
  Zr  Zr40  1  0.69821389  0.11313178  0.62799891  1
  Zr  Zr41  1  0.60556815  0.78658716  0.76218028  1
  Zr  Zr42  1  0.69122043  0.69702876  0.11697997  1
  Zr  Zr43  1  0.01167644  0.21019003  0.25155420  1
  Zr  Zr44  1  0.78885346  0.59666617  0.76394089  1
  Zr  Zr45  1  0.80498542  -0.00013665  0.00824095  1
  Zr  Zr46  1  0.40695436  0.78568389  0.75577526  1
  Zr  Zr47  1  0.40128868  0.20635053  0.75104568  1
  Zr  Zr48  1  0.29515032  0.69984506  0.11900738  1
  Zr  Zr49  1  0.69728778  0.68636313  0.61638211  1
  Zr  Zr50  1  0.40769955  0.61204822  0.25239079  1
  Zr  Zr51  1  0.30653720  0.50743765  0.63119449  1
  Zr  Zr52  1  0.17600086  0.79105160  0.74768322  1
  Zr  Zr53  1  0.29597058  0.69544560  0.62860132  1
  Zr  Zr54  1  0.58382508  0.00255303  0.25195538  1
  Zr  Zr55  1  0.00345941  0.80379119  -0.00303484  1
  Zr  Zr56  1  0.58852456  0.59612640  0.76878654  1
  Zr  Zr57  1  0.20581085  0.19863339  0.51864675  1
  Zr  Zr58  1  0.49159517  0.90121382  0.11476566  1
  Zr  Zr59  1  0.10974234  0.52236921  0.87122631  1
  Zr  Zr60  1  0.91018624  0.10182498  0.88122550  1
  Zr  Zr61  1  0.80287469  -0.00644918  0.25175007  1
  Zr  Zr62  1  0.88830851  0.49511529  0.61275315  1
  Zr  Zr63  1  0.69822812  0.89287951  0.36804264  1
  Zr  Zr64  1  0.50226661  0.89638857  0.62580192  1
  Zr  Zr65  1  0.20786332  0.39951717  -0.01101210  1
  Zr  Zr66  1  0.49671075  0.30266971  0.12754994  1
  Zr  Zr67  1  0.80759107  -0.00499485  0.75259745  1
  Zr  Zr68  1  0.89525427  0.10600369  0.61216844  1
  Zr  Zr69  1  0.39563004  0.79735639  0.50577258  1
  Zr  Zr70  1  -0.00959650  0.59288052  0.24161789  1
  Zr  Zr71  1  0.90874680  0.49631986  0.88132724  1
  Zr  Zr72  1  0.57971153  0.79060102  0.24889245  1
  Zr  Zr73  1  0.19487799  0.39799407  0.25524526  1
  Zr  Zr74  1  0.38907988  0.81200053  0.25730682  1
  Zr  Zr75  1  0.70287877  0.69529872  0.36575831  1
  Zr  Zr76  1  0.09266120  0.50453038  0.62833934  1
  Zr  Zr77  1  0.90581360  0.89183998  0.62336402  1
  Zr  Zr78  1  -0.00119603  0.20946268  0.74065142  1
  Zr  Zr79  1  -0.00964026  0.62715562  0.74266354  1
  Ta  Ta80  1  0.60157731  0.40909323  0.25781484  1
  Ta  Ta81  1  0.81048799  0.78852072  0.23203135  1
  Ta  Ta82  1  0.50183163  0.10550170  0.62594036  1
  Ta  Ta83  1  0.20024590  0.20097425  0.74528188  1
  Ta  Ta84  1  0.50497806  0.51335911  0.62532454  1
  Ta  Ta85  1  0.10845857  0.10164335  0.38858910  1
  Ta  Ta86  1  0.71040247  0.30172313  0.36579507  1
  Ta  Ta87  1  0.19426806  0.59989002  0.25592152  1
  Ta  Ta88  1  0.88594300  0.70907345  0.89726508  1
  Ta  Ta89  1  0.01244330  -0.00538766  0.26752996  1
  Ta  Ta90  1  0.41088018  0.41066049  0.75928221  1
  Ta  Ta91  1  0.19610079  0.39934241  0.50920692  1
  Ta  Ta92  1  0.80878378  0.41215466  0.25072159  1
  Ta  Ta93  1  0.79660699  0.40297994  0.01266790  1
  Ta  Ta94  1  0.19167179  0.80255441  0.49679924  1
  Ta  Ta95  1  0.29344535  0.69809458  0.38202627  1
  Ta  Ta96  1  0.29649772  0.09768248  0.86387804  1
  Ta  Ta97  1  0.59452914  0.79581873  0.49311114  1
  Ta  Ta98  1  0.70257282  0.10695479  0.36898839  1
  Ta  Ta99  1  0.81121604  0.78334670  0.74657348  1
  Ta  Ta100  1  0.30378911  0.29642589  0.39249369  1
  Ta  Ta101  1  0.39566659  0.20398490  -0.02317773  1
  Ta  Ta102  1  -0.00157614  0.79291623  0.49036192  1
  Ta  Ta103  1  0.47730300  0.10554677  0.11485263  1
  Ta  Ta104  1  0.48818091  0.90962632  0.38737622  1
  Ta  Ta105  1  0.59318709  0.60194659  0.48768929  1
  Ta  Ta106  1  0.39718735  -0.00165728  0.74157857  1
  Ta  Ta107  1  0.52597899  0.31059362  0.86131188  1
  Ta  Ta108  1  0.59596372  0.00322925  0.49479097  1
  Ta  Ta109  1  0.59531164  0.59439627  0.24966488  1
  Ta  Ta110  1  0.19174153  0.60351780  0.50133920  1
  Ta  Ta111  1  0.19512088  0.80284083  0.26769974  1
  Ta  Ta112  1  0.09714174  0.69399046  0.37629516  1
  Ta  Ta113  1  0.30927300  0.30350553  0.62556012  1
  Ta  Ta114  1  0.10159398  0.30240405  0.39080023  1
  Ta  Ta115  1  0.31079670  0.09834407  0.40341226  1
  Ta  Ta116  1  0.20892047  0.19639299  -0.01469205  1
  Ta  Ta117  1  0.79678704  0.59347768  0.00610370  1
  Ta  Ta118  1  0.89268748  0.29914365  0.89310923  1
  Ta  Ta119  1  0.50667366  0.50248889  0.11393165  1
  Ti  Ti120  1  0.89398359  0.29766001  0.12364746  1
  Ti  Ti121  1  0.59370318  0.78998041  -0.00666222  1
  Ti  Ti122  1  -0.00715128  0.60106229  0.50190256  1
  Ti  Ti123  1  0.09832364  0.89381467  0.61640860  1
  Ti  Ti124  1  0.09423027  0.90929401  0.87595902  1
  Ti  Ti125  1  0.69788092  0.89413945  0.12344915  1
  Ti  Ti126  1  0.49829155  0.90027363  0.87453537  1
  Ti  Ti127  1  0.39905255  0.18934055  0.26728085  1
  Ti  Ti128  1  -0.00624162  0.80161905  0.75871776  1
  Ti  Ti129  1  0.71847631  0.30831809  0.60818417  1
  Ti  Ti130  1  0.80288089  0.79085437  0.50210017  1
  Ti  Ti131  1  0.80037080  0.58964402  0.22840178  1
  Ti  Ti132  1  -0.00821969  0.39066703  0.73910602  1
  Ti  Ti133  1  0.78475303  0.57986742  0.49128442  1
  Ti  Ti134  1  0.11133617  0.30076992  0.11903254  1
  Ti  Ti135  1  -0.00278564  0.60248140  0.00853725  1
  Ti  Ti136  1  0.39476890  0.00482155  0.52526431  1
  Ti  Ti137  1  0.10452119  0.90211062  0.12790153  1
  Ti  Ti138  1  0.39467981  0.01173554  0.25605349  1
  Ti  Ti139  1  0.00200888  -0.00482584  0.74821170  1
  Ti  Ti140  1  0.09011426  0.49815432  0.38644414  1
  Ti  Ti141  1  0.90334845  0.90186259  0.88231696  1
  Ti  Ti142  1  0.68812321  0.48224495  0.88749412  1
  Ti  Ti143  1  0.59797413  0.59380835  -0.00678032  1
  Ti  Ti144  1  -0.00012516  0.21566656  0.50670271  1
  Ti  Ti145  1  0.80700516  0.21361277  0.74418715  1
  Ti  Ti146  1  0.19179156  0.79696959  -0.01248648  1
  Ti  Ti147  1  0.00388792  0.79916924  0.25722640  1
  Ti  Ti148  1  0.49646626  0.29902852  0.38084425  1
  Ti  Ti149  1  0.70409656  0.30144257  0.88062846  1
  Ti  Ti150  1  0.10648515  0.50333849  0.11699170  1
  Ti  Ti151  1  0.40124028  0.59274791  -0.01621086  1
  Ti  Ti152  1  0.89818205  0.88832799  0.36788880  1
  Ti  Ti153  1  0.49773199  0.50786754  0.37698153  1
  Ti  Ti154  1  -0.00167258  0.40217402  0.01469873  1
  Ti  Ti155  1  0.90097640  0.31116240  0.38592711  1
  Ti  Ti156  1  0.29562056  0.90754189  0.39747884  1
  Ti  Ti157  1  0.10148206  0.09718342  0.86905930  1
  Ti  Ti158  1  0.19717208  0.00477777  -0.00865042  1
  Ti  Ti159  1  0.39300806  0.00918174  -0.01321899  1
  Mo  Mo160  1  0.00091078  0.40194735  0.49276598  1
  Mo  Mo161  1  0.29418224  0.89957959  0.62304525  1
  Mo  Mo162  1  0.80132173  0.79789233  0.02079086  1
  Mo  Mo163  1  0.61625279  0.20801660  0.74658712  1
  Mo  Mo164  1  0.30054382  0.29739663  0.85933685  1
  Mo  Mo165  1  0.08951791  0.70561217  0.60234506  1
  Mo  Mo166  1  0.89796275  0.30393549  0.60669066  1
  Mo  Mo167  1  0.50609709  0.49484585  0.88352720  1
  Mo  Mo168  1  0.49701422  0.68691949  0.10269054  1
  Mo  Mo169  1  0.49837891  0.69483300  0.89340165  1
  Mo  Mo170  1  0.60550049  0.40198463  0.00899426  1
  Mo  Mo171  1  0.30319239  0.50021903  0.86237880  1
  Mo  Mo172  1  0.80648298  0.21150901  0.26197215  1
  Mo  Mo173  1  0.09921591  0.30403798  0.61898814  1
  Mo  Mo174  1  0.90145250  0.49489948  0.10884391  1
  Mo  Mo175  1  0.70314166  0.50430355  0.35200306  1
  Mo  Mo176  1  0.49211840  0.09574662  0.39456541  1
  Mo  Mo177  1  0.69609779  0.49871692  0.12886182  1
  Mo  Mo178  1  0.30591206  0.10069385  0.63024228  1
  Mo  Mo179  1  0.89268755  0.69598118  0.60415792  1
  Mo  Mo180  1  0.20478931  -0.00552893  0.50808529  1
  Mo  Mo181  1  0.89806899  0.49947562  0.38393928  1
  Mo  Mo182  1  0.30525373  0.09770232  0.10930592  1
  Mo  Mo183  1  0.69196398  0.49380327  0.62596550  1
  Mo  Mo184  1  0.61337758  0.40445940  0.73796194  1
  Mo  Mo185  1  0.01464217  0.00030438  -0.00496344  1
  Mo  Mo186  1  0.40684603  0.20252568  0.51074830  1
  Mo  Mo187  1  0.40196684  0.59356124  0.76783267  1
  Mo  Mo188  1  0.80012621  0.20691016  0.48513901  1
  Mo  Mo189  1  0.80057098  0.40282785  0.48164729  1
  Mo  Mo190  1  0.89899943  0.69779537  0.11815275  1
  Mo  Mo191  1  0.49801998  0.68816179  0.60956850  1
  Mo  Mo192  1  0.19620838  0.59927000  0.01689522  1
  Mo  Mo193  1  0.19089669  0.60196343  0.72947673  1
  Mo  Mo194  1  0.40230404  0.60159308  0.48932129  1
  Mo  Mo195  1  0.10152331  0.89570275  0.37665211  1
  Mo  Mo196  1  0.08875455  0.70067905  0.88861756  1
  Mo  Mo197  1  0.70357647  0.69430593  0.89546474  1
  Mo  Mo198  1  0.49486256  0.70199082  0.38722356  1
  Mo  Mo199  1  0.80397322  0.20945645  0.00651383  1
