# generated using pymatgen
data_HfZrTaTiMo
_symmetry_space_group_name_H-M   'P 1'
_cell_length_a   15.93455970
_cell_length_b   15.93452635
_cell_length_c   15.20575363
_cell_angle_alpha   89.95212195
_cell_angle_beta   89.98763955
_cell_angle_gamma   89.92292756
_symmetry_Int_Tables_number   1
_chemical_formula_structural   HfZrTaTiMo
_chemical_formula_sum   'Hf40 Zr40 Ta40 Ti40 Mo40'
_cell_volume   3860.88282527
_cell_formula_units_Z   40
loop_
 _symmetry_equiv_pos_site_id
 _symmetry_equiv_pos_as_xyz
  1  'x, y, z'
loop_
 _atom_site_type_symbol
 _atom_site_label
 _atom_site_symmetry_multiplicity
 _atom_site_fract_x
 _atom_site_fract_y
 _atom_site_fract_z
 _atom_site_occupancy
  Hf  Hf0  1  0.59873416  0.39770698  0.26308486  1
  Hf  Hf1  1  0.50072602  0.90179151  0.10481762  1
  Hf  Hf2  1  0.31469692  0.90753680  0.86938940  1
  Hf  Hf3  1  0.61017452  0.19341977  0.50010184  1
  Hf  Hf4  1  0.51153945  0.69664718  0.39396418  1
  Hf  Hf5  1  0.41382371  0.79601087  0.25530375  1
  Hf  Hf6  1  0.50329208  0.70618044  0.62645249  1
  Hf  Hf7  1  -0.00374647  0.19663163  0.74952187  1
  Hf  Hf8  1  0.70575143  0.30135329  0.87974974  1
  Hf  Hf9  1  0.89537281  0.69780788  0.63544615  1
  Hf  Hf10  1  -0.00560984  0.39831149  0.26188221  1
  Hf  Hf11  1  0.19084864  0.61191902  -0.00725978  1
  Hf  Hf12  1  0.10206490  0.30276269  0.61772475  1
  Hf  Hf13  1  0.20229287  0.80230706  0.74131210  1
  Hf  Hf14  1  0.50678831  0.49136570  0.61411916  1
  Hf  Hf15  1  0.30942168  0.50153307  0.37621575  1
  Hf  Hf16  1  0.40614251  0.59972541  -0.01015270  1
  Hf  Hf17  1  0.40271823  0.00055065  0.25084545  1
  Hf  Hf18  1  0.70259434  0.91009408  0.86288200  1
  Hf  Hf19  1  0.90446291  0.70849894  0.13929688  1
  Hf  Hf20  1  0.69809180  0.09528996  0.13851509  1
  Hf  Hf21  1  0.79262249  0.19074550  0.74001366  1
  Hf  Hf22  1  0.19062598  -0.00502759  0.00755564  1
  Hf  Hf23  1  0.88936882  0.08854272  0.87353106  1
  Hf  Hf24  1  -0.00397543  0.40139247  0.74618309  1
  Hf  Hf25  1  0.19398672  0.79921967  -0.01557767  1
  Hf  Hf26  1  0.79803470  0.41313034  0.01445945  1
  Hf  Hf27  1  0.50849620  0.47600813  0.10428870  1
  Hf  Hf28  1  0.20648635  0.60932561  0.51214518  1
  Hf  Hf29  1  0.69842856  0.52113017  0.38887482  1
  Hf  Hf30  1  0.79826048  0.00274729  0.50671658  1
  Hf  Hf31  1  0.29259822  0.89370144  0.13424468  1
  Hf  Hf32  1  0.39255840  0.80227832  0.50600254  1
  Hf  Hf33  1  0.80576933  0.19542271  0.49623839  1
  Hf  Hf34  1  0.49590430  0.49927475  0.39381138  1
  Hf  Hf35  1  0.89013510  0.50793272  0.86153389  1
  Hf  Hf36  1  0.80833723  0.40274374  0.48458708  1
  Hf  Hf37  1  0.30958588  0.09829432  0.63560768  1
  Hf  Hf38  1  0.90794127  0.28581954  0.13493280  1
  Hf  Hf39  1  0.59903386  0.19936297  0.75518472  1
  Zr  Zr40  1  0.30272577  0.70501226  0.12857624  1
  Zr  Zr41  1  0.10979520  0.50090032  0.37780460  1
  Zr  Zr42  1  0.40356916  0.60144521  0.75026784  1
  Zr  Zr43  1  -0.01407039  0.59290884  0.49931235  1
  Zr  Zr44  1  0.70103047  0.09013473  0.35776316  1
  Zr  Zr45  1  0.29932160  0.10390106  0.12316126  1
  Zr  Zr46  1  0.20393793  0.61012920  0.25748466  1
  Zr  Zr47  1  -0.00294383  0.39981147  0.00472572  1
  Zr  Zr48  1  0.40578781  0.20337639  0.48983755  1
  Zr  Zr49  1  0.41127348  0.39395042  0.76568114  1
  Zr  Zr50  1  0.09527688  0.09817132  0.60907439  1
  Zr  Zr51  1  0.30842334  0.30889346  0.36696268  1
  Zr  Zr52  1  0.89759294  0.29855775  0.62127684  1
  Zr  Zr53  1  0.29967802  0.10245672  0.88634378  1
  Zr  Zr54  1  0.61574570  0.59838251  -0.01132272  1
  Zr  Zr55  1  0.80039455  0.79171835  -0.00386090  1
  Zr  Zr56  1  0.69265280  0.89504948  0.13058760  1
  Zr  Zr57  1  0.19378929  0.00322840  0.74930378  1
  Zr  Zr58  1  0.20500573  0.21251691  0.75013972  1
  Zr  Zr59  1  0.59679466  0.60359497  0.23726743  1
  Zr  Zr60  1  0.09013616  0.10583945  0.88705626  1
  Zr  Zr61  1  0.29316576  0.49888033  0.87091850  1
  Zr  Zr62  1  -0.00482831  0.60542747  0.00777513  1
  Zr  Zr63  1  -0.00420790  0.39709810  0.48802640  1
  Zr  Zr64  1  0.11167419  0.28876366  0.37304062  1
  Zr  Zr65  1  0.49789538  0.09118868  0.62522819  1
  Zr  Zr66  1  0.79835390  0.40569245  0.25130791  1
  Zr  Zr67  1  0.90389612  0.69669765  0.85527415  1
  Zr  Zr68  1  0.31272469  0.30420979  0.12278999  1
  Zr  Zr69  1  0.60907821  0.58790027  0.75591005  1
  Zr  Zr70  1  0.09744759  0.50572083  0.13633318  1
  Zr  Zr71  1  0.30934743  0.50011549  0.12813775  1
  Zr  Zr72  1  0.19488347  0.40304524  0.00367736  1
  Zr  Zr73  1  0.68428292  0.29956706  0.12257369  1
  Zr  Zr74  1  0.89466153  0.89714819  0.86145100  1
  Zr  Zr75  1  0.89635056  0.89737057  0.14216875  1
  Zr  Zr76  1  0.80271373  0.19294726  0.00174506  1
  Zr  Zr77  1  0.17359076  0.01287736  0.24831034  1
  Zr  Zr78  1  0.21013520  0.19782702  0.50362678  1
  Zr  Zr79  1  0.79793966  0.80253103  0.50471579  1
  Ta  Ta80  1  0.09595152  0.89959374  0.61158464  1
  Ta  Ta81  1  0.30488161  0.70680966  0.86051137  1
  Ta  Ta82  1  0.09409792  0.70610861  0.61801419  1
  Ta  Ta83  1  0.09796764  0.71024746  0.38668488  1
  Ta  Ta84  1  0.21146065  0.40505514  0.51291257  1
  Ta  Ta85  1  0.08943390  0.90414288  0.86918373  1
  Ta  Ta86  1  0.59566108  0.80561523  0.74957287  1
  Ta  Ta87  1  0.50075132  0.70978397  0.86940760  1
  Ta  Ta88  1  0.09168123  0.51019623  0.86127822  1
  Ta  Ta89  1  0.50454110  0.10046849  0.11364896  1
  Ta  Ta90  1  0.09399379  0.90664095  0.38911441  1
  Ta  Ta91  1  0.88912531  0.69894737  0.37486455  1
  Ta  Ta92  1  0.50525698  0.89607569  0.38770409  1
  Ta  Ta93  1  0.40916109  0.20179649  0.76771120  1
  Ta  Ta94  1  -0.00516219  0.60424593  0.26193845  1
  Ta  Ta95  1  0.09756772  0.30603493  0.87624086  1
  Ta  Ta96  1  0.39403407  -0.00106846  0.48598328  1
  Ta  Ta97  1  -0.00512133  -0.00053306  0.73517639  1
  Ta  Ta98  1  0.29325518  0.90018393  0.36720870  1
  Ta  Ta99  1  0.89376878  0.90177465  0.36578257  1
  Ta  Ta100  1  0.50183872  0.09471197  0.37432459  1
  Ta  Ta101  1  0.19284100  0.60799108  0.74186251  1
  Ta  Ta102  1  0.30080705  0.49806572  0.63353859  1
  Ta  Ta103  1  0.29294003  0.10315567  0.36063615  1
  Ta  Ta104  1  0.40795155  0.20470261  -0.00613128  1
  Ta  Ta105  1  0.00765121  0.80015219  -0.00632807  1
  Ta  Ta106  1  0.60605340  0.38806391  0.48946687  1
  Ta  Ta107  1  0.10044907  0.71624719  0.14345053  1
  Ta  Ta108  1  0.41211727  0.20120827  0.25074315  1
  Ta  Ta109  1  0.89918075  0.09189503  0.13959961  1
  Ta  Ta110  1  0.68964148  0.89160171  0.37329441  1
  Ta  Ta111  1  -0.00766522  -0.00444069  0.01200342  1
  Ta  Ta112  1  0.01903348  0.17996192  0.25302657  1
  Ta  Ta113  1  0.20376364  0.80511551  0.50405334  1
  Ta  Ta114  1  0.31370018  0.90598005  0.63397409  1
  Ta  Ta115  1  0.50358367  0.30046043  0.61988513  1
  Ta  Ta116  1  0.79513265  0.60180227  0.23954441  1
  Ta  Ta117  1  0.78914607  0.40593539  0.74463565  1
  Ta  Ta118  1  0.50112632  0.08705546  0.88573572  1
  Ta  Ta119  1  0.69310094  0.90075506  0.63301612  1
  Ti  Ti120  1  0.09638588  0.50337943  0.62749941  1
  Ti  Ti121  1  0.70798150  0.28869153  0.36371647  1
  Ti  Ti122  1  0.19960418  0.39218593  0.23994174  1
  Ti  Ti123  1  0.20663872  -0.00236394  0.49655029  1
  Ti  Ti124  1  0.69445991  0.30689377  0.62526622  1
  Ti  Ti125  1  0.60139664  0.39935270  0.76472060  1
  Ti  Ti126  1  0.30237866  0.70418771  0.37315573  1
  Ti  Ti127  1  0.71367794  0.69997718  0.85354183  1
  Ti  Ti128  1  0.79274438  -0.00176555  0.00659491  1
  Ti  Ti129  1  -0.01301153  0.00019359  0.50096046  1
  Ti  Ti130  1  0.60598991  0.79846095  -0.02020372  1
  Ti  Ti131  1  0.19732471  0.40335810  0.74658776  1
  Ti  Ti132  1  0.00605487  0.80364725  0.27017897  1
  Ti  Ti133  1  0.80103133  0.59780359  0.01880055  1
  Ti  Ti134  1  0.50770200  0.70845680  0.11150407  1
  Ti  Ti135  1  0.41987867  0.38968115  0.25004309  1
  Ti  Ti136  1  0.58873977  -0.01152412  0.25250592  1
  Ti  Ti137  1  0.18374176  0.20985525  0.01660073  1
  Ti  Ti138  1  0.58673533  0.20443022  0.25382472  1
  Ti  Ti139  1  0.59911094  -0.00612929  0.50485928  1
  Ti  Ti140  1  0.59977521  0.00450003  0.74747633  1
  Ti  Ti141  1  0.29645617  0.30089057  0.88646221  1
  Ti  Ti142  1  0.09185960  0.89340385  0.13369964  1
  Ti  Ti143  1  -0.00698293  0.80571977  0.49789081  1
  Ti  Ti144  1  -0.00641636  0.19024559  0.48212382  1
  Ti  Ti145  1  0.90348549  0.09065726  0.35420505  1
  Ti  Ti146  1  0.78612333  0.79421351  0.26134032  1
  Ti  Ti147  1  0.39835218  0.79824980  -0.00627517  1
  Ti  Ti148  1  0.39195537  0.60329140  0.51613913  1
  Ti  Ti149  1  0.90197989  0.29858819  0.87793034  1
  Ti  Ti150  1  0.60229670  0.19226251  -0.01037518  1
  Ti  Ti151  1  0.69347966  0.70363726  0.38900473  1
  Ti  Ti152  1  0.41135883  0.59879614  0.24420214  1
  Ti  Ti153  1  0.69793007  0.69899712  0.62394820  1
  Ti  Ti154  1  0.89531580  0.89734558  0.63651009  1
  Ti  Ti155  1  0.70577259  0.50229554  0.60885062  1
  Ti  Ti156  1  0.00975423  0.80037510  0.74697035  1
  Ti  Ti157  1  0.50085809  0.90463654  0.88029890  1
  Ti  Ti158  1  0.69432763  0.70717464  0.12626841  1
  Ti  Ti159  1  0.31472706  0.30707228  0.62914952  1
  Mo  Mo160  1  0.60291103  0.60010255  0.51492228  1
  Mo  Mo161  1  0.41246003  0.00112995  0.75673788  1
  Mo  Mo162  1  0.50647067  0.29509360  0.88739232  1
  Mo  Mo163  1  0.50598591  0.49747016  0.88414511  1
  Mo  Mo164  1  0.70846784  0.50058701  0.87787004  1
  Mo  Mo165  1  -0.00162970  0.19847018  -0.00050109  1
  Mo  Mo166  1  0.69719324  0.09579100  0.62329781  1
  Mo  Mo167  1  0.79717490  0.60392311  0.50891464  1
  Mo  Mo168  1  0.78976657  0.79938758  0.73913858  1
  Mo  Mo169  1  0.19364196  0.80600398  0.27378081  1
  Mo  Mo170  1  0.40776498  0.80800788  0.74838817  1
  Mo  Mo171  1  0.09770422  0.09156211  0.39177677  1
  Mo  Mo172  1  0.08564906  0.10506755  0.10803457  1
  Mo  Mo173  1  0.20266525  0.20181069  0.23957798  1
  Mo  Mo174  1  0.40550641  0.39434801  -0.01891000  1
  Mo  Mo175  1  0.50404801  0.28959475  0.10904287  1
  Mo  Mo176  1  0.50760126  0.29596523  0.38640530  1
  Mo  Mo177  1  0.09868138  0.70367828  0.85634343  1
  Mo  Mo178  1  0.69647117  0.09273597  0.87594936  1
  Mo  Mo179  1  0.39953716  0.40058078  0.51287101  1
  Mo  Mo180  1  0.79550984  0.59400702  0.73057000  1
  Mo  Mo181  1  0.59780058  0.79795807  0.25476341  1
  Mo  Mo182  1  0.00532216  0.59727539  0.73270438  1
  Mo  Mo183  1  0.50101901  0.90378200  0.61663232  1
  Mo  Mo184  1  0.60362186  0.39790038  -0.02180965  1
  Mo  Mo185  1  0.60634713  0.00319150  -0.00745132  1
  Mo  Mo186  1  0.29842062  0.70341185  0.63657597  1
  Mo  Mo187  1  0.79496399  -0.00818920  0.25812907  1
  Mo  Mo188  1  0.60076846  0.80643277  0.51534025  1
  Mo  Mo189  1  0.89851333  0.50585330  0.14182861  1
  Mo  Mo190  1  0.40214822  0.00085056  0.00818667  1
  Mo  Mo191  1  0.89128023  0.49934663  0.63597036  1
  Mo  Mo192  1  0.90052182  0.09450276  0.62333071  1
  Mo  Mo193  1  0.89850650  0.27733469  0.35909122  1
  Mo  Mo194  1  0.89207893  0.51476481  0.36108710  1
  Mo  Mo195  1  0.79740751  0.00366740  0.72784548  1
  Mo  Mo196  1  0.69811972  0.50407665  0.12089051  1
  Mo  Mo197  1  -0.00299288  -0.00521988  0.24905989  1
  Mo  Mo198  1  0.80544563  0.19649266  0.25126746  1
  Mo  Mo199  1  0.10204958  0.29310788  0.13948492  1
