# generated using pymatgen
data_HfZrTaTiMo
_symmetry_space_group_name_H-M   'P 1'
_cell_length_a   15.91905944
_cell_length_b   15.93114342
_cell_length_c   15.19751243
_cell_angle_alpha   90.08403479
_cell_angle_beta   89.97249839
_cell_angle_gamma   89.99770648
_symmetry_Int_Tables_number   1
_chemical_formula_structural   HfZrTaTiMo
_chemical_formula_sum   'Hf40 Zr40 Ta40 Ti40 Mo40'
_cell_volume   3854.21858640
_cell_formula_units_Z   40
loop_
 _symmetry_equiv_pos_site_id
 _symmetry_equiv_pos_as_xyz
  1  'x, y, z'
loop_
 _atom_site_type_symbol
 _atom_site_label
 _atom_site_symmetry_multiplicity
 _atom_site_fract_x
 _atom_site_fract_y
 _atom_site_fract_z
 _atom_site_occupancy
  Hf  Hf0  1  0.49894201  0.69252122  0.64288477  1
  Hf  Hf1  1  0.20018041  0.00939591  0.73474627  1
  Hf  Hf2  1  0.09227805  0.29503267  0.12083706  1
  Hf  Hf3  1  0.31566303  0.91622427  0.61637234  1
  Hf  Hf4  1  0.19528680  0.59929282  0.23324938  1
  Hf  Hf5  1  0.21142068  0.20273312  0.00700859  1
  Hf  Hf6  1  0.09991695  0.09432808  0.11377818  1
  Hf  Hf7  1  0.80588868  0.59646635  0.75448331  1
  Hf  Hf8  1  0.70045361  0.89282761  0.38364159  1
  Hf  Hf9  1  0.79629820  0.40231610  0.49516251  1
  Hf  Hf10  1  0.89957159  0.09968377  0.38729322  1
  Hf  Hf11  1  0.39148376  0.40316553  0.50412027  1
  Hf  Hf12  1  0.69502547  0.49269639  0.63852646  1
  Hf  Hf13  1  0.01742535  -0.01053859  0.26887965  1
  Hf  Hf14  1  0.70829286  0.09987401  0.87471639  1
  Hf  Hf15  1  0.69718497  0.69229878  0.63155041  1
  Hf  Hf16  1  0.79009605  0.20484954  0.25971481  1
  Hf  Hf17  1  0.49217679  0.89291905  0.37092919  1
  Hf  Hf18  1  0.29191659  0.49398161  0.35979057  1
  Hf  Hf19  1  0.80037828  -0.00210810  0.24854853  1
  Hf  Hf20  1  0.90711013  0.30014230  0.11953731  1
  Hf  Hf21  1  0.01045907  0.59389140  0.49240246  1
  Hf  Hf22  1  0.49395195  0.49341058  0.36178820  1
  Hf  Hf23  1  0.50222793  0.30041731  0.63886908  1
  Hf  Hf24  1  0.59826228  0.59547053  0.49110689  1
  Hf  Hf25  1  0.81186059  0.79061661  0.24266582  1
  Hf  Hf26  1  0.20673109  0.78733680  0.73498321  1
  Hf  Hf27  1  0.90758741  0.49858993  0.63118845  1
  Hf  Hf28  1  0.70346580  0.29552746  0.88236572  1
  Hf  Hf29  1  0.00088975  0.79218034  0.74280280  1
  Hf  Hf30  1  0.79948987  0.00129422  0.73800088  1
  Hf  Hf31  1  -0.01201623  0.60818488  0.24478290  1
  Hf  Hf32  1  0.90244959  0.30592061  0.37047415  1
  Hf  Hf33  1  0.90307958  0.10895427  0.12283446  1
  Hf  Hf34  1  0.49812038  0.49880076  0.63646399  1
  Hf  Hf35  1  0.59468705  0.00524755  0.25232418  1
  Hf  Hf36  1  0.69658790  0.10342901  0.11338484  1
  Hf  Hf37  1  0.08374087  0.49602358  0.10567864  1
  Hf  Hf38  1  0.11112476  0.30533327  0.36380090  1
  Hf  Hf39  1  0.59288791  0.40053000  0.77782967  1
  Zr  Zr40  1  -0.00438915  0.00129574  -0.01600222  1
  Zr  Zr41  1  0.40921269  0.79569133  0.51293052  1
  Zr  Zr42  1  0.90830438  0.88813042  0.39108348  1
  Zr  Zr43  1  0.59606827  0.80168898  0.76009029  1
  Zr  Zr44  1  0.70480584  0.69752836  0.88130241  1
  Zr  Zr45  1  0.09903866  0.89600380  0.61163238  1
  Zr  Zr46  1  0.69880009  0.69962578  0.37013286  1
  Zr  Zr47  1  0.19963567  0.00709165  0.25591553  1
  Zr  Zr48  1  0.29350529  0.10454378  0.39470233  1
  Zr  Zr49  1  0.10691369  0.48329111  0.64151904  1
  Zr  Zr50  1  0.49567961  0.30617434  0.11582395  1
  Zr  Zr51  1  0.10279323  0.10563598  0.87706320  1
  Zr  Zr52  1  0.09350253  0.72180874  0.36764482  1
  Zr  Zr53  1  0.90165477  0.69867036  0.87746712  1
  Zr  Zr54  1  0.40646952  0.21540064  0.49033891  1
  Zr  Zr55  1  0.30688376  0.10474415  0.87298263  1
  Zr  Zr56  1  0.09324544  0.71470090  0.12040390  1
  Zr  Zr57  1  0.30124578  0.90512252  0.87701370  1
  Zr  Zr58  1  0.70574833  0.28577644  0.64677975  1
  Zr  Zr59  1  -0.00482046  0.00375231  0.73979449  1
  Zr  Zr60  1  0.69295232  0.29639087  0.11554726  1
  Zr  Zr61  1  0.10987996  0.89277631  0.87512868  1
  Zr  Zr62  1  0.10105509  0.30956293  0.88389292  1
  Zr  Zr63  1  0.30352824  0.70790234  0.35705333  1
  Zr  Zr64  1  0.88647204  0.11103871  0.60714362  1
  Zr  Zr65  1  0.80165266  0.40608914  0.00699771  1
  Zr  Zr66  1  0.60172405  0.59221134  0.23291109  1
  Zr  Zr67  1  0.20591245  0.77900401  0.51932287  1
  Zr  Zr68  1  0.39361009  0.60248798  0.50159713  1
  Zr  Zr69  1  0.60033064  0.38606725  0.48775410  1
  Zr  Zr70  1  0.39613343  0.00238081  0.25316412  1
  Zr  Zr71  1  0.91296438  0.89832653  0.12723897  1
  Zr  Zr72  1  0.39721474  0.59745553  0.22521165  1
  Zr  Zr73  1  0.20221507  0.58984037  0.50583540  1
  Zr  Zr74  1  0.59449217  0.80012478  -0.00947329  1
  Zr  Zr75  1  0.69966416  0.09139282  0.39424646  1
  Zr  Zr76  1  0.49556292  0.09829059  0.61689643  1
  Zr  Zr77  1  0.29655263  0.69999269  0.88254840  1
  Zr  Zr78  1  0.69762231  0.70423369  0.11807115  1
  Zr  Zr79  1  0.90817611  0.30560415  0.62596524  1
  Ta  Ta80  1  0.00698479  0.00230012  0.49940219  1
  Ta  Ta81  1  -0.00154896  0.20153458  0.75014416  1
  Ta  Ta82  1  0.19475221  0.21002423  0.73942248  1
  Ta  Ta83  1  0.90654568  0.69410139  0.61824049  1
  Ta  Ta84  1  0.49328250  0.69879399  0.11266461  1
  Ta  Ta85  1  0.59016915  0.19925635  0.26449105  1
  Ta  Ta86  1  0.89268891  0.89903300  0.86980682  1
  Ta  Ta87  1  0.20213265  0.40216607  0.22759371  1
  Ta  Ta88  1  0.19475459  0.82172538  0.23814769  1
  Ta  Ta89  1  0.29349315  0.90685669  0.10681007  1
  Ta  Ta90  1  0.90080584  0.29169218  0.88035660  1
  Ta  Ta91  1  0.89680269  0.50379438  0.36880426  1
  Ta  Ta92  1  0.20306305  0.60180929  0.00943372  1
  Ta  Ta93  1  0.30283077  0.30703969  0.35457795  1
  Ta  Ta94  1  0.28989130  0.90027363  0.39260063  1
  Ta  Ta95  1  0.91755041  0.50014649  0.88324967  1
  Ta  Ta96  1  0.30109796  0.11202100  0.61862369  1
  Ta  Ta97  1  0.40476926  0.19626575  0.25284886  1
  Ta  Ta98  1  0.49724585  0.90573665  0.11718997  1
  Ta  Ta99  1  0.39703749  0.79844712  0.00424346  1
  Ta  Ta100  1  0.70774012  0.90041512  0.87417676  1
  Ta  Ta101  1  0.69583328  0.90077468  0.62204546  1
  Ta  Ta102  1  0.29500187  0.31201654  0.64134758  1
  Ta  Ta103  1  -0.00059195  0.80114162  -0.00811356  1
  Ta  Ta104  1  0.69716285  0.90504746  0.11671571  1
  Ta  Ta105  1  0.49975601  0.70349410  0.35655343  1
  Ta  Ta106  1  0.80826557  0.59491039  0.01773975  1
  Ta  Ta107  1  0.59724308  -0.00201610  0.75144861  1
  Ta  Ta108  1  0.79918620  0.79521131  0.51528266  1
  Ta  Ta109  1  0.70604543  0.49704719  0.36010464  1
  Ta  Ta110  1  0.59783083  -0.00151228  -0.01277245  1
  Ta  Ta111  1  0.59036701  0.18872205  0.76665381  1
  Ta  Ta112  1  0.20634344  0.19975802  0.24151962  1
  Ta  Ta113  1  0.29266893  0.49860578  0.88431985  1
  Ta  Ta114  1  0.58703146  -0.01130858  0.50749582  1
  Ta  Ta115  1  0.79880817  0.59457239  0.50144573  1
  Ta  Ta116  1  0.39702592  0.40177998  0.76893774  1
  Ta  Ta117  1  0.89670065  0.69844605  0.38972609  1
  Ta  Ta118  1  0.49937826  0.10488234  0.11098194  1
  Ta  Ta119  1  0.80095677  -0.00206221  -0.00245705  1
  Ti  Ti120  1  0.48769188  0.49923804  0.90303512  1
  Ti  Ti121  1  0.78539475  0.21565075  0.48838260  1
  Ti  Ti122  1  0.19121996  0.59433347  0.76071764  1
  Ti  Ti123  1  0.30909009  0.10040957  0.11869761  1
  Ti  Ti124  1  0.30064524  0.30113904  0.87390893  1
  Ti  Ti125  1  0.20403454  0.40118702  0.00379733  1
  Ti  Ti126  1  0.00179188  0.41008255  0.25423783  1
  Ti  Ti127  1  0.00670898  0.40016143  0.76423417  1
  Ti  Ti128  1  0.31486198  0.49224320  0.10538565  1
  Ti  Ti129  1  0.80293164  0.59459104  0.23279300  1
  Ti  Ti130  1  0.19918723  0.39875020  0.49839203  1
  Ti  Ti131  1  0.39194068  0.80484153  0.22844957  1
  Ti  Ti132  1  0.59599451  0.20459509  0.47983310  1
  Ti  Ti133  1  0.59005471  0.19380880  -0.01560976  1
  Ti  Ti134  1  0.79815596  0.40607784  0.23928970  1
  Ti  Ti135  1  0.40477221  0.00556655  -0.00302387  1
  Ti  Ti136  1  0.49514804  0.90250379  0.87732591  1
  Ti  Ti137  1  0.09775811  0.68853053  0.88587118  1
  Ti  Ti138  1  0.39938484  0.20113139  0.75343541  1
  Ti  Ti139  1  0.48731847  0.29337713  0.88914661  1
  Ti  Ti140  1  0.01056924  0.20998835  0.49603107  1
  Ti  Ti141  1  0.59948701  0.58813742  0.00603215  1
  Ti  Ti142  1  0.59995019  0.39687525  0.24367023  1
  Ti  Ti143  1  0.69173453  0.10214696  0.61983663  1
  Ti  Ti144  1  0.30196578  0.50098162  0.65012746  1
  Ti  Ti145  1  0.80559186  0.80392955  0.00617290  1
  Ti  Ti146  1  0.70557690  0.50090715  0.88585746  1
  Ti  Ti147  1  0.30947819  0.30090508  0.12759569  1
  Ti  Ti148  1  0.80811267  0.39838290  0.76448078  1
  Ti  Ti149  1  0.40074177  0.59833395  0.77231674  1
  Ti  Ti150  1  0.10002061  0.11197333  0.61330651  1
  Ti  Ti151  1  0.59108669  0.59697203  0.77979571  1
  Ti  Ti152  1  0.19824160  0.21719189  0.51039900  1
  Ti  Ti153  1  0.59527964  0.79474508  0.50789904  1
  Ti  Ti154  1  0.80415088  0.80365494  0.73565000  1
  Ti  Ti155  1  0.01282392  0.40357982  0.48934461  1
  Ti  Ti156  1  0.40328787  0.79952744  0.75453508  1
  Ti  Ti157  1  0.59394713  0.80405684  0.23594535  1
  Ti  Ti158  1  0.01117486  0.18901196  0.26413670  1
  Ti  Ti159  1  0.41136301  0.00557979  0.75229735  1
  Mo  Mo160  1  0.40205941  0.00138090  0.48999672  1
  Mo  Mo161  1  0.89648575  0.10466492  0.86969397  1
  Mo  Mo162  1  0.10104090  0.11079555  0.39298540  1
  Mo  Mo163  1  0.80606277  0.19414822  -0.00641486  1
  Mo  Mo164  1  -0.00358311  0.60274617  0.00507127  1
  Mo  Mo165  1  0.49550659  0.30334764  0.35485151  1
  Mo  Mo166  1  0.89897667  0.49772289  0.13450915  1
  Mo  Mo167  1  0.50210875  0.49415943  0.10466734  1
  Mo  Mo168  1  0.79587742  -0.00672240  0.51497418  1
  Mo  Mo169  1  0.38996901  0.39439952  -0.01202149  1
  Mo  Mo170  1  0.09601771  0.68270341  0.63676849  1
  Mo  Mo171  1  0.49912113  0.09790562  0.38709678  1
  Mo  Mo172  1  0.49357221  0.69185408  0.88637391  1
  Mo  Mo173  1  0.20513917  0.00309868  0.00411629  1
  Mo  Mo174  1  0.39818911  0.59925023  0.00283534  1
  Mo  Mo175  1  0.00294621  0.80554067  0.25000528  1
  Mo  Mo176  1  0.10034509  0.49386573  0.35918276  1
  Mo  Mo177  1  -0.00199999  0.19931959  -0.01463165  1
  Mo  Mo178  1  0.30743387  0.68136723  0.65292934  1
  Mo  Mo179  1  -0.00197965  0.40012177  -0.00812410  1
  Mo  Mo180  1  0.39926036  0.19878282  0.00427240  1
  Mo  Mo181  1  0.89626316  0.89645344  0.61527281  1
  Mo  Mo182  1  0.59584164  0.40411029  -0.01065672  1
  Mo  Mo183  1  0.10290444  0.50693995  0.88649392  1
  Mo  Mo184  1  0.69806951  0.30749179  0.35902786  1
  Mo  Mo185  1  0.19777897  0.01116705  0.50692450  1
  Mo  Mo186  1  0.19822875  0.80015881  0.00749855  1
  Mo  Mo187  1  0.00740615  0.59852050  0.75401540  1
  Mo  Mo188  1  0.29730978  0.70951399  0.12014824  1
  Mo  Mo189  1  0.90093719  0.70097080  0.11098539  1
  Mo  Mo190  1  0.50009992  0.09695578  0.87917315  1
  Mo  Mo191  1  0.80214448  0.19905102  0.75701410  1
  Mo  Mo192  1  0.10522746  0.90409675  0.10764188  1
  Mo  Mo193  1  0.11070043  0.90344562  0.39687863  1
  Mo  Mo194  1  0.50407213  0.89923704  0.63651613  1
  Mo  Mo195  1  -0.00246920  0.79299490  0.51613819  1
  Mo  Mo196  1  0.39802944  0.39807905  0.23621705  1
  Mo  Mo197  1  0.20635177  0.40016448  0.76650696  1
  Mo  Mo198  1  0.69756798  0.49536980  0.12713832  1
  Mo  Mo199  1  0.10062215  0.29967051  0.62720270  1
