# generated using pymatgen
data_HfZrTaTiMo
_symmetry_space_group_name_H-M   'P 1'
_cell_length_a   15.93115108
_cell_length_b   15.91487379
_cell_length_c   15.21359723
_cell_angle_alpha   90.06152536
_cell_angle_beta   90.03573195
_cell_angle_gamma   89.93599834
_symmetry_Int_Tables_number   1
_chemical_formula_structural   HfZrTaTiMo
_chemical_formula_sum   'Hf40 Zr40 Ta40 Ti40 Mo40'
_cell_volume   3857.28442931
_cell_formula_units_Z   40
loop_
 _symmetry_equiv_pos_site_id
 _symmetry_equiv_pos_as_xyz
  1  'x, y, z'
loop_
 _atom_site_type_symbol
 _atom_site_label
 _atom_site_symmetry_multiplicity
 _atom_site_fract_x
 _atom_site_fract_y
 _atom_site_fract_z
 _atom_site_occupancy
  Hf  Hf0  1  0.19845110  0.60433367  -0.00599044  1
  Hf  Hf1  1  0.18537593  0.41210277  0.49766176  1
  Hf  Hf2  1  -0.00111708  0.60199770  -0.02124441  1
  Hf  Hf3  1  0.91377606  0.69364122  0.63312152  1
  Hf  Hf4  1  0.60076314  0.59748657  0.25505108  1
  Hf  Hf5  1  0.11597442  0.89995630  0.37655327  1
  Hf  Hf6  1  0.00720793  0.80741658  0.23005482  1
  Hf  Hf7  1  0.69012014  0.13035686  0.86782395  1
  Hf  Hf8  1  0.59981191  0.80443348  -0.01303471  1
  Hf  Hf9  1  0.29819800  0.89317914  0.85934043  1
  Hf  Hf10  1  0.09395438  0.10311538  0.86692079  1
  Hf  Hf11  1  0.51262226  0.27198087  0.89432666  1
  Hf  Hf12  1  0.29054866  0.69431595  0.64412544  1
  Hf  Hf13  1  0.39613491  -0.00024727  0.49987657  1
  Hf  Hf14  1  0.48883136  0.48605896  0.63462182  1
  Hf  Hf15  1  0.69286000  0.49245425  0.86607324  1
  Hf  Hf16  1  0.80364721  0.80159104  -0.00165968  1
  Hf  Hf17  1  0.30247423  0.29125478  0.11969630  1
  Hf  Hf18  1  0.60241371  0.01250908  0.48772244  1
  Hf  Hf19  1  0.50749044  0.49232226  0.12675657  1
  Hf  Hf20  1  0.70689460  0.91264258  0.61041315  1
  Hf  Hf21  1  0.71309946  0.50123613  0.37693901  1
  Hf  Hf22  1  0.69560299  0.30645562  0.15134166  1
  Hf  Hf23  1  0.19133784  0.18666731  0.24325582  1
  Hf  Hf24  1  0.09866130  0.49800167  0.11713848  1
  Hf  Hf25  1  0.50393715  0.10542987  0.63212121  1
  Hf  Hf26  1  0.01064976  0.59615919  0.48934458  1
  Hf  Hf27  1  0.59900685  0.39351150  0.49469421  1
  Hf  Hf28  1  0.70174518  0.69802181  0.13760170  1
  Hf  Hf29  1  -0.00159554  -0.00205403  0.50729461  1
  Hf  Hf30  1  0.89889564  0.10232818  0.36504789  1
  Hf  Hf31  1  0.40349933  0.20349158  0.49131526  1
  Hf  Hf32  1  0.37711601  -0.00998791  0.26970417  1
  Hf  Hf33  1  0.79225667  0.39242585  0.74819388  1
  Hf  Hf34  1  0.19652268  0.21702386  0.75451797  1
  Hf  Hf35  1  0.79179496  0.19924970  0.01975363  1
  Hf  Hf36  1  0.70819272  0.89978417  0.37708092  1
  Hf  Hf37  1  0.40537356  0.21763773  0.74920852  1
  Hf  Hf38  1  0.81474635  0.59527367  0.75962044  1
  Hf  Hf39  1  0.30402123  0.70354570  0.12417689  1
  Zr  Zr40  1  0.40324738  0.60071802  0.25300135  1
  Zr  Zr41  1  0.40079605  0.80218266  0.25901718  1
  Zr  Zr42  1  0.29492113  0.50672128  0.37238646  1
  Zr  Zr43  1  0.29139221  0.08277111  0.11491994  1
  Zr  Zr44  1  -0.00794285  0.40012181  0.47977906  1
  Zr  Zr45  1  0.00222942  0.40562161  0.77766898  1
  Zr  Zr46  1  0.79363357  0.19710265  0.50556985  1
  Zr  Zr47  1  0.49945859  0.69538351  0.62570897  1
  Zr  Zr48  1  0.90031826  0.89636059  0.63257113  1
  Zr  Zr49  1  0.78361372  -0.00883031  0.76730771  1
  Zr  Zr50  1  0.50187783  0.28961990  0.13206757  1
  Zr  Zr51  1  0.10305400  0.93331051  0.11515480  1
  Zr  Zr52  1  0.60848751  0.59392875  0.73764569  1
  Zr  Zr53  1  -0.00719180  0.20874186  0.49947120  1
  Zr  Zr54  1  0.00425447  0.79780190  0.00088031  1
  Zr  Zr55  1  0.90223773  0.50075375  0.12442109  1
  Zr  Zr56  1  0.40087568  0.39308491  -0.00563113  1
  Zr  Zr57  1  0.70487714  0.70151611  0.37739540  1
  Zr  Zr58  1  0.89110642  0.28840353  0.87227133  1
  Zr  Zr59  1  0.79956228  0.40092544  0.00241722  1
  Zr  Zr60  1  0.30724823  0.10704345  0.87291954  1
  Zr  Zr61  1  0.79946767  0.60515087  -0.00993349  1
  Zr  Zr62  1  0.49321304  0.90009834  0.12714140  1
  Zr  Zr63  1  0.49973644  0.69873625  0.85436372  1
  Zr  Zr64  1  0.79655972  0.00261584  -0.00070362  1
  Zr  Zr65  1  0.59739923  0.20188633  0.48825259  1
  Zr  Zr66  1  0.89905337  0.69434157  0.36357021  1
  Zr  Zr67  1  0.60204645  0.59904885  -0.00117654  1
  Zr  Zr68  1  0.90728897  0.49044300  0.62279125  1
  Zr  Zr69  1  0.19925130  0.80240076  0.00045759  1
  Zr  Zr70  1  0.68683977  0.90357825  0.13083487  1
  Zr  Zr71  1  0.28911622  0.70973734  0.37645088  1
  Zr  Zr72  1  0.00026022  0.19686310  0.00184912  1
  Zr  Zr73  1  0.30298844  0.31606441  0.62083350  1
  Zr  Zr74  1  0.29060606  0.30009050  0.37339478  1
  Zr  Zr75  1  0.08689310  0.10860038  0.63659044  1
  Zr  Zr76  1  0.90649610  0.89815710  0.37894938  1
  Zr  Zr77  1  0.29738055  0.50249793  0.64284783  1
  Zr  Zr78  1  0.49311302  0.09640529  0.13134056  1
  Zr  Zr79  1  0.80741971  -0.00346847  0.23314523  1
  Ta  Ta80  1  0.70543047  0.30025719  0.35787618  1
  Ta  Ta81  1  0.89773699  0.10093491  0.86048803  1
  Ta  Ta82  1  0.30140760  0.49637540  0.11881019  1
  Ta  Ta83  1  0.09857089  0.30507473  0.11687859  1
  Ta  Ta84  1  0.10502228  0.70400678  0.35813972  1
  Ta  Ta85  1  0.01430160  0.78911056  0.50508189  1
  Ta  Ta86  1  0.50232374  0.69890813  0.39536381  1
  Ta  Ta87  1  0.40106655  0.79826714  -0.00762873  1
  Ta  Ta88  1  0.09934350  0.89240704  0.63896609  1
  Ta  Ta89  1  0.59479334  0.00911788  -0.01940484  1
  Ta  Ta90  1  0.71239090  0.70279831  0.62386453  1
  Ta  Ta91  1  0.30325319  0.69878059  0.86033302  1
  Ta  Ta92  1  0.10122158  0.10039049  0.38555541  1
  Ta  Ta93  1  0.19860630  0.80055469  0.52091181  1
  Ta  Ta94  1  0.20251331  -0.00052976  0.74078751  1
  Ta  Ta95  1  0.30215841  0.50093643  0.87700651  1
  Ta  Ta96  1  0.91863327  0.08944433  0.12487185  1
  Ta  Ta97  1  0.10372475  0.50712996  0.35496079  1
  Ta  Ta98  1  0.19937028  -0.00139672  0.51989620  1
  Ta  Ta99  1  0.60920672  0.39177532  -0.00159493  1
  Ta  Ta100  1  0.19904592  0.39933457  0.23951082  1
  Ta  Ta101  1  0.10258764  0.51507763  0.65033181  1
  Ta  Ta102  1  0.00283413  0.39669335  0.25778644  1
  Ta  Ta103  1  0.90265105  0.89659577  0.87239906  1
  Ta  Ta104  1  0.09374318  0.31655508  0.63277150  1
  Ta  Ta105  1  0.29819500  0.10602202  0.62825624  1
  Ta  Ta106  1  0.90501551  0.29929305  0.13614507  1
  Ta  Ta107  1  0.59626405  0.00335322  0.75784544  1
  Ta  Ta108  1  0.60225413  0.79993299  0.50852737  1
  Ta  Ta109  1  0.61389859  0.81286084  0.74043477  1
  Ta  Ta110  1  0.80992373  0.79642598  0.50553954  1
  Ta  Ta111  1  0.39493550  0.80127451  0.51117643  1
  Ta  Ta112  1  0.40126239  0.39809428  0.25479766  1
  Ta  Ta113  1  0.40362325  -0.00924685  -0.01634532  1
  Ta  Ta114  1  0.88520658  0.09640837  0.63858001  1
  Ta  Ta115  1  0.19254432  0.20315586  0.51027240  1
  Ta  Ta116  1  0.49736753  0.49121196  0.86721990  1
  Ta  Ta117  1  0.39673053  0.59844556  0.49926893  1
  Ta  Ta118  1  0.40213489  0.60208204  -0.00646132  1
  Ta  Ta119  1  0.50440582  0.90365871  0.62432587  1
  Ti  Ti120  1  0.10772122  0.70067336  0.85139453  1
  Ti  Ti121  1  0.80268472  0.38942676  0.49840375  1
  Ti  Ti122  1  0.10149148  0.29656147  0.36746929  1
  Ti  Ti123  1  0.60209158  0.59756290  0.50638323  1
  Ti  Ti124  1  0.28306614  0.09513482  0.38720999  1
  Ti  Ti125  1  0.70437119  0.49467906  0.61696433  1
  Ti  Ti126  1  0.40377951  0.40025142  0.48484068  1
  Ti  Ti127  1  0.39599801  0.19210418  0.26902215  1
  Ti  Ti128  1  0.20707146  0.82086409  0.23260077  1
  Ti  Ti129  1  0.20013452  0.39989936  0.77713475  1
  Ti  Ti130  1  0.58692318  0.00109758  0.26998190  1
  Ti  Ti131  1  0.39939113  0.00085607  0.74450821  1
  Ti  Ti132  1  0.80621350  0.41349761  0.24979841  1
  Ti  Ti133  1  0.01519758  0.00773424  0.25372032  1
  Ti  Ti134  1  0.49907597  0.89249135  0.39026644  1
  Ti  Ti135  1  0.69183460  0.29054640  0.63036145  1
  Ti  Ti136  1  0.50248301  0.70274867  0.12205967  1
  Ti  Ti137  1  0.70661322  0.71203037  0.85604336  1
  Ti  Ti138  1  0.00050046  0.79443966  0.75564810  1
  Ti  Ti139  1  0.59316172  0.79909097  0.26257601  1
  Ti  Ti140  1  -0.00344032  -0.00226468  0.75318416  1
  Ti  Ti141  1  0.19121238  0.60951272  0.50270403  1
  Ti  Ti142  1  0.58705415  0.37716197  0.75074923  1
  Ti  Ti143  1  0.68609951  0.10307190  0.13721273  1
  Ti  Ti144  1  0.09843813  0.89998636  0.86274764  1
  Ti  Ti145  1  0.81003605  0.59583247  0.50500475  1
  Ti  Ti146  1  0.50216496  0.50085059  0.37863097  1
  Ti  Ti147  1  0.88861381  0.29588666  0.35296647  1
  Ti  Ti148  1  0.19748778  0.60440366  0.23539984  1
  Ti  Ti149  1  0.00467907  0.19857750  0.24318624  1
  Ti  Ti150  1  0.40155962  0.80748351  0.73384954  1
  Ti  Ti151  1  0.19818203  0.00154112  -0.02232970  1
  Ti  Ti152  1  -0.00156321  0.59759179  0.24984110  1
  Ti  Ti153  1  0.81122830  0.80501003  0.23519115  1
  Ti  Ti154  1  0.19915127  0.20439791  -0.00594715  1
  Ti  Ti155  1  0.71060790  0.10233422  0.35723308  1
  Ti  Ti156  1  0.90472365  0.29213624  0.63885897  1
  Ti  Ti157  1  0.59102653  0.19642572  0.26931735  1
  Ti  Ti158  1  0.90395136  0.69580541  0.12994110  1
  Ti  Ti159  1  0.49924200  0.89911833  0.85965845  1
  Mo  Mo160  1  0.89993788  0.49765478  0.36978860  1
  Mo  Mo161  1  0.60529429  0.19276830  0.02161796  1
  Mo  Mo162  1  0.19758389  0.00031907  0.26308835  1
  Mo  Mo163  1  0.49847804  0.30415223  0.36070513  1
  Mo  Mo164  1  0.49957957  0.30690777  0.61857708  1
  Mo  Mo165  1  0.40010653  0.18549166  -0.00258661  1
  Mo  Mo166  1  0.69890811  0.49779543  0.14012858  1
  Mo  Mo167  1  0.10403254  0.30275132  0.89512471  1
  Mo  Mo168  1  0.80487728  0.19775170  0.23681521  1
  Mo  Mo169  1  0.90558142  0.90396243  0.10711680  1
  Mo  Mo170  1  0.69318792  0.89754335  0.87971396  1
  Mo  Mo171  1  0.00317077  0.59943850  0.76935691  1
  Mo  Mo172  1  0.29960506  0.30174066  0.89076332  1
  Mo  Mo173  1  0.79625929  0.19916324  0.73366302  1
  Mo  Mo174  1  0.10088646  0.69644123  0.14131778  1
  Mo  Mo175  1  0.00314529  0.39675331  -0.00620253  1
  Mo  Mo176  1  -0.00252583  0.00046848  -0.02615082  1
  Mo  Mo177  1  0.29521956  0.89815432  0.40277869  1
  Mo  Mo178  1  0.10630945  0.49877293  0.88306872  1
  Mo  Mo179  1  0.59722960  0.40270876  0.27053342  1
  Mo  Mo180  1  0.20085851  0.39873201  0.00175067  1
  Mo  Mo181  1  0.59905721  0.20197211  0.73330902  1
  Mo  Mo182  1  -0.00367320  0.20480154  0.74808670  1
  Mo  Mo183  1  0.40055986  0.59607928  0.76267605  1
  Mo  Mo184  1  0.69810324  0.10134462  0.63553399  1
  Mo  Mo185  1  0.80246355  0.59720090  0.23856764  1
  Mo  Mo186  1  0.19773780  0.59412307  0.77044123  1
  Mo  Mo187  1  0.90369764  0.70761647  0.85969539  1
  Mo  Mo188  1  0.30238543  0.90329497  0.63204982  1
  Mo  Mo189  1  0.80148324  0.00560949  0.49282901  1
  Mo  Mo190  1  0.80111953  0.79798113  0.74964208  1
  Mo  Mo191  1  0.10003634  0.69692922  0.63834097  1
  Mo  Mo192  1  0.69433427  0.30195409  0.87157790  1
  Mo  Mo193  1  0.19597993  0.80096242  0.74583795  1
  Mo  Mo194  1  0.10037799  0.10643258  0.11516287  1
  Mo  Mo195  1  0.49180578  0.09668446  0.36537590  1
  Mo  Mo196  1  0.89832966  0.49696562  0.88552236  1
  Mo  Mo197  1  0.49836038  0.09250103  0.86616752  1
  Mo  Mo198  1  0.30124146  0.90147032  0.10260991  1
  Mo  Mo199  1  0.39843181  0.39484464  0.77376651  1
