# generated using pymatgen
data_HfZrTaTiMo
_symmetry_space_group_name_H-M   'P 1'
_cell_length_a   15.93666206
_cell_length_b   15.92601336
_cell_length_c   15.20093852
_cell_angle_alpha   89.99640068
_cell_angle_beta   89.94097967
_cell_angle_gamma   90.01511115
_symmetry_Int_Tables_number   1
_chemical_formula_structural   HfZrTaTiMo
_chemical_formula_sum   'Hf40 Zr40 Ta40 Ti40 Mo40'
_cell_volume   3858.10990898
_cell_formula_units_Z   40
loop_
 _symmetry_equiv_pos_site_id
 _symmetry_equiv_pos_as_xyz
  1  'x, y, z'
loop_
 _atom_site_type_symbol
 _atom_site_label
 _atom_site_symmetry_multiplicity
 _atom_site_fract_x
 _atom_site_fract_y
 _atom_site_fract_z
 _atom_site_occupancy
  Hf  Hf0  1  0.10121565  0.10609740  0.36982916  1
  Hf  Hf1  1  0.69341932  0.30043467  0.39055385  1
  Hf  Hf2  1  0.31117776  0.10455116  0.61857006  1
  Hf  Hf3  1  0.69435154  0.09759126  0.63228520  1
  Hf  Hf4  1  0.78429578  0.20928948  0.24708538  1
  Hf  Hf5  1  0.11299966  0.31082892  0.34801873  1
  Hf  Hf6  1  0.51087998  0.69754819  0.38070812  1
  Hf  Hf7  1  0.49355393  0.51094576  0.12033844  1
  Hf  Hf8  1  0.80569867  -0.00544001  0.49879197  1
  Hf  Hf9  1  0.69062904  0.30582324  0.86787084  1
  Hf  Hf10  1  0.79907664  0.79732798  0.73450966  1
  Hf  Hf11  1  0.21413462  0.60281463  0.23216756  1
  Hf  Hf12  1  0.30903823  0.69581721  0.38937635  1
  Hf  Hf13  1  0.60534073  0.39748273  0.24004286  1
  Hf  Hf14  1  0.00169727  0.39102261  0.74831045  1
  Hf  Hf15  1  0.90272850  0.10493105  0.37333600  1
  Hf  Hf16  1  -0.00307522  0.00124012  0.50895213  1
  Hf  Hf17  1  0.09682500  0.89662598  0.36665697  1
  Hf  Hf18  1  0.69754463  0.10114249  0.86503194  1
  Hf  Hf19  1  0.49791641  0.30173646  0.37052904  1
  Hf  Hf20  1  0.59382264  0.61928024  -0.00380593  1
  Hf  Hf21  1  0.50830786  0.89286238  0.39485952  1
  Hf  Hf22  1  0.02072214  0.40587674  0.51059984  1
  Hf  Hf23  1  0.60183480  -0.00190642  0.00532248  1
  Hf  Hf24  1  0.11089756  0.11787883  0.11495841  1
  Hf  Hf25  1  0.09758139  0.69880207  0.86705260  1
  Hf  Hf26  1  0.10162375  0.50442168  0.87072598  1
  Hf  Hf27  1  0.30331892  0.67609901  0.62785086  1
  Hf  Hf28  1  0.70222336  0.71021413  0.14892736  1
  Hf  Hf29  1  0.19779358  -0.00278506  0.49925929  1
  Hf  Hf30  1  0.88925994  0.30653202  0.11744178  1
  Hf  Hf31  1  0.57876614  0.41223192  0.74400294  1
  Hf  Hf32  1  0.88196946  0.88736004  0.13460919  1
  Hf  Hf33  1  0.80457101  0.59838293  0.49848791  1
  Hf  Hf34  1  0.28196601  0.29370958  0.12947014  1
  Hf  Hf35  1  0.79624737  0.79333922  -0.01513043  1
  Hf  Hf36  1  0.59819134  0.19889496  0.00782472  1
  Hf  Hf37  1  0.69117960  0.50983238  0.62852797  1
  Hf  Hf38  1  0.79839707  0.59593428  0.27089859  1
  Hf  Hf39  1  0.60137090  -0.00892609  0.23861202  1
  Zr  Zr40  1  -0.00781719  0.40270120  -0.00337989  1
  Zr  Zr41  1  0.00162732  0.80138449  0.51316921  1
  Zr  Zr42  1  0.30613698  0.88801392  0.88547646  1
  Zr  Zr43  1  0.40337649  0.00554225  0.76446729  1
  Zr  Zr44  1  0.47369171  0.30576240  0.62884802  1
  Zr  Zr45  1  0.20321062  0.78778342  0.00341331  1
  Zr  Zr46  1  0.69523073  0.51147782  0.86576562  1
  Zr  Zr47  1  -0.00010496  0.20817260  0.23691929  1
  Zr  Zr48  1  -0.00159651  -0.00509908  -0.00457280  1
  Zr  Zr49  1  0.90623814  0.30830867  0.38212961  1
  Zr  Zr50  1  0.79830071  0.19596855  0.51116871  1
  Zr  Zr51  1  0.59285856  0.19086504  0.23180185  1
  Zr  Zr52  1  0.19944991  0.19566187  0.76894630  1
  Zr  Zr53  1  0.12910179  0.49641126  0.64940852  1
  Zr  Zr54  1  0.69778503  0.90147805  0.85028878  1
  Zr  Zr55  1  0.40380356  0.79840768  0.24520763  1
  Zr  Zr56  1  0.20935847  -0.00262021  0.24626162  1
  Zr  Zr57  1  0.47800072  0.30219004  0.11481960  1
  Zr  Zr58  1  0.79909754  -0.00610141  -0.01094063  1
  Zr  Zr59  1  0.40522963  -0.00291972  0.24665354  1
  Zr  Zr60  1  0.89753976  0.30404983  0.61624094  1
  Zr  Zr61  1  0.58322269  0.19889595  0.74710549  1
  Zr  Zr62  1  0.10739883  0.10615942  0.62704125  1
  Zr  Zr63  1  0.10451394  0.69544896  0.36109181  1
  Zr  Zr64  1  0.90795566  0.70342476  0.37662235  1
  Zr  Zr65  1  0.09908989  0.90026667  0.11876287  1
  Zr  Zr66  1  0.50095384  0.09482679  0.39136617  1
  Zr  Zr67  1  0.89859366  0.10034379  0.11868500  1
  Zr  Zr68  1  0.31054688  0.10273799  0.10718359  1
  Zr  Zr69  1  0.69334631  0.90317682  0.62231702  1
  Zr  Zr70  1  0.79321202  -0.00567053  0.26510889  1
  Zr  Zr71  1  0.30347722  0.90156199  0.62452657  1
  Zr  Zr72  1  0.40658574  0.78748279  0.74334717  1
  Zr  Zr73  1  0.70050305  0.50698564  0.12230579  1
  Zr  Zr74  1  0.19488461  0.78997405  0.51308416  1
  Zr  Zr75  1  0.28148766  0.30558061  0.64326289  1
  Zr  Zr76  1  0.21353875  0.79930513  0.23457764  1
  Zr  Zr77  1  0.32185459  0.49366602  0.63494492  1
  Zr  Zr78  1  0.19743232  0.40353308  0.00360999  1
  Zr  Zr79  1  0.89301457  0.50935969  0.12366081  1
  Ta  Ta80  1  0.79815587  0.40229556  0.26299645  1
  Ta  Ta81  1  0.20052930  0.21562205  0.48983101  1
  Ta  Ta82  1  0.50340155  0.89061319  0.88514530  1
  Ta  Ta83  1  -0.01087818  0.79199724  -0.00437976  1
  Ta  Ta84  1  0.49223490  0.30526861  0.89013557  1
  Ta  Ta85  1  0.90821689  0.89210886  0.85711626  1
  Ta  Ta86  1  0.29701649  0.49704415  0.36540133  1
  Ta  Ta87  1  -0.00238113  -0.00214619  0.24550478  1
  Ta  Ta88  1  0.80282600  0.80124527  0.50189683  1
  Ta  Ta89  1  0.10132735  0.89844929  0.64839214  1
  Ta  Ta90  1  0.50077641  0.88723018  0.11082511  1
  Ta  Ta91  1  0.39720927  0.19493311  0.77737324  1
  Ta  Ta92  1  0.20191917  -0.00137761  0.76520928  1
  Ta  Ta93  1  0.90245451  0.69594384  0.62742663  1
  Ta  Ta94  1  0.01418577  0.59810087  0.51509715  1
  Ta  Ta95  1  0.29887582  0.10380845  0.37969127  1
  Ta  Ta96  1  0.00375958  0.00732419  0.75520005  1
  Ta  Ta97  1  0.89810763  0.69345010  0.85347902  1
  Ta  Ta98  1  0.79875507  0.20862230  -0.01272916  1
  Ta  Ta99  1  0.69432383  0.70029449  0.84917874  1
  Ta  Ta100  1  0.09936273  0.50301339  0.12808150  1
  Ta  Ta101  1  0.60799958  0.79844505  0.00216023  1
  Ta  Ta102  1  0.58906834  0.20333344  0.51934265  1
  Ta  Ta103  1  0.38976106  0.21034056  0.49041228  1
  Ta  Ta104  1  0.79627290  0.40419006  -0.01967652  1
  Ta  Ta105  1  0.80718757  0.20588544  0.75272473  1
  Ta  Ta106  1  0.89744550  0.51037862  0.86033152  1
  Ta  Ta107  1  0.19789671  0.58475630  0.49530075  1
  Ta  Ta108  1  0.20676908  0.39797505  0.48904757  1
  Ta  Ta109  1  0.09821252  0.89441227  0.86842611  1
  Ta  Ta110  1  0.09222159  0.29254030  0.88571446  1
  Ta  Ta111  1  0.58976762  0.40408782  0.51032686  1
  Ta  Ta112  1  -0.00655795  0.60614526  -0.00151078  1
  Ta  Ta113  1  0.80054629  0.40090954  0.75269077  1
  Ta  Ta114  1  0.08775787  0.69584898  0.12294716  1
  Ta  Ta115  1  0.20341367  0.78962525  0.75061506  1
  Ta  Ta116  1  -0.00519259  0.19778107  0.75178424  1
  Ta  Ta117  1  0.58620293  0.79568769  0.73108302  1
  Ta  Ta118  1  0.69268978  0.70779264  0.38286201  1
  Ta  Ta119  1  0.10357393  0.50171954  0.35814552  1
  Ti  Ti120  1  0.31012843  0.49827124  0.11459472  1
  Ti  Ti121  1  0.69218825  0.69546528  0.61754671  1
  Ti  Ti122  1  0.79629767  0.40850226  0.49986856  1
  Ti  Ti123  1  0.49523251  0.50356486  0.88910643  1
  Ti  Ti124  1  0.80054030  0.60891988  -0.00851137  1
  Ti  Ti125  1  0.39207490  0.39919298  0.77721876  1
  Ti  Ti126  1  0.69662834  0.30720744  0.62968344  1
  Ti  Ti127  1  0.68647188  0.50145513  0.38142383  1
  Ti  Ti128  1  0.09725939  0.10115770  0.88658448  1
  Ti  Ti129  1  0.29744478  0.29739897  0.89450197  1
  Ti  Ti130  1  -0.00295924  0.40647793  0.23717453  1
  Ti  Ti131  1  0.39263765  0.40144903  0.48510121  1
  Ti  Ti132  1  0.89466557  0.70027701  0.13291991  1
  Ti  Ti133  1  0.60135720  0.40206527  0.00649973  1
  Ti  Ti134  1  0.31180120  0.89837575  0.39297393  1
  Ti  Ti135  1  0.70904827  0.09776551  0.11800526  1
  Ti  Ti136  1  0.50342896  0.66602400  0.61382089  1
  Ti  Ti137  1  0.32952646  0.69166532  0.10614410  1
  Ti  Ti138  1  -0.00515730  0.80208375  0.24493295  1
  Ti  Ti139  1  0.41011354  0.79178448  0.51894615  1
  Ti  Ti140  1  0.39146599  0.40280351  0.25167336  1
  Ti  Ti141  1  0.20356869  -0.00006514  -0.01183060  1
  Ti  Ti142  1  0.40730440  0.59911101  0.25465657  1
  Ti  Ti143  1  0.00549349  0.60266177  0.73540434  1
  Ti  Ti144  1  0.50007189  0.92042749  0.60693638  1
  Ti  Ti145  1  0.58039471  0.00361484  0.75126150  1
  Ti  Ti146  1  0.00956729  0.20555426  0.51136178  1
  Ti  Ti147  1  0.91432622  0.49754345  0.38101338  1
  Ti  Ti148  1  0.30174408  0.50836135  0.87935778  1
  Ti  Ti149  1  0.20243767  0.60246741  0.00323979  1
  Ti  Ti150  1  0.81597840  0.01257562  0.74553019  1
  Ti  Ti151  1  0.68963018  0.09962186  0.38786151  1
  Ti  Ti152  1  0.69064489  0.88919221  0.39012681  1
  Ti  Ti153  1  -0.00114038  0.59870689  0.24380112  1
  Ti  Ti154  1  0.39334048  0.19528761  0.25650173  1
  Ti  Ti155  1  0.90728020  0.90215903  0.63952198  1
  Ti  Ti156  1  0.89657212  0.50385885  0.63289188  1
  Ti  Ti157  1  0.49996238  0.50171439  0.37776886  1
  Ti  Ti158  1  0.90517465  0.10839764  0.87845228  1
  Ti  Ti159  1  0.31526729  0.89934240  0.09961561  1
  Mo  Mo160  1  0.40789927  -0.00472938  -0.00534521  1
  Mo  Mo161  1  0.30546959  0.68892570  0.87698057  1
  Mo  Mo162  1  0.41374390  0.58998217  0.76910878  1
  Mo  Mo163  1  0.49160986  0.10200595  0.61382699  1
  Mo  Mo164  1  0.60223337  0.59454139  0.48842075  1
  Mo  Mo165  1  0.70430857  0.30784160  0.10745897  1
  Mo  Mo166  1  0.89511691  0.30189965  0.87250054  1
  Mo  Mo167  1  0.19513232  0.19886455  -0.01353913  1
  Mo  Mo168  1  0.49740423  0.09810635  0.89314172  1
  Mo  Mo169  1  0.90069459  0.89973013  0.36727541  1
  Mo  Mo170  1  0.50792482  0.69633143  0.14404251  1
  Mo  Mo171  1  0.09368454  0.30524681  0.12276873  1
  Mo  Mo172  1  0.39997104  0.60149654  -0.01223282  1
  Mo  Mo173  1  0.90344364  0.09982735  0.63486244  1
  Mo  Mo174  1  0.58888239  0.60702499  0.75324695  1
  Mo  Mo175  1  0.39998199  0.58759442  0.48343114  1
  Mo  Mo176  1  0.20751946  0.19977288  0.26087130  1
  Mo  Mo177  1  0.39734121  0.19777322  -0.01342448  1
  Mo  Mo178  1  0.10559386  0.69384504  0.63996477  1
  Mo  Mo179  1  0.59820009  0.79474180  0.52372912  1
  Mo  Mo180  1  0.39569417  0.40413434  -0.00519462  1
  Mo  Mo181  1  0.30317446  0.30287107  0.35617791  1
  Mo  Mo182  1  0.49278337  0.50023306  0.61194652  1
  Mo  Mo183  1  0.20441422  0.39654310  0.78193087  1
  Mo  Mo184  1  0.29679357  0.09635982  0.89006249  1
  Mo  Mo185  1  0.79861242  0.80207729  0.27860527  1
  Mo  Mo186  1  0.10408978  0.29838252  0.63092979  1
  Mo  Mo187  1  -0.00548990  0.20159980  -0.00786894  1
  Mo  Mo188  1  0.50461481  0.70293292  0.86634820  1
  Mo  Mo189  1  0.60341433  0.80640339  0.24520921  1
  Mo  Mo190  1  0.39731047  0.00213646  0.49435244  1
  Mo  Mo191  1  0.69794968  0.89474023  0.12839684  1
  Mo  Mo192  1  0.20199240  0.41080051  0.23346903  1
  Mo  Mo193  1  0.60382948  0.00396271  0.50236099  1
  Mo  Mo194  1  0.41848214  0.78535454  -0.00026948  1
  Mo  Mo195  1  0.49608990  0.09276458  0.11321304  1
  Mo  Mo196  1  0.00161883  0.79931386  0.74464699  1
  Mo  Mo197  1  0.80117518  0.60012424  0.73377239  1
  Mo  Mo198  1  0.21421883  0.60210670  0.76831645  1
  Mo  Mo199  1  0.59842331  0.59785541  0.26506541  1
