# generated using pymatgen
data_HfZrTaTiMo
_symmetry_space_group_name_H-M   'P 1'
_cell_length_a   15.92876783
_cell_length_b   15.92954187
_cell_length_c   15.19646843
_cell_angle_alpha   89.99991383
_cell_angle_beta   89.99155451
_cell_angle_gamma   89.93803965
_symmetry_Int_Tables_number   1
_chemical_formula_structural   HfZrTaTiMo
_chemical_formula_sum   'Hf40 Zr40 Ta40 Ti40 Mo40'
_cell_volume   3855.91881611
_cell_formula_units_Z   40
loop_
 _symmetry_equiv_pos_site_id
 _symmetry_equiv_pos_as_xyz
  1  'x, y, z'
loop_
 _atom_site_type_symbol
 _atom_site_label
 _atom_site_symmetry_multiplicity
 _atom_site_fract_x
 _atom_site_fract_y
 _atom_site_fract_z
 _atom_site_occupancy
  Hf  Hf0  1  0.79888030  0.59751457  0.00405248  1
  Hf  Hf1  1  0.70638033  0.30910304  0.37054269  1
  Hf  Hf2  1  0.09996248  0.69946303  0.12854603  1
  Hf  Hf3  1  0.30005311  0.29282826  0.13612879  1
  Hf  Hf4  1  0.49625771  0.70108153  0.62682160  1
  Hf  Hf5  1  0.49835987  0.49873883  0.13612111  1
  Hf  Hf6  1  0.29236987  0.70128843  0.61995672  1
  Hf  Hf7  1  0.51181165  0.90324195  0.61355086  1
  Hf  Hf8  1  -0.00290545  0.79729054  -0.00510181  1
  Hf  Hf9  1  0.11510785  0.09464026  0.36953001  1
  Hf  Hf10  1  0.50918561  0.29813963  0.12657911  1
  Hf  Hf11  1  0.01922286  0.39177563  0.74858712  1
  Hf  Hf12  1  0.29424740  0.31126124  0.60736424  1
  Hf  Hf13  1  0.39087556  0.79929714  0.48782782  1
  Hf  Hf14  1  0.19238418  0.21796977  0.74862823  1
  Hf  Hf15  1  0.40849818  0.19200167  -0.00668449  1
  Hf  Hf16  1  0.89812887  0.30593928  0.36434403  1
  Hf  Hf17  1  0.40057004  0.60678758  0.00143432  1
  Hf  Hf18  1  0.90107535  0.29643508  0.88094389  1
  Hf  Hf19  1  0.89717366  0.09902826  0.12397126  1
  Hf  Hf20  1  0.89952027  0.49318126  0.64123341  1
  Hf  Hf21  1  -0.00054245  0.39237891  0.50067794  1
  Hf  Hf22  1  0.29515744  0.90297941  0.87014225  1
  Hf  Hf23  1  0.79687603  0.59553547  0.51134901  1
  Hf  Hf24  1  0.09593124  0.49852186  0.36549909  1
  Hf  Hf25  1  0.39755358  0.59674834  0.74773684  1
  Hf  Hf26  1  0.30326433  0.10369784  0.39662285  1
  Hf  Hf27  1  0.50454464  0.09904406  0.39209174  1
  Hf  Hf28  1  0.49873701  0.68967682  0.36976038  1
  Hf  Hf29  1  0.50361641  0.31153128  0.88014871  1
  Hf  Hf30  1  0.10605706  0.29900074  0.35659481  1
  Hf  Hf31  1  0.10509261  0.90019948  0.12595138  1
  Hf  Hf32  1  0.71219852  0.89583153  0.88555558  1
  Hf  Hf33  1  0.41490600  -0.00137017  0.75252929  1
  Hf  Hf34  1  0.79254992  0.19309198  0.24924836  1
  Hf  Hf35  1  0.09696125  0.09782699  0.87214408  1
  Hf  Hf36  1  0.40459710  0.19681270  0.25796760  1
  Hf  Hf37  1  0.39800423  0.40046505  0.74291844  1
  Hf  Hf38  1  0.09938416  0.29740791  0.12640326  1
  Hf  Hf39  1  0.08445157  0.10631858  0.63199448  1
  Zr  Zr40  1  0.58162857  0.00999593  -0.01900467  1
  Zr  Zr41  1  0.21316641  0.59814267  0.24072837  1
  Zr  Zr42  1  0.69778823  0.70235562  0.86952087  1
  Zr  Zr43  1  0.79840168  0.59419156  0.76049161  1
  Zr  Zr44  1  0.00440252  0.80152909  0.76233228  1
  Zr  Zr45  1  0.49278890  0.90455910  0.12552936  1
  Zr  Zr46  1  0.01170925  -0.01428283  0.49393070  1
  Zr  Zr47  1  0.88407153  0.50963409  0.35538718  1
  Zr  Zr48  1  0.60559012  0.80791581  0.25767750  1
  Zr  Zr49  1  0.79372353  0.40367604  0.00562922  1
  Zr  Zr50  1  0.29987856  0.10321518  0.61591672  1
  Zr  Zr51  1  0.30073319  0.89590291  0.62490577  1
  Zr  Zr52  1  0.60905390  0.01560458  0.25485448  1
  Zr  Zr53  1  0.90092457  0.09289148  0.87371716  1
  Zr  Zr54  1  0.81532971  0.79843546  0.50735487  1
  Zr  Zr55  1  0.70193971  0.90471413  0.11437283  1
  Zr  Zr56  1  0.90395478  0.28483814  0.63461747  1
  Zr  Zr57  1  0.78108422  0.19070024  0.76466752  1
  Zr  Zr58  1  0.00341546  -0.00220230  0.25079388  1
  Zr  Zr59  1  0.60222952  0.58892082  -0.00211309  1
  Zr  Zr60  1  0.18813555  0.59333582  0.73882849  1
  Zr  Zr61  1  0.00919194  0.60249118  0.76350341  1
  Zr  Zr62  1  0.61419250  0.79610993  0.49440425  1
  Zr  Zr63  1  0.61383033  0.00548944  0.75807271  1
  Zr  Zr64  1  0.38250315  0.80794055  0.26083516  1
  Zr  Zr65  1  0.08415399  0.69949881  0.36032206  1
  Zr  Zr66  1  0.71761654  0.68775687  0.36524565  1
  Zr  Zr67  1  0.58910530  0.79205620  -0.00676267  1
  Zr  Zr68  1  0.29697346  0.50066495  0.88693944  1
  Zr  Zr69  1  0.21149124  0.19463068  -0.00246793  1
  Zr  Zr70  1  0.69220805  0.70171873  0.63815831  1
  Zr  Zr71  1  0.49693022  0.91141782  0.38614432  1
  Zr  Zr72  1  0.50417326  0.11060843  0.61557623  1
  Zr  Zr73  1  0.59663299  0.39758234  0.49541436  1
  Zr  Zr74  1  0.29079139  0.70042071  0.86859271  1
  Zr  Zr75  1  0.89793817  0.09534267  0.62799031  1
  Zr  Zr76  1  0.49622147  0.69784530  0.14510533  1
  Zr  Zr77  1  -0.00732207  0.60257670  0.50723471  1
  Zr  Zr78  1  0.29737298  0.09764920  0.85901324  1
  Zr  Zr79  1  -0.00480206  0.59803533  -0.00526475  1
  Ta  Ta80  1  0.89354697  0.09343450  0.37574322  1
  Ta  Ta81  1  0.39905688  0.80304962  -0.01003191  1
  Ta  Ta82  1  0.18242718  -0.01050220  0.73341540  1
  Ta  Ta83  1  0.39640670  0.40347157  0.25755379  1
  Ta  Ta84  1  0.59626943  0.20091955  0.76048259  1
  Ta  Ta85  1  0.69942671  0.09903580  0.60761008  1
  Ta  Ta86  1  0.20579930  0.40045547  0.00619070  1
  Ta  Ta87  1  -0.00251778  0.19637960  0.48075312  1
  Ta  Ta88  1  0.69702674  0.10975546  0.10620250  1
  Ta  Ta89  1  0.20373936  0.39967662  0.76161580  1
  Ta  Ta90  1  0.20437880  0.79882085  0.00299488  1
  Ta  Ta91  1  0.69508108  0.29321281  0.62319473  1
  Ta  Ta92  1  0.09769138  0.30460146  0.89590707  1
  Ta  Ta93  1  0.69606614  0.29962297  0.12092133  1
  Ta  Ta94  1  -0.00286382  0.19667201  0.24806600  1
  Ta  Ta95  1  0.20131942  0.81091355  0.25917984  1
  Ta  Ta96  1  -0.00144000  0.19710783  0.00856181  1
  Ta  Ta97  1  0.39708011  0.39780673  0.00917982  1
  Ta  Ta98  1  0.18448784  0.81170195  0.48634742  1
  Ta  Ta99  1  0.79563099  0.40156504  0.51055938  1
  Ta  Ta100  1  0.70343118  0.69889025  0.12823231  1
  Ta  Ta101  1  0.89974060  0.89567646  0.12464517  1
  Ta  Ta102  1  0.29836311  0.50058376  0.38338674  1
  Ta  Ta103  1  -0.00794934  0.40312279  0.23111650  1
  Ta  Ta104  1  0.10444742  0.90578256  0.88644072  1
  Ta  Ta105  1  0.90392426  0.89175389  0.36296208  1
  Ta  Ta106  1  0.90373677  0.48736311  0.87342866  1
  Ta  Ta107  1  0.59005988  0.58876945  0.75682858  1
  Ta  Ta108  1  0.49932306  0.50059923  0.61474323  1
  Ta  Ta109  1  0.71331167  0.91182362  0.38221559  1
  Ta  Ta110  1  0.11189984  0.10206973  0.12878027  1
  Ta  Ta111  1  0.39415232  0.00500623  0.24505273  1
  Ta  Ta112  1  0.09947412  0.49869863  0.11759494  1
  Ta  Ta113  1  0.90107312  0.69773857  0.13808353  1
  Ta  Ta114  1  0.00411112  -0.00013497  0.00698172  1
  Ta  Ta115  1  0.80255202  0.80212312  0.24672917  1
  Ta  Ta116  1  0.49955271  0.50198084  0.36876457  1
  Ta  Ta117  1  0.40539953  0.40017471  0.48840658  1
  Ta  Ta118  1  0.29552995  0.30242973  0.37486062  1
  Ta  Ta119  1  0.69353135  0.49325908  0.63654461  1
  Ti  Ti120  1  0.61000471  0.20385601  -0.02049760  1
  Ti  Ti121  1  0.90016503  0.90210214  0.87946339  1
  Ti  Ti122  1  0.60617402  0.58975825  0.49557252  1
  Ti  Ti123  1  0.91469512  0.90232627  0.63405697  1
  Ti  Ti124  1  0.20557241  0.40533503  0.24142402  1
  Ti  Ti125  1  0.89521408  0.29906667  0.12114260  1
  Ti  Ti126  1  0.18407169  0.21034757  0.50543625  1
  Ti  Ti127  1  0.79680714  0.81167986  0.73716867  1
  Ti  Ti128  1  0.80130545  0.20210284  0.49371032  1
  Ti  Ti129  1  0.60510118  0.20933023  0.49118184  1
  Ti  Ti130  1  0.21811431  0.00155829  0.23702109  1
  Ti  Ti131  1  0.10279467  0.49796344  0.89501876  1
  Ti  Ti132  1  0.49968526  0.49655550  0.88091898  1
  Ti  Ti133  1  0.79910030  -0.00675434  0.74507230  1
  Ti  Ti134  1  0.30141057  0.70549045  0.12527056  1
  Ti  Ti135  1  0.61243220  0.59017121  0.25238743  1
  Ti  Ti136  1  -0.00183118  0.79972284  0.49241453  1
  Ti  Ti137  1  0.18896114  0.79761753  0.75345073  1
  Ti  Ti138  1  0.09665292  0.71023081  0.61514324  1
  Ti  Ti139  1  0.59521239  0.39220868  0.73984750  1
  Ti  Ti140  1  0.19172542  0.60274238  0.49749972  1
  Ti  Ti141  1  0.50424272  0.10375884  0.12728142  1
  Ti  Ti142  1  0.38900075  0.00193613  0.00248530  1
  Ti  Ti143  1  0.28693472  0.92424401  0.39424976  1
  Ti  Ti144  1  0.11519939  0.48182311  0.60974917  1
  Ti  Ti145  1  0.29705493  0.49919336  0.60601035  1
  Ti  Ti146  1  0.80275382  0.00383844  -0.00001606  1
  Ti  Ti147  1  0.60496962  0.40110002  0.25453857  1
  Ti  Ti148  1  0.79684011  0.00067708  0.24894211  1
  Ti  Ti149  1  0.90345285  0.70074027  0.64085260  1
  Ti  Ti150  1  0.41475775  0.22193981  0.49532847  1
  Ti  Ti151  1  0.58555218  0.80841147  0.76260619  1
  Ti  Ti152  1  0.79077867  0.38926677  0.75324838  1
  Ti  Ti153  1  0.29274913  0.69285099  0.37810755  1
  Ti  Ti154  1  0.68976017  0.48083690  0.86810634  1
  Ti  Ti155  1  0.40049968  0.59665303  0.49714900  1
  Ti  Ti156  1  0.60398110  0.20002765  0.26055866  1
  Ti  Ti157  1  0.40167636  0.21234210  0.75232484  1
  Ti  Ti158  1  0.88686613  0.70996303  0.87561098  1
  Ti  Ti159  1  0.80530656  -0.00612438  0.50552843  1
  Mo  Mo160  1  0.19773654  0.00190961  0.51746713  1
  Mo  Mo161  1  0.61495444  0.00358445  0.49878249  1
  Mo  Mo162  1  0.79604343  0.39737155  0.22930471  1
  Mo  Mo163  1  0.80504581  0.79888460  0.01617298  1
  Mo  Mo164  1  0.89956442  0.49867004  0.12762598  1
  Mo  Mo165  1  0.09984793  0.30015176  0.61545540  1
  Mo  Mo166  1  0.69726731  0.49628772  0.13930779  1
  Mo  Mo167  1  0.20444446  0.19435204  0.24748605  1
  Mo  Mo168  1  0.69531038  0.30488635  0.87815427  1
  Mo  Mo169  1  -0.00102575  -0.00810322  0.75694519  1
  Mo  Mo170  1  0.79845231  0.59631460  0.22841970  1
  Mo  Mo171  1  0.09773277  0.89080314  0.62667117  1
  Mo  Mo172  1  0.20029976  0.40249443  0.48490660  1
  Mo  Mo173  1  0.40575279  0.79980162  0.76044460  1
  Mo  Mo174  1  0.49114010  0.89947673  0.87667380  1
  Mo  Mo175  1  0.90137789  0.70415765  0.35463095  1
  Mo  Mo176  1  0.50143244  0.30191528  0.63258961  1
  Mo  Mo177  1  0.30876714  0.09399500  0.12693063  1
  Mo  Mo178  1  0.39623957  0.59574078  0.26014734  1
  Mo  Mo179  1  0.20146061  0.60049743  0.01635814  1
  Mo  Mo180  1  0.79664692  0.20026774  0.00389029  1
  Mo  Mo181  1  0.10625805  0.70254887  0.89214181  1
  Mo  Mo182  1  0.50080371  0.30285190  0.35773697  1
  Mo  Mo183  1  0.49745476  0.10798620  0.86486423  1
  Mo  Mo184  1  0.70989716  0.10205353  0.39341257  1
  Mo  Mo185  1  0.40175903  0.00343808  0.51389034  1
  Mo  Mo186  1  0.70313311  0.09960869  0.89035208  1
  Mo  Mo187  1  0.20312234  -0.00344428  0.01124481  1
  Mo  Mo188  1  0.30117313  0.30606909  0.87778995  1
  Mo  Mo189  1  0.30269236  0.49788188  0.11924662  1
  Mo  Mo190  1  0.49374058  0.69985834  0.85938752  1
  Mo  Mo191  1  -0.00149359  0.59308459  0.23384764  1
  Mo  Mo192  1  0.10758238  0.90176524  0.36035191  1
  Mo  Mo193  1  0.00040073  0.39764587  0.00944265  1
  Mo  Mo194  1  0.29936761  0.89825673  0.11366056  1
  Mo  Mo195  1  0.69907273  0.49676755  0.36486160  1
  Mo  Mo196  1  0.71176080  0.90885146  0.62110179  1
  Mo  Mo197  1  -0.00176297  0.79932871  0.24592178  1
  Mo  Mo198  1  0.59728796  0.39977469  0.00736618  1
  Mo  Mo199  1  0.00358213  0.20329614  0.77149353  1
