# generated using pymatgen
data_HfZrTaTiMo
_symmetry_space_group_name_H-M   'P 1'
_cell_length_a   15.92221753
_cell_length_b   15.93065984
_cell_length_c   15.18619456
_cell_angle_alpha   89.97171311
_cell_angle_beta   89.93106921
_cell_angle_gamma   89.96186738
_symmetry_Int_Tables_number   1
_chemical_formula_structural   HfZrTaTiMo
_chemical_formula_sum   'Hf40 Zr40 Ta40 Ti40 Mo40'
_cell_volume   3851.99587862
_cell_formula_units_Z   40
loop_
 _symmetry_equiv_pos_site_id
 _symmetry_equiv_pos_as_xyz
  1  'x, y, z'
loop_
 _atom_site_type_symbol
 _atom_site_label
 _atom_site_symmetry_multiplicity
 _atom_site_fract_x
 _atom_site_fract_y
 _atom_site_fract_z
 _atom_site_occupancy
  Hf  Hf0  1  0.79513725  0.59298671  0.50862223  1
  Hf  Hf1  1  0.10784153  0.08549496  0.37796298  1
  Hf  Hf2  1  -0.01080893  0.01000929  0.24537498  1
  Hf  Hf3  1  0.89856008  0.90182818  0.37092480  1
  Hf  Hf4  1  0.39805141  0.59912554  0.24462957  1
  Hf  Hf5  1  0.39985478  0.81144135  0.49881374  1
  Hf  Hf6  1  0.29935994  0.10340580  0.13320087  1
  Hf  Hf7  1  0.78494882  -0.00070545  0.24291984  1
  Hf  Hf8  1  0.30144501  0.70372332  0.87240856  1
  Hf  Hf9  1  0.90575371  0.29446944  0.63488415  1
  Hf  Hf10  1  0.60992048  0.81272932  0.24415844  1
  Hf  Hf11  1  0.31011963  0.90867081  0.85666188  1
  Hf  Hf12  1  0.70151849  0.69329498  0.37314420  1
  Hf  Hf13  1  0.70412422  0.50505780  0.13514020  1
  Hf  Hf14  1  0.49885564  0.71331111  0.86874555  1
  Hf  Hf15  1  0.90195136  0.67957156  0.11327913  1
  Hf  Hf16  1  0.41125863  0.19450302  0.26254174  1
  Hf  Hf17  1  0.61433832  0.41031996  -0.01132812  1
  Hf  Hf18  1  0.08408467  0.29365293  0.12279571  1
  Hf  Hf19  1  0.60933282  0.19312013  0.00974605  1
  Hf  Hf20  1  0.29447866  0.70042825  0.38688884  1
  Hf  Hf21  1  0.40403907  0.81053064  0.25511226  1
  Hf  Hf22  1  0.00008221  0.59744862  0.73695636  1
  Hf  Hf23  1  0.10873994  0.10353527  0.62179689  1
  Hf  Hf24  1  0.39798108  0.39498644  0.73654202  1
  Hf  Hf25  1  0.40833856  0.81144395  0.01725498  1
  Hf  Hf26  1  0.49860548  0.09810392  0.87449038  1
  Hf  Hf27  1  0.31018522  0.29898398  0.89091076  1
  Hf  Hf28  1  0.10001860  0.89711301  0.14147066  1
  Hf  Hf29  1  0.60988508  0.19750996  0.74055619  1
  Hf  Hf30  1  0.08478003  0.50179860  0.87761370  1
  Hf  Hf31  1  0.61095327  0.19153353  0.24343005  1
  Hf  Hf32  1  0.89037517  0.89423854  0.62451173  1
  Hf  Hf33  1  0.50370566  0.90509711  0.85890338  1
  Hf  Hf34  1  0.50107768  0.50346202  0.38030217  1
  Hf  Hf35  1  0.49446612  0.30420521  0.11304177  1
  Hf  Hf36  1  0.19967816  0.59489059  0.74434503  1
  Hf  Hf37  1  0.19380184  0.40324648  0.25450574  1
  Hf  Hf38  1  0.39826657  0.60548561  0.00500025  1
  Hf  Hf39  1  0.80019672  0.39624136  0.49897355  1
  Zr  Zr40  1  0.29912884  0.28777271  0.60816084  1
  Zr  Zr41  1  -0.00959755  0.60460782  0.26902939  1
  Zr  Zr42  1  0.20241297  0.79868662  0.73918766  1
  Zr  Zr43  1  0.60000029  0.60383133  0.74892090  1
  Zr  Zr44  1  0.30114926  0.29722308  0.11785318  1
  Zr  Zr45  1  0.50190636  0.29671903  0.87985158  1
  Zr  Zr46  1  0.61079059  0.19850815  0.50844013  1
  Zr  Zr47  1  0.79784915  0.57737009  -0.02378085  1
  Zr  Zr48  1  0.29153705  0.70706356  0.13376747  1
  Zr  Zr49  1  0.80810627  0.19035264  0.26610948  1
  Zr  Zr50  1  -0.00637421  0.59143999  0.50082696  1
  Zr  Zr51  1  0.20214501  0.80734713  0.00340420  1
  Zr  Zr52  1  -0.01275358  0.00594643  0.50401935  1
  Zr  Zr53  1  -0.00240834  0.79887181  -0.00320327  1
  Zr  Zr54  1  0.80553994  0.78930928  0.25199820  1
  Zr  Zr55  1  0.79370812  0.60238543  0.75637469  1
  Zr  Zr56  1  0.00039228  0.00161432  0.00304639  1
  Zr  Zr57  1  0.79249944  -0.00765528  0.76021687  1
  Zr  Zr58  1  0.19616907  0.20158439  0.26155028  1
  Zr  Zr59  1  0.59731348  0.00873881  0.24045551  1
  Zr  Zr60  1  0.18270279  0.39430498  0.74277418  1
  Zr  Zr61  1  0.10272976  0.70497111  0.61254612  1
  Zr  Zr62  1  0.49345572  0.09850720  0.62196945  1
  Zr  Zr63  1  0.29956635  0.50615059  0.61147387  1
  Zr  Zr64  1  0.60101803  0.60187628  0.51837858  1
  Zr  Zr65  1  0.10734553  0.90362446  0.86632075  1
  Zr  Zr66  1  0.29833310  0.50173423  0.38569509  1
  Zr  Zr67  1  0.18707481  0.39893456  -0.00503595  1
  Zr  Zr68  1  0.50953948  0.30419660  0.37810864  1
  Zr  Zr69  1  0.20446133  0.20398468  0.75317559  1
  Zr  Zr70  1  0.60840837  0.40082558  0.52469405  1
  Zr  Zr71  1  0.72398245  0.30675477  0.12163937  1
  Zr  Zr72  1  0.00044174  -0.00089577  0.74500389  1
  Zr  Zr73  1  0.50077438  0.69946086  0.37799680  1
  Zr  Zr74  1  0.40635411  0.00118981  0.01882095  1
  Zr  Zr75  1  0.48591154  0.50045393  0.87435292  1
  Zr  Zr76  1  0.80427296  -0.00403070  0.00237049  1
  Zr  Zr77  1  -0.03320307  0.39146315  -0.01357828  1
  Zr  Zr78  1  0.07703171  0.50840649  0.12039774  1
  Zr  Zr79  1  0.29767568  0.49618703  0.11999826  1
  Ta  Ta80  1  0.10994745  0.09688268  0.87162079  1
  Ta  Ta81  1  0.39256292  0.00957935  0.48869957  1
  Ta  Ta82  1  0.01153861  0.20857500  0.75895861  1
  Ta  Ta83  1  0.20275880  0.00365015  0.00956832  1
  Ta  Ta84  1  0.00254511  0.19987164  -0.01829451  1
  Ta  Ta85  1  0.18570445  0.60953041  0.00462195  1
  Ta  Ta86  1  0.79690083  0.80173683  0.48905842  1
  Ta  Ta87  1  0.70319015  0.69731924  0.11367581  1
  Ta  Ta88  1  0.70054641  0.09848640  0.88243970  1
  Ta  Ta89  1  0.60353373  0.80904715  0.50137429  1
  Ta  Ta90  1  -0.00711318  0.79826320  0.75056620  1
  Ta  Ta91  1  0.30262415  0.91157579  0.62446690  1
  Ta  Ta92  1  0.49960937  0.90259429  0.62801205  1
  Ta  Ta93  1  0.89450902  0.48690290  0.63878782  1
  Ta  Ta94  1  0.79682322  0.79857638  0.77411097  1
  Ta  Ta95  1  0.30364370  0.09532087  0.87121461  1
  Ta  Ta96  1  0.88734580  0.48465167  0.13580284  1
  Ta  Ta97  1  0.10299862  0.89702913  0.37886226  1
  Ta  Ta98  1  0.50369998  0.49989894  0.12156435  1
  Ta  Ta99  1  0.60427959  0.39833420  0.74183477  1
  Ta  Ta100  1  0.60802998  0.00186907  0.73915259  1
  Ta  Ta101  1  0.81569099  0.21116200  -0.01451901  1
  Ta  Ta102  1  0.50496407  0.91040215  0.38018909  1
  Ta  Ta103  1  0.80623041  0.19154929  0.49295935  1
  Ta  Ta104  1  0.18554738  0.60574393  0.25159172  1
  Ta  Ta105  1  0.90243174  0.10215890  0.86616461  1
  Ta  Ta106  1  0.09734547  0.69746239  0.87285192  1
  Ta  Ta107  1  0.80441572  0.39274193  0.26700686  1
  Ta  Ta108  1  0.10611805  0.90110824  0.60883338  1
  Ta  Ta109  1  0.79629805  0.79722137  -0.01530865  1
  Ta  Ta110  1  -0.00017047  0.20023009  0.49549728  1
  Ta  Ta111  1  0.60323759  -0.00624782  0.01928581  1
  Ta  Ta112  1  0.70499615  0.71565093  0.62540114  1
  Ta  Ta113  1  0.51118355  0.69942752  0.12502027  1
  Ta  Ta114  1  -0.00596903  0.79852999  0.49303075  1
  Ta  Ta115  1  0.40801289  0.39599505  0.50701189  1
  Ta  Ta116  1  0.30167074  0.30313089  0.38468059  1
  Ta  Ta117  1  0.40178765  0.39916064  0.25328767  1
  Ta  Ta118  1  0.69479950  0.49705662  0.36265975  1
  Ta  Ta119  1  0.89310170  0.70562877  0.62226778  1
  Ti  Ti120  1  0.88836188  0.10773852  0.63804008  1
  Ti  Ti121  1  0.40110385  0.19874723  0.74337097  1
  Ti  Ti122  1  0.09992173  0.10243172  0.12591999  1
  Ti  Ti123  1  0.29569405  0.90848319  0.14511475  1
  Ti  Ti124  1  0.10030821  0.30043816  0.38744623  1
  Ti  Ti125  1  0.61375133  0.80775894  0.74881752  1
  Ti  Ti126  1  0.60323218  0.60610435  -0.01087703  1
  Ti  Ti127  1  0.30390827  0.70502802  0.61074515  1
  Ti  Ti128  1  0.09669394  0.49511240  0.38040258  1
  Ti  Ti129  1  0.70037317  0.29988921  0.37522891  1
  Ti  Ti130  1  0.79100378  0.00568178  0.49221496  1
  Ti  Ti131  1  0.21078856  0.18639678  0.48951806  1
  Ti  Ti132  1  0.60357253  0.80836402  0.00686388  1
  Ti  Ti133  1  -0.00248486  0.20122128  0.26596427  1
  Ti  Ti134  1  0.89069884  0.49965286  0.37178224  1
  Ti  Ti135  1  0.40286470  0.19504280  0.48838141  1
  Ti  Ti136  1  -0.00477850  0.39413297  0.25852988  1
  Ti  Ti137  1  0.90137593  0.12199459  0.11699229  1
  Ti  Ti138  1  0.49523654  0.50511396  0.62667650  1
  Ti  Ti139  1  0.89684130  0.88820589  0.13088339  1
  Ti  Ti140  1  0.60232377  0.00264335  0.49890006  1
  Ti  Ti141  1  0.49864771  0.71138049  0.62867199  1
  Ti  Ti142  1  0.00119235  0.78875486  0.25904982  1
  Ti  Ti143  1  0.19072411  0.39657674  0.50603256  1
  Ti  Ti144  1  0.28496935  0.91697498  0.37395765  1
  Ti  Ti145  1  0.00296482  0.39883483  0.50938108  1
  Ti  Ti146  1  0.10132548  0.70441509  0.38687683  1
  Ti  Ti147  1  0.90725798  0.30109323  0.38295019  1
  Ti  Ti148  1  0.19131408  0.59586197  0.50133228  1
  Ti  Ti149  1  0.19631384  0.19259905  -0.00610413  1
  Ti  Ti150  1  0.39511118  0.60946703  0.74008557  1
  Ti  Ti151  1  0.59933729  0.39711300  0.24435060  1
  Ti  Ti152  1  0.29597931  0.50191126  0.88082460  1
  Ti  Ti153  1  0.59985191  0.60309540  0.24438628  1
  Ti  Ti154  1  0.70056337  0.90314429  0.61637680  1
  Ti  Ti155  1  0.72035326  0.29425233  0.63770117  1
  Ti  Ti156  1  0.90886412  0.69056039  0.87748183  1
  Ti  Ti157  1  0.19488559  0.79789508  0.26089640  1
  Ti  Ti158  1  0.40527718  0.00671651  0.25901217  1
  Ti  Ti159  1  0.71079682  0.29880322  0.86750605  1
  Mo  Mo160  1  0.90068212  0.89449737  0.86735314  1
  Mo  Mo161  1  0.50226384  0.09661655  0.38988137  1
  Mo  Mo162  1  0.10060362  0.29525882  0.88691008  1
  Mo  Mo163  1  0.09750972  0.29331355  0.60092533  1
  Mo  Mo164  1  0.70419383  0.49584518  0.64190943  1
  Mo  Mo165  1  0.30264961  0.09820986  0.36464928  1
  Mo  Mo166  1  0.89910656  0.69865574  0.39163442  1
  Mo  Mo167  1  0.70843370  0.09365495  0.61601537  1
  Mo  Mo168  1  0.09634414  0.70042592  0.13369763  1
  Mo  Mo169  1  0.90612800  0.29913317  0.13935682  1
  Mo  Mo170  1  0.79675933  0.39374566  -0.01970764  1
  Mo  Mo171  1  0.69651514  0.90287868  0.38921506  1
  Mo  Mo172  1  0.20066196  0.80664761  0.49342668  1
  Mo  Mo173  1  0.70667745  0.89188946  0.10924265  1
  Mo  Mo174  1  0.71332743  0.10163590  0.10473644  1
  Mo  Mo175  1  0.19593951  -0.00257676  0.24015777  1
  Mo  Mo176  1  0.20675315  -0.00052608  0.50584844  1
  Mo  Mo177  1  0.69104476  0.49423081  0.86069864  1
  Mo  Mo178  1  0.39799677  0.19397260  -0.00232660  1
  Mo  Mo179  1  0.79702507  0.59257819  0.25375968  1
  Mo  Mo180  1  0.40249873  0.40762896  0.00496921  1
  Mo  Mo181  1  0.80109330  0.19191606  0.75976795  1
  Mo  Mo182  1  0.69036530  0.90041248  0.88608419  1
  Mo  Mo183  1  0.89758690  0.49293373  0.84926179  1
  Mo  Mo184  1  0.40307862  0.00585515  0.74123905  1
  Mo  Mo185  1  0.89993256  0.29568108  0.84983203  1
  Mo  Mo186  1  0.90142195  0.09967656  0.37844855  1
  Mo  Mo187  1  0.49843283  0.10365132  0.11844596  1
  Mo  Mo188  1  -0.00578251  0.59766164  -0.00816495  1
  Mo  Mo189  1  0.00059849  0.39561222  0.74617217  1
  Mo  Mo190  1  0.40427084  0.80054321  0.72839762  1
  Mo  Mo191  1  0.40240898  0.60447562  0.51517880  1
  Mo  Mo192  1  0.50110336  0.89843872  0.14267148  1
  Mo  Mo193  1  0.79654933  0.39597030  0.75853821  1
  Mo  Mo194  1  0.49899912  0.30062449  0.62809952  1
  Mo  Mo195  1  0.20487736  0.00438787  0.73483510  1
  Mo  Mo196  1  0.68986957  0.70493042  0.88708071  1
  Mo  Mo197  1  0.69867478  0.09715235  0.39002881  1
  Mo  Mo198  1  0.09426441  0.49268413  0.61472132  1
  Mo  Mo199  1  0.30255443  0.09612563  0.63074744  1
