# generated using pymatgen
data_HfZrTaTiMo
_symmetry_space_group_name_H-M   'P 1'
_cell_length_a   15.93086512
_cell_length_b   15.92480382
_cell_length_c   15.22436987
_cell_angle_alpha   90.01921069
_cell_angle_beta   90.03737000
_cell_angle_gamma   90.21945954
_symmetry_Int_Tables_number   1
_chemical_formula_structural   HfZrTaTiMo
_chemical_formula_sum   'Hf40 Zr40 Ta40 Ti40 Mo40'
_cell_volume   3862.33086817
_cell_formula_units_Z   40
loop_
 _symmetry_equiv_pos_site_id
 _symmetry_equiv_pos_as_xyz
  1  'x, y, z'
loop_
 _atom_site_type_symbol
 _atom_site_label
 _atom_site_symmetry_multiplicity
 _atom_site_fract_x
 _atom_site_fract_y
 _atom_site_fract_z
 _atom_site_occupancy
  Hf  Hf0  1  0.40160724  0.40168804  0.24198008  1
  Hf  Hf1  1  0.50165600  0.50597492  0.86774760  1
  Hf  Hf2  1  0.51015411  0.91030174  0.37303694  1
  Hf  Hf3  1  0.68815111  0.09565419  0.37074778  1
  Hf  Hf4  1  0.40578166  0.60786590  0.01343096  1
  Hf  Hf5  1  0.19598598  -0.00367606  0.01492739  1
  Hf  Hf6  1  0.69999235  0.30178718  0.11696361  1
  Hf  Hf7  1  0.38983023  0.39476673  0.74840016  1
  Hf  Hf8  1  0.10466842  0.30614022  0.12999300  1
  Hf  Hf9  1  0.09754103  0.28830281  0.39029642  1
  Hf  Hf10  1  0.71275002  0.69694713  0.86164718  1
  Hf  Hf11  1  0.30184470  0.89856666  0.13934692  1
  Hf  Hf12  1  -0.01433541  0.17791128  0.74851835  1
  Hf  Hf13  1  0.58905783  0.19991195  0.24427903  1
  Hf  Hf14  1  0.19269354  0.59157044  0.01578765  1
  Hf  Hf15  1  0.70569295  0.70354337  0.12925293  1
  Hf  Hf16  1  0.79084586  0.40132253  0.50679486  1
  Hf  Hf17  1  -0.00048545  0.40573759  0.26001156  1
  Hf  Hf18  1  0.58711208  0.59650707  0.23279456  1
  Hf  Hf19  1  0.88940221  0.30140899  0.11684153  1
  Hf  Hf20  1  0.69615335  0.30153766  0.86679986  1
  Hf  Hf21  1  0.09756352  0.09986739  0.13330441  1
  Hf  Hf22  1  0.49632846  0.50251164  0.38268808  1
  Hf  Hf23  1  0.29235393  0.71074931  0.62163863  1
  Hf  Hf24  1  0.91743366  0.91392223  0.60654307  1
  Hf  Hf25  1  0.79632409  0.40823307  0.73206094  1
  Hf  Hf26  1  0.39490696  0.20603113  0.24035099  1
  Hf  Hf27  1  0.00416214  0.60672448  0.49725707  1
  Hf  Hf28  1  0.09213608  0.50674015  0.85426359  1
  Hf  Hf29  1  0.39926719  0.79885277  0.74984577  1
  Hf  Hf30  1  0.41233489  0.59745396  0.52357305  1
  Hf  Hf31  1  0.49600774  0.90631959  0.62047421  1
  Hf  Hf32  1  0.81032712  0.60709987  0.00366085  1
  Hf  Hf33  1  0.19552859  0.39039833  -0.01970580  1
  Hf  Hf34  1  0.48259851  0.11246594  0.63550929  1
  Hf  Hf35  1  0.20687235  0.78554914  0.02093842  1
  Hf  Hf36  1  0.00152853  0.41059609  -0.00541081  1
  Hf  Hf37  1  0.91638481  0.91669170  0.87694845  1
  Hf  Hf38  1  0.18812225  0.18869296  0.77106547  1
  Hf  Hf39  1  0.79265221  -0.00201486  0.50108247  1
  Zr  Zr40  1  0.60499864  0.79109845  -0.00001331  1
  Zr  Zr41  1  0.20550430  0.39933577  0.51119182  1
  Zr  Zr42  1  0.70099423  0.10032910  0.63867441  1
  Zr  Zr43  1  0.49446893  0.30414975  0.38700195  1
  Zr  Zr44  1  0.80070435  0.39870361  0.26903992  1
  Zr  Zr45  1  0.29707434  0.51691813  0.86371437  1
  Zr  Zr46  1  0.39070382  -0.00545995  0.76096169  1
  Zr  Zr47  1  0.59150798  0.00203258  0.76542024  1
  Zr  Zr48  1  0.38302102  0.01194696  0.49457120  1
  Zr  Zr49  1  0.19863865  0.58447028  0.25340297  1
  Zr  Zr50  1  0.10041642  0.69676665  0.88127842  1
  Zr  Zr51  1  0.09647616  0.27788864  0.61463778  1
  Zr  Zr52  1  0.49926512  0.29031842  0.86228668  1
  Zr  Zr53  1  0.90807082  0.71787993  0.86547973  1
  Zr  Zr54  1  0.03348006  0.80926243  0.72441484  1
  Zr  Zr55  1  0.30455948  0.26801926  0.61949373  1
  Zr  Zr56  1  0.40188227  0.80616470  0.49341514  1
  Zr  Zr57  1  0.91105551  0.71329304  0.14051573  1
  Zr  Zr58  1  -0.00144579  0.20099018  -0.00856487  1
  Zr  Zr59  1  0.71993243  0.11082318  0.87038143  1
  Zr  Zr60  1  0.69664510  0.50831249  0.86421590  1
  Zr  Zr61  1  0.88809981  0.29330520  0.86551236  1
  Zr  Zr62  1  0.79817246  0.59709060  0.26111060  1
  Zr  Zr63  1  0.89896347  0.71296611  0.60652725  1
  Zr  Zr64  1  0.29728144  0.48682376  0.12287456  1
  Zr  Zr65  1  0.60721984  -0.00171441  0.00071426  1
  Zr  Zr66  1  0.29670245  0.08736507  0.88198515  1
  Zr  Zr67  1  0.71974427  0.90353674  0.86526375  1
  Zr  Zr68  1  0.70536274  0.49382868  0.11603453  1
  Zr  Zr69  1  0.70826120  0.10840389  0.12577070  1
  Zr  Zr70  1  0.09856798  0.88795841  0.89933810  1
  Zr  Zr71  1  0.10331169  0.49424800  0.39121780  1
  Zr  Zr72  1  0.51768902  0.69889822  0.38040270  1
  Zr  Zr73  1  0.31137274  0.68728459  0.36578370  1
  Zr  Zr74  1  0.89775641  0.51835932  0.85781298  1
  Zr  Zr75  1  -0.01206819  0.20508689  0.26114707  1
  Zr  Zr76  1  0.59650064  0.19913884  0.50299298  1
  Zr  Zr77  1  0.79800897  -0.00213556  0.25053450  1
  Zr  Zr78  1  0.19319090  0.38682506  0.75135483  1
  Zr  Zr79  1  0.59998963  0.79855313  0.74525104  1
  Ta  Ta80  1  0.90099374  0.10129919  0.38469478  1
  Ta  Ta81  1  0.90337424  0.89925004  0.38243385  1
  Ta  Ta82  1  0.20040570  0.80291259  0.47419970  1
  Ta  Ta83  1  -0.00401234  0.39648082  0.73376053  1
  Ta  Ta84  1  0.68251203  0.50700651  0.38891909  1
  Ta  Ta85  1  0.09950457  0.50461251  0.62478027  1
  Ta  Ta86  1  -0.00091356  0.60033966  0.26535703  1
  Ta  Ta87  1  0.41678218  0.79539122  0.24633426  1
  Ta  Ta88  1  0.89432322  0.71071734  0.38063990  1
  Ta  Ta89  1  0.60745564  0.80882173  0.23976006  1
  Ta  Ta90  1  0.49864356  0.29416648  0.63598214  1
  Ta  Ta91  1  0.10873910  0.90203780  0.35249810  1
  Ta  Ta92  1  0.02397698  0.00892445  0.47803987  1
  Ta  Ta93  1  0.61533737  0.80488644  0.51680273  1
  Ta  Ta94  1  0.59450757  0.41114986  0.52505839  1
  Ta  Ta95  1  0.59244578  0.19501369  -0.00207758  1
  Ta  Ta96  1  0.29743785  0.10373739  0.12587683  1
  Ta  Ta97  1  0.39560209  0.19845886  0.00057745  1
  Ta  Ta98  1  0.19735006  0.16020601  0.48635013  1
  Ta  Ta99  1  0.29300161  0.50869501  0.63565939  1
  Ta  Ta100  1  0.59633335  0.40128686  0.24426869  1
  Ta  Ta101  1  0.49914460  0.89461850  0.11641433  1
  Ta  Ta102  1  0.20698235  0.38700632  0.26097429  1
  Ta  Ta103  1  0.49738712  0.30395808  0.11152113  1
  Ta  Ta104  1  0.68903831  0.30824215  0.38067823  1
  Ta  Ta105  1  0.00095160  0.60949434  0.72255075  1
  Ta  Ta106  1  0.08900828  0.88810463  0.13972727  1
  Ta  Ta107  1  0.07924894  0.07800637  0.88503925  1
  Ta  Ta108  1  0.39491782  0.39445656  -0.00914116  1
  Ta  Ta109  1  0.27955156  0.90269699  0.62404686  1
  Ta  Ta110  1  0.10109937  0.70214308  0.15092679  1
  Ta  Ta111  1  0.48864961  0.89168047  0.89480956  1
  Ta  Ta112  1  0.40091675  0.39971610  0.52261637  1
  Ta  Ta113  1  0.89703084  0.29016824  0.61876302  1
  Ta  Ta114  1  0.30059173  0.29176495  0.39071193  1
  Ta  Ta115  1  0.30331348  0.90212628  0.34862504  1
  Ta  Ta116  1  -0.00668760  -0.00117680  0.25283760  1
  Ta  Ta117  1  0.79871547  0.20177077  0.49645038  1
  Ta  Ta118  1  0.19642455  0.20125048  -0.00921876  1
  Ta  Ta119  1  0.80924683  0.81381588  0.01197716  1
  Ti  Ti120  1  0.59759734  -0.00188358  0.22993877  1
  Ti  Ti121  1  0.83103641  0.01762630  0.73706785  1
  Ti  Ti122  1  0.70059570  0.70436537  0.37804171  1
  Ti  Ti123  1  0.20258040  0.20329585  0.25294321  1
  Ti  Ti124  1  0.59736507  0.40597025  0.73440435  1
  Ti  Ti125  1  0.80663146  0.81504712  0.72811361  1
  Ti  Ti126  1  0.41402567  0.00889740  0.23746814  1
  Ti  Ti127  1  -0.00883001  0.39702934  0.50920238  1
  Ti  Ti128  1  0.30952841  0.69691424  0.14607945  1
  Ti  Ti129  1  0.78849613  0.60419618  0.50057662  1
  Ti  Ti130  1  0.49250141  0.10178686  0.37905913  1
  Ti  Ti131  1  0.60165629  -0.00108211  0.51058916  1
  Ti  Ti132  1  0.28579074  0.08822549  0.63807158  1
  Ti  Ti133  1  0.59801716  0.59880639  0.00726663  1
  Ti  Ti134  1  0.69923038  0.89238427  0.37892050  1
  Ti  Ti135  1  0.30034094  0.88730996  0.89160279  1
  Ti  Ti136  1  0.70676733  0.70188323  0.62413222  1
  Ti  Ti137  1  0.59238211  0.40279538  -0.00213194  1
  Ti  Ti138  1  0.59838646  0.60233496  0.72459151  1
  Ti  Ti139  1  0.20161666  0.60601892  0.49873562  1
  Ti  Ti140  1  0.89973876  0.10492279  0.12350092  1
  Ti  Ti141  1  0.01764298  0.80474342  0.48556236  1
  Ti  Ti142  1  0.89400031  0.50415849  0.39025393  1
  Ti  Ti143  1  0.30893730  0.49186333  0.38305794  1
  Ti  Ti144  1  0.49904928  0.69919419  0.87647585  1
  Ti  Ti145  1  0.81058147  0.00160722  0.01229962  1
  Ti  Ti146  1  0.18364610  -0.02229974  0.76096315  1
  Ti  Ti147  1  0.10014142  0.07558110  0.62742060  1
  Ti  Ti148  1  0.40767381  0.60867068  0.73768124  1
  Ti  Ti149  1  0.29418541  0.09123336  0.35088064  1
  Ti  Ti150  1  0.40472164  0.00237702  0.00885460  1
  Ti  Ti151  1  0.00576981  0.60452865  0.01861961  1
  Ti  Ti152  1  0.80102114  0.81199573  0.25066385  1
  Ti  Ti153  1  0.79891651  0.20860285  0.27262352  1
  Ti  Ti154  1  0.80318477  0.40625622  -0.01287291  1
  Ti  Ti155  1  0.89629533  0.50905839  0.62011114  1
  Ti  Ti156  1  0.18999373  0.62130131  0.73719668  1
  Ti  Ti157  1  0.30198984  0.70397208  0.87402367  1
  Ti  Ti158  1  0.90501569  0.50173525  0.13044624  1
  Ti  Ti159  1  0.69373639  0.29311947  0.63360208  1
  Mo  Mo160  1  0.20366859  -0.00844307  0.47861139  1
  Mo  Mo161  1  0.10079374  0.70067112  0.37303383  1
  Mo  Mo162  1  0.79693345  0.20000175  0.00277511  1
  Mo  Mo163  1  0.49658971  0.49926318  0.64215002  1
  Mo  Mo164  1  0.21190929  0.80260469  0.75981784  1
  Mo  Mo165  1  -0.00136360  0.80106526  0.27212883  1
  Mo  Mo166  1  0.11376246  0.90142701  0.60214907  1
  Mo  Mo167  1  0.80190974  0.20172123  0.72773793  1
  Mo  Mo168  1  0.09065525  0.49958118  0.13534196  1
  Mo  Mo169  1  0.80320741  0.61110177  0.72767621  1
  Mo  Mo170  1  -0.00646285  -0.00414524  0.03048783  1
  Mo  Mo171  1  0.00147586  0.19011385  0.49831927  1
  Mo  Mo172  1  0.20175625  0.00169948  0.23947806  1
  Mo  Mo173  1  0.69867432  0.50964898  0.62091252  1
  Mo  Mo174  1  0.59675168  0.20198978  0.75162487  1
  Mo  Mo175  1  0.40500669  0.59562613  0.23696515  1
  Mo  Mo176  1  0.00884790  -0.00096692  0.74116596  1
  Mo  Mo177  1  0.70340115  0.89984743  0.12390557  1
  Mo  Mo178  1  0.20537281  0.79486420  0.25346710  1
  Mo  Mo179  1  0.39846430  0.79589733  0.00675737  1
  Mo  Mo180  1  0.60632595  0.60554808  0.51525745  1
  Mo  Mo181  1  0.70650278  0.90237528  0.63127886  1
  Mo  Mo182  1  0.89745567  0.09202738  0.88809258  1
  Mo  Mo183  1  0.50446951  0.70529146  0.62191750  1
  Mo  Mo184  1  0.29570298  0.29293289  0.11061833  1
  Mo  Mo185  1  0.10284213  0.09690560  0.34993891  1
  Mo  Mo186  1  0.39301544  0.19198861  0.76990776  1
  Mo  Mo187  1  0.11057650  0.70426207  0.60076357  1
  Mo  Mo188  1  0.50113180  0.70160597  0.12937361  1
  Mo  Mo189  1  0.49523996  0.09896843  0.11414709  1
  Mo  Mo190  1  0.90207232  0.90395240  0.13188817  1
  Mo  Mo191  1  0.49865038  0.09474906  0.89026135  1
  Mo  Mo192  1  0.09056047  0.29607176  0.86139933  1
  Mo  Mo193  1  0.29789012  0.29200234  0.88213301  1
  Mo  Mo194  1  0.89506944  0.30298699  0.40030402  1
  Mo  Mo195  1  0.00040044  0.79429463  0.01524574  1
  Mo  Mo196  1  0.79557953  0.80476999  0.49502219  1
  Mo  Mo197  1  0.39165072  0.19426816  0.48834305  1
  Mo  Mo198  1  0.90994167  0.10030928  0.59827825  1
  Mo  Mo199  1  0.50126375  0.49161763  0.10622448  1
