# generated using pymatgen
data_HfZrTaTiMo
_symmetry_space_group_name_H-M   'P 1'
_cell_length_a   15.95199310
_cell_length_b   15.95041539
_cell_length_c   15.16306185
_cell_angle_alpha   90.10517308
_cell_angle_beta   89.96543010
_cell_angle_gamma   90.18694025
_symmetry_Int_Tables_number   1
_chemical_formula_structural   HfZrTaTiMo
_chemical_formula_sum   'Hf40 Zr40 Ta40 Ti40 Mo40'
_cell_volume   3858.07562607
_cell_formula_units_Z   40
loop_
 _symmetry_equiv_pos_site_id
 _symmetry_equiv_pos_as_xyz
  1  'x, y, z'
loop_
 _atom_site_type_symbol
 _atom_site_label
 _atom_site_symmetry_multiplicity
 _atom_site_fract_x
 _atom_site_fract_y
 _atom_site_fract_z
 _atom_site_occupancy
  Hf  Hf0  1  0.09910024  0.70042096  0.63444673  1
  Hf  Hf1  1  0.40626550  -0.00393587  0.73503697  1
  Hf  Hf2  1  0.69951818  0.10992158  0.86304707  1
  Hf  Hf3  1  0.68977825  0.89928237  0.10787597  1
  Hf  Hf4  1  0.00668982  0.40119466  0.75601620  1
  Hf  Hf5  1  -0.00032479  0.80901106  0.25418381  1
  Hf  Hf6  1  0.70672272  0.70391975  0.88296884  1
  Hf  Hf7  1  0.89665943  0.90877379  0.12038216  1
  Hf  Hf8  1  -0.00722429  0.18538781  0.49512225  1
  Hf  Hf9  1  0.40089499  0.00318004  0.26635138  1
  Hf  Hf10  1  0.09653338  0.50060696  0.61822589  1
  Hf  Hf11  1  0.50411736  0.49913323  0.36159227  1
  Hf  Hf12  1  0.79073695  0.79942749  0.24746239  1
  Hf  Hf13  1  0.40568844  0.20825655  0.73216742  1
  Hf  Hf14  1  0.21687143  0.57987454  0.00710504  1
  Hf  Hf15  1  0.78983542  -0.00591146  0.74335832  1
  Hf  Hf16  1  0.09550160  0.30086722  0.11615736  1
  Hf  Hf17  1  0.69019398  0.30738926  0.87626400  1
  Hf  Hf18  1  0.10606741  0.69439283  0.12888877  1
  Hf  Hf19  1  0.39898495  0.78930794  0.51361055  1
  Hf  Hf20  1  0.00452108  0.80854757  -0.00354478  1
  Hf  Hf21  1  0.10350696  0.89495306  0.63474963  1
  Hf  Hf22  1  0.50844565  0.49166973  0.86122208  1
  Hf  Hf23  1  0.89667343  0.69851513  0.37068106  1
  Hf  Hf24  1  0.29589168  0.49922982  0.62724882  1
  Hf  Hf25  1  0.79766382  0.00813585  -0.00993604  1
  Hf  Hf26  1  0.79112438  0.40098198  0.49613077  1
  Hf  Hf27  1  0.69462668  0.29757316  0.12482374  1
  Hf  Hf28  1  0.60390960  0.19224157  0.50841462  1
  Hf  Hf29  1  0.31100349  0.69722007  0.87759169  1
  Hf  Hf30  1  0.20457954  0.61712583  0.49498947  1
  Hf  Hf31  1  0.49725468  0.70791064  0.36571725  1
  Hf  Hf32  1  0.40485117  0.19843515  0.48986505  1
  Hf  Hf33  1  0.40731559  0.00180969  0.50440223  1
  Hf  Hf34  1  0.59646407  0.58752949  0.01482730  1
  Hf  Hf35  1  0.49730856  0.09793849  0.12361471  1
  Hf  Hf36  1  0.18889628  -0.00019149  0.48833397  1
  Hf  Hf37  1  0.39880474  0.40862787  0.00884223  1
  Hf  Hf38  1  0.60475761  0.60569486  0.23720798  1
  Hf  Hf39  1  0.60123113  0.59665912  0.49815010  1
  Zr  Zr40  1  -0.00041410  0.00091811  0.49227993  1
  Zr  Zr41  1  0.10508877  0.29400065  0.61719023  1
  Zr  Zr42  1  0.20525436  0.40090763  0.47831232  1
  Zr  Zr43  1  0.30670656  0.10913008  0.87208731  1
  Zr  Zr44  1  0.00266381  0.01295235  -0.02092212  1
  Zr  Zr45  1  0.60613688  0.81953297  0.75545467  1
  Zr  Zr46  1  0.69252878  0.50660720  0.64108107  1
  Zr  Zr47  1  0.50136547  0.29816246  0.12770608  1
  Zr  Zr48  1  0.40689473  0.59642484  0.00709197  1
  Zr  Zr49  1  0.90270764  0.69625326  0.11628049  1
  Zr  Zr50  1  0.09892707  0.51538241  0.36437605  1
  Zr  Zr51  1  0.28419709  0.10618766  0.61944519  1
  Zr  Zr52  1  0.19464032  0.00138320  0.75867845  1
  Zr  Zr53  1  0.09632278  0.29580615  0.88541291  1
  Zr  Zr54  1  0.19716807  0.00590957  -0.01283465  1
  Zr  Zr55  1  0.70106988  0.50461169  0.86631217  1
  Zr  Zr56  1  0.40320067  0.59124083  0.21781396  1
  Zr  Zr57  1  0.80134429  0.59999850  0.50039218  1
  Zr  Zr58  1  0.90718949  0.89222186  0.63165448  1
  Zr  Zr59  1  0.29706792  0.88319632  0.38214546  1
  Zr  Zr60  1  -0.00795811  0.39417260  0.48214624  1
  Zr  Zr61  1  0.59845254  0.19920323  0.27207656  1
  Zr  Zr62  1  0.10061332  0.10418203  0.13372819  1
  Zr  Zr63  1  0.01067840  0.79722382  0.48724938  1
  Zr  Zr64  1  0.89024865  0.89097814  0.87183854  1
  Zr  Zr65  1  0.20192050  0.39696789  0.25434726  1
  Zr  Zr66  1  -0.00006904  0.20448431  0.26821780  1
  Zr  Zr67  1  0.21094586  0.20207204  0.26906289  1
  Zr  Zr68  1  0.40184518  0.59791833  0.50669958  1
  Zr  Zr69  1  0.10625864  0.91217911  0.13523507  1
  Zr  Zr70  1  0.40409739  0.80458189  0.74590698  1
  Zr  Zr71  1  0.09310428  0.49715702  0.12395437  1
  Zr  Zr72  1  0.80192324  0.39434891  0.73952012  1
  Zr  Zr73  1  0.20891666  0.80563602  0.00241682  1
  Zr  Zr74  1  0.79249562  0.00459728  0.25566448  1
  Zr  Zr75  1  0.80074938  0.01739346  0.51539831  1
  Zr  Zr76  1  0.09672158  0.69051752  0.89087998  1
  Zr  Zr77  1  0.89175044  0.29389773  0.87690980  1
  Zr  Zr78  1  0.68989286  0.90672657  0.39030311  1
  Zr  Zr79  1  0.19784764  0.58762760  0.76778562  1
  Ta  Ta80  1  0.30164489  0.69617236  0.35087079  1
  Ta  Ta81  1  0.89636285  0.30064011  0.12653942  1
  Ta  Ta82  1  0.59767656  0.39688354  0.49648818  1
  Ta  Ta83  1  0.40754825  0.39993664  0.49958265  1
  Ta  Ta84  1  0.29548413  0.30288340  0.61422139  1
  Ta  Ta85  1  0.39919661  0.38332209  0.26259583  1
  Ta  Ta86  1  0.31183091  0.90492057  0.88139869  1
  Ta  Ta87  1  -0.00356944  0.00355158  0.27142424  1
  Ta  Ta88  1  0.69361796  0.10084903  0.12087832  1
  Ta  Ta89  1  0.20556510  0.39489593  0.76178474  1
  Ta  Ta90  1  0.59532814  0.00132282  -0.02036900  1
  Ta  Ta91  1  0.40420818  0.59376879  0.74891735  1
  Ta  Ta92  1  0.20332318  0.20184803  -0.00371490  1
  Ta  Ta93  1  0.89518566  0.10756985  0.13602320  1
  Ta  Ta94  1  0.89244703  0.50271332  0.36035893  1
  Ta  Ta95  1  0.89209043  0.69108495  0.88522817  1
  Ta  Ta96  1  -0.00352961  0.59561606  0.76457300  1
  Ta  Ta97  1  0.89476240  0.50333979  0.87995248  1
  Ta  Ta98  1  0.49987542  0.10407106  0.86671576  1
  Ta  Ta99  1  -0.00834242  0.39329310  0.26154826  1
  Ta  Ta100  1  0.59988966  0.79644419  0.51510487  1
  Ta  Ta101  1  0.70331576  0.70004216  0.63705017  1
  Ta  Ta102  1  0.50879748  0.69923374  0.87379483  1
  Ta  Ta103  1  0.40071765  0.39695423  0.73552230  1
  Ta  Ta104  1  0.59609591  0.00206697  0.74040640  1
  Ta  Ta105  1  0.51096652  0.69149021  0.64151581  1
  Ta  Ta106  1  0.50006845  0.90741456  0.11206414  1
  Ta  Ta107  1  0.79111510  0.39332546  0.25915017  1
  Ta  Ta108  1  0.89558027  0.49164566  0.13525298  1
  Ta  Ta109  1  0.59798997  0.20269668  0.73214121  1
  Ta  Ta110  1  0.79654992  0.79785693  0.51091563  1
  Ta  Ta111  1  0.79714975  0.58996654  0.01874407  1
  Ta  Ta112  1  0.59761479  0.19588298  -0.00644876  1
  Ta  Ta113  1  0.79633970  0.40272868  0.00864108  1
  Ta  Ta114  1  0.11722783  0.70935767  0.35594394  1
  Ta  Ta115  1  0.30420918  0.10342285  0.12319937  1
  Ta  Ta116  1  0.69587824  0.70404402  0.37597394  1
  Ta  Ta117  1  0.90415877  0.50675007  0.63067384  1
  Ta  Ta118  1  0.79123246  0.59678683  0.24206159  1
  Ta  Ta119  1  0.50064230  0.29891815  0.87756107  1
  Ti  Ti120  1  0.00245166  0.79380035  0.76674616  1
  Ti  Ti121  1  0.58829916  0.38603502  0.72275932  1
  Ti  Ti122  1  0.40998690  0.80863336  -0.00465889  1
  Ti  Ti123  1  0.71559443  0.11546413  0.38136770  1
  Ti  Ti124  1  0.20907639  0.39767120  -0.00694055  1
  Ti  Ti125  1  0.31311214  0.91637663  0.11538751  1
  Ti  Ti126  1  0.30111760  0.29328088  0.12345950  1
  Ti  Ti127  1  0.89707754  0.10996619  0.85807041  1
  Ti  Ti128  1  0.88907784  0.89989873  0.38197678  1
  Ti  Ti129  1  0.29226866  0.70221166  0.64171723  1
  Ti  Ti130  1  0.90070581  0.29842962  0.61884886  1
  Ti  Ti131  1  0.69052633  0.48199227  0.13492476  1
  Ti  Ti132  1  0.30540817  0.50899337  0.36152350  1
  Ti  Ti133  1  0.30864809  0.30395190  0.87290238  1
  Ti  Ti134  1  0.59595203  0.00117451  0.25498281  1
  Ti  Ti135  1  0.51049564  0.72287649  0.11389716  1
  Ti  Ti136  1  0.40637358  0.80988219  0.23841092  1
  Ti  Ti137  1  -0.00612352  0.19418335  -0.00072330  1
  Ti  Ti138  1  0.21111757  0.80939289  0.23710428  1
  Ti  Ti139  1  0.19315977  0.19561131  0.47928288  1
  Ti  Ti140  1  0.19984465  0.80333650  0.77032567  1
  Ti  Ti141  1  0.19408407  0.20399823  0.75585430  1
  Ti  Ti142  1  -0.00465760  0.60094650  0.24873702  1
  Ti  Ti143  1  0.20434791  0.00594439  0.26707528  1
  Ti  Ti144  1  0.30639127  0.70947086  0.12512543  1
  Ti  Ti145  1  0.79983339  0.79697599  0.74368531  1
  Ti  Ti146  1  0.28938223  0.89090311  0.61943994  1
  Ti  Ti147  1  0.79464726  0.19905210  0.72283104  1
  Ti  Ti148  1  0.00214420  0.00755628  0.75409566  1
  Ti  Ti149  1  0.87424372  0.28225440  0.37356619  1
  Ti  Ti150  1  0.59775121  0.80980963  0.24904522  1
  Ti  Ti151  1  0.50665022  0.89999298  0.38781241  1
  Ti  Ti152  1  0.79960950  0.19935510  0.00591844  1
  Ti  Ti153  1  0.69952716  0.70951761  0.11013634  1
  Ti  Ti154  1  0.39970042  0.19434798  0.27542593  1
  Ti  Ti155  1  0.00236035  0.19672768  0.74040641  1
  Ti  Ti156  1  -0.00965526  0.40612712  -0.00415753  1
  Ti  Ti157  1  0.90401948  0.69380643  0.63450665  1
  Ti  Ti158  1  -0.00113409  0.60269569  0.49356295  1
  Ti  Ti159  1  0.40000725  0.20163013  -0.00297661  1
  Mo  Mo160  1  0.40141643  0.00605258  -0.00090478  1
  Mo  Mo161  1  0.89045038  0.10076042  0.36385597  1
  Mo  Mo162  1  0.81001479  0.60776708  0.74588499  1
  Mo  Mo163  1  0.49903317  0.49949617  0.63251239  1
  Mo  Mo164  1  0.49978009  0.09900424  0.63503519  1
  Mo  Mo165  1  0.30103843  0.47862057  0.13873009  1
  Mo  Mo166  1  0.49766776  0.30250974  0.60801548  1
  Mo  Mo167  1  0.70104472  0.30051701  0.38731464  1
  Mo  Mo168  1  0.59554609  0.80161147  -0.01110130  1
  Mo  Mo169  1  0.09695238  0.49114059  0.89149057  1
  Mo  Mo170  1  0.59854949  -0.00115409  0.51932205  1
  Mo  Mo171  1  0.30669214  0.48877780  0.86224099  1
  Mo  Mo172  1  0.60143016  0.60815428  0.75600096  1
  Mo  Mo173  1  0.09557297  0.10150384  0.63852204  1
  Mo  Mo174  1  0.79592961  0.20142926  0.23741804  1
  Mo  Mo175  1  0.10088949  0.89791439  0.86064326  1
  Mo  Mo176  1  0.50317287  0.89670590  0.61133428  1
  Mo  Mo177  1  0.09346254  0.11069899  0.86480409  1
  Mo  Mo178  1  0.20333613  0.79507834  0.50188219  1
  Mo  Mo179  1  0.10022469  0.09681110  0.36482540  1
  Mo  Mo180  1  0.90548605  0.10267283  0.64551599  1
  Mo  Mo181  1  0.50189433  0.30012837  0.38401836  1
  Mo  Mo182  1  0.70049745  0.50355673  0.36226637  1
  Mo  Mo183  1  0.59967414  0.39574004  -0.00262025  1
  Mo  Mo184  1  0.79901245  0.79672419  0.00735590  1
  Mo  Mo185  1  0.30312838  0.09580101  0.38194035  1
  Mo  Mo186  1  0.80262859  0.20432416  0.51910655  1
  Mo  Mo187  1  0.60385990  0.39699256  0.27279426  1
  Mo  Mo188  1  0.10536370  0.89474695  0.35902679  1
  Mo  Mo189  1  0.49624656  0.90513469  0.88645900  1
  Mo  Mo190  1  0.51199177  0.08691206  0.37352022  1
  Mo  Mo191  1  0.69961052  0.89649168  0.61480144  1
  Mo  Mo192  1  0.69878630  0.09898847  0.63497591  1
  Mo  Mo193  1  0.50925241  0.47745579  0.14214025  1
  Mo  Mo194  1  -0.00625398  0.58905827  -0.00611616  1
  Mo  Mo195  1  0.20752456  0.60578661  0.23678133  1
  Mo  Mo196  1  0.69683277  0.90201275  0.88493975  1
  Mo  Mo197  1  0.09541648  0.29977138  0.38446228  1
  Mo  Mo198  1  0.30543157  0.30092357  0.38891638  1
  Mo  Mo199  1  0.69980607  0.29959038  0.61325261  1
