# generated using pymatgen
data_HfZrTaTiMo
_symmetry_space_group_name_H-M   'P 1'
_cell_length_a   15.93729308
_cell_length_b   15.94316147
_cell_length_c   15.21138038
_cell_angle_alpha   90.00782142
_cell_angle_beta   89.98557722
_cell_angle_gamma   90.01299501
_symmetry_Int_Tables_number   1
_chemical_formula_structural   HfZrTaTiMo
_chemical_formula_sum   'Hf40 Zr40 Ta40 Ti40 Mo40'
_cell_volume   3865.07211450
_cell_formula_units_Z   40
loop_
 _symmetry_equiv_pos_site_id
 _symmetry_equiv_pos_as_xyz
  1  'x, y, z'
loop_
 _atom_site_type_symbol
 _atom_site_label
 _atom_site_symmetry_multiplicity
 _atom_site_fract_x
 _atom_site_fract_y
 _atom_site_fract_z
 _atom_site_occupancy
  Hf  Hf0  1  0.40987934  0.80147352  0.26677767  1
  Hf  Hf1  1  0.30066298  0.09815559  0.36001336  1
  Hf  Hf2  1  0.49132525  0.28485655  0.36849155  1
  Hf  Hf3  1  0.60076597  0.17002562  0.01483727  1
  Hf  Hf4  1  0.79383766  -0.00621764  0.50521154  1
  Hf  Hf5  1  -0.00504084  0.80642847  0.73711172  1
  Hf  Hf6  1  0.00870171  -0.00748176  0.74946265  1
  Hf  Hf7  1  0.79935655  -0.01104091  0.25563538  1
  Hf  Hf8  1  0.60012054  0.40143485  0.01206346  1
  Hf  Hf9  1  0.00351870  0.60305151  0.75081797  1
  Hf  Hf10  1  0.30014116  0.49619652  0.62275334  1
  Hf  Hf11  1  0.49226439  0.29383505  0.13915713  1
  Hf  Hf12  1  0.79278607  0.20007505  0.50796921  1
  Hf  Hf13  1  0.19504080  0.80217289  0.25550658  1
  Hf  Hf14  1  0.79062540  0.20420424  0.73778094  1
  Hf  Hf15  1  0.79881613  0.79770415  -0.01935791  1
  Hf  Hf16  1  0.20209065  0.20818200  0.01783962  1
  Hf  Hf17  1  -0.00159062  0.20521972  0.74969284  1
  Hf  Hf18  1  0.69647088  0.29252475  0.36653570  1
  Hf  Hf19  1  0.01620687  0.20802845  0.26209115  1
  Hf  Hf20  1  0.30683498  0.69301761  0.13151893  1
  Hf  Hf21  1  0.49425542  0.30122509  0.60031071  1
  Hf  Hf22  1  0.19785135  0.39558643  0.48904417  1
  Hf  Hf23  1  0.89879880  0.90284384  0.11145119  1
  Hf  Hf24  1  0.51062298  0.69309855  0.39268444  1
  Hf  Hf25  1  0.69993176  0.50281512  0.85695489  1
  Hf  Hf26  1  -0.00116368  0.00184985  0.26638760  1
  Hf  Hf27  1  0.61762894  0.59728892  0.24728782  1
  Hf  Hf28  1  0.59377044  0.19864891  0.73723036  1
  Hf  Hf29  1  0.49942264  0.50206342  0.60670179  1
  Hf  Hf30  1  0.19494820  0.60269901  0.26382380  1
  Hf  Hf31  1  0.59761077  0.40615316  0.25207023  1
  Hf  Hf32  1  0.30070399  0.89982681  0.87299931  1
  Hf  Hf33  1  0.39838079  0.39316837  0.75020877  1
  Hf  Hf34  1  0.11533265  0.70598111  0.86320174  1
  Hf  Hf35  1  0.70293306  0.29351757  0.13493632  1
  Hf  Hf36  1  0.88913884  0.10218286  0.87507096  1
  Hf  Hf37  1  0.17955549  0.39044329  0.25902917  1
  Hf  Hf38  1  0.79260091  0.42464773  0.25114946  1
  Hf  Hf39  1  0.60838918  0.60381142  0.00227482  1
  Zr  Zr40  1  0.00487704  0.80461778  0.25991656  1
  Zr  Zr41  1  0.69718498  0.28386474  0.88879800  1
  Zr  Zr42  1  0.59489286  0.79835616  0.73519197  1
  Zr  Zr43  1  0.30250552  0.71068474  0.61494784  1
  Zr  Zr44  1  0.80003620  0.40133747  0.49891763  1
  Zr  Zr45  1  0.80861571  0.80199473  0.53527010  1
  Zr  Zr46  1  0.90173159  0.09849985  0.62695612  1
  Zr  Zr47  1  0.80427099  0.38826174  0.74896990  1
  Zr  Zr48  1  0.09303515  0.50603172  0.12575403  1
  Zr  Zr49  1  0.90317643  0.51494788  0.12876642  1
  Zr  Zr50  1  0.49285939  0.50428496  0.38806842  1
  Zr  Zr51  1  0.60000942  0.38830652  0.74386131  1
  Zr  Zr52  1  0.89843804  0.30205572  0.37103332  1
  Zr  Zr53  1  0.20907338  0.00368122  0.00450942  1
  Zr  Zr54  1  0.39364134  0.19793529  0.73501032  1
  Zr  Zr55  1  0.90689840  0.49455654  0.62671139  1
  Zr  Zr56  1  0.00008913  0.80126959  -0.03020942  1
  Zr  Zr57  1  0.71516704  0.70569397  0.13165392  1
  Zr  Zr58  1  0.71831666  0.69400781  0.39172549  1
  Zr  Zr59  1  0.39513347  0.19107603  0.01459594  1
  Zr  Zr60  1  0.69131879  0.90198452  0.11867524  1
  Zr  Zr61  1  0.30617484  0.69401364  0.38982393  1
  Zr  Zr62  1  0.80894711  0.60338394  -0.01456784  1
  Zr  Zr63  1  0.50728684  0.89601880  0.11643689  1
  Zr  Zr64  1  0.80117574  0.40396354  0.00040888  1
  Zr  Zr65  1  0.08183858  0.10444879  0.11469987  1
  Zr  Zr66  1  0.08259656  0.51262816  0.38557942  1
  Zr  Zr67  1  0.48213499  0.07719101  0.61722562  1
  Zr  Zr68  1  0.38934139  0.39894169  0.00122143  1
  Zr  Zr69  1  0.31148236  0.90510318  0.13472162  1
  Zr  Zr70  1  0.10671494  0.30112501  0.87224215  1
  Zr  Zr71  1  0.09239444  0.90116563  0.11017964  1
  Zr  Zr72  1  0.49779148  0.50156840  0.87622863  1
  Zr  Zr73  1  0.09869368  0.09987949  0.88442011  1
  Zr  Zr74  1  0.69464633  0.09365790  0.36974595  1
  Zr  Zr75  1  0.48293909  0.51189020  0.13272817  1
  Zr  Zr76  1  0.20449276  0.00441970  0.73971198  1
  Zr  Zr77  1  0.91410478  0.29829333  0.12350707  1
  Zr  Zr78  1  0.40608966  0.61125299  0.74807858  1
  Zr  Zr79  1  0.50556078  0.70739359  0.12361283  1
  Ta  Ta80  1  0.91252665  0.70600234  0.12376500  1
  Ta  Ta81  1  0.40584775  0.00728009  -0.00566869  1
  Ta  Ta82  1  0.50264021  0.89881527  0.88469262  1
  Ta  Ta83  1  0.11051324  0.10168614  0.38511188  1
  Ta  Ta84  1  0.29478192  0.30123640  0.14803910  1
  Ta  Ta85  1  0.10674007  0.70582610  0.61787539  1
  Ta  Ta86  1  0.09939646  0.69795126  0.11125664  1
  Ta  Ta87  1  0.31212001  0.91888140  0.60901845  1
  Ta  Ta88  1  0.00347896  0.60361518  -0.02235068  1
  Ta  Ta89  1  0.00307797  -0.00114773  0.50486715  1
  Ta  Ta90  1  0.90496137  0.89340111  0.39495755  1
  Ta  Ta91  1  0.29665808  0.90584604  0.38435410  1
  Ta  Ta92  1  0.09934300  0.30606429  0.62344141  1
  Ta  Ta93  1  0.69387468  0.90221530  0.86709941  1
  Ta  Ta94  1  0.49489377  0.07857666  0.15120796  1
  Ta  Ta95  1  0.78206074  0.00933332  -0.00198890  1
  Ta  Ta96  1  0.61134614  0.80929441  0.27449727  1
  Ta  Ta97  1  0.69859634  0.50166695  0.62203803  1
  Ta  Ta98  1  0.90946340  0.70056881  0.39859221  1
  Ta  Ta99  1  0.20015042  0.40440900  0.01047825  1
  Ta  Ta100  1  0.49890822  0.09251417  0.86487356  1
  Ta  Ta101  1  0.20736374  0.79498315  -0.00035396  1
  Ta  Ta102  1  0.00659527  0.20132862  0.49906810  1
  Ta  Ta103  1  0.29016075  0.49793331  0.86393493  1
  Ta  Ta104  1  0.09969098  0.71175615  0.40548259  1
  Ta  Ta105  1  0.20180682  0.60139263  0.74206460  1
  Ta  Ta106  1  0.69959134  0.70194447  0.85456122  1
  Ta  Ta107  1  0.68720073  0.08967727  0.62520089  1
  Ta  Ta108  1  0.40429734  0.81625606  0.73971628  1
  Ta  Ta109  1  0.30298069  0.10775314  0.86568137  1
  Ta  Ta110  1  0.29481075  0.30066488  0.86978334  1
  Ta  Ta111  1  0.49528828  0.28672670  0.88606656  1
  Ta  Ta112  1  0.80932456  0.18413571  0.24106360  1
  Ta  Ta113  1  0.00203011  0.40322752  -0.01407302  1
  Ta  Ta114  1  0.59625991  -0.01399797  0.49365615  1
  Ta  Ta115  1  0.29448415  0.50181670  0.14075016  1
  Ta  Ta116  1  0.38771846  0.19378312  0.49743139  1
  Ta  Ta117  1  0.10877356  0.49860577  0.86801158  1
  Ta  Ta118  1  0.20591629  0.59842041  -0.00748930  1
  Ta  Ta119  1  0.20532769  0.20189986  0.51006525  1
  Ti  Ti120  1  0.38169613  0.39297881  0.48364702  1
  Ti  Ti121  1  0.20161023  0.59433621  0.50311134  1
  Ti  Ti122  1  0.10896364  0.90589278  0.39767259  1
  Ti  Ti123  1  0.59516025  0.60092348  0.73900084  1
  Ti  Ti124  1  0.00223363  0.39589722  0.75787688  1
  Ti  Ti125  1  0.38617758  0.40680314  0.26509434  1
  Ti  Ti126  1  0.88987599  0.52277341  0.38277063  1
  Ti  Ti127  1  0.10320611  0.49528543  0.63044683  1
  Ti  Ti128  1  0.61095483  0.80743688  0.50691609  1
  Ti  Ti129  1  0.28926298  0.28519137  0.35924525  1
  Ti  Ti130  1  0.81165691  0.79607800  0.26129962  1
  Ti  Ti131  1  0.40768742  0.81237881  0.49769873  1
  Ti  Ti132  1  0.89150703  0.90893327  0.87019058  1
  Ti  Ti133  1  0.60663091  0.39382592  0.49415039  1
  Ti  Ti134  1  0.90702773  0.30140621  0.61644509  1
  Ti  Ti135  1  0.58623091  -0.01268275  0.73852266  1
  Ti  Ti136  1  0.90054020  0.09337207  0.11168006  1
  Ti  Ti137  1  0.39124660  0.60266946  -0.01155720  1
  Ti  Ti138  1  0.39836865  0.79587011  -0.00629913  1
  Ti  Ti139  1  -0.00390316  0.60816206  0.52179130  1
  Ti  Ti140  1  0.49949797  0.69942936  0.60567577  1
  Ti  Ti141  1  0.79623676  -0.01393046  0.73516370  1
  Ti  Ti142  1  -0.00264155  0.61793822  0.25925633  1
  Ti  Ti143  1  0.70033705  0.51382008  0.39819318  1
  Ti  Ti144  1  0.69127224  0.08716696  0.85647946  1
  Ti  Ti145  1  0.80746054  0.60787027  0.74088278  1
  Ti  Ti146  1  0.00116697  0.39701306  0.49347275  1
  Ti  Ti147  1  0.90345629  0.49811659  0.86599642  1
  Ti  Ti148  1  -0.00415026  0.40640221  0.26041274  1
  Ti  Ti149  1  0.59281719  0.18685545  0.49816432  1
  Ti  Ti150  1  0.10442225  0.09997600  0.61483065  1
  Ti  Ti151  1  0.19378721  0.00243709  0.24329852  1
  Ti  Ti152  1  0.59906138  0.18250441  0.24506828  1
  Ti  Ti153  1  0.19885728  0.81415325  0.73612664  1
  Ti  Ti154  1  0.20320665  0.20709672  0.73133130  1
  Ti  Ti155  1  0.50351329  0.70753431  0.87801805  1
  Ti  Ti156  1  0.30310314  0.70402786  0.86356030  1
  Ti  Ti157  1  0.90223735  0.09981893  0.38471596  1
  Ti  Ti158  1  0.79946310  0.19438660  0.01118669  1
  Ti  Ti159  1  0.70251585  0.69370087  0.63004456  1
  Mo  Mo160  1  0.90371546  0.90641628  0.62631676  1
  Mo  Mo161  1  0.30281583  0.09832871  0.14778390  1
  Mo  Mo162  1  0.20486883  0.80972450  0.50374059  1
  Mo  Mo163  1  0.70001138  0.09244592  0.13972895  1
  Mo  Mo164  1  0.40070381  -0.00592303  0.76450005  1
  Mo  Mo165  1  0.19580371  0.19529727  0.23904509  1
  Mo  Mo166  1  0.10804138  0.89802681  0.88199109  1
  Mo  Mo167  1  0.29632269  0.49767977  0.37132153  1
  Mo  Mo168  1  -0.01489533  0.00017070  -0.02184652  1
  Mo  Mo169  1  0.09698192  0.30863673  0.11180625  1
  Mo  Mo170  1  0.80598284  0.60117576  0.52457465  1
  Mo  Mo171  1  0.69284410  0.90498822  0.63777996  1
  Mo  Mo172  1  0.20204892  0.00886063  0.50654757  1
  Mo  Mo173  1  0.09933822  0.29462999  0.39393852  1
  Mo  Mo174  1  0.69999814  0.50331949  0.12646007  1
  Mo  Mo175  1  0.68994849  0.29407505  0.60415428  1
  Mo  Mo176  1  0.81713971  0.61282248  0.25692097  1
  Mo  Mo177  1  0.40500166  -0.00715238  0.26678475  1
  Mo  Mo178  1  0.40026567  0.00281932  0.47880627  1
  Mo  Mo179  1  0.00567179  0.80583944  0.51373410  1
  Mo  Mo180  1  0.29593347  0.30135455  0.62074335  1
  Mo  Mo181  1  0.39781520  0.59905939  0.50705078  1
  Mo  Mo182  1  0.59873961  0.00072889  -0.01262415  1
  Mo  Mo183  1  -0.01145463  0.20699323  -0.01065642  1
  Mo  Mo184  1  0.59659664  -0.01099819  0.27222601  1
  Mo  Mo185  1  0.70830190  0.89065478  0.38121619  1
  Mo  Mo186  1  0.39955049  0.59592574  0.25898891  1
  Mo  Mo187  1  0.29568161  0.10052050  0.62391118  1
  Mo  Mo188  1  0.90214577  0.29714821  0.88612979  1
  Mo  Mo189  1  0.39851007  0.19679010  0.24574187  1
  Mo  Mo190  1  0.60402515  0.79561869  -0.02382958  1
  Mo  Mo191  1  0.60654056  0.60368869  0.51817760  1
  Mo  Mo192  1  0.49853881  0.09421792  0.37239325  1
  Mo  Mo193  1  0.10787825  0.90175243  0.60721844  1
  Mo  Mo194  1  0.90458649  0.69812573  0.63078475  1
  Mo  Mo195  1  0.50328543  0.89539877  0.38865075  1
  Mo  Mo196  1  0.79971474  0.80191620  0.75224020  1
  Mo  Mo197  1  0.49582024  0.89363507  0.60810627  1
  Mo  Mo198  1  0.19777550  0.40027359  0.74025678  1
  Mo  Mo199  1  0.89544434  0.69933470  0.85096692  1
