# generated using pymatgen
data_HfZrTaTiMo
_symmetry_space_group_name_H-M   'P 1'
_cell_length_a   15.92437860
_cell_length_b   15.92327030
_cell_length_c   15.19528891
_cell_angle_alpha   89.92525317
_cell_angle_beta   90.04988151
_cell_angle_gamma   90.04557121
_symmetry_Int_Tables_number   1
_chemical_formula_structural   HfZrTaTiMo
_chemical_formula_sum   'Hf40 Zr40 Ta40 Ti40 Mo40'
_cell_volume   3853.03587536
_cell_formula_units_Z   40
loop_
 _symmetry_equiv_pos_site_id
 _symmetry_equiv_pos_as_xyz
  1  'x, y, z'
loop_
 _atom_site_type_symbol
 _atom_site_label
 _atom_site_symmetry_multiplicity
 _atom_site_fract_x
 _atom_site_fract_y
 _atom_site_fract_z
 _atom_site_occupancy
  Hf  Hf0  1  0.69459223  0.49320333  0.87782061  1
  Hf  Hf1  1  0.78986735  0.80344500  0.00100532  1
  Hf  Hf2  1  0.89045387  0.29859116  0.88230884  1
  Hf  Hf3  1  0.09680844  0.09983352  0.13199986  1
  Hf  Hf4  1  0.79509435  0.20692001  0.24645787  1
  Hf  Hf5  1  0.29394872  0.89367223  0.13490780  1
  Hf  Hf6  1  0.59172600  0.79300060  0.01030212  1
  Hf  Hf7  1  0.51013516  0.90233076  0.87445554  1
  Hf  Hf8  1  0.39611438  0.20504009  0.00079309  1
  Hf  Hf9  1  0.50831925  0.48824083  0.36998467  1
  Hf  Hf10  1  0.30104025  0.30039605  0.39114929  1
  Hf  Hf11  1  0.19619753  0.79597061  0.26514189  1
  Hf  Hf12  1  0.41622005  0.00484439  0.02324248  1
  Hf  Hf13  1  0.10089093  0.90482091  0.85844834  1
  Hf  Hf14  1  0.89804782  0.30313242  0.10430537  1
  Hf  Hf15  1  0.00539197  0.80397125  0.00150645  1
  Hf  Hf16  1  0.20124326  0.21287421  0.23778083  1
  Hf  Hf17  1  0.20299023  0.21215512  0.77373032  1
  Hf  Hf18  1  0.19230574  0.80962307  0.50290397  1
  Hf  Hf19  1  0.10128338  0.69380657  0.13022640  1
  Hf  Hf20  1  0.20102582  0.60103641  0.27245598  1
  Hf  Hf21  1  0.39968857  0.39507028  0.24286227  1
  Hf  Hf22  1  0.89537376  0.09893270  0.12108156  1
  Hf  Hf23  1  0.09527061  0.31019918  0.10840739  1
  Hf  Hf24  1  0.60176757  0.39148966  0.22742275  1
  Hf  Hf25  1  0.40570231  0.40708348  0.52078042  1
  Hf  Hf26  1  0.20069785  0.59831454  0.50735476  1
  Hf  Hf27  1  0.31436263  0.69142502  0.13449028  1
  Hf  Hf28  1  0.20031287  0.20187259  -0.01248013  1
  Hf  Hf29  1  0.68793040  0.70169106  0.86621549  1
  Hf  Hf30  1  0.39952858  0.81241333  0.74046376  1
  Hf  Hf31  1  0.00662138  0.60568165  -0.02592954  1
  Hf  Hf32  1  0.30318933  0.70607602  0.61907159  1
  Hf  Hf33  1  0.90313352  0.29651909  0.64344796  1
  Hf  Hf34  1  0.10546735  0.50182233  0.11718667  1
  Hf  Hf35  1  0.29617375  0.10873527  0.37740994  1
  Hf  Hf36  1  0.00019135  0.39978926  0.26175609  1
  Hf  Hf37  1  0.10934861  0.09783717  0.36128662  1
  Hf  Hf38  1  0.69078451  0.88264538  0.59979739  1
  Hf  Hf39  1  0.59013941  0.18995231  0.01808721  1
  Zr  Zr40  1  0.89246422  0.91716904  0.88791480  1
  Zr  Zr41  1  0.19916754  0.78684440  -0.00605302  1
  Zr  Zr42  1  0.88985797  0.69263368  0.60700783  1
  Zr  Zr43  1  0.68896213  0.68700909  0.14070698  1
  Zr  Zr44  1  0.69733045  0.10218126  0.60590344  1
  Zr  Zr45  1  0.19122259  -0.00539126  0.01087412  1
  Zr  Zr46  1  0.50135449  0.88468666  0.14719123  1
  Zr  Zr47  1  0.30533312  0.90315140  0.87422432  1
  Zr  Zr48  1  0.79114339  0.80359911  0.74921762  1
  Zr  Zr49  1  0.80677472  -0.00992437  0.48330755  1
  Zr  Zr50  1  0.40700999  0.20593942  0.23008805  1
  Zr  Zr51  1  0.01237038  0.19715711  0.49293630  1
  Zr  Zr52  1  0.49855052  0.53077188  0.13886266  1
  Zr  Zr53  1  0.60688058  0.19302943  0.75088534  1
  Zr  Zr54  1  0.90826253  0.09998405  0.63879168  1
  Zr  Zr55  1  0.70821619  0.50688781  0.62100616  1
  Zr  Zr56  1  0.90273867  0.50113365  0.11322201  1
  Zr  Zr57  1  0.40534966  0.60454038  0.49832374  1
  Zr  Zr58  1  0.81727016  0.20208566  0.48320734  1
  Zr  Zr59  1  0.51727700  0.71334292  0.62700063  1
  Zr  Zr60  1  0.89566988  0.69636932  0.13037428  1
  Zr  Zr61  1  0.10429898  0.49268265  0.39194126  1
  Zr  Zr62  1  -0.00126062  -0.00316513  0.49956690  1
  Zr  Zr63  1  0.69721586  0.29664102  0.88981406  1
  Zr  Zr64  1  0.39401934  0.60687557  -0.02001435  1
  Zr  Zr65  1  0.19788589  0.01089360  0.51755458  1
  Zr  Zr66  1  0.60384944  0.60277069  0.49319065  1
  Zr  Zr67  1  0.50384211  0.09314701  0.86719872  1
  Zr  Zr68  1  0.40588672  0.41269516  -0.00127331  1
  Zr  Zr69  1  0.49655550  0.10780034  0.37532064  1
  Zr  Zr70  1  0.21075923  0.40281034  -0.03350979  1
  Zr  Zr71  1  0.00244817  0.39215508  0.50395526  1
  Zr  Zr72  1  -0.01007263  0.80410996  0.74108356  1
  Zr  Zr73  1  0.80609633  0.40156786  0.49685897  1
  Zr  Zr74  1  0.67998943  0.30266643  0.39080631  1
  Zr  Zr75  1  0.69168555  0.10218340  0.37200812  1
  Zr  Zr76  1  0.80137784  0.40106138  0.25633504  1
  Zr  Zr77  1  0.30579216  0.08703284  0.86321375  1
  Zr  Zr78  1  0.70571418  0.07353513  0.89851653  1
  Zr  Zr79  1  0.79655633  -0.00780230  0.73762112  1
  Ta  Ta80  1  0.58873952  -0.00805360  0.48934035  1
  Ta  Ta81  1  0.39413869  0.19639079  0.52208216  1
  Ta  Ta82  1  0.50556015  0.31045513  0.87657685  1
  Ta  Ta83  1  0.79757775  0.79815853  0.47369097  1
  Ta  Ta84  1  0.39678235  -0.00031197  0.50629411  1
  Ta  Ta85  1  0.40180187  0.60016439  0.74400178  1
  Ta  Ta86  1  -0.00242362  0.20973383  0.25452190  1
  Ta  Ta87  1  0.10157457  0.30087904  0.64692106  1
  Ta  Ta88  1  0.29371534  0.31346273  0.11514126  1
  Ta  Ta89  1  0.80541519  0.59288900  0.26566502  1
  Ta  Ta90  1  0.29277606  0.91152450  0.37780703  1
  Ta  Ta91  1  0.50711631  0.29671981  0.62305957  1
  Ta  Ta92  1  0.90571188  0.50382062  0.62928014  1
  Ta  Ta93  1  0.08846057  0.09143979  0.86247567  1
  Ta  Ta94  1  0.40219929  0.80734708  0.48420292  1
  Ta  Ta95  1  0.10185823  0.10891395  0.65285193  1
  Ta  Ta96  1  0.29328090  0.50474168  0.13465480  1
  Ta  Ta97  1  -0.00201051  0.60508987  0.75180646  1
  Ta  Ta98  1  0.09648012  0.90435181  0.36527001  1
  Ta  Ta99  1  0.50020072  0.70283735  0.85702240  1
  Ta  Ta100  1  0.60297232  -0.01564908  0.73485100  1
  Ta  Ta101  1  0.09755324  0.49931938  0.63644363  1
  Ta  Ta102  1  0.79881036  0.40164065  0.75172975  1
  Ta  Ta103  1  0.00025086  0.59822525  0.26455813  1
  Ta  Ta104  1  0.79973266  -0.00901065  0.25575020  1
  Ta  Ta105  1  0.80074272  0.60053085  -0.01590387  1
  Ta  Ta106  1  0.30516533  0.49490556  0.37800040  1
  Ta  Ta107  1  0.10440167  0.50283126  0.85464029  1
  Ta  Ta108  1  0.50385457  0.49974129  0.85785348  1
  Ta  Ta109  1  0.00353478  0.19474252  -0.01318518  1
  Ta  Ta110  1  0.19741539  0.80482006  0.73379017  1
  Ta  Ta111  1  0.39520091  -0.00087950  0.25459578  1
  Ta  Ta112  1  0.59799522  0.20526437  0.22873430  1
  Ta  Ta113  1  0.89799388  0.89546997  0.13632018  1
  Ta  Ta114  1  0.70125617  0.29947501  0.61926578  1
  Ta  Ta115  1  0.30151615  0.30041374  0.63995046  1
  Ta  Ta116  1  0.39457561  0.79431565  0.27708880  1
  Ta  Ta117  1  0.49913127  0.29558910  0.39502482  1
  Ta  Ta118  1  0.19739030  0.60978532  0.74614784  1
  Ta  Ta119  1  0.29711396  0.49691783  0.64114591  1
  Ti  Ti120  1  0.29997278  0.10037086  0.64315927  1
  Ti  Ti121  1  0.89607221  0.09818559  0.88458712  1
  Ti  Ti122  1  0.08895578  0.69903718  0.61876298  1
  Ti  Ti123  1  0.59078109  0.80246284  0.46177063  1
  Ti  Ti124  1  0.00181348  -0.00436857  0.01159069  1
  Ti  Ti125  1  -0.00869251  0.81094831  0.49882024  1
  Ti  Ti126  1  0.90700216  0.09721950  0.35620503  1
  Ti  Ti127  1  0.69866065  0.08511464  0.12626161  1
  Ti  Ti128  1  0.70134728  0.88963377  0.14814349  1
  Ti  Ti129  1  0.09139643  0.91288589  0.63761981  1
  Ti  Ti130  1  0.20462793  0.59848265  -0.02397987  1
  Ti  Ti131  1  0.49921907  0.09599771  0.62640304  1
  Ti  Ti132  1  0.89669710  0.70687555  0.87318830  1
  Ti  Ti133  1  0.29814844  0.70501601  0.85687168  1
  Ti  Ti134  1  0.11284318  0.29478325  0.38343366  1
  Ti  Ti135  1  0.69975502  0.49975754  0.38036989  1
  Ti  Ti136  1  0.40252641  0.79273772  -0.00271914  1
  Ti  Ti137  1  0.50493397  0.68656090  0.34860723  1
  Ti  Ti138  1  0.80484387  0.59668205  0.76100995  1
  Ti  Ti139  1  -0.00253086  0.79688482  0.25599905  1
  Ti  Ti140  1  0.00033812  -0.00716559  0.24560580  1
  Ti  Ti141  1  0.70742737  0.30628820  0.09805495  1
  Ti  Ti142  1  0.40763172  0.20553460  0.75018898  1
  Ti  Ti143  1  0.59786173  -0.00456846  0.25663375  1
  Ti  Ti144  1  0.00194401  0.40882636  -0.02655295  1
  Ti  Ti145  1  0.08702255  0.69900697  0.39138700  1
  Ti  Ti146  1  0.70425934  0.69894238  0.61792492  1
  Ti  Ti147  1  0.49844208  0.90182634  0.61563005  1
  Ti  Ti148  1  0.20332110  0.39332245  0.51987662  1
  Ti  Ti149  1  0.29647704  0.09841668  0.13071752  1
  Ti  Ti150  1  0.70590865  0.50078642  0.11127601  1
  Ti  Ti151  1  0.59057815  0.59860867  -0.00658161  1
  Ti  Ti152  1  0.90518556  0.51034945  0.39381529  1
  Ti  Ti153  1  -0.00308674  0.40270450  0.76095549  1
  Ti  Ti154  1  0.79492098  0.19566682  0.75699576  1
  Ti  Ti155  1  0.60066175  0.59783729  0.74064975  1
  Ti  Ti156  1  0.60102865  0.39886486  0.73601518  1
  Ti  Ti157  1  0.70218357  0.69846950  0.36027247  1
  Ti  Ti158  1  0.90291757  0.69741454  0.37788277  1
  Ti  Ti159  1  0.20032308  0.40077773  0.25327326  1
  Mo  Mo160  1  0.90585115  0.29892755  0.36672513  1
  Mo  Mo161  1  0.20249404  0.20794617  0.52712349  1
  Mo  Mo162  1  0.59091729  0.19516147  0.51410271  1
  Mo  Mo163  1  0.60031567  0.79488530  0.26339243  1
  Mo  Mo164  1  0.68987883  0.90119741  0.88479383  1
  Mo  Mo165  1  0.50244573  0.30699605  0.10490256  1
  Mo  Mo166  1  0.89895831  0.50400356  0.86023905  1
  Mo  Mo167  1  0.20163038  0.40502598  0.74997995  1
  Mo  Mo168  1  -0.00548702  0.00153545  0.74540254  1
  Mo  Mo169  1  0.08928545  0.30350234  0.87202070  1
  Mo  Mo170  1  0.40616534  0.00107577  0.72501276  1
  Mo  Mo171  1  0.80357352  0.79557676  0.26153172  1
  Mo  Mo172  1  0.60077018  0.80354269  0.74638980  1
  Mo  Mo173  1  0.10395013  0.70321311  0.85811702  1
  Mo  Mo174  1  0.60661628  -0.01407027  0.02683635  1
  Mo  Mo175  1  0.20155864  0.00027783  0.73833052  1
  Mo  Mo176  1  0.00172377  0.60327996  0.50531800  1
  Mo  Mo177  1  0.50366492  0.49981230  0.64265334  1
  Mo  Mo178  1  0.30172143  0.90384949  0.61216067  1
  Mo  Mo179  1  0.59708662  0.40960962  0.01050310  1
  Mo  Mo180  1  0.69484902  0.89520357  0.36672042  1
  Mo  Mo181  1  0.49319459  0.90478903  0.37032533  1
  Mo  Mo182  1  0.90465765  0.89270000  0.35730743  1
  Mo  Mo183  1  0.32305838  0.30536085  0.85814143  1
  Mo  Mo184  1  0.49484486  0.69977759  0.14640263  1
  Mo  Mo185  1  0.29722976  0.70289439  0.39221097  1
  Mo  Mo186  1  0.79887992  0.19279359  0.01110488  1
  Mo  Mo187  1  0.89541339  0.89311249  0.60620917  1
  Mo  Mo188  1  0.80132550  0.60513764  0.48081876  1
  Mo  Mo189  1  0.20111005  -0.00152588  0.24426184  1
  Mo  Mo190  1  0.39210545  0.59675503  0.27143919  1
  Mo  Mo191  1  -0.00359241  0.20207790  0.77275269  1
  Mo  Mo192  1  0.80041256  0.41067284  -0.01000299  1
  Mo  Mo193  1  0.61486968  0.58870756  0.26299192  1
  Mo  Mo194  1  0.30291190  0.50679126  0.84853312  1
  Mo  Mo195  1  0.09085514  0.89530442  0.14486129  1
  Mo  Mo196  1  0.79885039  -0.01070812  0.03192301  1
  Mo  Mo197  1  0.59842280  0.39924050  0.51621411  1
  Mo  Mo198  1  0.50364831  0.09326273  0.14253964  1
  Mo  Mo199  1  0.40932272  0.39880267  0.74529493  1
