# generated using pymatgen
data_HfZrTaTiMo
_symmetry_space_group_name_H-M   'P 1'
_cell_length_a   15.92527306
_cell_length_b   15.92931873
_cell_length_c   15.19978578
_cell_angle_alpha   90.05131216
_cell_angle_beta   90.09827965
_cell_angle_gamma   89.98448000
_symmetry_Int_Tables_number   1
_chemical_formula_structural   HfZrTaTiMo
_chemical_formula_sum   'Hf40 Zr40 Ta40 Ti40 Mo40'
_cell_volume   3855.85530600
_cell_formula_units_Z   40
loop_
 _symmetry_equiv_pos_site_id
 _symmetry_equiv_pos_as_xyz
  1  'x, y, z'
loop_
 _atom_site_type_symbol
 _atom_site_label
 _atom_site_symmetry_multiplicity
 _atom_site_fract_x
 _atom_site_fract_y
 _atom_site_fract_z
 _atom_site_occupancy
  Hf  Hf0  1  0.59125840  0.20160636  0.75241844  1
  Hf  Hf1  1  0.49035969  0.29918759  0.87452746  1
  Hf  Hf2  1  0.59944050  0.18855823  0.23813484  1
  Hf  Hf3  1  0.68736918  0.90905783  0.35629484  1
  Hf  Hf4  1  0.79156892  0.58690299  0.23334355  1
  Hf  Hf5  1  0.70336983  0.29459997  0.63412670  1
  Hf  Hf6  1  0.38827204  0.62297639  0.00156262  1
  Hf  Hf7  1  0.28960168  0.29222197  0.14438177  1
  Hf  Hf8  1  0.29948405  0.10009049  0.62488569  1
  Hf  Hf9  1  0.90440704  0.69245905  0.86113808  1
  Hf  Hf10  1  0.10708159  0.10309746  0.36964413  1
  Hf  Hf11  1  0.39012491  -0.00842005  0.00641433  1
  Hf  Hf12  1  0.29680912  0.29501892  0.86143568  1
  Hf  Hf13  1  0.49899756  0.70819765  0.63068573  1
  Hf  Hf14  1  0.19565190  -0.01325491  0.74702823  1
  Hf  Hf15  1  0.79506282  0.79201553  -0.00977037  1
  Hf  Hf16  1  -0.00312760  0.20319179  0.51096227  1
  Hf  Hf17  1  0.70521451  0.49847444  0.86415908  1
  Hf  Hf18  1  0.39677121  -0.00082636  0.75912573  1
  Hf  Hf19  1  0.29066380  0.10686807  0.87985008  1
  Hf  Hf20  1  0.80798410  0.39358773  -0.01448342  1
  Hf  Hf21  1  -0.00702323  0.40288411  0.27228605  1
  Hf  Hf22  1  0.09624450  0.49831853  0.11565919  1
  Hf  Hf23  1  0.29481668  0.49994898  0.87686788  1
  Hf  Hf24  1  0.39984804  0.40883718  0.25101028  1
  Hf  Hf25  1  0.69978098  0.70832535  0.63363258  1
  Hf  Hf26  1  0.59681283  0.00212548  0.50672064  1
  Hf  Hf27  1  0.09751309  0.29083446  0.36841546  1
  Hf  Hf28  1  0.41667396  0.80000144  0.27607641  1
  Hf  Hf29  1  0.59504884  0.38943481  0.51192954  1
  Hf  Hf30  1  0.50374205  0.29322823  0.36754945  1
  Hf  Hf31  1  0.69727749  0.09897478  0.37595921  1
  Hf  Hf32  1  0.70192395  0.90082102  0.64670557  1
  Hf  Hf33  1  0.79731085  0.60188936  0.00373038  1
  Hf  Hf34  1  0.49757291  0.50963911  0.12238167  1
  Hf  Hf35  1  0.00213977  0.21286361  -0.00571135  1
  Hf  Hf36  1  0.29891120  0.72134008  0.86251991  1
  Hf  Hf37  1  0.60483082  0.61252391  -0.00929337  1
  Hf  Hf38  1  0.60435869  0.40286788  0.00376715  1
  Hf  Hf39  1  0.31999919  0.09637473  0.37632472  1
  Zr  Zr40  1  0.80286546  0.81135669  0.50045385  1
  Zr  Zr41  1  0.88857373  0.90783651  0.36950558  1
  Zr  Zr42  1  0.79752006  -0.01121289  -0.00968896  1
  Zr  Zr43  1  0.70108743  0.10205175  0.87434497  1
  Zr  Zr44  1  0.10601211  0.10221940  0.11812048  1
  Zr  Zr45  1  0.90581729  0.29737878  0.13584511  1
  Zr  Zr46  1  0.59648803  0.60298688  0.75545631  1
  Zr  Zr47  1  0.79061929  0.00496432  0.22384739  1
  Zr  Zr48  1  0.59598357  0.61649866  0.24673668  1
  Zr  Zr49  1  0.58616011  0.80634341  0.48155952  1
  Zr  Zr50  1  0.70736402  0.30255608  0.12586326  1
  Zr  Zr51  1  0.00304703  0.59859435  0.25911908  1
  Zr  Zr52  1  0.09422613  0.49802795  0.87958392  1
  Zr  Zr53  1  0.19930525  0.42592103  0.26682670  1
  Zr  Zr54  1  0.69493711  0.49711918  0.38775356  1
  Zr  Zr55  1  0.70222445  0.69558480  0.38472211  1
  Zr  Zr56  1  0.79541111  0.78559695  0.23776524  1
  Zr  Zr57  1  0.49399639  0.50477055  0.38136348  1
  Zr  Zr58  1  -0.00835176  0.00066403  0.50271993  1
  Zr  Zr59  1  0.50250676  0.72476193  0.11735790  1
  Zr  Zr60  1  0.29961056  0.29234721  0.37039220  1
  Zr  Zr61  1  0.90124185  0.48944100  0.11883849  1
  Zr  Zr62  1  0.90661939  0.71169864  0.63200029  1
  Zr  Zr63  1  0.21820083  0.79342931  0.01871756  1
  Zr  Zr64  1  0.80328250  0.19629996  0.51014194  1
  Zr  Zr65  1  0.19643068  0.61252888  0.73778100  1
  Zr  Zr66  1  0.00445056  -0.00448614  0.24969933  1
  Zr  Zr67  1  0.20851053  0.79851427  0.49049537  1
  Zr  Zr68  1  0.89981426  0.11183903  0.36390800  1
  Zr  Zr69  1  0.02422588  0.80214109  0.75989083  1
  Zr  Zr70  1  0.10800911  0.89820040  0.12285041  1
  Zr  Zr71  1  0.49942726  0.09910179  0.63277427  1
  Zr  Zr72  1  -0.00078965  0.59302771  0.50004154  1
  Zr  Zr73  1  0.10379382  0.09941637  0.87740213  1
  Zr  Zr74  1  0.39028569  0.39937016  0.01442398  1
  Zr  Zr75  1  0.10441940  0.29612183  0.85719891  1
  Zr  Zr76  1  0.90764229  0.89126504  0.11982141  1
  Zr  Zr77  1  0.48644008  0.50108628  0.87265844  1
  Zr  Zr78  1  0.19471247  0.41114804  0.72995332  1
  Zr  Zr79  1  0.48472065  0.88025516  0.88014317  1
  Ta  Ta80  1  0.39372329  0.39901159  0.50521534  1
  Ta  Ta81  1  0.00961974  0.79120188  -0.01278122  1
  Ta  Ta82  1  0.29534267  0.09203866  0.13019888  1
  Ta  Ta83  1  0.19477609  0.40286990  0.49981716  1
  Ta  Ta84  1  0.40939349  0.20437475  0.50755642  1
  Ta  Ta85  1  0.30229764  0.68704580  0.37549153  1
  Ta  Ta86  1  0.80470803  0.59488369  0.73834203  1
  Ta  Ta87  1  0.20036764  -0.00039028  0.49294083  1
  Ta  Ta88  1  0.49218453  0.10357733  0.88500060  1
  Ta  Ta89  1  0.00902151  0.79493404  0.26979143  1
  Ta  Ta90  1  0.90338251  0.10167460  0.11070769  1
  Ta  Ta91  1  0.30510468  0.90338065  0.61109595  1
  Ta  Ta92  1  0.10042108  0.29967569  0.14083005  1
  Ta  Ta93  1  0.80657179  0.39373434  0.50398009  1
  Ta  Ta94  1  0.88800953  0.49883462  0.38410111  1
  Ta  Ta95  1  0.59416522  0.39916062  0.74226727  1
  Ta  Ta96  1  0.10964985  0.68968355  0.37985337  1
  Ta  Ta97  1  0.80521916  0.20133791  -0.01238371  1
  Ta  Ta98  1  0.39569809  0.60679596  0.51039097  1
  Ta  Ta99  1  0.59794420  -0.00554941  0.77095909  1
  Ta  Ta100  1  0.39603813  0.19893289  0.01505090  1
  Ta  Ta101  1  0.30035299  0.29649500  0.62770212  1
  Ta  Ta102  1  0.19994103  0.20141687  0.50882242  1
  Ta  Ta103  1  0.00135197  -0.00968202  -0.01557650  1
  Ta  Ta104  1  0.59643009  -0.00686853  -0.00316971  1
  Ta  Ta105  1  0.10586994  0.70252704  0.60763432  1
  Ta  Ta106  1  0.00118837  0.60709393  -0.00241412  1
  Ta  Ta107  1  0.20836896  -0.00893615  0.26323226  1
  Ta  Ta108  1  0.90667156  0.49707294  0.86490102  1
  Ta  Ta109  1  0.19294525  0.38744582  0.00569129  1
  Ta  Ta110  1  0.09883255  0.89816375  0.61107305  1
  Ta  Ta111  1  0.20474467  0.79758954  0.26397272  1
  Ta  Ta112  1  0.80138934  0.59279717  0.52083500  1
  Ta  Ta113  1  0.40480630  0.80519080  0.49240633  1
  Ta  Ta114  1  0.49530048  0.50133314  0.62387687  1
  Ta  Ta115  1  0.69875740  0.10091587  0.10465814  1
  Ta  Ta116  1  0.00363492  0.80116062  0.48395211  1
  Ta  Ta117  1  0.70526904  0.29769184  0.37077859  1
  Ta  Ta118  1  0.60891258  0.40702638  0.24154151  1
  Ta  Ta119  1  0.70551405  0.09261427  0.64033085  1
  Ti  Ti120  1  0.91276472  0.69987781  0.12358960  1
  Ti  Ti121  1  0.69855009  0.30001253  0.86751693  1
  Ti  Ti122  1  0.69906869  0.49636760  0.62748585  1
  Ti  Ti123  1  0.89729832  0.89621609  0.86219690  1
  Ti  Ti124  1  0.80677929  0.19847178  0.75900798  1
  Ti  Ti125  1  -0.00377024  0.39465327  0.49705284  1
  Ti  Ti126  1  0.00987251  0.59316380  0.73834144  1
  Ti  Ti127  1  0.59938129  0.19951775  0.50583493  1
  Ti  Ti128  1  0.90380409  0.30171478  0.63996497  1
  Ti  Ti129  1  0.10008387  0.09561860  0.62672105  1
  Ti  Ti130  1  0.39390847  0.60386290  0.74316098  1
  Ti  Ti131  1  0.68037607  0.88654527  0.12869254  1
  Ti  Ti132  1  0.31127930  0.90809154  0.37991089  1
  Ti  Ti133  1  0.59600723  0.20213159  0.00021420  1
  Ti  Ti134  1  0.41157787  0.18214814  0.23731070  1
  Ti  Ti135  1  0.60893765  0.79694504  -0.02326919  1
  Ti  Ti136  1  0.90462385  0.09737552  0.87233811  1
  Ti  Ti137  1  0.31041457  0.89343936  0.14539287  1
  Ti  Ti138  1  0.50201320  0.90771196  0.13418063  1
  Ti  Ti139  1  0.00192568  0.19423424  0.74240236  1
  Ti  Ti140  1  0.59693870  0.60075365  0.51113432  1
  Ti  Ti141  1  0.38859842  0.80373298  0.73503774  1
  Ti  Ti142  1  0.91027899  0.30581836  0.85776489  1
  Ti  Ti143  1  0.50194257  0.89989518  0.63599145  1
  Ti  Ti144  1  0.28796198  0.51358734  0.11902246  1
  Ti  Ti145  1  0.89489644  0.69324486  0.37925817  1
  Ti  Ti146  1  0.40135187  0.39960250  0.73237405  1
  Ti  Ti147  1  0.29812194  0.50489303  0.61476075  1
  Ti  Ti148  1  0.09731437  0.30186224  0.62749799  1
  Ti  Ti149  1  0.80209927  0.39976466  0.74677963  1
  Ti  Ti150  1  0.00307927  -0.00411857  0.75614517  1
  Ti  Ti151  1  0.89827202  0.90362716  0.63805244  1
  Ti  Ti152  1  0.80109164  0.20051808  0.24342574  1
  Ti  Ti153  1  0.12391792  0.89039712  0.88748288  1
  Ti  Ti154  1  0.19393573  0.61029225  -0.00183151  1
  Ti  Ti155  1  0.50047313  0.30020721  0.12867335  1
  Ti  Ti156  1  0.10538520  0.69717417  0.13853335  1
  Ti  Ti157  1  0.90647728  0.48951946  0.63064938  1
  Ti  Ti158  1  0.38836314  0.60040635  0.25147080  1
  Ti  Ti159  1  0.89334444  0.08799086  0.64214139  1
  Mo  Mo160  1  0.79506751  0.00337398  0.52157202  1
  Mo  Mo161  1  0.49307558  0.70249234  0.86433880  1
  Mo  Mo162  1  0.80278418  0.79934207  0.76166304  1
  Mo  Mo163  1  0.20238128  0.18899388  0.24768756  1
  Mo  Mo164  1  0.09815543  0.49836887  0.39478900  1
  Mo  Mo165  1  0.30424511  0.70742468  0.62323906  1
  Mo  Mo166  1  0.29382430  0.90281151  0.87280259  1
  Mo  Mo167  1  0.00335899  0.39960602  -0.01206118  1
  Mo  Mo168  1  0.09465598  0.49741465  0.61168890  1
  Mo  Mo169  1  0.59582809  0.80115535  0.76340705  1
  Mo  Mo170  1  0.20132460  0.60464956  0.25079209  1
  Mo  Mo171  1  0.59573584  0.80875007  0.26022889  1
  Mo  Mo172  1  0.39573907  0.20412172  0.74630300  1
  Mo  Mo173  1  -0.00193016  0.19783686  0.24040237  1
  Mo  Mo174  1  0.49536006  0.68878307  0.39046542  1
  Mo  Mo175  1  0.10565553  0.89805787  0.38164183  1
  Mo  Mo176  1  0.19326216  0.19648440  0.72357490  1
  Mo  Mo177  1  0.50238031  0.10082000  0.10042557  1
  Mo  Mo178  1  0.49056746  0.93922846  0.36355012  1
  Mo  Mo179  1  0.40489180  -0.00288123  0.50927245  1
  Mo  Mo180  1  0.50338185  0.10472470  0.38219497  1
  Mo  Mo181  1  0.69632683  0.50067601  0.11978596  1
  Mo  Mo182  1  0.69754702  0.89583246  0.86479528  1
  Mo  Mo183  1  0.79502671  0.39759044  0.26939673  1
  Mo  Mo184  1  0.69752418  0.70696405  0.12058497  1
  Mo  Mo185  1  0.29787665  0.50526201  0.39675161  1
  Mo  Mo186  1  0.20447467  0.20509126  0.01731001  1
  Mo  Mo187  1  0.89246839  0.30202262  0.37158328  1
  Mo  Mo188  1  0.20356455  -0.00552448  -0.00103606  1
  Mo  Mo189  1  0.39944520  0.80492080  0.01303375  1
  Mo  Mo190  1  0.80814594  0.00037605  0.75735866  1
  Mo  Mo191  1  0.49442144  0.30237061  0.62760884  1
  Mo  Mo192  1  0.10465009  0.69863414  0.87947069  1
  Mo  Mo193  1  0.20379925  0.80547906  0.72760461  1
  Mo  Mo194  1  0.40369024  0.00293835  0.23535370  1
  Mo  Mo195  1  -0.00509764  0.40112892  0.73918619  1
  Mo  Mo196  1  0.20452310  0.59656247  0.50983830  1
  Mo  Mo197  1  0.29955566  0.69967495  0.15266071  1
  Mo  Mo198  1  0.70463140  0.70093573  0.85404685  1
  Mo  Mo199  1  0.59403059  0.00836954  0.22481681  1
