# generated using pymatgen
data_HfZrTaTiMo
_symmetry_space_group_name_H-M   'P 1'
_cell_length_a   15.95366642
_cell_length_b   15.93552367
_cell_length_c   15.16279348
_cell_angle_alpha   89.97661830
_cell_angle_beta   89.96722706
_cell_angle_gamma   90.13824967
_symmetry_Int_Tables_number   1
_chemical_formula_structural   HfZrTaTiMo
_chemical_formula_sum   'Hf40 Zr40 Ta40 Ti40 Mo40'
_cell_volume   3854.82524789
_cell_formula_units_Z   40
loop_
 _symmetry_equiv_pos_site_id
 _symmetry_equiv_pos_as_xyz
  1  'x, y, z'
loop_
 _atom_site_type_symbol
 _atom_site_label
 _atom_site_symmetry_multiplicity
 _atom_site_fract_x
 _atom_site_fract_y
 _atom_site_fract_z
 _atom_site_occupancy
  Hf  Hf0  1  0.90308825  0.90345354  0.12193100  1
  Hf  Hf1  1  0.91789452  0.10302614  0.11047123  1
  Hf  Hf2  1  0.80405905  0.78662888  -0.00322487  1
  Hf  Hf3  1  0.10046519  0.69198154  0.88665699  1
  Hf  Hf4  1  0.69803508  0.90220654  0.37325725  1
  Hf  Hf5  1  0.29522656  0.50059551  0.37610042  1
  Hf  Hf6  1  0.69899572  0.90250307  0.87596398  1
  Hf  Hf7  1  0.60816661  0.20622698  0.51196638  1
  Hf  Hf8  1  0.90398231  0.69485487  0.61984054  1
  Hf  Hf9  1  0.30517609  0.10086905  0.12305874  1
  Hf  Hf10  1  0.40236465  -0.00548545  0.50137433  1
  Hf  Hf11  1  0.49561125  0.49900978  0.62279130  1
  Hf  Hf12  1  0.38143430  0.60339498  0.73720163  1
  Hf  Hf13  1  0.37596130  -0.01236228  0.75357011  1
  Hf  Hf14  1  0.49838563  0.09668634  0.11016427  1
  Hf  Hf15  1  0.69758232  0.09690449  0.86950410  1
  Hf  Hf16  1  0.29321170  0.70254546  0.88363240  1
  Hf  Hf17  1  0.60018837  0.20749387  -0.01336179  1
  Hf  Hf18  1  0.49727246  0.90354242  0.11783604  1
  Hf  Hf19  1  0.49728877  0.69569576  0.87324974  1
  Hf  Hf20  1  0.90592811  0.30710237  0.62308630  1
  Hf  Hf21  1  0.50273072  0.09420520  0.64126116  1
  Hf  Hf22  1  0.79196667  0.79279461  0.23742911  1
  Hf  Hf23  1  0.79650620  -0.00755482  0.50903333  1
  Hf  Hf24  1  0.49762134  0.89615497  0.86463696  1
  Hf  Hf25  1  0.90783990  0.49628764  0.36666324  1
  Hf  Hf26  1  0.60410964  0.60005043  0.49499342  1
  Hf  Hf27  1  0.40286305  0.19200363  0.27158305  1
  Hf  Hf28  1  0.09521135  0.10166653  0.37245954  1
  Hf  Hf29  1  0.49893020  0.29500285  0.12424018  1
  Hf  Hf30  1  0.08258389  0.10078405  0.90287375  1
  Hf  Hf31  1  0.70142015  0.30682552  0.13125455  1
  Hf  Hf32  1  0.40757230  0.39272824  0.48193967  1
  Hf  Hf33  1  0.40309392  0.39463129  0.25646307  1
  Hf  Hf34  1  0.49477092  0.29442298  0.63328183  1
  Hf  Hf35  1  0.71415269  0.70564271  0.62083683  1
  Hf  Hf36  1  0.20577398  0.00107067  0.25078417  1
  Hf  Hf37  1  0.39161277  0.59043110  0.01548466  1
  Hf  Hf38  1  0.10351607  0.30524175  0.60771217  1
  Hf  Hf39  1  0.69355155  0.90189289  0.11050872  1
  Zr  Zr40  1  0.71230652  0.50548262  0.87392166  1
  Zr  Zr41  1  0.90818225  0.50306363  0.61503032  1
  Zr  Zr42  1  0.08799778  0.90242006  0.36770112  1
  Zr  Zr43  1  0.90542776  0.08697895  0.37335358  1
  Zr  Zr44  1  0.50144915  0.70373513  0.11726734  1
  Zr  Zr45  1  0.89978102  0.29102420  0.36899753  1
  Zr  Zr46  1  0.90011939  0.09771641  0.61929936  1
  Zr  Zr47  1  0.90297840  0.88235468  0.62610441  1
  Zr  Zr48  1  0.09598672  0.49773122  0.59719947  1
  Zr  Zr49  1  0.00918900  -0.00701414  0.75242921  1
  Zr  Zr50  1  0.20013102  0.20819525  0.00187900  1
  Zr  Zr51  1  0.69169818  0.30617788  0.35861990  1
  Zr  Zr52  1  0.11870103  0.90591394  0.89192048  1
  Zr  Zr53  1  0.38292134  0.40348075  0.75340665  1
  Zr  Zr54  1  0.29211178  0.10567651  0.61610515  1
  Zr  Zr55  1  0.19159578  0.60439744  0.73227072  1
  Zr  Zr56  1  0.29014639  0.30323643  0.60428473  1
  Zr  Zr57  1  0.59676326  0.00262320  0.25505087  1
  Zr  Zr58  1  0.40666576  0.60462197  0.25285998  1
  Zr  Zr59  1  0.18819833  0.80167282  0.49558895  1
  Zr  Zr60  1  0.19904688  0.80890068  0.73783054  1
  Zr  Zr61  1  0.69988402  0.09070104  0.10100737  1
  Zr  Zr62  1  0.20375447  0.80331706  0.24693653  1
  Zr  Zr63  1  0.19755271  0.20342202  0.76604218  1
  Zr  Zr64  1  0.61388170  0.60135633  0.74793882  1
  Zr  Zr65  1  0.19875070  0.40300756  0.01903692  1
  Zr  Zr66  1  0.08666923  0.50014514  0.88809617  1
  Zr  Zr67  1  0.49997657  0.50255343  0.87621478  1
  Zr  Zr68  1  0.70748250  0.10523026  0.38709265  1
  Zr  Zr69  1  0.31246014  0.71656120  0.37209966  1
  Zr  Zr70  1  0.38330101  0.19884735  0.77163456  1
  Zr  Zr71  1  0.09035748  0.49305306  0.14677792  1
  Zr  Zr72  1  0.80348692  0.19167084  0.23404521  1
  Zr  Zr73  1  0.90972952  0.31714278  0.86338665  1
  Zr  Zr74  1  0.81307895  0.21204363  -0.01255298  1
  Zr  Zr75  1  0.50425544  0.30836952  0.87061576  1
  Zr  Zr76  1  0.00610522  0.19880659  0.74602897  1
  Zr  Zr77  1  0.50444853  0.70585065  0.63272150  1
  Zr  Zr78  1  0.79121338  0.39439576  0.50208847  1
  Zr  Zr79  1  0.89380091  0.49810923  0.15243792  1
  Ta  Ta80  1  0.59878405  0.80470469  0.49791124  1
  Ta  Ta81  1  0.39415171  0.00054617  -0.01871121  1
  Ta  Ta82  1  0.80013556  0.20106731  0.74998737  1
  Ta  Ta83  1  0.60387226  0.60765806  0.25188251  1
  Ta  Ta84  1  0.80539535  0.79195738  0.76986885  1
  Ta  Ta85  1  0.70520841  0.49927067  0.35755334  1
  Ta  Ta86  1  0.30148405  0.29701954  0.13669056  1
  Ta  Ta87  1  0.28604974  0.50502175  0.88489451  1
  Ta  Ta88  1  0.80062560  0.40807176  0.01204532  1
  Ta  Ta89  1  0.80278225  0.60155767  0.48084463  1
  Ta  Ta90  1  0.61262431  0.40002020  0.73323090  1
  Ta  Ta91  1  0.19898916  0.60205535  0.03115231  1
  Ta  Ta92  1  0.79998747  0.60135914  0.02081811  1
  Ta  Ta93  1  0.40332660  0.60563169  0.49491514  1
  Ta  Ta94  1  -0.01150848  0.60545325  0.02043269  1
  Ta  Ta95  1  0.39333312  0.39865429  0.00914358  1
  Ta  Ta96  1  0.70023183  0.70209489  0.37433890  1
  Ta  Ta97  1  0.69937492  0.89751688  0.64001401  1
  Ta  Ta98  1  0.51601387  0.49496153  0.37028602  1
  Ta  Ta99  1  0.60395263  0.39994731  0.51040990  1
  Ta  Ta100  1  0.90131704  0.70152564  0.36279227  1
  Ta  Ta101  1  0.60376221  0.79183031  -0.00963986  1
  Ta  Ta102  1  0.59266275  0.79503621  0.25501167  1
  Ta  Ta103  1  0.80901708  -0.00319808  0.75866699  1
  Ta  Ta104  1  0.40617785  0.19925001  0.48282422  1
  Ta  Ta105  1  0.60414425  0.40935842  0.01005904  1
  Ta  Ta106  1  0.29098598  0.50031813  0.59843500  1
  Ta  Ta107  1  0.10038807  0.30172140  0.37471564  1
  Ta  Ta108  1  0.50171178  0.09356979  0.86686657  1
  Ta  Ta109  1  0.39979601  0.80176757  0.51757443  1
  Ta  Ta110  1  0.19997363  0.79554635  0.01876322  1
  Ta  Ta111  1  0.30592272  0.90372778  0.11531112  1
  Ta  Ta112  1  0.39046866  0.20343731  -0.01865226  1
  Ta  Ta113  1  0.48985064  0.88665385  0.37595847  1
  Ta  Ta114  1  0.00185575  0.19891627  0.50035008  1
  Ta  Ta115  1  0.09639004  0.90587666  0.12148289  1
  Ta  Ta116  1  0.19297561  0.40606634  0.75436473  1
  Ta  Ta117  1  -0.00324542  0.79660926  -0.00250211  1
  Ta  Ta118  1  0.00017865  0.79381058  0.76943720  1
  Ta  Ta119  1  0.19794354  0.60251913  0.25079567  1
  Ti  Ti120  1  0.59510588  0.19507339  0.25147918  1
  Ti  Ti121  1  0.61209669  0.60134507  0.00877262  1
  Ti  Ti122  1  0.80005363  -0.00105163  0.24397461  1
  Ti  Ti123  1  0.51030535  0.09312779  0.38669611  1
  Ti  Ti124  1  -0.00064252  0.59581003  0.74940278  1
  Ti  Ti125  1  -0.00311585  0.79721131  0.24520725  1
  Ti  Ti126  1  0.80393949  0.40902600  0.74255246  1
  Ti  Ti127  1  0.71248413  0.50765494  0.62413267  1
  Ti  Ti128  1  0.00628431  -0.01431044  0.50987593  1
  Ti  Ti129  1  0.82079273  -0.00224386  -0.02376519  1
  Ti  Ti130  1  0.08489980  0.71190116  0.61653666  1
  Ti  Ti131  1  0.27940512  0.91016085  0.60852797  1
  Ti  Ti132  1  0.50753599  0.89853661  0.64035249  1
  Ti  Ti133  1  0.38341361  0.79787625  0.73613789  1
  Ti  Ti134  1  0.61086267  0.79493959  0.75911829  1
  Ti  Ti135  1  0.11197385  0.09323038  0.60828358  1
  Ti  Ti136  1  0.39644737  0.80167068  -0.00377954  1
  Ti  Ti137  1  0.20406219  0.20216171  0.25755987  1
  Ti  Ti138  1  0.59950117  -0.00761121  0.51210936  1
  Ti  Ti139  1  0.69849144  0.50318911  0.14371940  1
  Ti  Ti140  1  0.39643580  -0.00744855  0.26709897  1
  Ti  Ti141  1  -0.01179269  0.39230612  0.01905937  1
  Ti  Ti142  1  0.60867520  0.20587083  0.75119237  1
  Ti  Ti143  1  0.89798862  0.68191824  0.87353058  1
  Ti  Ti144  1  0.50549780  0.49703003  0.13144410  1
  Ti  Ti145  1  0.20153075  0.39622468  0.25618646  1
  Ti  Ti146  1  0.09548711  0.31085501  0.88098812  1
  Ti  Ti147  1  0.19638202  0.61035959  0.48579786  1
  Ti  Ti148  1  0.08848248  0.29003773  0.14398340  1
  Ti  Ti149  1  0.27389951  0.07571660  0.88264903  1
  Ti  Ti150  1  0.09866154  0.09952790  0.12577922  1
  Ti  Ti151  1  0.29178021  0.09551521  0.39061259  1
  Ti  Ti152  1  0.90073791  0.89881143  0.36499642  1
  Ti  Ti153  1  0.09076466  0.70196869  0.13280272  1
  Ti  Ti154  1  0.70074099  0.09596690  0.63734530  1
  Ti  Ti155  1  0.30570485  0.70673894  0.13334168  1
  Ti  Ti156  1  0.70578065  0.31440716  0.86961757  1
  Ti  Ti157  1  0.00912114  0.61299119  0.47430501  1
  Ti  Ti158  1  0.80328176  0.79949028  0.48729907  1
  Ti  Ti159  1  0.90178955  0.50207640  0.87780014  1
  Mo  Mo160  1  0.29598235  0.29230101  0.36800570  1
  Mo  Mo161  1  0.01031723  0.40946733  0.75221598  1
  Mo  Mo162  1  0.90673356  0.89323886  0.87744316  1
  Mo  Mo163  1  0.20042707  0.40234800  0.47568345  1
  Mo  Mo164  1  -0.00005412  -0.00311179  0.23574624  1
  Mo  Mo165  1  0.79965532  0.19561739  0.52328399  1
  Mo  Mo166  1  0.69591394  0.69590967  0.12414234  1
  Mo  Mo167  1  0.29822153  0.89288992  0.89107239  1
  Mo  Mo168  1  0.60180218  -0.00266288  0.74594325  1
  Mo  Mo169  1  0.70502654  0.29804202  0.64019715  1
  Mo  Mo170  1  0.59554855  0.40772001  0.23701337  1
  Mo  Mo171  1  0.50593949  0.70272514  0.38217963  1
  Mo  Mo172  1  0.00425648  0.39078485  0.25859416  1
  Mo  Mo173  1  0.00374133  0.60917354  0.25289085  1
  Mo  Mo174  1  0.00914902  0.19526512  0.24861627  1
  Mo  Mo175  1  0.00003974  -0.00494199  0.00421530  1
  Mo  Mo176  1  0.90406419  0.70068688  0.13571628  1
  Mo  Mo177  1  0.29604857  0.69889730  0.60437050  1
  Mo  Mo178  1  0.20215073  0.00091548  0.02413577  1
  Mo  Mo179  1  0.10288209  0.50082660  0.37034392  1
  Mo  Mo180  1  0.59029897  -0.00349489  -0.01694523  1
  Mo  Mo181  1  0.70496984  0.69614251  0.88313928  1
  Mo  Mo182  1  0.50859948  0.29576155  0.37608444  1
  Mo  Mo183  1  0.00252922  0.39754535  0.47639469  1
  Mo  Mo184  1  0.30445620  0.90795777  0.38550884  1
  Mo  Mo185  1  0.29900618  0.49763541  0.14332744  1
  Mo  Mo186  1  0.81259552  0.60143166  0.74999580  1
  Mo  Mo187  1  0.19943619  0.20062874  0.48154795  1
  Mo  Mo188  1  0.90660362  0.30331983  0.13571144  1
  Mo  Mo189  1  0.79571156  0.60419922  0.25464102  1
  Mo  Mo190  1  0.00447584  0.21514900  0.00807272  1
  Mo  Mo191  1  0.40403462  0.81185610  0.24353282  1
  Mo  Mo192  1  -0.00929830  0.79552845  0.48231685  1
  Mo  Mo193  1  0.09761734  0.69864772  0.35917050  1
  Mo  Mo194  1  0.19478706  0.00038763  0.49309929  1
  Mo  Mo195  1  0.19363391  0.00262512  0.73992950  1
  Mo  Mo196  1  0.79752538  0.39763285  0.24601961  1
  Mo  Mo197  1  0.29158775  0.31929768  0.88783295  1
  Mo  Mo198  1  0.89916981  0.10197730  0.87289491  1
  Mo  Mo199  1  0.09474313  0.89857478  0.62158801  1
