# generated using pymatgen
data_HfZrTaTiMo
_symmetry_space_group_name_H-M   'P 1'
_cell_length_a   15.93441465
_cell_length_b   15.94110960
_cell_length_c   15.17364803
_cell_angle_alpha   90.01721626
_cell_angle_beta   90.04442975
_cell_angle_gamma   90.00224683
_symmetry_Int_Tables_number   1
_chemical_formula_structural   HfZrTaTiMo
_chemical_formula_sum   'Hf40 Zr40 Ta40 Ti40 Mo40'
_cell_volume   3854.29114654
_cell_formula_units_Z   40
loop_
 _symmetry_equiv_pos_site_id
 _symmetry_equiv_pos_as_xyz
  1  'x, y, z'
loop_
 _atom_site_type_symbol
 _atom_site_label
 _atom_site_symmetry_multiplicity
 _atom_site_fract_x
 _atom_site_fract_y
 _atom_site_fract_z
 _atom_site_occupancy
  Hf  Hf0  1  0.89527884  0.49977139  0.86299275  1
  Hf  Hf1  1  0.80783916  0.19917381  0.26452888  1
  Hf  Hf2  1  -0.01213099  0.61837030  -0.00890186  1
  Hf  Hf3  1  0.10192992  0.29566765  0.37895335  1
  Hf  Hf4  1  0.39671081  0.40254247  0.24538259  1
  Hf  Hf5  1  0.11260349  0.90406543  0.36961057  1
  Hf  Hf6  1  0.40806804  0.79634270  0.24134399  1
  Hf  Hf7  1  0.49613586  0.29627026  0.37520120  1
  Hf  Hf8  1  0.69416456  0.10834476  0.88640805  1
  Hf  Hf9  1  0.89644112  0.51945689  0.13710919  1
  Hf  Hf10  1  -0.00121189  0.80545282  0.76817299  1
  Hf  Hf11  1  0.29685055  0.49660914  0.87877316  1
  Hf  Hf12  1  0.89097372  0.10011506  0.61898714  1
  Hf  Hf13  1  0.59135890  -0.00383719  0.49625421  1
  Hf  Hf14  1  0.39078901  0.19542231  0.23840961  1
  Hf  Hf15  1  0.49910900  0.09132304  0.12262505  1
  Hf  Hf16  1  0.20697684  0.19876258  0.75275498  1
  Hf  Hf17  1  0.09145936  0.09086435  0.63806411  1
  Hf  Hf18  1  0.30188289  0.89821276  0.38033495  1
  Hf  Hf19  1  0.60657515  0.20471106  0.25377201  1
  Hf  Hf20  1  0.58756021  0.21008226  0.01644097  1
  Hf  Hf21  1  0.21338676  0.79326166  0.24590784  1
  Hf  Hf22  1  0.01523377  0.01922858  0.24813645  1
  Hf  Hf23  1  0.59864339  0.60472986  0.26149522  1
  Hf  Hf24  1  0.49737299  0.29239830  0.86428405  1
  Hf  Hf25  1  0.91317418  0.88571594  0.14009704  1
  Hf  Hf26  1  0.09522184  0.50115693  0.85672391  1
  Hf  Hf27  1  0.69368727  0.50328216  0.61092064  1
  Hf  Hf28  1  0.29906527  0.69622897  0.88082015  1
  Hf  Hf29  1  0.79249528  -0.00298237  0.75393514  1
  Hf  Hf30  1  0.70984124  0.30229705  0.88787674  1
  Hf  Hf31  1  0.29052084  0.29448282  0.37568723  1
  Hf  Hf32  1  0.39917324  0.00094318  0.51754075  1
  Hf  Hf33  1  0.80548672  0.40977577  0.49603406  1
  Hf  Hf34  1  0.19854027  0.18860648  0.50893241  1
  Hf  Hf35  1  0.39884900  0.59945398  0.49251031  1
  Hf  Hf36  1  0.78447281  0.20359107  0.73943288  1
  Hf  Hf37  1  -0.01266322  0.39595056  0.25262891  1
  Hf  Hf38  1  0.61395437  0.39871580  0.75416283  1
  Hf  Hf39  1  0.61872403  0.80296107  0.26250048  1
  Zr  Zr40  1  0.60276606  0.81127165  0.76006573  1
  Zr  Zr41  1  0.71222103  0.69175434  0.88346638  1
  Zr  Zr42  1  0.08613017  0.09858789  0.87356577  1
  Zr  Zr43  1  0.21056221  -0.00213202  0.76363004  1
  Zr  Zr44  1  0.38995978  -0.00420587  0.23991346  1
  Zr  Zr45  1  0.39842571  0.59856125  0.01589360  1
  Zr  Zr46  1  0.40147393  0.39157540  0.01755676  1
  Zr  Zr47  1  0.90695923  0.90240746  0.36744948  1
  Zr  Zr48  1  0.10431471  0.70174819  0.62978627  1
  Zr  Zr49  1  0.39277833  0.40040957  0.73969130  1
  Zr  Zr50  1  0.84217073  0.79415820  -0.02349549  1
  Zr  Zr51  1  0.09789061  0.49168652  0.37623931  1
  Zr  Zr52  1  0.80230923  0.80376981  0.49230677  1
  Zr  Zr53  1  0.79715954  0.59593234  0.73709576  1
  Zr  Zr54  1  0.50577538  0.70452717  0.62822339  1
  Zr  Zr55  1  0.70138816  0.50623706  0.12729572  1
  Zr  Zr56  1  0.90696074  0.70253967  0.62403006  1
  Zr  Zr57  1  0.51509046  0.28660972  0.61937798  1
  Zr  Zr58  1  0.59588572  0.40438350  0.00339006  1
  Zr  Zr59  1  0.80095927  0.80799846  0.75263805  1
  Zr  Zr60  1  0.09044519  0.29063998  0.13414873  1
  Zr  Zr61  1  0.60182086  -0.00459319  0.26403399  1
  Zr  Zr62  1  -0.00050651  0.40556217  0.00907278  1
  Zr  Zr63  1  0.39878259  0.40389622  0.49903167  1
  Zr  Zr64  1  0.39930368  -0.01112377  0.75127315  1
  Zr  Zr65  1  0.80523561  -0.00884711  -0.00204751  1
  Zr  Zr66  1  0.08659268  0.70980845  0.13140543  1
  Zr  Zr67  1  0.79064549  0.39529374  0.26144742  1
  Zr  Zr68  1  0.70665441  0.10126368  0.11701151  1
  Zr  Zr69  1  0.71915974  0.70115924  0.11482251  1
  Zr  Zr70  1  0.39926787  0.17942288  0.73871696  1
  Zr  Zr71  1  0.40798119  0.80576401  0.50198340  1
  Zr  Zr72  1  0.59298420  0.01184445  0.74393738  1
  Zr  Zr73  1  0.39094094  0.60948774  0.25037736  1
  Zr  Zr74  1  0.90540379  0.30159800  0.87206473  1
  Zr  Zr75  1  0.09214544  0.30567106  0.62370745  1
  Zr  Zr76  1  0.79719794  0.00058923  0.25500672  1
  Zr  Zr77  1  0.50416829  0.50285024  0.62625742  1
  Zr  Zr78  1  -0.00353882  0.59570430  0.48959727  1
  Zr  Zr79  1  0.19519804  0.39989411  0.00811928  1
  Ta  Ta80  1  0.89921147  0.29963407  0.61363168  1
  Ta  Ta81  1  0.29690518  0.30034507  0.61598503  1
  Ta  Ta82  1  0.39623712  -0.00280551  -0.00537221  1
  Ta  Ta83  1  0.60130544  0.59942010  0.76335918  1
  Ta  Ta84  1  0.80041364  0.60289233  0.48934196  1
  Ta  Ta85  1  0.49647984  0.69793601  0.87537788  1
  Ta  Ta86  1  0.29834854  0.89514926  0.11096751  1
  Ta  Ta87  1  0.28749245  0.09082370  0.37754560  1
  Ta  Ta88  1  0.80079153  0.39651557  0.73315897  1
  Ta  Ta89  1  0.91019390  0.70559135  0.36406191  1
  Ta  Ta90  1  0.50490097  0.50374085  0.13639020  1
  Ta  Ta91  1  0.29741688  0.29546286  0.87778067  1
  Ta  Ta92  1  0.69369503  0.70174744  0.61301440  1
  Ta  Ta93  1  0.20633581  0.80248254  0.76313989  1
  Ta  Ta94  1  0.29221655  0.49566310  0.37433517  1
  Ta  Ta95  1  0.09912735  0.89592227  0.62918621  1
  Ta  Ta96  1  0.90145815  0.29930807  0.39445759  1
  Ta  Ta97  1  0.39654760  0.60145286  0.74556882  1
  Ta  Ta98  1  0.50896778  0.89484793  0.11681781  1
  Ta  Ta99  1  0.59902217  0.59815925  -0.00943497  1
  Ta  Ta100  1  0.20273059  0.60547185  0.49246284  1
  Ta  Ta101  1  0.50075714  0.70720862  0.37812303  1
  Ta  Ta102  1  0.40342858  0.79796585  0.00335491  1
  Ta  Ta103  1  0.79488617  0.60779626  0.27752867  1
  Ta  Ta104  1  0.19879917  0.60636204  0.26215193  1
  Ta  Ta105  1  0.49650919  0.50250065  0.87066771  1
  Ta  Ta106  1  -0.00109694  0.18944738  0.49317554  1
  Ta  Ta107  1  0.29828136  0.70130786  0.62490877  1
  Ta  Ta108  1  0.10329244  0.49927273  0.62159870  1
  Ta  Ta109  1  0.48795014  0.10037999  0.37753293  1
  Ta  Ta110  1  0.89651636  0.10404303  0.87566645  1
  Ta  Ta111  1  0.19727562  0.19586383  -0.00281660  1
  Ta  Ta112  1  0.09501148  0.51210922  0.14191603  1
  Ta  Ta113  1  0.18856957  0.17020364  0.24069857  1
  Ta  Ta114  1  0.39057405  0.19713757  0.00924417  1
  Ta  Ta115  1  0.00360132  -0.00046222  0.49718454  1
  Ta  Ta116  1  0.28982965  0.88865686  0.62257824  1
  Ta  Ta117  1  0.60372476  0.80128253  -0.00979320  1
  Ta  Ta118  1  0.20043967  0.00197952  0.00130624  1
  Ta  Ta119  1  0.69845217  0.90262438  0.61254686  1
  Ti  Ti120  1  0.59683653  0.39850931  0.25427242  1
  Ti  Ti121  1  0.39676301  0.19008358  0.50600233  1
  Ti  Ti122  1  0.09930306  0.90428752  0.87894722  1
  Ti  Ti123  1  -0.00882676  0.20270267  0.74734050  1
  Ti  Ti124  1  0.19715227  -0.00424790  0.51202589  1
  Ti  Ti125  1  0.79867085  0.00233155  0.49399654  1
  Ti  Ti126  1  0.20825720  0.59759947  0.74004714  1
  Ti  Ti127  1  0.19663672  0.80172476  -0.00592360  1
  Ti  Ti128  1  0.01379189  0.80214166  0.49159309  1
  Ti  Ti129  1  0.70759501  0.88928527  0.11595491  1
  Ti  Ti130  1  0.89161311  0.29399385  0.11883780  1
  Ti  Ti131  1  0.59788397  0.40125373  0.48186896  1
  Ti  Ti132  1  0.90781166  0.90623198  0.62245629  1
  Ti  Ti133  1  0.70145970  0.10943091  0.39194527  1
  Ti  Ti134  1  0.19180334  0.60355478  0.01054446  1
  Ti  Ti135  1  -0.00030540  -0.00825073  0.00494634  1
  Ti  Ti136  1  0.39578212  0.80175365  0.75582915  1
  Ti  Ti137  1  0.19688897  0.39781690  0.24226045  1
  Ti  Ti138  1  0.10372783  0.90154509  0.12644717  1
  Ti  Ti139  1  0.10255390  0.69554874  0.86984786  1
  Ti  Ti140  1  0.20422952  0.40043186  0.74015269  1
  Ti  Ti141  1  0.69415382  0.49917486  0.37719591  1
  Ti  Ti142  1  0.90621001  0.10754097  0.11321192  1
  Ti  Ti143  1  0.09953216  0.30612940  0.86529493  1
  Ti  Ti144  1  0.49728954  0.89728063  0.88408785  1
  Ti  Ti145  1  0.00021808  0.20179563  -0.00255062  1
  Ti  Ti146  1  0.28883643  0.29251317  0.12732734  1
  Ti  Ti147  1  0.49665469  0.10222213  0.88623342  1
  Ti  Ti148  1  0.68521049  0.11107365  0.61003108  1
  Ti  Ti149  1  0.80275394  0.41049188  0.00455742  1
  Ti  Ti150  1  0.91474675  0.49440791  0.63093413  1
  Ti  Ti151  1  0.59790685  0.60322096  0.48242146  1
  Ti  Ti152  1  0.28755803  0.50727908  0.13341980  1
  Ti  Ti153  1  0.69959618  0.29503486  0.59934416  1
  Ti  Ti154  1  -0.00467726  0.19456092  0.26425577  1
  Ti  Ti155  1  0.70678941  0.30188672  0.11965629  1
  Ti  Ti156  1  0.51502147  0.70190181  0.11813410  1
  Ti  Ti157  1  0.60090125  -0.00947932  -0.00560321  1
  Ti  Ti158  1  0.90194149  0.70522506  0.15288013  1
  Ti  Ti159  1  0.59936048  0.80972338  0.48975350  1
  Mo  Mo160  1  0.19879196  0.79989523  0.50362972  1
  Mo  Mo161  1  0.90082208  0.10117391  0.38980380  1
  Mo  Mo162  1  0.50202314  0.10145580  0.60978162  1
  Mo  Mo163  1  0.10465962  0.09467462  0.38319242  1
  Mo  Mo164  1  -0.00696933  -0.00193726  0.74105667  1
  Mo  Mo165  1  0.79645689  0.20062138  0.49826071  1
  Mo  Mo166  1  0.80372556  0.59390588  -0.00649740  1
  Mo  Mo167  1  -0.00099229  0.39638511  0.50490128  1
  Mo  Mo168  1  0.29094514  0.69996284  0.10531755  1
  Mo  Mo169  1  0.49891444  0.30172296  0.14335537  1
  Mo  Mo170  1  0.01180247  0.80423365  0.26208254  1
  Mo  Mo171  1  0.00015241  0.60162879  0.26409807  1
  Mo  Mo172  1  0.20313761  0.40404743  0.50921194  1
  Mo  Mo173  1  0.09024117  0.09761971  0.10181483  1
  Mo  Mo174  1  0.91547393  0.92362465  0.86789190  1
  Mo  Mo175  1  0.69990761  0.70130979  0.39335943  1
  Mo  Mo176  1  0.50142110  0.50199142  0.36308857  1
  Mo  Mo177  1  0.29018415  0.50465125  0.61776122  1
  Mo  Mo178  1  0.60312942  0.19993243  0.74930407  1
  Mo  Mo179  1  0.80868958  0.20253706  0.00682654  1
  Mo  Mo180  1  0.70109869  0.90291976  0.88976726  1
  Mo  Mo181  1  0.30285181  0.10252046  0.89366418  1
  Mo  Mo182  1  0.29405352  0.09482988  0.61490664  1
  Mo  Mo183  1  0.59618987  0.19760999  0.48063755  1
  Mo  Mo184  1  0.00784765  0.59847151  0.74719384  1
  Mo  Mo185  1  0.91294858  0.68810189  0.85277006  1
  Mo  Mo186  1  -0.00133945  0.39788239  0.73688407  1
  Mo  Mo187  1  0.80121570  0.79918671  0.26135902  1
  Mo  Mo188  1  0.50235244  0.89644349  0.63860025  1
  Mo  Mo189  1  0.70138834  0.49721269  0.88037899  1
  Mo  Mo190  1  0.89613986  0.50250689  0.36775973  1
  Mo  Mo191  1  0.69735191  0.30165956  0.38779741  1
  Mo  Mo192  1  0.29990349  0.89227947  0.89325655  1
  Mo  Mo193  1  0.29795742  0.69945926  0.38980362  1
  Mo  Mo194  1  0.70265645  0.90473043  0.39362424  1
  Mo  Mo195  1  0.10353346  0.70445595  0.37405761  1
  Mo  Mo196  1  0.49988482  0.90135263  0.36236548  1
  Mo  Mo197  1  0.29238042  0.09657350  0.11134518  1
  Mo  Mo198  1  0.01465290  0.80806817  -0.01642618  1
  Mo  Mo199  1  0.20257506  -0.00208164  0.22775283  1
