# generated using pymatgen
data_HfZrTaTiMo
_symmetry_space_group_name_H-M   'P 1'
_cell_length_a   15.94327738
_cell_length_b   15.93596823
_cell_length_c   15.16533678
_cell_angle_alpha   90.01812123
_cell_angle_beta   90.01390046
_cell_angle_gamma   89.98014718
_symmetry_Int_Tables_number   1
_chemical_formula_structural   HfZrTaTiMo
_chemical_formula_sum   'Hf40 Zr40 Ta40 Ti40 Mo40'
_cell_volume   3853.08026114
_cell_formula_units_Z   40
loop_
 _symmetry_equiv_pos_site_id
 _symmetry_equiv_pos_as_xyz
  1  'x, y, z'
loop_
 _atom_site_type_symbol
 _atom_site_label
 _atom_site_symmetry_multiplicity
 _atom_site_fract_x
 _atom_site_fract_y
 _atom_site_fract_z
 _atom_site_occupancy
  Hf  Hf0  1  0.09533311  0.89219190  0.64049325  1
  Hf  Hf1  1  0.89758163  0.09162416  0.38035286  1
  Hf  Hf2  1  0.31040200  0.50210331  0.88446102  1
  Hf  Hf3  1  0.09849259  0.50414560  0.12746087  1
  Hf  Hf4  1  0.09632460  0.29400149  0.14016167  1
  Hf  Hf5  1  -0.00317758  0.39080407  0.00740725  1
  Hf  Hf6  1  0.69779500  0.10454162  0.87357565  1
  Hf  Hf7  1  0.09773160  0.09066002  0.37945037  1
  Hf  Hf8  1  0.80197638  0.79251137  0.76236884  1
  Hf  Hf9  1  0.10205657  0.69336676  0.62155999  1
  Hf  Hf10  1  0.80622556  0.00287502  0.74966706  1
  Hf  Hf11  1  0.29965103  0.90503596  0.88334523  1
  Hf  Hf12  1  0.70981479  0.50065111  0.87552710  1
  Hf  Hf13  1  -0.00028054  0.59405050  0.75183844  1
  Hf  Hf14  1  0.21750466  0.59222370  0.49873497  1
  Hf  Hf15  1  0.50231839  0.50436078  0.12982075  1
  Hf  Hf16  1  0.70086455  0.70045145  0.12375807  1
  Hf  Hf17  1  -0.00083057  -0.01114548  0.50462004  1
  Hf  Hf18  1  0.08994819  0.09111209  0.12997642  1
  Hf  Hf19  1  0.19332779  0.19332961  0.00082582  1
  Hf  Hf20  1  0.40757739  0.59857499  0.48829268  1
  Hf  Hf21  1  0.48686663  0.89861231  0.88317411  1
  Hf  Hf22  1  0.20533419  0.20206874  0.75114170  1
  Hf  Hf23  1  0.10759358  0.30088828  0.61044342  1
  Hf  Hf24  1  0.48812124  0.09613775  0.88718583  1
  Hf  Hf25  1  0.48815569  0.10181317  0.38775800  1
  Hf  Hf26  1  0.30979786  0.70150838  0.87758069  1
  Hf  Hf27  1  -0.00429584  0.81226738  0.25846322  1
  Hf  Hf28  1  0.81598806  0.41734723  0.72881317  1
  Hf  Hf29  1  0.08281974  0.09163568  0.85742811  1
  Hf  Hf30  1  0.49234805  0.49899664  0.63898615  1
  Hf  Hf31  1  0.30211278  0.31851721  0.61299911  1
  Hf  Hf32  1  0.59859174  0.40181805  -0.00536704  1
  Hf  Hf33  1  0.30589539  0.68813826  0.64191006  1
  Hf  Hf34  1  0.69345815  0.89700868  0.63803070  1
  Hf  Hf35  1  0.91466304  0.29717263  0.61070556  1
  Hf  Hf36  1  0.49234221  0.89738549  0.36688452  1
  Hf  Hf37  1  0.79060675  0.41231554  0.50402426  1
  Hf  Hf38  1  0.59601825  0.00593839  0.24379575  1
  Hf  Hf39  1  0.68514388  0.31278286  0.63198119  1
  Zr  Zr40  1  0.09596547  0.29591717  0.86623686  1
  Zr  Zr41  1  0.80286429  0.20708431  0.00594930  1
  Zr  Zr42  1  -0.00706464  0.40844756  0.25650178  1
  Zr  Zr43  1  0.49675831  0.90493633  0.63483409  1
  Zr  Zr44  1  0.90553800  0.29680175  0.86414350  1
  Zr  Zr45  1  0.70152252  0.30768408  0.86146124  1
  Zr  Zr46  1  0.50710411  0.69550914  0.64070808  1
  Zr  Zr47  1  0.60069692  0.79950874  0.48842488  1
  Zr  Zr48  1  0.38751543  0.00731642  0.23462252  1
  Zr  Zr49  1  0.21302716  0.18920351  0.25248605  1
  Zr  Zr50  1  0.79710751  0.20043499  0.25402492  1
  Zr  Zr51  1  0.60000394  -0.00045300  0.00791382  1
  Zr  Zr52  1  0.40166688  0.19582351  0.23550711  1
  Zr  Zr53  1  0.90817451  0.70444793  0.62141604  1
  Zr  Zr54  1  0.09420000  0.70022814  0.11913592  1
  Zr  Zr55  1  0.87410076  0.89634600  0.38202975  1
  Zr  Zr56  1  0.69634030  0.11129416  0.12695263  1
  Zr  Zr57  1  0.29235168  0.89214506  0.37240561  1
  Zr  Zr58  1  0.79423051  0.19887389  0.49989267  1
  Zr  Zr59  1  0.41161285  0.39064332  0.77947008  1
  Zr  Zr60  1  0.39362263  0.19931358  0.76006921  1
  Zr  Zr61  1  0.79802854  0.60256146  0.50967947  1
  Zr  Zr62  1  0.60214481  0.60362439  0.48175832  1
  Zr  Zr63  1  0.71881118  0.72211717  0.36082263  1
  Zr  Zr64  1  0.68523024  0.09569104  0.62397366  1
  Zr  Zr65  1  0.59846346  0.20678687  0.48662836  1
  Zr  Zr66  1  0.81254392  0.60131582  0.25050254  1
  Zr  Zr67  1  0.19146134  -0.01264285  0.24988739  1
  Zr  Zr68  1  0.21310524  0.18527825  0.49707640  1
  Zr  Zr69  1  0.39515831  0.79572933  0.50558918  1
  Zr  Zr70  1  0.49535078  0.89047143  0.11934287  1
  Zr  Zr71  1  0.81204517  0.00597535  0.00332939  1
  Zr  Zr72  1  0.49587909  0.30331196  0.61343451  1
  Zr  Zr73  1  0.09097865  0.89690881  0.10376182  1
  Zr  Zr74  1  0.80622990  0.80203145  -0.00590383  1
  Zr  Zr75  1  0.11034252  0.50398536  0.37337902  1
  Zr  Zr76  1  0.10046643  0.50169030  0.88411147  1
  Zr  Zr77  1  0.80577042  0.19807188  0.73886853  1
  Zr  Zr78  1  0.21294412  0.39190250  0.00960858  1
  Zr  Zr79  1  0.90476521  0.30462535  0.38364841  1
  Ta  Ta80  1  0.69915760  0.90328536  0.87446396  1
  Ta  Ta81  1  0.09839578  0.89965387  0.86909379  1
  Ta  Ta82  1  0.10487233  0.29915760  0.38383489  1
  Ta  Ta83  1  0.59426087  0.41373674  0.48275743  1
  Ta  Ta84  1  0.91422001  0.90658555  0.86435568  1
  Ta  Ta85  1  0.38764407  -0.00141613  0.50987967  1
  Ta  Ta86  1  0.11733449  0.49595770  0.61933083  1
  Ta  Ta87  1  0.60077313  0.60474520  -0.00637241  1
  Ta  Ta88  1  0.30718933  0.29841727  0.38001210  1
  Ta  Ta89  1  0.58320477  0.20834414  0.76106771  1
  Ta  Ta90  1  0.19737665  0.79281396  0.76023482  1
  Ta  Ta91  1  0.29033945  0.89634823  0.10208839  1
  Ta  Ta92  1  0.39740042  0.41305471  0.48297104  1
  Ta  Ta93  1  0.09695591  0.09780140  0.62832449  1
  Ta  Ta94  1  0.68091581  0.50812814  0.64067027  1
  Ta  Ta95  1  0.00672555  0.79985850  0.48932646  1
  Ta  Ta96  1  0.80155421  0.60124095  0.74855125  1
  Ta  Ta97  1  0.20982444  0.39399727  0.25008607  1
  Ta  Ta98  1  0.00782160  0.40662700  0.73521731  1
  Ta  Ta99  1  0.49863361  0.49955988  0.35000315  1
  Ta  Ta100  1  0.39621459  0.39431446  0.24136916  1
  Ta  Ta101  1  0.70342978  0.08192545  0.37692769  1
  Ta  Ta102  1  0.59629782  0.60123972  0.77862754  1
  Ta  Ta103  1  0.69339460  0.31038608  0.36289541  1
  Ta  Ta104  1  0.11115437  0.70462297  0.37554176  1
  Ta  Ta105  1  0.59936785  0.78981812  -0.01310265  1
  Ta  Ta106  1  0.89864762  0.29853961  0.13563764  1
  Ta  Ta107  1  0.29515651  0.09103631  0.88478807  1
  Ta  Ta108  1  0.60013579  0.79434559  0.77465268  1
  Ta  Ta109  1  0.50452251  0.30371238  0.12353642  1
  Ta  Ta110  1  0.90117596  0.49824746  0.88799482  1
  Ta  Ta111  1  0.49319112  0.10131822  0.62162287  1
  Ta  Ta112  1  0.00194835  0.61004894  0.26039554  1
  Ta  Ta113  1  0.29962980  0.69654451  0.35798659  1
  Ta  Ta114  1  0.20422566  0.60468135  0.00469318  1
  Ta  Ta115  1  0.39209120  0.20781988  0.00694664  1
  Ta  Ta116  1  0.60323748  0.60550728  0.24995832  1
  Ta  Ta117  1  0.90120402  0.50836024  0.11342259  1
  Ta  Ta118  1  0.80646814  -0.00955599  0.23102589  1
  Ta  Ta119  1  0.70078868  0.50039592  0.12747745  1
  Ti  Ti120  1  0.80254712  0.60231923  -0.00117408  1
  Ti  Ti121  1  0.20815173  -0.00479294  0.74500663  1
  Ti  Ti122  1  0.19606407  0.79694669  0.24038745  1
  Ti  Ti123  1  0.20173798  0.59331804  0.75750084  1
  Ti  Ti124  1  0.38401802  0.79237579  0.22955009  1
  Ti  Ti125  1  0.59629340  0.20820065  0.00158985  1
  Ti  Ti126  1  0.90747055  0.69082466  0.87710933  1
  Ti  Ti127  1  0.49976482  0.70051327  0.12813080  1
  Ti  Ti128  1  0.30689510  0.50218039  0.35246657  1
  Ti  Ti129  1  0.20841474  0.60532565  0.23630151  1
  Ti  Ti130  1  -0.01394120  0.18931781  0.00552111  1
  Ti  Ti131  1  0.39687896  0.80545845  0.74854568  1
  Ti  Ti132  1  0.59601752  0.20407337  0.25121658  1
  Ti  Ti133  1  0.69935202  0.50027142  0.35746903  1
  Ti  Ti134  1  0.20150008  -0.01313943  0.50763604  1
  Ti  Ti135  1  -0.00059347  0.79436942  -0.01809361  1
  Ti  Ti136  1  0.49635542  0.30587801  0.36862019  1
  Ti  Ti137  1  -0.00944383  0.00416996  -0.00278690  1
  Ti  Ti138  1  0.79461668  0.80679639  0.51621681  1
  Ti  Ti139  1  0.30839397  0.50362993  0.12549914  1
  Ti  Ti140  1  0.19727507  0.79229370  -0.01115839  1
  Ti  Ti141  1  0.90414148  0.51080239  0.38787900  1
  Ti  Ti142  1  0.30373769  0.09462467  0.62815099  1
  Ti  Ti143  1  -0.00310219  0.19497879  0.25947958  1
  Ti  Ti144  1  0.79895343  0.40326807  0.24215992  1
  Ti  Ti145  1  0.20832815  0.40100801  0.75936571  1
  Ti  Ti146  1  0.69373947  0.69843134  0.63736457  1
  Ti  Ti147  1  0.58886476  0.00359915  0.75953776  1
  Ti  Ti148  1  0.90683603  0.09754184  0.61644168  1
  Ti  Ti149  1  0.79841302  0.39669438  0.01632254  1
  Ti  Ti150  1  0.48974527  0.70011824  0.34829844  1
  Ti  Ti151  1  0.70334971  0.89273714  0.12281482  1
  Ti  Ti152  1  0.40662633  0.60817798  0.00691360  1
  Ti  Ti153  1  0.00773785  0.41598862  0.50268079  1
  Ti  Ti154  1  0.90597900  0.70071871  0.38541102  1
  Ti  Ti155  1  0.20374815  0.79976187  0.50709029  1
  Ti  Ti156  1  0.60037159  -0.00796562  0.49294612  1
  Ti  Ti157  1  0.90559756  0.70354466  0.12006603  1
  Ti  Ti158  1  0.90249105  0.89557101  0.63352607  1
  Ti  Ti159  1  0.60442181  0.80469731  0.24962180  1
  Mo  Mo160  1  0.40149143  0.59813750  0.76329454  1
  Mo  Mo161  1  0.30145118  0.49849991  0.64161647  1
  Mo  Mo162  1  0.30103431  0.30082616  0.12571880  1
  Mo  Mo163  1  0.50097889  0.50466035  0.89085252  1
  Mo  Mo164  1  0.10094386  0.89164961  0.38664128  1
  Mo  Mo165  1  -0.00234840  -0.00297824  0.73378652  1
  Mo  Mo166  1  0.49933924  0.29656672  0.89902046  1
  Mo  Mo167  1  0.39247470  0.00123399  0.73703335  1
  Mo  Mo168  1  0.59884869  0.40419844  0.76709646  1
  Mo  Mo169  1  0.90580333  0.09868388  0.86403608  1
  Mo  Mo170  1  0.39851012  0.60296449  0.24297868  1
  Mo  Mo171  1  0.18918787  -0.00226327  -0.01086758  1
  Mo  Mo172  1  0.69575606  0.31212919  0.14190901  1
  Mo  Mo173  1  0.29226362  0.89647319  0.63668265  1
  Mo  Mo174  1  0.90821286  0.09884697  0.14297412  1
  Mo  Mo175  1  0.00956328  0.60391654  0.48662530  1
  Mo  Mo176  1  0.00783769  0.19393172  0.49981596  1
  Mo  Mo177  1  0.39196631  0.00505194  0.01574380  1
  Mo  Mo178  1  0.29747927  0.70128344  0.11936348  1
  Mo  Mo179  1  0.39988231  0.20124307  0.50133500  1
  Mo  Mo180  1  0.39942194  0.79347859  0.01196210  1
  Mo  Mo181  1  0.40401015  0.39980502  0.01305714  1
  Mo  Mo182  1  0.60000449  0.40105506  0.25196831  1
  Mo  Mo183  1  0.00242414  0.79387049  0.76717101  1
  Mo  Mo184  1  0.30321224  0.09164080  0.39076421  1
  Mo  Mo185  1  0.69606710  0.90870031  0.36315464  1
  Mo  Mo186  1  -0.00935350  -0.00179355  0.25466341  1
  Mo  Mo187  1  -0.00465207  0.60139643  -0.00545739  1
  Mo  Mo188  1  0.70574764  0.69708711  0.88164863  1
  Mo  Mo189  1  0.79268311  -0.00684852  0.51931110  1
  Mo  Mo190  1  0.91444681  0.50510715  0.61019964  1
  Mo  Mo191  1  0.00362801  0.19934589  0.72560083  1
  Mo  Mo192  1  0.90500207  0.89717711  0.11439451  1
  Mo  Mo193  1  0.20940350  0.40370641  0.47953733  1
  Mo  Mo194  1  0.49465444  0.70087339  0.87678598  1
  Mo  Mo195  1  0.29811705  0.29698223  0.88947323  1
  Mo  Mo196  1  0.29219452  0.09359297  0.10214100  1
  Mo  Mo197  1  0.49883369  0.10898378  0.11071114  1
  Mo  Mo198  1  0.10478074  0.69912008  0.87830197  1
  Mo  Mo199  1  0.80480949  0.80506363  0.22571279  1
