# generated using pymatgen
data_HfZrTaTiMo
_symmetry_space_group_name_H-M   'P 1'
_cell_length_a   15.93864784
_cell_length_b   15.92492510
_cell_length_c   15.21971691
_cell_angle_alpha   90.00054137
_cell_angle_beta   89.98281018
_cell_angle_gamma   90.11713825
_symmetry_Int_Tables_number   1
_chemical_formula_structural   HfZrTaTiMo
_chemical_formula_sum   'Hf40 Zr40 Ta40 Ti40 Mo40'
_cell_volume   3863.08728539
_cell_formula_units_Z   40
loop_
 _symmetry_equiv_pos_site_id
 _symmetry_equiv_pos_as_xyz
  1  'x, y, z'
loop_
 _atom_site_type_symbol
 _atom_site_label
 _atom_site_symmetry_multiplicity
 _atom_site_fract_x
 _atom_site_fract_y
 _atom_site_fract_z
 _atom_site_occupancy
  Hf  Hf0  1  0.81863307  0.20702113  0.76258841  1
  Hf  Hf1  1  0.39696659  0.00962141  0.23867773  1
  Hf  Hf2  1  0.49131970  0.50293233  0.63652349  1
  Hf  Hf3  1  0.38654049  0.20640757  0.22605831  1
  Hf  Hf4  1  0.00310674  0.20083190  0.49934479  1
  Hf  Hf5  1  0.70888551  0.31308810  0.63778304  1
  Hf  Hf6  1  0.70438985  0.90637423  0.13297976  1
  Hf  Hf7  1  0.30753313  0.08788307  0.88794706  1
  Hf  Hf8  1  0.40587944  0.40133941  0.50566039  1
  Hf  Hf9  1  0.90519006  0.30425029  0.13397765  1
  Hf  Hf10  1  0.90121996  0.31592540  0.37378191  1
  Hf  Hf11  1  0.10609598  0.90130668  0.89493825  1
  Hf  Hf12  1  0.69744104  0.70221243  0.63219508  1
  Hf  Hf13  1  0.19364201  0.40082872  0.00069696  1
  Hf  Hf14  1  0.70676613  0.68157530  0.35653888  1
  Hf  Hf15  1  0.59037455  0.19486794  0.52204412  1
  Hf  Hf16  1  0.80632667  0.59578209  0.74674640  1
  Hf  Hf17  1  0.90190390  0.10038851  0.12149616  1
  Hf  Hf18  1  0.90447850  0.90038399  0.61954094  1
  Hf  Hf19  1  0.30340449  0.89567668  0.60477611  1
  Hf  Hf20  1  0.50702726  0.91002479  0.36052526  1
  Hf  Hf21  1  0.59494258  0.60161880  0.75980345  1
  Hf  Hf22  1  0.51339705  0.91205448  0.61471806  1
  Hf  Hf23  1  0.38653986  0.39536175  0.00149777  1
  Hf  Hf24  1  0.21273795  -0.00620959  0.74201976  1
  Hf  Hf25  1  0.10365321  0.09529625  0.62358260  1
  Hf  Hf26  1  0.48455858  0.70219128  0.88635324  1
  Hf  Hf27  1  0.39575550  0.59740528  0.48236589  1
  Hf  Hf28  1  0.28530868  0.69870990  0.89449749  1
  Hf  Hf29  1  0.60406406  0.79896514  0.48343876  1
  Hf  Hf30  1  0.29606604  0.69288628  0.61547077  1
  Hf  Hf31  1  -0.00366049  0.59276154  0.01766261  1
  Hf  Hf32  1  0.00616744  0.79107460  0.73985950  1
  Hf  Hf33  1  0.79490302  0.20350336  0.50102587  1
  Hf  Hf34  1  0.60495874  0.59894080  0.00014227  1
  Hf  Hf35  1  0.69348375  0.30591085  0.37478419  1
  Hf  Hf36  1  0.80467310  0.78700128  0.49150125  1
  Hf  Hf37  1  0.40174286  0.79631134  0.47526634  1
  Hf  Hf38  1  0.40772384  0.01459385  0.49582620  1
  Hf  Hf39  1  0.01052364  0.00064079  0.24010657  1
  Zr  Zr40  1  0.49266003  0.49186508  0.88330785  1
  Zr  Zr41  1  0.39266542  0.81087688  0.75881859  1
  Zr  Zr42  1  0.90174239  0.09407582  0.62718564  1
  Zr  Zr43  1  0.70581074  0.90413315  0.63457771  1
  Zr  Zr44  1  0.18823031  0.59921455  0.74203783  1
  Zr  Zr45  1  0.50628841  0.30591381  0.36829625  1
  Zr  Zr46  1  0.60582741  0.00295124  -0.01092562  1
  Zr  Zr47  1  0.49424042  0.69864551  0.13157432  1
  Zr  Zr48  1  0.59983558  0.80517274  -0.00526165  1
  Zr  Zr49  1  -0.00764759  0.39889934  0.75617837  1
  Zr  Zr50  1  -0.00553301  0.60382697  0.25460691  1
  Zr  Zr51  1  0.80322443  0.20022319  -0.01509183  1
  Zr  Zr52  1  0.50409788  0.11693263  0.36282016  1
  Zr  Zr53  1  0.59598102  0.59405347  0.49772889  1
  Zr  Zr54  1  0.90351219  0.90720817  0.37636628  1
  Zr  Zr55  1  0.00643535  0.20647836  -0.01533400  1
  Zr  Zr56  1  0.29455184  0.69242288  0.14799411  1
  Zr  Zr57  1  0.20860806  0.38775780  0.24374648  1
  Zr  Zr58  1  0.49244547  0.70796962  0.63059246  1
  Zr  Zr59  1  0.07758628  0.50954244  0.60915248  1
  Zr  Zr60  1  0.89571610  0.09534499  0.37405801  1
  Zr  Zr61  1  0.88379175  0.50343312  0.38106349  1
  Zr  Zr62  1  0.50805613  0.29503596  0.11065317  1
  Zr  Zr63  1  0.10611714  0.29770682  0.37834857  1
  Zr  Zr64  1  0.80691448  0.40226935  -0.00232725  1
  Zr  Zr65  1  0.78999028  0.19922150  0.25085952  1
  Zr  Zr66  1  0.19798903  0.40314909  0.74769303  1
  Zr  Zr67  1  0.20972940  0.40627983  0.51381426  1
  Zr  Zr68  1  0.01444075  0.79759917  0.25107334  1
  Zr  Zr69  1  0.19822608  0.80156906  0.74614733  1
  Zr  Zr70  1  0.30833500  0.29448231  0.37992079  1
  Zr  Zr71  1  0.79597794  0.79955165  -0.00450415  1
  Zr  Zr72  1  0.28827143  0.28380944  0.86894590  1
  Zr  Zr73  1  0.09064211  0.49330290  0.37705372  1
  Zr  Zr74  1  0.09588519  0.69945485  0.89148642  1
  Zr  Zr75  1  0.11638157  0.10096629  0.87581842  1
  Zr  Zr76  1  0.59889130  0.81148681  0.77500383  1
  Zr  Zr77  1  0.69867792  0.09289022  0.64080703  1
  Zr  Zr78  1  0.91259532  0.90018831  0.87909693  1
  Zr  Zr79  1  0.70422503  0.91417283  0.36020543  1
  Ta  Ta80  1  0.49930483  0.90146788  0.12988273  1
  Ta  Ta81  1  0.89414517  0.69934404  0.12905627  1
  Ta  Ta82  1  0.10848474  0.90510271  0.38264666  1
  Ta  Ta83  1  0.88438795  0.48995151  0.61452096  1
  Ta  Ta84  1  0.60575236  0.40013826  0.22969586  1
  Ta  Ta85  1  0.29846456  0.90216738  0.36022139  1
  Ta  Ta86  1  0.70215272  0.69781360  0.13333883  1
  Ta  Ta87  1  0.10088617  0.89780134  0.59983055  1
  Ta  Ta88  1  0.29384755  0.10541588  0.37328527  1
  Ta  Ta89  1  0.39997299  0.19090915  0.74139674  1
  Ta  Ta90  1  0.19865266  0.00531857  0.24138087  1
  Ta  Ta91  1  0.69746052  0.30477413  0.86694979  1
  Ta  Ta92  1  0.19744671  0.00029304  0.02791133  1
  Ta  Ta93  1  0.49560791  0.50007376  0.12178582  1
  Ta  Ta94  1  0.59173540  0.00365669  0.77190404  1
  Ta  Ta95  1  0.89936539  0.90445885  0.12364087  1
  Ta  Ta96  1  0.29980983  0.89401518  0.13773693  1
  Ta  Ta97  1  0.29571210  0.90065666  0.90401261  1
  Ta  Ta98  1  0.00091332  0.79197639  0.48499425  1
  Ta  Ta99  1  0.21114703  0.19700896  0.51675117  1
  Ta  Ta100  1  0.09755004  0.29828466  0.13359668  1
  Ta  Ta101  1  0.00848802  -0.00318936  0.74986495  1
  Ta  Ta102  1  0.59325403  0.20029153  0.75785462  1
  Ta  Ta103  1  0.79990438  0.59573745  0.00901652  1
  Ta  Ta104  1  0.59712618  0.40102763  0.75401382  1
  Ta  Ta105  1  0.80857986  0.79622750  0.75595884  1
  Ta  Ta106  1  0.00876395  0.19802887  0.25666862  1
  Ta  Ta107  1  0.90485382  0.69408446  0.88021777  1
  Ta  Ta108  1  0.10737151  0.09733483  0.38156192  1
  Ta  Ta109  1  0.38062494  0.59274377  0.76224188  1
  Ta  Ta110  1  0.01026058  0.20320390  0.76011330  1
  Ta  Ta111  1  0.30179591  0.50196005  0.35702622  1
  Ta  Ta112  1  0.70443295  0.49693656  0.87071814  1
  Ta  Ta113  1  0.09821439  0.50623291  0.88145352  1
  Ta  Ta114  1  0.00252706  0.79776457  0.02243272  1
  Ta  Ta115  1  0.49940377  0.69357868  0.34728096  1
  Ta  Ta116  1  0.09636081  0.69984541  0.59955080  1
  Ta  Ta117  1  0.10043628  0.49881850  0.13817732  1
  Ta  Ta118  1  0.80935939  0.79649049  0.25135018  1
  Ta  Ta119  1  0.80609670  0.00368823  -0.01195118  1
  Ti  Ti120  1  0.78978081  0.00203927  0.49953082  1
  Ti  Ti121  1  0.20818971  0.00345630  0.49483729  1
  Ti  Ti122  1  0.47597620  0.91564187  0.89467501  1
  Ti  Ti123  1  0.29684813  0.50437778  0.13781753  1
  Ti  Ti124  1  0.60674832  0.19975409  -0.01706600  1
  Ti  Ti125  1  0.19376179  0.79677186  0.03071495  1
  Ti  Ti126  1  0.70188857  0.10466812  0.11743821  1
  Ti  Ti127  1  0.50469236  0.49666132  0.35753031  1
  Ti  Ti128  1  0.00237429  0.39998320  -0.00171566  1
  Ti  Ti129  1  0.49626733  0.29487758  0.87439828  1
  Ti  Ti130  1  0.39413566  0.19672489  0.00679835  1
  Ti  Ti131  1  0.39287967  0.80280566  0.01598856  1
  Ti  Ti132  1  0.60568059  0.58520842  0.23420887  1
  Ti  Ti133  1  0.78720735  0.59214969  0.51137606  1
  Ti  Ti134  1  0.91058880  0.68451782  0.61886291  1
  Ti  Ti135  1  0.69558482  0.49159790  0.36928776  1
  Ti  Ti136  1  0.69072780  0.10148021  0.37323577  1
  Ti  Ti137  1  0.49201349  0.10372593  0.88104295  1
  Ti  Ti138  1  0.09834817  0.29842241  0.62646986  1
  Ti  Ti139  1  0.70867087  0.09693537  0.86304203  1
  Ti  Ti140  1  0.60301871  0.01826700  0.23632284  1
  Ti  Ti141  1  0.50528798  0.10133689  0.11024458  1
  Ti  Ti142  1  0.49791845  0.30274333  0.64112032  1
  Ti  Ti143  1  0.20379150  0.79177250  0.47735385  1
  Ti  Ti144  1  0.40401689  0.00313024  0.74141231  1
  Ti  Ti145  1  0.90258399  0.30788253  0.61770857  1
  Ti  Ti146  1  0.20328001  0.20134513  0.02260178  1
  Ti  Ti147  1  0.30147337  0.29719678  0.63717109  1
  Ti  Ti148  1  0.60552973  0.40802423  0.51599126  1
  Ti  Ti149  1  0.90355839  0.50494309  0.87401235  1
  Ti  Ti150  1  0.39087383  0.40232698  0.75682634  1
  Ti  Ti151  1  0.40506609  0.40042657  0.23652124  1
  Ti  Ti152  1  0.60354257  0.79909929  0.24725459  1
  Ti  Ti153  1  0.38219519  0.58966005  0.00045702  1
  Ti  Ti154  1  0.60551193  0.40045243  -0.00170220  1
  Ti  Ti155  1  0.20006562  0.60200736  0.48125193  1
  Ti  Ti156  1  0.39980097  0.19854992  0.52186737  1
  Ti  Ti157  1  0.70907556  0.69673691  0.87312701  1
  Ti  Ti158  1  0.69897088  0.29565155  0.11850967  1
  Ti  Ti159  1  0.79373776  0.41428538  0.23181900  1
  Mo  Mo160  1  0.50078421  0.09865915  0.64092006  1
  Mo  Mo161  1  -0.00666483  0.60324123  0.75422342  1
  Mo  Mo162  1  0.30308750  0.50296135  0.62189820  1
  Mo  Mo163  1  0.90499118  0.30634692  0.87639537  1
  Mo  Mo164  1  0.19959495  0.80181561  0.26016680  1
  Mo  Mo165  1  0.40284743  0.80416328  0.25389331  1
  Mo  Mo166  1  0.80839432  -0.00148752  0.76964900  1
  Mo  Mo167  1  0.29943399  0.09937981  0.11590469  1
  Mo  Mo168  1  0.60333912  0.20026224  0.23020125  1
  Mo  Mo169  1  0.89975305  0.49774958  0.13070646  1
  Mo  Mo170  1  0.40502126  0.58849735  0.25545994  1
  Mo  Mo171  1  0.78802614  0.40409045  0.50081049  1
  Mo  Mo172  1  0.29032293  0.50375048  0.87843175  1
  Mo  Mo173  1  0.10103048  0.30274455  0.87383959  1
  Mo  Mo174  1  0.60701149  0.00874161  0.49112801  1
  Mo  Mo175  1  0.29654629  0.69895745  0.35988255  1
  Mo  Mo176  1  -0.00164665  0.39865480  0.23907139  1
  Mo  Mo177  1  0.00474128  -0.00078094  0.01316176  1
  Mo  Mo178  1  -0.00720907  0.39674982  0.51361444  1
  Mo  Mo179  1  0.10171035  0.69449318  0.12474330  1
  Mo  Mo180  1  0.80048333  0.00171256  0.23395427  1
  Mo  Mo181  1  -0.01664294  0.60749933  0.48546874  1
  Mo  Mo182  1  0.91225308  0.09360098  0.86907336  1
  Mo  Mo183  1  0.69517398  0.49908967  0.64059331  1
  Mo  Mo184  1  0.10151659  0.69805717  0.38569271  1
  Mo  Mo185  1  0.19451447  0.18808197  0.23952268  1
  Mo  Mo186  1  0.89354523  0.69753436  0.37060582  1
  Mo  Mo187  1  0.20358264  0.19797593  0.73239711  1
  Mo  Mo188  1  0.39977550  -0.00232080  0.02052197  1
  Mo  Mo189  1  0.80159483  0.40315690  0.76505710  1
  Mo  Mo190  1  0.69596730  0.49598541  0.11211570  1
  Mo  Mo191  1  0.79394875  0.59420529  0.23069314  1
  Mo  Mo192  1  0.00873860  -0.00267281  0.49839945  1
  Mo  Mo193  1  0.19652564  0.59953175  0.26035848  1
  Mo  Mo194  1  0.29823795  0.30219576  0.11591353  1
  Mo  Mo195  1  0.71082939  0.90503758  0.86236132  1
  Mo  Mo196  1  0.30370374  0.09818160  0.61962072  1
  Mo  Mo197  1  0.19553140  0.59234610  0.01841725  1
  Mo  Mo198  1  0.10245239  0.89895657  0.12542289  1
  Mo  Mo199  1  0.09875307  0.10596368  0.12494102  1
