# generated using pymatgen
data_HfZrTaTiMo
_symmetry_space_group_name_H-M   'P 1'
_cell_length_a   15.93510229
_cell_length_b   15.91976163
_cell_length_c   15.20880977
_cell_angle_alpha   89.98243310
_cell_angle_beta   89.89413515
_cell_angle_gamma   90.11251166
_symmetry_Int_Tables_number   1
_chemical_formula_structural   HfZrTaTiMo
_chemical_formula_sum   'Hf40 Zr40 Ta40 Ti40 Mo40'
_cell_volume   3858.20273444
_cell_formula_units_Z   40
loop_
 _symmetry_equiv_pos_site_id
 _symmetry_equiv_pos_as_xyz
  1  'x, y, z'
loop_
 _atom_site_type_symbol
 _atom_site_label
 _atom_site_symmetry_multiplicity
 _atom_site_fract_x
 _atom_site_fract_y
 _atom_site_fract_z
 _atom_site_occupancy
  Hf  Hf0  1  0.39611231  0.00025492  0.01579284  1
  Hf  Hf1  1  0.78492297  0.20343561  0.75840183  1
  Hf  Hf2  1  0.09450139  0.09080565  0.36810648  1
  Hf  Hf3  1  0.40647315  0.40216629  0.49865554  1
  Hf  Hf4  1  -0.00477610  0.40180925  0.51103022  1
  Hf  Hf5  1  0.10117824  0.50172344  0.38804813  1
  Hf  Hf6  1  0.40654937  0.20293931  0.49610829  1
  Hf  Hf7  1  0.20162025  0.59634752  -0.01230097  1
  Hf  Hf8  1  0.19976389  0.19618576  0.50458538  1
  Hf  Hf9  1  0.80918649  0.79343465  0.50596014  1
  Hf  Hf10  1  0.70096053  0.89715356  0.89274621  1
  Hf  Hf11  1  0.29411818  0.09513588  0.87633087  1
  Hf  Hf12  1  0.41359280  0.60969987  0.75545776  1
  Hf  Hf13  1  0.59263370  0.79174081  0.76110624  1
  Hf  Hf14  1  0.79413641  -0.00783490  0.74240200  1
  Hf  Hf15  1  -0.01535144  -0.02670527  0.24977287  1
  Hf  Hf16  1  0.30956222  0.89354905  0.60903840  1
  Hf  Hf17  1  0.89580845  0.50621179  0.86497948  1
  Hf  Hf18  1  0.88953019  0.30071651  0.87817115  1
  Hf  Hf19  1  -0.00162291  0.19249786  0.50070205  1
  Hf  Hf20  1  0.10869170  0.70320542  0.11956466  1
  Hf  Hf21  1  0.59232167  0.40778174  0.49607691  1
  Hf  Hf22  1  0.39782477  0.21305384  0.00596849  1
  Hf  Hf23  1  0.61845484  0.00093619  0.25284890  1
  Hf  Hf24  1  0.69198877  0.50030281  0.12658178  1
  Hf  Hf25  1  -0.00130424  0.19547606  -0.00269466  1
  Hf  Hf26  1  0.50966705  0.90233682  0.13299829  1
  Hf  Hf27  1  0.89609052  0.70479389  0.87039731  1
  Hf  Hf28  1  0.69420566  0.10168676  0.11297190  1
  Hf  Hf29  1  0.90530745  0.10229598  0.62865752  1
  Hf  Hf30  1  0.39585370  0.79962766  0.01326543  1
  Hf  Hf31  1  0.20259197  0.40390143  0.75114451  1
  Hf  Hf32  1  0.50675153  0.51936254  0.88841743  1
  Hf  Hf33  1  0.20422902  0.40511803  0.25282728  1
  Hf  Hf34  1  0.59429419  0.21270664  0.48834143  1
  Hf  Hf35  1  0.78154887  0.60383712  0.74810316  1
  Hf  Hf36  1  0.22608785  0.78811131  0.25513976  1
  Hf  Hf37  1  0.79102602  0.19092403  0.24802834  1
  Hf  Hf38  1  0.30145009  0.09463104  0.37889305  1
  Hf  Hf39  1  0.88695566  0.07822929  0.38273563  1
  Zr  Zr40  1  0.10637764  0.88756371  0.11775767  1
  Zr  Zr41  1  0.89788192  0.09634313  0.87167156  1
  Zr  Zr42  1  0.29975646  0.70535944  0.61100690  1
  Zr  Zr43  1  0.38525852  0.61529639  0.24595572  1
  Zr  Zr44  1  -0.00843393  0.39594329  0.24067416  1
  Zr  Zr45  1  0.49806195  0.10051933  0.88415858  1
  Zr  Zr46  1  0.71877781  0.91794004  0.39251281  1
  Zr  Zr47  1  -0.00460493  0.40501835  -0.00360911  1
  Zr  Zr48  1  0.78847446  0.39964711  0.49279398  1
  Zr  Zr49  1  0.20196743  0.60529873  0.75527630  1
  Zr  Zr50  1  0.69508996  0.09679519  0.89743994  1
  Zr  Zr51  1  0.89699684  0.50745189  0.37534411  1
  Zr  Zr52  1  0.89094932  0.28680550  0.37166188  1
  Zr  Zr53  1  0.90646481  0.72100004  0.12563883  1
  Zr  Zr54  1  0.09241142  0.29026223  0.63932524  1
  Zr  Zr55  1  0.69604965  0.09810853  0.60684487  1
  Zr  Zr56  1  -0.00153496  0.59518166  0.23542949  1
  Zr  Zr57  1  0.79934295  0.60241265  0.01111797  1
  Zr  Zr58  1  0.10862649  0.49367220  0.11234904  1
  Zr  Zr59  1  0.18995617  0.17707032  0.74512650  1
  Zr  Zr60  1  0.10290748  0.29176377  0.12122160  1
  Zr  Zr61  1  0.59194263  0.39790786  -0.00150389  1
  Zr  Zr62  1  0.00261508  -0.00242962  0.00187353  1
  Zr  Zr63  1  0.20217822  -0.01368499  0.25321098  1
  Zr  Zr64  1  0.09613996  0.29893299  0.37375373  1
  Zr  Zr65  1  0.60026764  0.60512027  0.48092902  1
  Zr  Zr66  1  0.79147420  0.80281043  0.74075883  1
  Zr  Zr67  1  0.10810496  0.68791900  0.37387790  1
  Zr  Zr68  1  0.00992854  0.80849940  0.74507784  1
  Zr  Zr69  1  0.30854192  0.50658112  0.61948222  1
  Zr  Zr70  1  0.02268477  0.00865497  0.74851334  1
  Zr  Zr71  1  0.49733645  0.70551633  0.61689075  1
  Zr  Zr72  1  0.59395909  0.80626303  0.47738421  1
  Zr  Zr73  1  0.39503474  0.20662524  0.25730960  1
  Zr  Zr74  1  0.29313601  0.10460928  0.12932661  1
  Zr  Zr75  1  0.88869358  0.29903171  0.63440479  1
  Zr  Zr76  1  0.60337192  0.40813816  0.75886916  1
  Zr  Zr77  1  0.38799758  0.40996482  0.24541281  1
  Zr  Zr78  1  0.40421175  -0.00367065  0.74654211  1
  Zr  Zr79  1  0.59537546  0.19850808  0.75488373  1
  Ta  Ta80  1  0.29079075  0.51374547  0.39470013  1
  Ta  Ta81  1  0.69687017  0.49919091  0.35653666  1
  Ta  Ta82  1  0.19766053  0.20451007  0.25604944  1
  Ta  Ta83  1  0.88997173  0.29168797  0.12189471  1
  Ta  Ta84  1  0.50499957  0.90158268  0.89061612  1
  Ta  Ta85  1  0.30702078  0.29365370  0.63646376  1
  Ta  Ta86  1  0.48691903  0.30499524  0.86813654  1
  Ta  Ta87  1  0.60218590  0.60775301  0.24686006  1
  Ta  Ta88  1  0.49661551  0.30239017  0.63866139  1
  Ta  Ta89  1  0.30542599  0.09078501  0.61335854  1
  Ta  Ta90  1  0.09344008  0.50809106  0.63028587  1
  Ta  Ta91  1  -0.00310237  0.40307996  0.75230596  1
  Ta  Ta92  1  0.80598372  -0.01075722  0.01991702  1
  Ta  Ta93  1  0.30460306  0.70284971  0.88349406  1
  Ta  Ta94  1  0.70304364  0.10679806  0.39040179  1
  Ta  Ta95  1  -0.00116313  0.60224383  -0.00092491  1
  Ta  Ta96  1  0.60854754  0.80124731  0.25807052  1
  Ta  Ta97  1  0.41590392  -0.00624386  0.48974514  1
  Ta  Ta98  1  0.00501664  0.79719743  0.49721899  1
  Ta  Ta99  1  0.09660406  0.09829023  0.13541030  1
  Ta  Ta100  1  0.89373205  0.50501651  0.63582966  1
  Ta  Ta101  1  0.50268698  0.70237005  0.13191702  1
  Ta  Ta102  1  0.09841181  0.29351047  0.86726306  1
  Ta  Ta103  1  0.60093356  0.79469050  0.00775004  1
  Ta  Ta104  1  0.79912410  0.60211728  0.50368450  1
  Ta  Ta105  1  0.49954965  0.50417641  0.35326685  1
  Ta  Ta106  1  0.40153210  0.80419541  0.76877465  1
  Ta  Ta107  1  0.79446592  0.39921986  0.24010737  1
  Ta  Ta108  1  0.20121256  0.39881725  0.51517323  1
  Ta  Ta109  1  0.50403652  0.29976523  0.13255372  1
  Ta  Ta110  1  -0.00748718  0.60830975  0.51498344  1
  Ta  Ta111  1  0.69263211  0.50501627  0.62361769  1
  Ta  Ta112  1  0.50817713  0.10980948  0.13095634  1
  Ta  Ta113  1  0.30350575  0.29591137  0.86131351  1
  Ta  Ta114  1  0.69000205  0.29275019  0.12423406  1
  Ta  Ta115  1  0.20905912  0.80560924  0.75927413  1
  Ta  Ta116  1  0.81206105  0.82223466  0.25457677  1
  Ta  Ta117  1  0.80027975  0.60493502  0.24169573  1
  Ta  Ta118  1  0.69407680  0.30244223  0.61993723  1
  Ta  Ta119  1  0.11534236  0.90449969  0.88495149  1
  Ti  Ti120  1  0.49955834  0.09807655  0.62284897  1
  Ti  Ti121  1  0.69865722  0.50447007  0.88788758  1
  Ti  Ti122  1  0.50463867  0.90096265  0.62077838  1
  Ti  Ti123  1  0.68159087  0.68840998  0.88927198  1
  Ti  Ti124  1  0.09762814  0.70170387  0.87056747  1
  Ti  Ti125  1  0.50595100  0.09431604  0.36403376  1
  Ti  Ti126  1  0.90460686  0.70462329  0.36717778  1
  Ti  Ti127  1  0.21071360  0.59239245  0.23438661  1
  Ti  Ti128  1  0.31433398  0.49323477  0.88244610  1
  Ti  Ti129  1  0.19914558  0.79962827  0.48469883  1
  Ti  Ti130  1  0.49403739  0.50086310  0.12635282  1
  Ti  Ti131  1  0.29809958  0.90190275  0.88793853  1
  Ti  Ti132  1  0.69006204  0.70070071  0.61923253  1
  Ti  Ti133  1  0.20725204  0.39363241  -0.01892091  1
  Ti  Ti134  1  0.70377018  0.71377934  0.13012077  1
  Ti  Ti135  1  0.30539359  0.89857601  0.38172791  1
  Ti  Ti136  1  0.29527970  0.31058272  0.11631726  1
  Ti  Ti137  1  0.11538906  0.89863999  0.61033620  1
  Ti  Ti138  1  0.20548105  -0.00958195  0.73973860  1
  Ti  Ti139  1  0.71389842  0.70004392  0.36548073  1
  Ti  Ti140  1  0.00178785  0.79972757  -0.01482396  1
  Ti  Ti141  1  0.51041854  0.31120499  0.35074812  1
  Ti  Ti142  1  0.19648912  0.19636047  -0.00618279  1
  Ti  Ti143  1  0.41139578  0.60344883  0.48493782  1
  Ti  Ti144  1  0.78651444  0.40102205  0.75447608  1
  Ti  Ti145  1  0.89906014  0.89828464  0.87833736  1
  Ti  Ti146  1  0.40981644  0.79508803  0.46497218  1
  Ti  Ti147  1  0.39873598  -0.00994413  0.24927122  1
  Ti  Ti148  1  0.59925901  -0.00648685  0.74967198  1
  Ti  Ti149  1  0.00918383  -0.01215777  0.49839650  1
  Ti  Ti150  1  0.79608073  0.39697553  0.00853901  1
  Ti  Ti151  1  0.90530904  0.69715277  0.63762989  1
  Ti  Ti152  1  0.40494895  0.40879786  0.74631911  1
  Ti  Ti153  1  0.29481556  0.30757277  0.38428191  1
  Ti  Ti154  1  0.90043087  0.09755757  0.13221959  1
  Ti  Ti155  1  0.90742115  0.90181090  0.61852226  1
  Ti  Ti156  1  0.10291111  0.70224604  0.62552832  1
  Ti  Ti157  1  0.09196562  0.50331021  0.86568997  1
  Ti  Ti158  1  0.68808002  0.90255972  0.61076392  1
  Ti  Ti159  1  0.39888311  0.60216911  0.01203563  1
  Mo  Mo160  1  0.69285911  0.30413499  0.35636135  1
  Mo  Mo161  1  0.50569192  0.50333758  0.62985446  1
  Mo  Mo162  1  0.49973627  0.70484213  0.89482870  1
  Mo  Mo163  1  0.20549708  -0.00755148  0.49606764  1
  Mo  Mo164  1  0.90439189  0.89277076  0.11277071  1
  Mo  Mo165  1  0.39420170  0.40224095  0.00104757  1
  Mo  Mo166  1  0.10928539  0.09537497  0.89266514  1
  Mo  Mo167  1  0.20180140  0.00042147  0.01120442  1
  Mo  Mo168  1  0.20087090  0.79737396  -0.01835204  1
  Mo  Mo169  1  0.59597954  0.40321391  0.23881673  1
  Mo  Mo170  1  0.59685578  -0.00395464  0.01557664  1
  Mo  Mo171  1  0.79827689  0.80035918  -0.00375133  1
  Mo  Mo172  1  0.00756104  0.79816880  0.27271193  1
  Mo  Mo173  1  0.79970638  0.19996371  0.01139311  1
  Mo  Mo174  1  0.89267738  0.49721188  0.12280365  1
  Mo  Mo175  1  -0.00365118  0.20056815  0.76767495  1
  Mo  Mo176  1  0.30172434  0.89689077  0.12293312  1
  Mo  Mo177  1  0.50085392  0.70251802  0.35139905  1
  Mo  Mo178  1  0.40303807  0.80596813  0.24928941  1
  Mo  Mo179  1  0.29743618  0.69730361  0.10637508  1
  Mo  Mo180  1  0.80724719  -0.00363643  0.52476717  1
  Mo  Mo181  1  0.30235804  0.69531934  0.39228349  1
  Mo  Mo182  1  0.69656841  0.30041953  0.89868538  1
  Mo  Mo183  1  0.10298129  0.89000158  0.38132624  1
  Mo  Mo184  1  0.80164722  -0.00419140  0.23435502  1
  Mo  Mo185  1  0.59973903  0.20074691  0.26259070  1
  Mo  Mo186  1  0.49831458  0.90593660  0.35319711  1
  Mo  Mo187  1  0.10779204  0.08228808  0.60467349  1
  Mo  Mo188  1  0.90542309  0.89214776  0.39630246  1
  Mo  Mo189  1  0.79551028  0.20254594  0.49434383  1
  Mo  Mo190  1  0.60033958  0.60301631  0.74546723  1
  Mo  Mo191  1  0.70744425  0.89228259  0.12067148  1
  Mo  Mo192  1  -0.00126358  0.60335525  0.74219762  1
  Mo  Mo193  1  0.59575109  0.60682603  0.02678722  1
  Mo  Mo194  1  0.39707984  0.19907539  0.73912353  1
  Mo  Mo195  1  -0.00408904  0.18714575  0.23917646  1
  Mo  Mo196  1  0.30151427  0.49605386  0.10150525  1
  Mo  Mo197  1  0.19255569  0.60090648  0.51767658  1
  Mo  Mo198  1  0.59006607  0.00573347  0.49262137  1
  Mo  Mo199  1  0.59185160  0.20638805  -0.00629786  1
