# generated using pymatgen
data_HfZrTaTiMo
_symmetry_space_group_name_H-M   'P 1'
_cell_length_a   15.93240369
_cell_length_b   15.93241246
_cell_length_c   15.20801953
_cell_angle_alpha   90.01295927
_cell_angle_beta   89.99994540
_cell_angle_gamma   90.13173587
_symmetry_Int_Tables_number   1
_chemical_formula_structural   HfZrTaTiMo
_chemical_formula_sum   'Hf40 Zr40 Ta40 Ti40 Mo40'
_cell_volume   3860.41812083
_cell_formula_units_Z   40
loop_
 _symmetry_equiv_pos_site_id
 _symmetry_equiv_pos_as_xyz
  1  'x, y, z'
loop_
 _atom_site_type_symbol
 _atom_site_label
 _atom_site_symmetry_multiplicity
 _atom_site_fract_x
 _atom_site_fract_y
 _atom_site_fract_z
 _atom_site_occupancy
  Hf  Hf0  1  0.11610589  0.51203163  0.11276017  1
  Hf  Hf1  1  0.41102393  0.60339417  0.74923717  1
  Hf  Hf2  1  0.90196370  0.50690995  0.61733418  1
  Hf  Hf3  1  0.28956057  0.69101111  0.12215566  1
  Hf  Hf4  1  0.41735706  0.40906642  0.50412818  1
  Hf  Hf5  1  0.90033502  0.70235797  0.39851507  1
  Hf  Hf6  1  0.80264451  0.38994158  0.78035912  1
  Hf  Hf7  1  0.51295688  0.70555073  0.88827743  1
  Hf  Hf8  1  0.40339574  0.20216752  0.73086990  1
  Hf  Hf9  1  0.09533417  0.11224257  0.37131755  1
  Hf  Hf10  1  0.09614233  0.90113360  0.86491469  1
  Hf  Hf11  1  0.79898457  0.79558116  0.26133317  1
  Hf  Hf12  1  0.80933856  0.40079945  0.25283583  1
  Hf  Hf13  1  0.88565627  0.31623108  0.61734398  1
  Hf  Hf14  1  0.68590754  0.90007829  0.88751982  1
  Hf  Hf15  1  0.40111729  -0.01004006  0.49466355  1
  Hf  Hf16  1  0.89972351  0.07745431  0.62485595  1
  Hf  Hf17  1  0.40330530  0.40443437  0.25223251  1
  Hf  Hf18  1  0.39757624  0.00120450  0.25434422  1
  Hf  Hf19  1  0.70161292  0.89425251  0.13659481  1
  Hf  Hf20  1  0.70793630  0.47301155  0.62972635  1
  Hf  Hf21  1  0.60810179  0.40491030  0.24933087  1
  Hf  Hf22  1  0.39401160  0.80610255  0.74996495  1
  Hf  Hf23  1  -0.00124370  0.39748956  -0.01580265  1
  Hf  Hf24  1  0.59541308  -0.00041964  0.02648692  1
  Hf  Hf25  1  0.88687899  0.88009188  0.60861085  1
  Hf  Hf26  1  0.88842374  0.10873296  0.13948557  1
  Hf  Hf27  1  0.71721613  0.29484431  0.12159145  1
  Hf  Hf28  1  0.59666339  0.80093292  0.48874943  1
  Hf  Hf29  1  0.59774543  0.19708765  0.24161233  1
  Hf  Hf30  1  0.08586898  0.90546151  0.63232845  1
  Hf  Hf31  1  0.20239216  0.39704188  0.74810029  1
  Hf  Hf32  1  0.30223898  0.50690627  0.38476294  1
  Hf  Hf33  1  0.10225948  0.29090550  0.86982594  1
  Hf  Hf34  1  0.72314967  0.71007060  0.61205017  1
  Hf  Hf35  1  0.20059050  0.81057862  0.50017703  1
  Hf  Hf36  1  0.18966196  0.00369060  0.01989716  1
  Hf  Hf37  1  0.60670841  0.59904016  0.74761058  1
  Hf  Hf38  1  0.30586320  0.50163622  0.62609465  1
  Hf  Hf39  1  0.90376629  0.90447145  0.87828924  1
  Zr  Zr40  1  0.20090140  0.19088298  0.00562687  1
  Zr  Zr41  1  0.19734549  0.20188631  0.23960349  1
  Zr  Zr42  1  0.18745017  0.79259548  0.26186720  1
  Zr  Zr43  1  0.51967881  0.31076495  0.62259593  1
  Zr  Zr44  1  0.50446530  0.49692944  0.10460609  1
  Zr  Zr45  1  0.19136080  0.61197168  0.74035210  1
  Zr  Zr46  1  0.30234118  0.09821231  0.86521626  1
  Zr  Zr47  1  0.40966162  0.61075781  0.50637595  1
  Zr  Zr48  1  0.60045157  0.81104609  0.74245132  1
  Zr  Zr49  1  0.19084364  0.38654988  0.51395225  1
  Zr  Zr50  1  0.01052316  0.20861960  0.50831597  1
  Zr  Zr51  1  0.29765550  0.88948362  0.13775288  1
  Zr  Zr52  1  0.59785260  0.59371000  0.51781466  1
  Zr  Zr53  1  0.29926083  0.29774548  0.38011731  1
  Zr  Zr54  1  0.30311033  0.31568666  0.11614710  1
  Zr  Zr55  1  0.50601655  0.08565501  0.87173969  1
  Zr  Zr56  1  0.40747097  0.61041137  0.24417153  1
  Zr  Zr57  1  0.00283191  0.61410407  0.24693396  1
  Zr  Zr58  1  0.80171867  0.19104987  0.50596625  1
  Zr  Zr59  1  0.78825590  -0.00435436  0.75392326  1
  Zr  Zr60  1  0.19856933  -0.00264311  0.48571563  1
  Zr  Zr61  1  0.09807307  0.09291519  0.62660401  1
  Zr  Zr62  1  0.19184636  0.79763565  -0.00123926  1
  Zr  Zr63  1  0.69990515  0.10305424  0.37017317  1
  Zr  Zr64  1  0.60880301  0.18954825  0.00893438  1
  Zr  Zr65  1  0.09540197  0.30649094  0.11832028  1
  Zr  Zr66  1  0.39319738  0.00129902  0.01722974  1
  Zr  Zr67  1  0.41731875  -0.00663282  0.72471213  1
  Zr  Zr68  1  0.09812206  0.50997053  0.39021997  1
  Zr  Zr69  1  -0.01376807  0.20763075  0.74389774  1
  Zr  Zr70  1  0.39915813  0.60302450  -0.00692828  1
  Zr  Zr71  1  0.80296603  0.60126967  0.75965545  1
  Zr  Zr72  1  0.09311332  0.08532990  0.85493783  1
  Zr  Zr73  1  0.00508390  0.40167652  0.25542669  1
  Zr  Zr74  1  0.61025427  0.19416917  0.74214790  1
  Zr  Zr75  1  0.50131837  0.29023590  0.88508479  1
  Zr  Zr76  1  0.29883911  0.50694594  0.86808997  1
  Zr  Zr77  1  0.50386416  0.29476978  0.37632923  1
  Zr  Zr78  1  0.20892436  0.20832170  0.72719499  1
  Zr  Zr79  1  0.90511492  0.50145983  0.11465302  1
  Ta  Ta80  1  0.69195610  0.50500349  0.89924966  1
  Ta  Ta81  1  0.70103340  0.70231749  0.89655301  1
  Ta  Ta82  1  0.30301521  0.10604843  0.37526919  1
  Ta  Ta83  1  0.50402278  0.30257200  0.11425098  1
  Ta  Ta84  1  -0.00586769  -0.00146745  0.25969245  1
  Ta  Ta85  1  -0.00409063  0.19082969  0.00335984  1
  Ta  Ta86  1  -0.00131358  0.80576698  0.01301075  1
  Ta  Ta87  1  0.61490575  0.40704926  0.48510007  1
  Ta  Ta88  1  0.60684002  0.60674825  0.22938320  1
  Ta  Ta89  1  0.59684851  -0.00561156  0.49044690  1
  Ta  Ta90  1  0.09189133  0.70580717  0.39508325  1
  Ta  Ta91  1  0.08835182  0.89687587  0.14257563  1
  Ta  Ta92  1  0.70840288  0.30084949  0.37877204  1
  Ta  Ta93  1  0.49732706  0.88500215  0.13752046  1
  Ta  Ta94  1  -0.00511966  0.60695832  0.74769549  1
  Ta  Ta95  1  0.79351858  0.20084181  0.75267821  1
  Ta  Ta96  1  0.69090267  0.68868469  0.37480658  1
  Ta  Ta97  1  0.40647325  0.39737570  0.75506336  1
  Ta  Ta98  1  0.39969040  0.19018563  0.01860617  1
  Ta  Ta99  1  0.30003113  0.70284868  0.37978433  1
  Ta  Ta100  1  0.60528109  0.39881068  0.77454036  1
  Ta  Ta101  1  0.51630502  0.51595019  0.36562377  1
  Ta  Ta102  1  0.20028371  0.40736912  0.25829879  1
  Ta  Ta103  1  -0.00324342  0.00441128  0.01985968  1
  Ta  Ta104  1  0.19798193  0.80123084  0.74209318  1
  Ta  Ta105  1  0.79972922  0.00632380  0.00291824  1
  Ta  Ta106  1  -0.01107434  0.78792052  0.74411291  1
  Ta  Ta107  1  0.79700912  0.59983871  0.24866252  1
  Ta  Ta108  1  0.90247965  0.70397407  0.89283879  1
  Ta  Ta109  1  0.40040435  0.19679754  0.23461815  1
  Ta  Ta110  1  0.40137413  0.19585922  0.51317516  1
  Ta  Ta111  1  0.80018970  0.79336963  0.76701764  1
  Ta  Ta112  1  0.59587716  -0.00646982  0.25721376  1
  Ta  Ta113  1  0.80370881  0.39398527  -0.00963505  1
  Ta  Ta114  1  0.89738931  0.70784860  0.12068648  1
  Ta  Ta115  1  0.90252361  0.29494095  0.38131511  1
  Ta  Ta116  1  0.79914885  0.80552272  0.00427255  1
  Ta  Ta117  1  0.19405003  0.00037789  0.25723741  1
  Ta  Ta118  1  0.20466120  0.40218557  -0.02146400  1
  Ta  Ta119  1  0.70401847  0.49877095  0.11290900  1
  Ti  Ti120  1  0.90239058  0.51407793  0.88450583  1
  Ti  Ti121  1  0.09167272  0.50146690  0.62514300  1
  Ti  Ti122  1  0.60319880  0.19858738  0.50476433  1
  Ti  Ti123  1  0.39833008  0.80444239  0.49241391  1
  Ti  Ti124  1  0.69872517  0.09512973  0.87500809  1
  Ti  Ti125  1  0.59223771  0.78448602  0.25032919  1
  Ti  Ti126  1  0.70867213  0.09475809  0.14152164  1
  Ti  Ti127  1  -0.00889652  0.20796396  0.24757769  1
  Ti  Ti128  1  0.19787513  0.60708661  0.51049496  1
  Ti  Ti129  1  0.90134847  0.09560987  0.87081574  1
  Ti  Ti130  1  0.20221987  0.20487802  0.50985277  1
  Ti  Ti131  1  0.79990276  0.60640448  0.00945451  1
  Ti  Ti132  1  0.08337662  0.70454193  0.61236011  1
  Ti  Ti133  1  0.49904229  0.90068509  0.88717020  1
  Ti  Ti134  1  0.79462188  -0.01461650  0.47596408  1
  Ti  Ti135  1  0.09456407  0.70388007  0.87338446  1
  Ti  Ti136  1  0.29792389  0.90066616  0.87840277  1
  Ti  Ti137  1  -0.00793177  -0.00832276  0.47464917  1
  Ti  Ti138  1  0.00164031  0.39825387  0.49527957  1
  Ti  Ti139  1  0.30082504  0.70931809  0.61942984  1
  Ti  Ti140  1  0.29247172  0.70582681  0.87601517  1
  Ti  Ti141  1  0.80789896  0.19912379  -0.01845639  1
  Ti  Ti142  1  0.19773380  0.60034236  0.25952526  1
  Ti  Ti143  1  0.90016596  0.50328272  0.38550680  1
  Ti  Ti144  1  0.89551391  0.90404419  0.13206493  1
  Ti  Ti145  1  0.21813377  -0.01273147  0.73608691  1
  Ti  Ti146  1  0.39956660  0.80132098  -0.00052891  1
  Ti  Ti147  1  0.00889268  0.61329401  0.00264593  1
  Ti  Ti148  1  0.50145325  0.71262940  0.62685488  1
  Ti  Ti149  1  0.49717355  0.10422983  0.37809180  1
  Ti  Ti150  1  0.40124480  0.39880600  -0.02031621  1
  Ti  Ti151  1  0.69850063  0.90164934  0.61556683  1
  Ti  Ti152  1  -0.00245970  0.40801877  0.76063594  1
  Ti  Ti153  1  0.09867133  0.51396426  0.87517719  1
  Ti  Ti154  1  0.30153724  0.09311511  0.61323426  1
  Ti  Ti155  1  0.49502039  0.88775638  0.36104297  1
  Ti  Ti156  1  0.69634922  0.08940110  0.61816276  1
  Ti  Ti157  1  0.79046929  0.58729203  0.49110106  1
  Ti  Ti158  1  0.80399928  -0.00330905  0.27031945  1
  Ti  Ti159  1  0.29746751  0.50082902  0.11554564  1
  Mo  Mo160  1  0.09385231  0.70041451  0.12097265  1
  Mo  Mo161  1  0.70252754  0.69903282  0.12121133  1
  Mo  Mo162  1  0.60503346  0.39659145  -0.00547265  1
  Mo  Mo163  1  0.50959888  0.49581814  0.64923054  1
  Mo  Mo164  1  0.69107739  0.89610886  0.36024567  1
  Mo  Mo165  1  0.70261641  0.29297412  0.89005102  1
  Mo  Mo166  1  0.19382390  0.60075301  -0.01481997  1
  Mo  Mo167  1  0.08732201  0.09483151  0.14321161  1
  Mo  Mo168  1  0.89971693  0.29546737  0.10652200  1
  Mo  Mo169  1  0.30876162  0.30238958  0.61207414  1
  Mo  Mo170  1  0.70382691  0.50582031  0.36133005  1
  Mo  Mo171  1  0.50051126  0.09656907  0.13886186  1
  Mo  Mo172  1  0.90270199  0.29043281  0.88112231  1
  Mo  Mo173  1  0.50025982  0.70720162  0.11339761  1
  Mo  Mo174  1  0.09595447  0.30364503  0.36455048  1
  Mo  Mo175  1  0.30633136  0.29796104  0.88709308  1
  Mo  Mo176  1  0.70455995  0.29754036  0.61219192  1
  Mo  Mo177  1  0.50367935  0.89556821  0.60657486  1
  Mo  Mo178  1  0.50707975  0.49859050  0.87286946  1
  Mo  Mo179  1  0.51041981  0.09772535  0.60381171  1
  Mo  Mo180  1  -0.00863781  0.80128844  0.24211839  1
  Mo  Mo181  1  0.78919487  0.80250112  0.47755113  1
  Mo  Mo182  1  0.60618414  0.60437546  0.01191076  1
  Mo  Mo183  1  0.80542323  0.20415436  0.26116621  1
  Mo  Mo184  1  0.89920390  0.69707406  0.61423263  1
  Mo  Mo185  1  0.60341637  -0.00227569  0.72713036  1
  Mo  Mo186  1  0.80364756  0.40317636  0.47796198  1
  Mo  Mo187  1  0.09093057  0.89775881  0.36365321  1
  Mo  Mo188  1  0.59768048  0.80139808  0.01685542  1
  Mo  Mo189  1  0.30113170  0.89795397  0.36482898  1
  Mo  Mo190  1  0.50033649  0.69906030  0.37251446  1
  Mo  Mo191  1  0.39800544  0.79493129  0.26357784  1
  Mo  Mo192  1  0.29838778  0.89368864  0.62218240  1
  Mo  Mo193  1  0.90027796  0.10058499  0.36743078  1
  Mo  Mo194  1  0.29497752  0.09933053  0.14225619  1
  Mo  Mo195  1  0.08677485  0.31723906  0.64297245  1
  Mo  Mo196  1  0.89762106  0.89625762  0.37921954  1
  Mo  Mo197  1  0.00051609  0.80506830  0.50592679  1
  Mo  Mo198  1  -0.01229025  -0.00905992  0.74906846  1
  Mo  Mo199  1  0.00011221  0.59960234  0.51324317  1
