# generated using pymatgen
data_HfZrTaTiMo
_symmetry_space_group_name_H-M   'P 1'
_cell_length_a   15.91988971
_cell_length_b   15.93417931
_cell_length_c   15.20307088
_cell_angle_alpha   90.06657228
_cell_angle_beta   90.00156403
_cell_angle_gamma   90.07370848
_symmetry_Int_Tables_number   1
_chemical_formula_structural   HfZrTaTiMo
_chemical_formula_sum   'Hf40 Zr40 Ta40 Ti40 Mo40'
_cell_volume   3856.56292924
_cell_formula_units_Z   40
loop_
 _symmetry_equiv_pos_site_id
 _symmetry_equiv_pos_as_xyz
  1  'x, y, z'
loop_
 _atom_site_type_symbol
 _atom_site_label
 _atom_site_symmetry_multiplicity
 _atom_site_fract_x
 _atom_site_fract_y
 _atom_site_fract_z
 _atom_site_occupancy
  Hf  Hf0  1  0.79422751  0.40868408  0.00755020  1
  Hf  Hf1  1  0.39214634  0.38232770  -0.01457707  1
  Hf  Hf2  1  0.89025036  0.09359236  0.63040109  1
  Hf  Hf3  1  0.69029084  0.29681856  0.12000246  1
  Hf  Hf4  1  0.49062687  0.29620958  0.62591160  1
  Hf  Hf5  1  0.30214801  0.69855560  0.11934943  1
  Hf  Hf6  1  0.00939118  0.80491522  0.76953352  1
  Hf  Hf7  1  0.90799427  0.71691947  0.14408817  1
  Hf  Hf8  1  0.29183658  0.70235352  0.88995477  1
  Hf  Hf9  1  0.29165284  0.08826202  0.36151092  1
  Hf  Hf10  1  0.50646256  0.69778077  0.12437397  1
  Hf  Hf11  1  0.60906377  0.81077812  -0.01160045  1
  Hf  Hf12  1  0.29965377  0.90418145  0.88775552  1
  Hf  Hf13  1  0.40540188  0.58967015  0.25128074  1
  Hf  Hf14  1  0.00237905  0.58916693  0.48282665  1
  Hf  Hf15  1  0.60325628  0.59895253  0.74906604  1
  Hf  Hf16  1  0.51628463  0.90097145  0.12997817  1
  Hf  Hf17  1  0.69820682  0.29669045  0.37449190  1
  Hf  Hf18  1  0.79708205  0.00450665  0.48365602  1
  Hf  Hf19  1  0.88658253  0.50650993  0.86848340  1
  Hf  Hf20  1  0.09694147  0.30309626  0.37398298  1
  Hf  Hf21  1  0.58889375  0.20170147  0.24711823  1
  Hf  Hf22  1  0.09563929  0.71759377  0.60357954  1
  Hf  Hf23  1  0.29332008  0.49700556  0.11995594  1
  Hf  Hf24  1  0.60328463  0.80272281  0.76337550  1
  Hf  Hf25  1  0.19735043  0.60274927  0.49157209  1
  Hf  Hf26  1  0.19749426  0.40372960  0.50464649  1
  Hf  Hf27  1  0.80524032  0.39801254  0.50386917  1
  Hf  Hf28  1  0.50091092  0.49405848  0.10992448  1
  Hf  Hf29  1  0.79546247  0.60624507  0.26661291  1
  Hf  Hf30  1  0.49700787  0.08563437  0.63790127  1
  Hf  Hf31  1  0.00623574  0.40741519  0.00136335  1
  Hf  Hf32  1  0.50087174  0.50260929  0.62092259  1
  Hf  Hf33  1  0.30873237  0.89432957  0.11715765  1
  Hf  Hf34  1  -0.00503826  0.40145976  0.75451492  1
  Hf  Hf35  1  0.09313269  0.29586634  0.62269440  1
  Hf  Hf36  1  0.70113745  0.09706613  0.35297173  1
  Hf  Hf37  1  0.90365183  0.50879847  0.13446560  1
  Hf  Hf38  1  0.70054807  0.69887656  0.61006227  1
  Hf  Hf39  1  0.19530877  0.39485502  0.75357233  1
  Zr  Zr40  1  0.30969652  0.10442356  0.11756936  1
  Zr  Zr41  1  0.09374585  0.09421295  0.62187705  1
  Zr  Zr42  1  0.60818013  0.39704197  0.51555278  1
  Zr  Zr43  1  0.39556858  0.39103466  0.25213890  1
  Zr  Zr44  1  0.00013070  0.60870100  -0.00742793  1
  Zr  Zr45  1  0.20658736  0.20337004  0.00438378  1
  Zr  Zr46  1  0.19835279  0.19139834  0.50230976  1
  Zr  Zr47  1  0.89564874  0.30024951  0.12478296  1
  Zr  Zr48  1  0.89568267  0.29209096  0.88103357  1
  Zr  Zr49  1  0.58812613  0.40012596  0.25454023  1
  Zr  Zr50  1  0.30919903  0.71635678  0.35027164  1
  Zr  Zr51  1  0.01345957  0.59545655  0.26602355  1
  Zr  Zr52  1  -0.00434036  0.61503228  0.75422800  1
  Zr  Zr53  1  0.23466874  0.80917110  0.49740989  1
  Zr  Zr54  1  0.60031522  0.81317652  0.49542786  1
  Zr  Zr55  1  0.70684441  0.91646328  0.64004542  1
  Zr  Zr56  1  0.59755319  -0.00222257  0.49015712  1
  Zr  Zr57  1  0.30778221  0.49374609  0.63196166  1
  Zr  Zr58  1  0.89961788  0.29589825  0.36550538  1
  Zr  Zr59  1  0.39407250  0.20489304  0.25331862  1
  Zr  Zr60  1  0.09198040  0.09526055  0.88852679  1
  Zr  Zr61  1  0.49262906  0.70867715  0.62283344  1
  Zr  Zr62  1  0.59229250  0.19074340  -0.01373991  1
  Zr  Zr63  1  0.19243848  0.00008775  0.76375532  1
  Zr  Zr64  1  0.90114794  0.70529659  0.60087503  1
  Zr  Zr65  1  0.09815555  0.90447905  0.60983377  1
  Zr  Zr66  1  0.38329474  0.61263770  0.50429420  1
  Zr  Zr67  1  0.10615807  0.70169069  0.12854804  1
  Zr  Zr68  1  0.60037862  0.19492847  0.75285980  1
  Zr  Zr69  1  0.29854951  0.50157902  0.86885854  1
  Zr  Zr70  1  0.69185162  0.50822734  0.12561348  1
  Zr  Zr71  1  0.71410886  0.69190846  0.88021160  1
  Zr  Zr72  1  0.10706431  0.91064532  0.38021874  1
  Zr  Zr73  1  0.50190339  0.70300150  0.38138163  1
  Zr  Zr74  1  -0.00227140  0.19050976  0.75980913  1
  Zr  Zr75  1  0.39274087  0.18114644  0.50430064  1
  Zr  Zr76  1  0.19316008  0.61160222  0.73909391  1
  Zr  Zr77  1  0.70176875  0.70799562  0.12661714  1
  Zr  Zr78  1  0.71206295  0.29580463  0.86764316  1
  Zr  Zr79  1  0.81697453  0.79785029  0.75743476  1
  Ta  Ta80  1  0.20019715  0.81369606  0.24467965  1
  Ta  Ta81  1  0.71530154  0.91823410  0.87369469  1
  Ta  Ta82  1  0.00339850  0.19507268  0.23731865  1
  Ta  Ta83  1  -0.00395653  0.19366179  0.01409335  1
  Ta  Ta84  1  0.19565916  0.80334308  0.76105234  1
  Ta  Ta85  1  0.19299267  -0.00366664  0.01113189  1
  Ta  Ta86  1  0.31092436  0.90348226  0.64763374  1
  Ta  Ta87  1  0.89843656  0.90632959  0.35320256  1
  Ta  Ta88  1  0.39575504  -0.01907518  0.49527771  1
  Ta  Ta89  1  0.29840415  0.29005901  0.63852886  1
  Ta  Ta90  1  0.60477000  0.40124439  0.74810828  1
  Ta  Ta91  1  0.69671408  0.49948118  0.38275544  1
  Ta  Ta92  1  0.39966803  0.79951173  0.76788460  1
  Ta  Ta93  1  0.90754872  0.89957251  0.60959535  1
  Ta  Ta94  1  0.90139256  0.91153412  0.89253557  1
  Ta  Ta95  1  -0.01302941  0.19433681  0.48848145  1
  Ta  Ta96  1  0.49677527  0.90551772  0.64910181  1
  Ta  Ta97  1  0.49526967  0.29547827  0.39926561  1
  Ta  Ta98  1  0.40417699  0.59641703  -0.00783583  1
  Ta  Ta99  1  0.80704406  0.81209045  0.00568237  1
  Ta  Ta100  1  0.41563204  0.00403491  -0.00807311  1
  Ta  Ta101  1  0.71049500  0.29175947  0.63412956  1
  Ta  Ta102  1  0.79497104  0.81288208  0.47734666  1
  Ta  Ta103  1  0.49681587  0.09292089  0.36974602  1
  Ta  Ta104  1  0.59938373  0.59998638  0.27024950  1
  Ta  Ta105  1  0.10071357  0.29558746  0.88155947  1
  Ta  Ta106  1  0.50091379  0.49901016  0.86895915  1
  Ta  Ta107  1  0.60681132  0.18848553  0.50836532  1
  Ta  Ta108  1  0.89839462  0.49815865  0.62271246  1
  Ta  Ta109  1  0.10326267  0.30317098  0.12325740  1
  Ta  Ta110  1  0.19748523  0.39882009  -0.00485836  1
  Ta  Ta111  1  0.59366885  0.39395459  -0.02126082  1
  Ta  Ta112  1  0.49643604  0.49542034  0.39879804  1
  Ta  Ta113  1  0.09581376  0.10277076  0.36410097  1
  Ta  Ta114  1  0.19241059  0.00373542  0.22769507  1
  Ta  Ta115  1  0.50661520  0.09418688  0.12472493  1
  Ta  Ta116  1  0.90315064  0.71246858  0.37300369  1
  Ta  Ta117  1  0.89891240  0.29516687  0.62555309  1
  Ta  Ta118  1  0.79466831  0.40427683  0.25029674  1
  Ta  Ta119  1  0.48730846  0.89456740  0.35470664  1
  Ti  Ti120  1  0.78921798  0.17794659  0.01053494  1
  Ti  Ti121  1  0.08953089  0.49917808  0.62274982  1
  Ti  Ti122  1  0.88072911  0.09181601  0.88067211  1
  Ti  Ti123  1  0.29786967  0.29979083  0.38516095  1
  Ti  Ti124  1  0.89540680  0.90052220  0.13667602  1
  Ti  Ti125  1  0.80691243  0.60978112  0.00805038  1
  Ti  Ti126  1  0.89179882  0.09235752  0.13136085  1
  Ti  Ti127  1  0.00097623  0.00501679  0.24292716  1
  Ti  Ti128  1  0.79941378  0.59850031  0.73634435  1
  Ti  Ti129  1  0.90222560  0.48849255  0.37307486  1
  Ti  Ti130  1  -0.01170540  0.00881534  0.48044952  1
  Ti  Ti131  1  0.60251039  0.59317438  -0.01426337  1
  Ti  Ti132  1  0.30016713  0.27868318  0.85732539  1
  Ti  Ti133  1  0.30409334  0.09732908  0.65536527  1
  Ti  Ti134  1  0.61460109  0.00624339  -0.00788154  1
  Ti  Ti135  1  0.80007377  0.19637463  0.23814400  1
  Ti  Ti136  1  0.79756857  0.19223514  0.49886462  1
  Ti  Ti137  1  0.19632145  0.20378272  0.23840941  1
  Ti  Ti138  1  0.10154932  0.71616806  0.37288079  1
  Ti  Ti139  1  0.39930143  0.60779539  0.75448766  1
  Ti  Ti140  1  0.19860127  0.59154665  0.26163468  1
  Ti  Ti141  1  -0.00815992  0.00128942  0.01565806  1
  Ti  Ti142  1  0.39970856  -0.00286000  0.24243059  1
  Ti  Ti143  1  0.19874993  0.39901634  0.24736725  1
  Ti  Ti144  1  0.40651977  0.39148445  0.76139651  1
  Ti  Ti145  1  0.48616537  0.28840093  0.10737114  1
  Ti  Ti146  1  0.50063533  0.69592826  0.87999915  1
  Ti  Ti147  1  0.21633343  0.00413999  0.50837201  1
  Ti  Ti148  1  -0.00726865  -0.01057100  0.75945993  1
  Ti  Ti149  1  0.30084027  0.49146138  0.37793808  1
  Ti  Ti150  1  0.00261030  0.80238159  -0.00851465  1
  Ti  Ti151  1  0.48980493  0.09734729  0.86249901  1
  Ti  Ti152  1  0.08950817  0.89584237  0.12285872  1
  Ti  Ti153  1  0.18987301  0.59260360  0.00112720  1
  Ti  Ti154  1  0.00844476  0.40183141  0.24242868  1
  Ti  Ti155  1  0.10027156  0.50501083  0.86930206  1
  Ti  Ti156  1  0.41370854  0.80106386  -0.00672333  1
  Ti  Ti157  1  0.70257876  0.49569766  0.86492273  1
  Ti  Ti158  1  0.79701505  0.59760411  0.48967819  1
  Ti  Ti159  1  0.61417450  0.79910574  0.26100516  1
  Mo  Mo160  1  0.89897928  0.70840733  0.88665587  1
  Mo  Mo161  1  0.80182360  0.19480199  0.74419930  1
  Mo  Mo162  1  0.40430465  0.81578553  0.51228291  1
  Mo  Mo163  1  0.10627260  0.49027333  0.36903034  1
  Mo  Mo164  1  0.60583402  0.59761471  0.49415702  1
  Mo  Mo165  1  -0.00798012  0.81235406  0.47686944  1
  Mo  Mo166  1  0.29508346  0.30358060  0.12221137  1
  Mo  Mo167  1  -0.00361656  0.39722753  0.50650162  1
  Mo  Mo168  1  0.19877912  0.19890758  0.75439523  1
  Mo  Mo169  1  0.69408547  0.09450299  0.13396691  1
  Mo  Mo170  1  0.10616156  0.70473620  0.89111742  1
  Mo  Mo171  1  0.40006250  -0.00393519  0.77145618  1
  Mo  Mo172  1  0.70992846  0.09486101  0.86470006  1
  Mo  Mo173  1  0.09427317  0.09920951  0.12620007  1
  Mo  Mo174  1  0.70839354  0.50222431  0.62622892  1
  Mo  Mo175  1  0.79828423  0.00057582  0.02068753  1
  Mo  Mo176  1  0.69884216  0.90155576  0.35277092  1
  Mo  Mo177  1  0.09571985  0.90321351  0.89953994  1
  Mo  Mo178  1  0.40239587  0.19314397  -0.01830099  1
  Mo  Mo179  1  0.90259630  0.10090670  0.35296699  1
  Mo  Mo180  1  0.10757281  0.49417482  0.13507645  1
  Mo  Mo181  1  0.00750575  0.81030847  0.25951845  1
  Mo  Mo182  1  0.70306701  0.69877972  0.38714300  1
  Mo  Mo183  1  0.81247883  -0.00209998  0.75009554  1
  Mo  Mo184  1  0.39757807  0.19545099  0.75472928  1
  Mo  Mo185  1  0.70162338  0.10365009  0.63362181  1
  Mo  Mo186  1  0.30233536  0.09841747  0.88327713  1
  Mo  Mo187  1  0.79839330  0.40413090  0.73326169  1
  Mo  Mo188  1  0.50687182  0.90500995  0.87568472  1
  Mo  Mo189  1  0.60382341  0.00057181  0.76872043  1
  Mo  Mo190  1  0.49895073  0.30053889  0.86173203  1
  Mo  Mo191  1  0.59495880  -0.00159344  0.25552302  1
  Mo  Mo192  1  0.40726807  0.79942723  0.22788018  1
  Mo  Mo193  1  0.19150410  0.80368017  0.00512907  1
  Mo  Mo194  1  0.29697981  0.71315825  0.64823779  1
  Mo  Mo195  1  0.30589331  0.90787371  0.34978954  1
  Mo  Mo196  1  0.70502150  0.90517778  0.13227218  1
  Mo  Mo197  1  0.79808780  0.80478600  0.25790171  1
  Mo  Mo198  1  0.39306748  0.39193905  0.49661884  1
  Mo  Mo199  1  0.79846772  0.00029313  0.23702596  1
