# generated using pymatgen
data_HfZrTaTiMo
_symmetry_space_group_name_H-M   'P 1'
_cell_length_a   15.93891309
_cell_length_b   15.92941247
_cell_length_c   15.19724752
_cell_angle_alpha   90.07466936
_cell_angle_beta   90.00030887
_cell_angle_gamma   90.01917875
_symmetry_Int_Tables_number   1
_chemical_formula_structural   HfZrTaTiMo
_chemical_formula_sum   'Hf40 Zr40 Ta40 Ti40 Mo40'
_cell_volume   3858.53997700
_cell_formula_units_Z   40
loop_
 _symmetry_equiv_pos_site_id
 _symmetry_equiv_pos_as_xyz
  1  'x, y, z'
loop_
 _atom_site_type_symbol
 _atom_site_label
 _atom_site_symmetry_multiplicity
 _atom_site_fract_x
 _atom_site_fract_y
 _atom_site_fract_z
 _atom_site_occupancy
  Hf  Hf0  1  0.40619154  0.00106811  -0.00643037  1
  Hf  Hf1  1  0.39977384  0.59292393  0.51575387  1
  Hf  Hf2  1  -0.00616063  0.79918669  0.77021202  1
  Hf  Hf3  1  0.50355979  0.69542134  0.38741515  1
  Hf  Hf4  1  0.80196173  0.00559389  0.24263488  1
  Hf  Hf5  1  0.29180465  0.30265558  0.14419631  1
  Hf  Hf6  1  0.69614179  0.90206340  0.11499104  1
  Hf  Hf7  1  0.19532188  0.39205325  0.74754515  1
  Hf  Hf8  1  0.80279787  0.19460666  0.01197436  1
  Hf  Hf9  1  0.89452211  0.48911027  0.88241408  1
  Hf  Hf10  1  0.29919211  0.91291737  0.86665715  1
  Hf  Hf11  1  0.40038965  0.39374957  0.73635743  1
  Hf  Hf12  1  0.10656769  0.11191773  0.89261241  1
  Hf  Hf13  1  0.70225545  0.49755130  0.11933380  1
  Hf  Hf14  1  0.29163366  0.90478661  0.63951261  1
  Hf  Hf15  1  0.80849967  0.60682038  0.24129775  1
  Hf  Hf16  1  0.09743772  0.50140546  0.62123440  1
  Hf  Hf17  1  0.89164152  0.70711174  0.61984674  1
  Hf  Hf18  1  0.09465046  0.29996235  0.36949434  1
  Hf  Hf19  1  0.29476453  0.29374464  0.37399210  1
  Hf  Hf20  1  0.59415110  0.20597399  0.75614307  1
  Hf  Hf21  1  0.40106448  0.79867140  0.23967218  1
  Hf  Hf22  1  0.19288182  0.78858826  0.76922174  1
  Hf  Hf23  1  0.40120780  0.79077347  0.74844825  1
  Hf  Hf24  1  0.40374829  0.79962993  -0.01522188  1
  Hf  Hf25  1  0.01168100  0.38795318  0.02657171  1
  Hf  Hf26  1  0.10969932  0.69414503  0.12231769  1
  Hf  Hf27  1  0.00289942  0.39502875  0.74556073  1
  Hf  Hf28  1  0.60959893  0.20872258  0.48056397  1
  Hf  Hf29  1  0.60563291  0.20280367  -0.01655472  1
  Hf  Hf30  1  0.60150525  0.01741268  0.24945700  1
  Hf  Hf31  1  0.79716417  0.60363939  0.75759500  1
  Hf  Hf32  1  0.90846462  0.29750598  0.87683416  1
  Hf  Hf33  1  -0.00082465  0.58786328  0.01413935  1
  Hf  Hf34  1  0.70421133  0.50272402  0.37338489  1
  Hf  Hf35  1  0.29703483  0.29016174  0.60384369  1
  Hf  Hf36  1  0.09291141  0.49401126  0.36210536  1
  Hf  Hf37  1  0.79827281  0.19090358  0.76061952  1
  Hf  Hf38  1  0.60466822  0.80201156  0.51071498  1
  Hf  Hf39  1  0.49761571  0.49288079  0.88282112  1
  Zr  Zr40  1  0.69350533  0.29688780  0.13518769  1
  Zr  Zr41  1  0.59754880  0.40067382  0.74935930  1
  Zr  Zr42  1  -0.00231880  -0.00947651  0.24745848  1
  Zr  Zr43  1  0.71841077  0.71019410  0.09926826  1
  Zr  Zr44  1  0.69966636  0.09973203  0.61264086  1
  Zr  Zr45  1  0.89980475  0.09616992  0.61326518  1
  Zr  Zr46  1  0.49836317  0.89968128  0.38236756  1
  Zr  Zr47  1  0.71585212  0.90264525  0.63176659  1
  Zr  Zr48  1  0.59882826  0.40363708  0.49916881  1
  Zr  Zr49  1  -0.00626289  0.00304382  0.75897237  1
  Zr  Zr50  1  0.50811427  0.90885569  0.63522127  1
  Zr  Zr51  1  0.30101624  0.10630344  0.10405797  1
  Zr  Zr52  1  0.40497586  0.58735075  0.23476499  1
  Zr  Zr53  1  0.20471683  0.80440576  0.26023494  1
  Zr  Zr54  1  0.00065325  0.79762269  -0.00731280  1
  Zr  Zr55  1  0.59718311  0.59863946  -0.00689642  1
  Zr  Zr56  1  0.70046324  0.90340412  0.37967847  1
  Zr  Zr57  1  0.58421157  0.40119783  0.25469896  1
  Zr  Zr58  1  0.00152464  0.60247950  0.76588371  1
  Zr  Zr59  1  -0.00957379  0.00414924  0.01030566  1
  Zr  Zr60  1  0.00149463  0.81045837  0.49403549  1
  Zr  Zr61  1  0.19802603  -0.01011672  0.48563685  1
  Zr  Zr62  1  0.60258590  0.60398002  0.24662194  1
  Zr  Zr63  1  0.20116614  0.59814578  0.48901832  1
  Zr  Zr64  1  0.29562849  0.29559980  0.89070986  1
  Zr  Zr65  1  0.89740631  0.29352777  0.61545466  1
  Zr  Zr66  1  0.40509786  0.18765732  0.25909540  1
  Zr  Zr67  1  0.39913710  0.59461198  0.74540912  1
  Zr  Zr68  1  0.10182487  0.10771258  0.37172742  1
  Zr  Zr69  1  0.09223858  0.69818326  0.36430137  1
  Zr  Zr70  1  0.20158966  0.80201625  0.49453064  1
  Zr  Zr71  1  0.11438393  0.10178973  0.12933940  1
  Zr  Zr72  1  0.89710172  0.30584221  0.36907841  1
  Zr  Zr73  1  0.60674357  0.79985724  0.25182619  1
  Zr  Zr74  1  0.50629230  0.70734459  0.10993008  1
  Zr  Zr75  1  0.69832815  0.50870082  0.62335815  1
  Zr  Zr76  1  0.29708451  0.49455416  0.88907762  1
  Zr  Zr77  1  0.10220386  0.10135013  0.60993092  1
  Zr  Zr78  1  0.11156284  0.89836478  0.12095428  1
  Zr  Zr79  1  0.09621929  0.70074733  0.62532921  1
  Ta  Ta80  1  0.79244847  0.00095375  -0.00948911  1
  Ta  Ta81  1  0.49522433  0.29422988  0.60828572  1
  Ta  Ta82  1  0.19825629  0.20188721  0.74810437  1
  Ta  Ta83  1  0.49195932  0.49978836  0.38886865  1
  Ta  Ta84  1  0.49994312  0.09289628  0.39385961  1
  Ta  Ta85  1  0.30043189  0.90204236  0.11172776  1
  Ta  Ta86  1  0.48996027  0.10781604  0.87380303  1
  Ta  Ta87  1  0.49898929  0.10652164  0.61492479  1
  Ta  Ta88  1  0.60226918  0.00552407  -0.01654866  1
  Ta  Ta89  1  0.80832069  0.79929099  0.25477747  1
  Ta  Ta90  1  0.31301620  0.69499582  0.37605823  1
  Ta  Ta91  1  0.39733118  0.79510704  0.51839129  1
  Ta  Ta92  1  0.01212714  0.20191398  0.74973035  1
  Ta  Ta93  1  0.80513416  -0.00184845  0.48475380  1
  Ta  Ta94  1  -0.01110231  0.59400364  0.49633249  1
  Ta  Ta95  1  0.40344024  -0.00211916  0.24203643  1
  Ta  Ta96  1  0.09502965  0.90396031  0.64155275  1
  Ta  Ta97  1  0.39748077  -0.00309901  0.50977645  1
  Ta  Ta98  1  0.79088334  0.19257158  0.25180701  1
  Ta  Ta99  1  0.70778803  0.49459425  0.88292094  1
  Ta  Ta100  1  0.39837968  0.40162918  0.02354690  1
  Ta  Ta101  1  0.29569527  0.69924629  0.11099163  1
  Ta  Ta102  1  0.20454075  0.79357490  -0.01845071  1
  Ta  Ta103  1  0.80182246  0.80543052  0.77194260  1
  Ta  Ta104  1  0.51564134  0.68909558  0.62644893  1
  Ta  Ta105  1  -0.00623935  0.20521470  0.02397179  1
  Ta  Ta106  1  0.60836636  0.79287666  0.75570825  1
  Ta  Ta107  1  0.89341671  0.49751491  0.62710134  1
  Ta  Ta108  1  0.50389196  0.90728999  0.11683195  1
  Ta  Ta109  1  -0.01215570  0.19761604  0.23255930  1
  Ta  Ta110  1  -0.00579343  0.59673599  0.23402287  1
  Ta  Ta111  1  0.60876478  0.01178545  0.76452766  1
  Ta  Ta112  1  0.70608770  0.30048772  0.62909500  1
  Ta  Ta113  1  0.49505881  0.29378743  0.12480984  1
  Ta  Ta114  1  0.19924773  0.40306509  0.49178191  1
  Ta  Ta115  1  0.10027907  0.29385966  0.60144128  1
  Ta  Ta116  1  0.19855950  0.59823142  0.76973958  1
  Ta  Ta117  1  0.50891245  0.10480659  0.11281622  1
  Ta  Ta118  1  0.21980904  0.00168719  0.26220706  1
  Ta  Ta119  1  0.90117215  0.10725191  0.38147723  1
  Ti  Ti120  1  -0.00981799  0.79285519  0.24065004  1
  Ti  Ti121  1  0.48231100  0.30857417  0.38192402  1
  Ti  Ti122  1  0.30892080  0.48773138  0.36719030  1
  Ti  Ti123  1  0.70967516  0.70263442  0.38958043  1
  Ti  Ti124  1  0.39969651  0.01814536  0.74484846  1
  Ti  Ti125  1  0.80943871  0.39403411  0.01841155  1
  Ti  Ti126  1  0.20708591  0.59834239  0.25428480  1
  Ti  Ti127  1  0.00163543  -0.00722969  0.48923098  1
  Ti  Ti128  1  -0.00661417  0.40565491  0.50212240  1
  Ti  Ti129  1  0.90084719  0.89521560  0.37266766  1
  Ti  Ti130  1  0.89772546  0.69923119  0.38043972  1
  Ti  Ti131  1  0.71472277  0.31391931  0.87126173  1
  Ti  Ti132  1  0.10176995  0.91199368  0.87916840  1
  Ti  Ti133  1  0.89811927  0.90129893  0.62485965  1
  Ti  Ti134  1  0.29993165  0.10544551  0.61095530  1
  Ti  Ti135  1  0.39525419  0.59905323  0.00425305  1
  Ti  Ti136  1  0.29151923  0.69532196  0.62853423  1
  Ti  Ti137  1  0.28711978  0.50113465  0.12375244  1
  Ti  Ti138  1  0.29163959  0.49575590  0.62572985  1
  Ti  Ti139  1  0.70282538  0.69879718  0.88305747  1
  Ti  Ti140  1  0.17778711  0.23398040  0.01132270  1
  Ti  Ti141  1  0.39369316  0.20056211  0.74523627  1
  Ti  Ti142  1  0.70640202  0.70267471  0.62086865  1
  Ti  Ti143  1  0.89941414  0.49747158  0.36497484  1
  Ti  Ti144  1  0.80415756  0.59746182  0.49784178  1
  Ti  Ti145  1  0.48331969  0.29904844  0.88710584  1
  Ti  Ti146  1  0.79536301  0.39521393  0.49536397  1
  Ti  Ti147  1  0.59999828  0.20010108  0.26584937  1
  Ti  Ti148  1  0.50108218  0.69575644  0.86955905  1
  Ti  Ti149  1  0.29818682  0.11049968  0.88427634  1
  Ti  Ti150  1  0.50160436  0.90750352  0.85705927  1
  Ti  Ti151  1  0.60254549  0.81454628  -0.02645630  1
  Ti  Ti152  1  0.31336542  0.89653535  0.37785603  1
  Ti  Ti153  1  0.19627637  0.01678954  0.75389524  1
  Ti  Ti154  1  0.88728280  0.88531075  0.11309770  1
  Ti  Ti155  1  0.88944700  0.69447808  0.89852455  1
  Ti  Ti156  1  0.60157609  0.59925462  0.75676270  1
  Ti  Ti157  1  0.90221365  0.10037557  0.88118805  1
  Ti  Ti158  1  0.59790250  0.39451894  0.00033545  1
  Ti  Ti159  1  0.10431026  0.48584556  0.89006576  1
  Mo  Mo160  1  0.19493196  0.40606070  0.02111664  1
  Mo  Mo161  1  0.19933793  0.59704254  -0.00521621  1
  Mo  Mo162  1  0.80637534  0.79963792  0.48814214  1
  Mo  Mo163  1  0.20423932  -0.00676125  -0.01553048  1
  Mo  Mo164  1  0.40040339  0.40195248  0.23979683  1
  Mo  Mo165  1  0.50038942  0.49427383  0.10988022  1
  Mo  Mo166  1  0.79880806  0.40213073  0.24737984  1
  Mo  Mo167  1  0.89628013  0.49603124  0.12796180  1
  Mo  Mo168  1  0.60046569  0.00469766  0.50368953  1
  Mo  Mo169  1  0.79889218  0.39759002  0.74611561  1
  Mo  Mo170  1  0.79907660  0.80610672  -0.01889860  1
  Mo  Mo171  1  0.89160382  0.09585622  0.12418603  1
  Mo  Mo172  1  0.80169870  -0.00171568  0.76959912  1
  Mo  Mo173  1  0.69329806  0.09781894  0.11301851  1
  Mo  Mo174  1  0.09972738  0.68514924  0.89070077  1
  Mo  Mo175  1  0.70102060  0.10579423  0.87764710  1
  Mo  Mo176  1  0.80223672  0.59473228  -0.00243278  1
  Mo  Mo177  1  0.90391114  0.70527415  0.11949518  1
  Mo  Mo178  1  0.10859407  0.49856243  0.14259432  1
  Mo  Mo179  1  0.70393303  0.10295752  0.38317977  1
  Mo  Mo180  1  -0.00327602  0.20115273  0.49822121  1
  Mo  Mo181  1  0.20044633  0.19811889  0.49017780  1
  Mo  Mo182  1  0.69682587  0.90251744  0.86761157  1
  Mo  Mo183  1  0.09846654  0.29922558  0.87468945  1
  Mo  Mo184  1  0.20242419  0.40949490  0.25777194  1
  Mo  Mo185  1  0.40417926  0.20486472  0.00408914  1
  Mo  Mo186  1  0.79601206  0.20352699  0.48135303  1
  Mo  Mo187  1  0.31000426  0.09027450  0.38387494  1
  Mo  Mo188  1  0.49930831  0.49837310  0.61829615  1
  Mo  Mo189  1  0.39512260  0.40276678  0.50908127  1
  Mo  Mo190  1  0.40299199  0.19501422  0.49070561  1
  Mo  Mo191  1  0.30362650  0.69437889  0.88631390  1
  Mo  Mo192  1  0.10132079  0.30200594  0.15960323  1
  Mo  Mo193  1  0.70401624  0.30435453  0.35831691  1
  Mo  Mo194  1  0.89553695  0.90469165  0.88351116  1
  Mo  Mo195  1  -0.00618964  0.40354918  0.23723209  1
  Mo  Mo196  1  0.19806279  0.19394924  0.25720384  1
  Mo  Mo197  1  0.60444256  0.60428029  0.49759036  1
  Mo  Mo198  1  0.09494629  0.90173510  0.35299111  1
  Mo  Mo199  1  0.89305167  0.30049848  0.14230593  1
