# generated using pymatgen
data_HfZrTaTiMo
_symmetry_space_group_name_H-M   'P 1'
_cell_length_a   15.92458200
_cell_length_b   15.92942650
_cell_length_c   15.20872116
_cell_angle_alpha   89.94354937
_cell_angle_beta   89.93378147
_cell_angle_gamma   89.93418808
_symmetry_Int_Tables_number   1
_chemical_formula_structural   HfZrTaTiMo
_chemical_formula_sum   'Hf40 Zr40 Ta40 Ti40 Mo40'
_cell_volume   3857.98107463
_cell_formula_units_Z   40
loop_
 _symmetry_equiv_pos_site_id
 _symmetry_equiv_pos_as_xyz
  1  'x, y, z'
loop_
 _atom_site_type_symbol
 _atom_site_label
 _atom_site_symmetry_multiplicity
 _atom_site_fract_x
 _atom_site_fract_y
 _atom_site_fract_z
 _atom_site_occupancy
  Hf  Hf0  1  0.40134164  0.60386216  -0.01214858  1
  Hf  Hf1  1  -0.00775846  0.01028416  0.73965275  1
  Hf  Hf2  1  0.91316595  0.30717917  0.89141047  1
  Hf  Hf3  1  0.69247729  0.70382654  0.37571949  1
  Hf  Hf4  1  0.70257925  0.49243569  0.86513089  1
  Hf  Hf5  1  0.60433073  -0.02408377  0.49212065  1
  Hf  Hf6  1  0.90140956  0.71153504  0.61987242  1
  Hf  Hf7  1  0.09864795  0.90284538  0.86004325  1
  Hf  Hf8  1  0.09788012  0.29863514  0.11810068  1
  Hf  Hf9  1  0.51179050  0.29810354  0.88433894  1
  Hf  Hf10  1  0.00840761  -0.00128403  0.49295301  1
  Hf  Hf11  1  0.29590992  0.50455159  0.11961507  1
  Hf  Hf12  1  0.29763247  0.29749667  0.88910486  1
  Hf  Hf13  1  0.59695395  -0.00224836  0.02373923  1
  Hf  Hf14  1  0.40081224  0.19703767  0.75851632  1
  Hf  Hf15  1  0.00187382  -0.00241409  0.01066271  1
  Hf  Hf16  1  0.40172616  0.79627278  0.24421344  1
  Hf  Hf17  1  0.31323320  0.50957939  0.61966474  1
  Hf  Hf18  1  0.89734705  0.89929803  0.38484981  1
  Hf  Hf19  1  0.89905808  0.10231285  0.88384643  1
  Hf  Hf20  1  -0.01687770  0.78429275  -0.00680998  1
  Hf  Hf21  1  0.09705180  0.50216921  0.38145355  1
  Hf  Hf22  1  0.19801466  0.20539710  0.75469815  1
  Hf  Hf23  1  0.58321758  0.79886916  0.76636360  1
  Hf  Hf24  1  0.20797434  0.40094609  0.49227805  1
  Hf  Hf25  1  0.09709942  0.10755753  0.88065960  1
  Hf  Hf26  1  0.39708283  0.80210905  0.48021142  1
  Hf  Hf27  1  0.49540597  0.88585640  0.62526946  1
  Hf  Hf28  1  0.40005528  0.40718436  0.76527931  1
  Hf  Hf29  1  0.59787840  0.20186567  0.23782263  1
  Hf  Hf30  1  0.67225402  0.69503963  0.62812677  1
  Hf  Hf31  1  0.79725833  -0.00069617  0.24818300  1
  Hf  Hf32  1  0.61107665  0.39303503  0.73984489  1
  Hf  Hf33  1  0.69881007  0.70184874  0.87104496  1
  Hf  Hf34  1  0.71363032  0.68509063  0.12624716  1
  Hf  Hf35  1  0.79909175  0.19873875  0.00722154  1
  Hf  Hf36  1  0.50721611  0.69981538  0.36978635  1
  Hf  Hf37  1  0.00239949  0.20877380  0.73577358  1
  Hf  Hf38  1  0.29921248  0.09582786  0.13567890  1
  Hf  Hf39  1  0.91268710  0.50401393  0.61013930  1
  Zr  Zr40  1  0.49302140  0.09019003  0.62679111  1
  Zr  Zr41  1  0.89965111  0.51141414  0.37895274  1
  Zr  Zr42  1  0.50480690  0.09508792  0.88269882  1
  Zr  Zr43  1  0.89074922  0.90589478  0.86730188  1
  Zr  Zr44  1  0.31169444  0.30341683  0.11792853  1
  Zr  Zr45  1  0.79744224  0.40307993  0.50443344  1
  Zr  Zr46  1  0.39653418  0.59204055  0.26172100  1
  Zr  Zr47  1  0.09869631  0.49052092  0.89076824  1
  Zr  Zr48  1  0.49985720  0.09760305  0.36609795  1
  Zr  Zr49  1  0.60447009  0.59251861  -0.00633591  1
  Zr  Zr50  1  0.79032121  0.80915302  0.74223214  1
  Zr  Zr51  1  0.20876414  0.39872602  0.25928017  1
  Zr  Zr52  1  0.50466853  0.29199571  0.39197190  1
  Zr  Zr53  1  0.19322095  0.80877205  0.49351219  1
  Zr  Zr54  1  0.50542358  0.51477305  0.63928630  1
  Zr  Zr55  1  0.90878138  0.89647379  0.13339432  1
  Zr  Zr56  1  0.00145439  0.40146274  0.24304213  1
  Zr  Zr57  1  0.19731769  0.79630938  0.00323371  1
  Zr  Zr58  1  0.49806464  0.29802516  0.61623841  1
  Zr  Zr59  1  0.09852033  0.69410089  0.87105642  1
  Zr  Zr60  1  0.61335663  0.17718755  0.50883781  1
  Zr  Zr61  1  0.79838178  0.79592339  0.25151407  1
  Zr  Zr62  1  0.77320805  0.81595773  0.50544697  1
  Zr  Zr63  1  0.29284258  0.90473964  0.62532958  1
  Zr  Zr64  1  0.90116272  0.53799402  0.14183210  1
  Zr  Zr65  1  0.20233580  -0.00645565  0.00551521  1
  Zr  Zr66  1  0.82916152  0.60617821  -0.02703709  1
  Zr  Zr67  1  0.81452436  0.39619075  0.73977747  1
  Zr  Zr68  1  0.80368828  0.20045398  0.74998513  1
  Zr  Zr69  1  0.38848834  -0.01231432  0.76600138  1
  Zr  Zr70  1  0.30757337  0.29692031  0.61284540  1
  Zr  Zr71  1  0.09642745  0.70848412  0.63055723  1
  Zr  Zr72  1  0.19734457  0.58748456  0.74069532  1
  Zr  Zr73  1  0.59813618  0.39805724  0.25115712  1
  Zr  Zr74  1  0.49970857  0.49434158  0.12550423  1
  Zr  Zr75  1  0.39084618  0.00359435  0.48054794  1
  Zr  Zr76  1  0.90717687  0.30054002  0.38221540  1
  Zr  Zr77  1  0.02007759  0.39839619  0.73274142  1
  Zr  Zr78  1  0.08765364  0.69045281  0.13268092  1
  Zr  Zr79  1  0.79354308  0.40577273  0.24274374  1
  Ta  Ta80  1  0.29222836  0.09880604  0.62569836  1
  Ta  Ta81  1  0.01221500  0.19243933  0.49536696  1
  Ta  Ta82  1  0.20640541  0.60556372  0.49926441  1
  Ta  Ta83  1  0.90066739  0.90569275  0.61812219  1
  Ta  Ta84  1  0.30741736  0.70319359  0.62946477  1
  Ta  Ta85  1  0.39496441  0.80118221  0.00566919  1
  Ta  Ta86  1  0.50215959  0.69843397  0.12304869  1
  Ta  Ta87  1  0.79357435  0.80415331  0.00329971  1
  Ta  Ta88  1  0.60034750  0.80009480  0.00813078  1
  Ta  Ta89  1  0.09660614  0.90412907  0.63389392  1
  Ta  Ta90  1  0.79876906  0.41051006  0.00986785  1
  Ta  Ta91  1  0.29718395  0.89676228  0.13595749  1
  Ta  Ta92  1  0.70789199  0.28982151  0.61044811  1
  Ta  Ta93  1  0.70463177  0.29229474  0.38384791  1
  Ta  Ta94  1  0.19783969  0.00515560  0.47692603  1
  Ta  Ta95  1  0.70158311  0.10095128  0.13298263  1
  Ta  Ta96  1  0.79429593  -0.00279646  0.01584816  1
  Ta  Ta97  1  0.29155210  0.90470238  0.34793460  1
  Ta  Ta98  1  0.11089944  0.09619198  0.62106996  1
  Ta  Ta99  1  0.79741257  0.59628151  0.73871392  1
  Ta  Ta100  1  0.41265937  -0.00541738  0.23951042  1
  Ta  Ta101  1  0.70007251  0.30151086  0.11730692  1
  Ta  Ta102  1  0.60915810  0.19509658  0.74608946  1
  Ta  Ta103  1  0.48263960  0.69459112  0.62211636  1
  Ta  Ta104  1  -0.01022381  0.59536309  0.75606695  1
  Ta  Ta105  1  0.20017392  0.19439674  0.00776439  1
  Ta  Ta106  1  0.49460899  0.89970491  0.89582242  1
  Ta  Ta107  1  0.78636060  0.00935664  0.50489424  1
  Ta  Ta108  1  0.40311053  0.39687733  0.26699187  1
  Ta  Ta109  1  0.20829339  0.18643623  0.48192534  1
  Ta  Ta110  1  0.41051254  0.42142491  0.48044548  1
  Ta  Ta111  1  0.09824377  0.10197249  0.13749982  1
  Ta  Ta112  1  0.10145765  0.50864793  0.11910214  1
  Ta  Ta113  1  0.20888497  0.80607207  0.75446019  1
  Ta  Ta114  1  0.80088780  0.20320054  0.24828030  1
  Ta  Ta115  1  0.89695254  0.10369671  0.60844385  1
  Ta  Ta116  1  0.60605837  0.40764665  0.50397500  1
  Ta  Ta117  1  0.09578646  0.70378600  0.37270328  1
  Ta  Ta118  1  0.70197381  0.09246513  0.87442984  1
  Ta  Ta119  1  0.78660234  0.60295406  0.50907762  1
  Ti  Ti120  1  0.90137352  0.29809924  0.12172596  1
  Ti  Ti121  1  0.40847719  0.18807980  0.01033866  1
  Ti  Ti122  1  0.09902873  0.89507733  0.35702563  1
  Ti  Ti123  1  0.41087387  0.40663247  -0.01145342  1
  Ti  Ti124  1  0.40750698  0.20588983  0.23899832  1
  Ti  Ti125  1  0.28963702  0.70064775  0.36943452  1
  Ti  Ti126  1  0.69529194  0.90922086  0.87970351  1
  Ti  Ti127  1  0.10682286  0.89802930  0.15170769  1
  Ti  Ti128  1  0.31391311  0.28840746  0.38186140  1
  Ti  Ti129  1  0.60786744  0.59278070  0.24385924  1
  Ti  Ti130  1  0.89535722  0.10508002  0.38110661  1
  Ti  Ti131  1  0.70003114  0.09736400  0.36095211  1
  Ti  Ti132  1  0.60453610  -0.00429221  0.74859179  1
  Ti  Ti133  1  0.29451020  0.69641190  0.87364563  1
  Ti  Ti134  1  0.59848980  0.81517935  0.23011879  1
  Ti  Ti135  1  0.90437387  0.10559846  0.12721695  1
  Ti  Ti136  1  0.29820868  0.09201401  0.88652618  1
  Ti  Ti137  1  -0.00238083  0.00552947  0.25558583  1
  Ti  Ti138  1  -0.00290673  0.20013645  0.25143702  1
  Ti  Ti139  1  0.19618610  0.59845463  0.25841854  1
  Ti  Ti140  1  0.39646961  0.79126367  0.77327510  1
  Ti  Ti141  1  0.10897692  0.29542668  0.60303250  1
  Ti  Ti142  1  -0.01404076  0.41969273  0.01424380  1
  Ti  Ti143  1  0.00883160  0.61001185  0.50112855  1
  Ti  Ti144  1  0.60067017  0.19713381  0.01305553  1
  Ti  Ti145  1  0.70326032  0.29408250  0.88456930  1
  Ti  Ti146  1  0.20285536  0.40055381  0.00571583  1
  Ti  Ti147  1  0.29181501  0.69559738  0.12777075  1
  Ti  Ti148  1  0.29412754  0.50364288  0.87912742  1
  Ti  Ti149  1  0.90673608  0.29317560  0.59895784  1
  Ti  Ti150  1  0.09800897  0.29858622  0.89725275  1
  Ti  Ti151  1  0.10446073  0.10041925  0.35731989  1
  Ti  Ti152  1  0.20557464  0.20364403  0.25597253  1
  Ti  Ti153  1  0.58895697  0.59189848  0.49486147  1
  Ti  Ti154  1  -0.00668410  0.78998427  0.25781395  1
  Ti  Ti155  1  0.89820420  0.70239757  0.39293445  1
  Ti  Ti156  1  0.69688298  0.50455565  0.37752532  1
  Ti  Ti157  1  0.10000774  0.29602193  0.37759026  1
  Ti  Ti158  1  0.20193149  0.39689629  0.74105922  1
  Ti  Ti159  1  0.60527612  0.39965563  0.00510322  1
  Mo  Mo160  1  0.70250277  0.09438467  0.63751733  1
  Mo  Mo161  1  0.89780430  0.70560603  0.84435432  1
  Mo  Mo162  1  0.79359469  0.60542089  0.27690171  1
  Mo  Mo163  1  0.50116560  0.29965190  0.10737571  1
  Mo  Mo164  1  -0.00087572  0.80667559  0.48999765  1
  Mo  Mo165  1  0.39527164  0.60668252  0.48557777  1
  Mo  Mo166  1  0.49730380  0.10222424  0.12854801  1
  Mo  Mo167  1  0.90179808  0.49436821  0.86064155  1
  Mo  Mo168  1  0.59176249  0.60013582  0.76728923  1
  Mo  Mo169  1  0.29913818  0.89336603  0.87965184  1
  Mo  Mo170  1  0.30051490  0.10444291  0.35048894  1
  Mo  Mo171  1  -0.00031517  0.60857902  0.27373488  1
  Mo  Mo172  1  0.50329803  0.49997653  0.86624550  1
  Mo  Mo173  1  0.79303484  0.00460169  0.73424384  1
  Mo  Mo174  1  0.39601818  -0.00554712  0.01201237  1
  Mo  Mo175  1  0.39879531  0.61086605  0.77185807  1
  Mo  Mo176  1  0.19731051  0.00629024  0.75570559  1
  Mo  Mo177  1  0.70044553  0.89657216  0.12679387  1
  Mo  Mo178  1  -0.00126183  0.80328641  0.74857320  1
  Mo  Mo179  1  0.68900405  0.90511776  0.35554746  1
  Mo  Mo180  1  0.19609758  0.00155536  0.25230424  1
  Mo  Mo181  1  0.10549463  0.50202465  0.60608612  1
  Mo  Mo182  1  0.49737747  0.70625665  0.89475100  1
  Mo  Mo183  1  0.01242234  0.39399095  0.50700556  1
  Mo  Mo184  1  0.90022371  0.70521285  0.13128864  1
  Mo  Mo185  1  0.39165854  0.19457849  0.50164549  1
  Mo  Mo186  1  0.20450705  0.59768958  0.00359352  1
  Mo  Mo187  1  0.51052081  0.50276634  0.37128981  1
  Mo  Mo188  1  0.50074917  0.89456610  0.35984591  1
  Mo  Mo189  1  0.58697901  0.79473066  0.50305392  1
  Mo  Mo190  1  0.69919179  0.50348480  0.62677926  1
  Mo  Mo191  1  0.30068357  0.50610226  0.38082523  1
  Mo  Mo192  1  0.70554682  0.49892209  0.12158185  1
  Mo  Mo193  1  0.49393719  0.89525776  0.11627323  1
  Mo  Mo194  1  0.80408047  0.19120001  0.48714147  1
  Mo  Mo195  1  0.69101039  0.90290837  0.63874492  1
  Mo  Mo196  1  0.60034487  -0.00406404  0.24378131  1
  Mo  Mo197  1  0.19802819  0.79437100  0.24839597  1
  Mo  Mo198  1  0.00098900  0.19991619  0.01939425  1
  Mo  Mo199  1  0.00301342  0.59908284  -0.01758840  1
