# generated using pymatgen
data_HfZrTaTiMo
_symmetry_space_group_name_H-M   'P 1'
_cell_length_a   15.92778862
_cell_length_b   15.92769356
_cell_length_c   15.23758573
_cell_angle_alpha   89.99209862
_cell_angle_beta   89.95423881
_cell_angle_gamma   89.88200275
_symmetry_Int_Tables_number   1
_chemical_formula_structural   HfZrTaTiMo
_chemical_formula_sum   'Hf40 Zr40 Ta40 Ti40 Mo40'
_cell_volume   3865.65839735
_cell_formula_units_Z   40
loop_
 _symmetry_equiv_pos_site_id
 _symmetry_equiv_pos_as_xyz
  1  'x, y, z'
loop_
 _atom_site_type_symbol
 _atom_site_label
 _atom_site_symmetry_multiplicity
 _atom_site_fract_x
 _atom_site_fract_y
 _atom_site_fract_z
 _atom_site_occupancy
  Hf  Hf0  1  0.81343944  0.81296044  0.00026215  1
  Hf  Hf1  1  0.69582454  0.90773524  0.12784436  1
  Hf  Hf2  1  0.39821066  0.19995181  0.26086195  1
  Hf  Hf3  1  -0.01496559  0.19043341  -0.01768274  1
  Hf  Hf4  1  0.21511659  0.18905911  0.73165278  1
  Hf  Hf5  1  0.30964707  0.91309320  0.14691952  1
  Hf  Hf6  1  0.50207031  0.29381402  0.38023201  1
  Hf  Hf7  1  0.01361237  0.79630787  0.49579427  1
  Hf  Hf8  1  0.39527530  0.40150534  0.49826005  1
  Hf  Hf9  1  0.49727898  0.30001852  0.13112463  1
  Hf  Hf10  1  0.10370623  0.08408011  0.85533156  1
  Hf  Hf11  1  0.49706336  0.69759441  0.88217982  1
  Hf  Hf12  1  0.69759647  0.10112386  0.85614867  1
  Hf  Hf13  1  -0.00804072  -0.01306896  -0.01102848  1
  Hf  Hf14  1  0.39657985  0.81443470  0.00131240  1
  Hf  Hf15  1  0.38670470  0.01914282  0.73820677  1
  Hf  Hf16  1  0.81305696  0.80032802  0.76091704  1
  Hf  Hf17  1  0.61023743  0.18866967  0.50974791  1
  Hf  Hf18  1  0.69245511  0.92087299  0.62095441  1
  Hf  Hf19  1  0.29347561  0.70819463  0.36644901  1
  Hf  Hf20  1  0.70691605  0.49513580  0.62476943  1
  Hf  Hf21  1  0.09595671  0.50742922  0.87714201  1
  Hf  Hf22  1  0.39879361  0.60195422  0.50439544  1
  Hf  Hf23  1  0.88909631  0.89906632  0.60956235  1
  Hf  Hf24  1  0.01002720  0.79219301  0.73389404  1
  Hf  Hf25  1  0.80566713  0.01408030  -0.00847971  1
  Hf  Hf26  1  0.40261692  0.81039691  0.74338523  1
  Hf  Hf27  1  0.60314540  0.40030406  -0.00934366  1
  Hf  Hf28  1  0.20986468  0.19405033  -0.01707376  1
  Hf  Hf29  1  0.50111682  0.49916395  0.12465784  1
  Hf  Hf30  1  0.69970103  0.30099864  0.86046957  1
  Hf  Hf31  1  0.29910277  0.50994558  0.87162973  1
  Hf  Hf32  1  0.70338353  0.90443097  0.87183357  1
  Hf  Hf33  1  0.27905703  0.90995720  0.85490708  1
  Hf  Hf34  1  0.59602486  0.80853862  -0.00098065  1
  Hf  Hf35  1  0.89972484  0.69035692  0.60483039  1
  Hf  Hf36  1  0.50537382  0.30761541  0.63064702  1
  Hf  Hf37  1  0.89642471  0.91333382  0.14657239  1
  Hf  Hf38  1  0.00473584  0.79865198  0.25816295  1
  Hf  Hf39  1  0.29497459  0.49335648  0.62897605  1
  Zr  Zr40  1  0.80125329  0.59064290  0.48153723  1
  Zr  Zr41  1  0.59972740  0.57784434  0.77293937  1
  Zr  Zr42  1  0.70288456  0.70535353  0.62463532  1
  Zr  Zr43  1  0.19820954  0.60693696  0.50843705  1
  Zr  Zr44  1  0.80770029  0.39493660  0.00952068  1
  Zr  Zr45  1  0.39213646  0.60671624  0.00861110  1
  Zr  Zr46  1  0.90347649  0.69297331  0.36921504  1
  Zr  Zr47  1  0.70809605  0.30572283  0.63129002  1
  Zr  Zr48  1  0.29442466  0.48762686  0.12488921  1
  Zr  Zr49  1  0.90079847  0.69973623  0.12597372  1
  Zr  Zr50  1  0.42026479  0.41103244  0.75987560  1
  Zr  Zr51  1  0.30296688  0.09654034  0.38304512  1
  Zr  Zr52  1  0.29435891  0.10732385  0.13883925  1
  Zr  Zr53  1  0.59740646  0.19768861  0.00195693  1
  Zr  Zr54  1  0.60763194  0.60949330  0.48043490  1
  Zr  Zr55  1  0.49244086  0.71230890  0.36876115  1
  Zr  Zr56  1  0.39715839  0.01243684  -0.01998614  1
  Zr  Zr57  1  0.08450691  0.10478694  0.13371740  1
  Zr  Zr58  1  0.10579440  0.29763453  0.11920123  1
  Zr  Zr59  1  0.71011060  0.29269882  0.36665159  1
  Zr  Zr60  1  -0.00999312  0.20316646  0.50678004  1
  Zr  Zr61  1  0.60235021  0.79913862  0.76116914  1
  Zr  Zr62  1  0.50947769  0.70081934  0.62439609  1
  Zr  Zr63  1  0.91923502  0.69717361  0.90222596  1
  Zr  Zr64  1  0.00130188  0.00634329  0.27149857  1
  Zr  Zr65  1  0.39388050  0.60473593  0.24018734  1
  Zr  Zr66  1  0.60728727  0.40585748  0.48599075  1
  Zr  Zr67  1  0.19602673  0.80279231  0.01754386  1
  Zr  Zr68  1  0.20672624  0.39440098  -0.01255176  1
  Zr  Zr69  1  0.79778639  0.20164503  0.00776904  1
  Zr  Zr70  1  0.41321084  -0.01030072  0.50852701  1
  Zr  Zr71  1  -0.00019215  0.00205462  0.49517110  1
  Zr  Zr72  1  0.49673506  0.09050440  0.13398430  1
  Zr  Zr73  1  0.09416581  0.29968343  0.86175231  1
  Zr  Zr74  1  0.80348199  0.59857481  0.76012631  1
  Zr  Zr75  1  0.28552714  0.70803558  0.86723100  1
  Zr  Zr76  1  0.19454905  -0.00145642  0.00523911  1
  Zr  Zr77  1  0.09288164  0.31451857  0.62705774  1
  Zr  Zr78  1  0.19905766  0.20425359  0.51072371  1
  Zr  Zr79  1  -0.00407901  0.59855690  0.74812108  1
  Ta  Ta80  1  0.19703295  0.39957687  0.26185887  1
  Ta  Ta81  1  0.50022492  0.50253263  0.36254417  1
  Ta  Ta82  1  0.39201764  0.80064269  0.51511287  1
  Ta  Ta83  1  0.60633851  0.60506772  0.24385136  1
  Ta  Ta84  1  0.00888675  0.58017892  0.48948160  1
  Ta  Ta85  1  0.32108027  0.28557664  0.85101136  1
  Ta  Ta86  1  0.00992388  0.39689946  0.25433479  1
  Ta  Ta87  1  0.80267526  0.19014565  0.23599070  1
  Ta  Ta88  1  -0.00889092  0.19383515  0.74236808  1
  Ta  Ta89  1  0.18972048  0.21067954  0.26882835  1
  Ta  Ta90  1  0.19677706  -0.00847290  0.50349196  1
  Ta  Ta91  1  0.39908755  0.60525893  0.74211486  1
  Ta  Ta92  1  0.19244288  0.61085893  0.73563231  1
  Ta  Ta93  1  0.59023192  0.00202380  -0.01477185  1
  Ta  Ta94  1  0.29602056  0.30308066  0.38385337  1
  Ta  Ta95  1  0.09241389  0.49470507  0.63308366  1
  Ta  Ta96  1  0.78915902  0.79803479  0.26037543  1
  Ta  Ta97  1  0.88759883  0.90270830  0.37931871  1
  Ta  Ta98  1  0.71114935  0.69036777  0.89967940  1
  Ta  Ta99  1  0.78391795  0.79854258  0.48279844  1
  Ta  Ta100  1  0.19941588  0.79784595  0.23916379  1
  Ta  Ta101  1  0.81093943  0.40721047  0.76713581  1
  Ta  Ta102  1  0.90697572  0.48452448  0.61785743  1
  Ta  Ta103  1  0.70590142  0.49706513  0.35350415  1
  Ta  Ta104  1  0.80794242  0.19821599  0.74282528  1
  Ta  Ta105  1  0.70405727  0.09737209  0.37167338  1
  Ta  Ta106  1  0.40600809  0.39075611  -0.01640054  1
  Ta  Ta107  1  0.60263212  0.39940743  0.24647186  1
  Ta  Ta108  1  0.81387518  0.39320852  0.48596382  1
  Ta  Ta109  1  0.50279289  0.71025133  0.12795655  1
  Ta  Ta110  1  0.79867661  0.59668074  0.23990133  1
  Ta  Ta111  1  0.91291656  0.28823650  0.14288818  1
  Ta  Ta112  1  0.60115277  0.80277594  0.25284765  1
  Ta  Ta113  1  0.90428661  0.29327933  0.36234479  1
  Ta  Ta114  1  0.20395249  0.40008655  0.75436649  1
  Ta  Ta115  1  0.30707102  0.89373438  0.37055507  1
  Ta  Ta116  1  0.28627085  0.89736657  0.62762623  1
  Ta  Ta117  1  0.39620608  0.39786686  0.26251927  1
  Ta  Ta118  1  0.29454033  0.50424636  0.37059344  1
  Ta  Ta119  1  0.59618883  -0.00244276  0.26671253  1
  Ti  Ti120  1  0.88748682  0.10265604  0.37405628  1
  Ti  Ti121  1  0.19225447  0.59778334  0.23622367  1
  Ti  Ti122  1  0.11758227  0.89063268  0.37735058  1
  Ti  Ti123  1  0.89917379  0.49979135  0.89396767  1
  Ti  Ti124  1  0.88217543  0.08603875  0.62806254  1
  Ti  Ti125  1  0.39885933  0.20636783  -0.00096092  1
  Ti  Ti126  1  0.90267071  0.31102715  0.63234226  1
  Ti  Ti127  1  0.90287013  0.49011642  0.36027722  1
  Ti  Ti128  1  0.49967426  0.90533510  0.13976471  1
  Ti  Ti129  1  0.09981756  0.10953127  0.38240758  1
  Ti  Ti130  1  0.00051949  0.58063091  0.02716274  1
  Ti  Ti131  1  0.09542916  0.90452547  0.13584012  1
  Ti  Ti132  1  0.19512481  0.60123476  0.01786221  1
  Ti  Ti133  1  0.30054805  0.29938961  0.13320945  1
  Ti  Ti134  1  0.80400916  0.39486810  0.23669484  1
  Ti  Ti135  1  0.60503549  0.59844588  0.00679105  1
  Ti  Ti136  1  0.51073979  0.50228007  0.61911975  1
  Ti  Ti137  1  0.59612608  0.19851294  0.73974155  1
  Ti  Ti138  1  0.70435928  0.49939413  0.12500645  1
  Ti  Ti139  1  0.09409218  0.69947731  0.12257958  1
  Ti  Ti140  1  0.58142741  -0.00428296  0.76171309  1
  Ti  Ti141  1  0.58745935  0.81971798  0.49199605  1
  Ti  Ti142  1  0.60485716  0.19798830  0.24669197  1
  Ti  Ti143  1  -0.01130963  -0.01067220  0.74591817  1
  Ti  Ti144  1  -0.00327044  0.39534541  0.00921686  1
  Ti  Ti145  1  0.09470809  0.88580285  0.86459458  1
  Ti  Ti146  1  0.19714836  0.00374073  0.26419555  1
  Ti  Ti147  1  0.09542728  0.08698369  0.62865716  1
  Ti  Ti148  1  0.00511114  0.58743860  0.24365519  1
  Ti  Ti149  1  0.10716431  0.69267366  0.37107806  1
  Ti  Ti150  1  0.69874217  0.09071024  0.13518023  1
  Ti  Ti151  1  0.69485341  0.90655775  0.37939469  1
  Ti  Ti152  1  0.70089989  0.70344649  0.11997344  1
  Ti  Ti153  1  0.50681099  0.09557855  0.38247679  1
  Ti  Ti154  1  0.80146482  0.19421682  0.51262127  1
  Ti  Ti155  1  0.48519613  0.12386236  0.85974633  1
  Ti  Ti156  1  0.51555656  0.08874395  0.62339234  1
  Ti  Ti157  1  0.39798601  0.19844672  0.52135517  1
  Ti  Ti158  1  0.10162972  0.70097606  0.88949424  1
  Ti  Ti159  1  0.18496438  0.40954521  0.48666705  1
  Mo  Mo160  1  0.69708743  0.70260958  0.36182021  1
  Mo  Mo161  1  0.79863540  0.59563223  0.02123000  1
  Mo  Mo162  1  0.50049385  0.50467479  0.89711312  1
  Mo  Mo163  1  0.90223520  0.30065975  0.86160287  1
  Mo  Mo164  1  0.29905721  0.70266140  0.63450264  1
  Mo  Mo165  1  0.29715302  0.09552620  0.60246082  1
  Mo  Mo166  1  0.50441589  0.29601316  0.86518249  1
  Mo  Mo167  1  0.09677755  0.90034553  0.62434509  1
  Mo  Mo168  1  -0.00189402  0.40244877  0.47905954  1
  Mo  Mo169  1  0.90392482  0.48989989  0.13986526  1
  Mo  Mo170  1  0.40671895  0.00028956  0.27250415  1
  Mo  Mo171  1  0.20421930  0.80444138  0.50269145  1
  Mo  Mo172  1  0.50039185  0.90268091  0.63140494  1
  Mo  Mo173  1  0.09835683  0.30631194  0.38580478  1
  Mo  Mo174  1  0.09845888  0.49654513  0.13130168  1
  Mo  Mo175  1  0.69941081  0.29754491  0.14143176  1
  Mo  Mo176  1  0.89871303  0.09924071  0.13656030  1
  Mo  Mo177  1  0.19105973  0.79422153  0.73253781  1
  Mo  Mo178  1  0.49726585  0.89856166  0.36862344  1
  Mo  Mo179  1  0.79464108  0.00590277  0.48778694  1
  Mo  Mo180  1  0.70071932  0.09931355  0.63852454  1
  Mo  Mo181  1  0.80580373  0.00036477  0.75595120  1
  Mo  Mo182  1  0.40706457  0.20142044  0.72072240  1
  Mo  Mo183  1  0.18798529  -0.00384143  0.72915999  1
  Mo  Mo184  1  0.30023537  0.10651768  0.86982097  1
  Mo  Mo185  1  0.09755286  0.69419957  0.60844821  1
  Mo  Mo186  1  0.71068247  0.50419440  0.89647518  1
  Mo  Mo187  1  0.29572861  0.70537292  0.13402295  1
  Mo  Mo188  1  0.00907731  0.80451594  0.01237366  1
  Mo  Mo189  1  0.90078711  0.09753859  0.85229403  1
  Mo  Mo190  1  0.49542077  0.90728545  0.86982030  1
  Mo  Mo191  1  -0.00608122  0.40254273  0.76274608  1
  Mo  Mo192  1  0.60881079  0.40456933  0.76442150  1
  Mo  Mo193  1  0.00113938  0.19974313  0.26843947  1
  Mo  Mo194  1  0.10217380  0.50754572  0.35722692  1
  Mo  Mo195  1  0.90963731  0.89892128  0.86466878  1
  Mo  Mo196  1  0.30379804  0.30554559  0.62852113  1
  Mo  Mo197  1  0.79278782  -0.00076952  0.26391753  1
  Mo  Mo198  1  0.60232873  0.00147505  0.48693119  1
  Mo  Mo199  1  0.40142587  0.80439932  0.23676818  1
