# generated using pymatgen
data_HfZrTaTiMo
_symmetry_space_group_name_H-M   'P 1'
_cell_length_a   15.93846041
_cell_length_b   15.91912129
_cell_length_c   15.19647353
_cell_angle_alpha   90.01151579
_cell_angle_beta   89.99041402
_cell_angle_gamma   90.01041109
_symmetry_Int_Tables_number   1
_chemical_formula_structural   HfZrTaTiMo
_chemical_formula_sum   'Hf40 Zr40 Ta40 Ti40 Mo40'
_cell_volume   3855.74456930
_cell_formula_units_Z   40
loop_
 _symmetry_equiv_pos_site_id
 _symmetry_equiv_pos_as_xyz
  1  'x, y, z'
loop_
 _atom_site_type_symbol
 _atom_site_label
 _atom_site_symmetry_multiplicity
 _atom_site_fract_x
 _atom_site_fract_y
 _atom_site_fract_z
 _atom_site_occupancy
  Hf  Hf0  1  0.78833291  0.00211672  0.25048651  1
  Hf  Hf1  1  0.09561193  0.31074636  0.36721402  1
  Hf  Hf2  1  0.79241171  0.59975229  0.49951918  1
  Hf  Hf3  1  0.58018141  0.80779746  0.23496941  1
  Hf  Hf4  1  0.59412559  0.60896448  0.24668266  1
  Hf  Hf5  1  0.09991522  0.50155024  0.86945924  1
  Hf  Hf6  1  0.59149105  0.80762089  0.74848947  1
  Hf  Hf7  1  0.38656685  0.60026218  0.50991669  1
  Hf  Hf8  1  0.79948582  0.00576758  0.48033563  1
  Hf  Hf9  1  0.80459291  0.60390212  0.24962386  1
  Hf  Hf10  1  0.90774390  0.70140872  0.37636297  1
  Hf  Hf11  1  0.79763958  0.39704913  0.74894144  1
  Hf  Hf12  1  0.00315905  0.19276955  0.49394522  1
  Hf  Hf13  1  0.49149108  0.49362485  0.13740317  1
  Hf  Hf14  1  0.51558799  0.30051037  0.14230268  1
  Hf  Hf15  1  0.49921928  0.29552603  0.63094838  1
  Hf  Hf16  1  0.19170733  0.41175511  0.23688679  1
  Hf  Hf17  1  0.89720955  0.70485889  0.86337070  1
  Hf  Hf18  1  0.20819644  0.40107412  0.74823621  1
  Hf  Hf19  1  0.59224607  0.80142111  0.51275289  1
  Hf  Hf20  1  0.80032242  0.80385430  0.49714054  1
  Hf  Hf21  1  0.90887985  0.49452995  0.37293151  1
  Hf  Hf22  1  0.30835200  0.30064593  0.62370216  1
  Hf  Hf23  1  0.79525431  0.59693661  -0.00697768  1
  Hf  Hf24  1  0.78324418  0.59125723  0.75474986  1
  Hf  Hf25  1  0.59880178  0.40218761  -0.01008586  1
  Hf  Hf26  1  0.20550688  0.60379550  -0.00177871  1
  Hf  Hf27  1  0.49790856  0.08536685  0.60065787  1
  Hf  Hf28  1  0.30219650  0.29986311  0.87643752  1
  Hf  Hf29  1  0.19842337  0.19861119  0.24968197  1
  Hf  Hf30  1  0.00502499  0.39007661  0.51822450  1
  Hf  Hf31  1  0.09916798  0.29642029  0.87931451  1
  Hf  Hf32  1  0.10893196  0.50729653  0.63366375  1
  Hf  Hf33  1  0.68553778  0.08479083  0.89051825  1
  Hf  Hf34  1  0.69685517  0.09554786  0.62302283  1
  Hf  Hf35  1  0.30566445  0.08965904  0.37267439  1
  Hf  Hf36  1  0.20593458  -0.00486963  -0.00326061  1
  Hf  Hf37  1  0.20650570  0.19694444  0.00525419  1
  Hf  Hf38  1  0.90748846  0.29562989  0.88564984  1
  Hf  Hf39  1  0.69143569  0.70930309  0.87329692  1
  Zr  Zr40  1  0.91134997  0.90043461  0.37097395  1
  Zr  Zr41  1  0.90983086  0.49290563  0.12399895  1
  Zr  Zr42  1  0.90006283  0.09061317  0.63485020  1
  Zr  Zr43  1  0.59900051  0.39278089  0.49034640  1
  Zr  Zr44  1  0.29886456  0.30571293  0.37067034  1
  Zr  Zr45  1  0.31514906  0.30728306  0.13239743  1
  Zr  Zr46  1  0.00054525  0.60854259  -0.00454025  1
  Zr  Zr47  1  0.59057990  0.18598739  0.75453979  1
  Zr  Zr48  1  0.09611713  0.10600932  0.63596573  1
  Zr  Zr49  1  0.48472077  0.89555771  0.38641354  1
  Zr  Zr50  1  0.19500414  0.61309561  0.22625714  1
  Zr  Zr51  1  0.30717593  0.09351148  0.14073187  1
  Zr  Zr52  1  0.09964090  0.09484275  0.13093760  1
  Zr  Zr53  1  0.10812837  0.69854528  0.38060638  1
  Zr  Zr54  1  0.18650300  -0.00079612  0.49168872  1
  Zr  Zr55  1  0.69917719  0.29354375  0.87725418  1
  Zr  Zr56  1  0.90665302  0.10537136  0.13042417  1
  Zr  Zr57  1  0.40815826  -0.00275724  0.75866162  1
  Zr  Zr58  1  0.79906177  0.19077587  0.75448759  1
  Zr  Zr59  1  0.89949994  0.29953871  0.35876845  1
  Zr  Zr60  1  0.70292030  0.90331544  0.62748940  1
  Zr  Zr61  1  0.00159033  -0.00741900  -0.00659730  1
  Zr  Zr62  1  0.89317631  0.49874295  0.62652898  1
  Zr  Zr63  1  0.00655515  0.60934108  0.51670196  1
  Zr  Zr64  1  0.07954763  0.30026809  0.11716214  1
  Zr  Zr65  1  0.00791218  0.79483954  0.23787841  1
  Zr  Zr66  1  0.89601270  0.89478161  0.12252712  1
  Zr  Zr67  1  0.29654436  0.51168428  0.36094224  1
  Zr  Zr68  1  0.69047250  0.49582679  0.12900172  1
  Zr  Zr69  1  0.49863161  0.50327102  0.62749013  1
  Zr  Zr70  1  0.00143567  0.80478278  0.74782756  1
  Zr  Zr71  1  0.31401667  0.90574804  0.60345456  1
  Zr  Zr72  1  0.29905592  0.71466337  0.37226464  1
  Zr  Zr73  1  0.20912430  0.80328649  0.73903105  1
  Zr  Zr74  1  0.30272235  0.10454494  0.61218994  1
  Zr  Zr75  1  0.68846966  0.70467041  0.37642325  1
  Zr  Zr76  1  0.79219589  0.19764923  0.01599558  1
  Zr  Zr77  1  0.79888669  0.20371015  0.49205481  1
  Zr  Zr78  1  0.60394427  0.41095733  0.75872811  1
  Zr  Zr79  1  0.70489782  0.70888286  0.11778651  1
  Ta  Ta80  1  0.59495583  0.80517268  0.00710657  1
  Ta  Ta81  1  0.20491320  0.40613080  0.00153059  1
  Ta  Ta82  1  0.20345679  0.19706383  0.75237715  1
  Ta  Ta83  1  0.89854394  0.90383778  0.63100555  1
  Ta  Ta84  1  0.79086646  0.80563452  0.25546224  1
  Ta  Ta85  1  0.51711526  0.08978182  0.36845433  1
  Ta  Ta86  1  0.40398931  0.40469793  -0.01106978  1
  Ta  Ta87  1  0.49544270  0.29835801  0.87076007  1
  Ta  Ta88  1  0.49021835  0.69791881  0.38519955  1
  Ta  Ta89  1  0.50403640  0.90398114  0.89471978  1
  Ta  Ta90  1  0.40996080  0.19739942  -0.00047713  1
  Ta  Ta91  1  0.30666332  0.70288662  0.87275287  1
  Ta  Ta92  1  0.41364518  0.20556085  0.47854664  1
  Ta  Ta93  1  0.31230410  0.89088664  0.88390392  1
  Ta  Ta94  1  0.39904957  0.19231541  0.76185469  1
  Ta  Ta95  1  0.40474320  0.00181294  0.00904357  1
  Ta  Ta96  1  0.20503833  0.00074772  0.76211887  1
  Ta  Ta97  1  0.00293401  0.39005583  0.74320336  1
  Ta  Ta98  1  0.90257805  0.49203157  0.87339559  1
  Ta  Ta99  1  0.79818162  0.39890055  0.00621223  1
  Ta  Ta100  1  0.69045030  0.69196728  0.62979784  1
  Ta  Ta101  1  0.41615609  0.19751363  0.26200707  1
  Ta  Ta102  1  0.40183523  0.59899176  -0.00439189  1
  Ta  Ta103  1  0.00130468  -0.00280776  0.76784458  1
  Ta  Ta104  1  0.88785914  0.70754153  0.63575649  1
  Ta  Ta105  1  0.40097802  0.40055169  0.48866388  1
  Ta  Ta106  1  0.79399638  0.39627820  0.24061403  1
  Ta  Ta107  1  0.90208517  0.09953876  0.88137463  1
  Ta  Ta108  1  0.10931625  0.89481494  0.87651462  1
  Ta  Ta109  1  0.00839550  0.80498858  0.52164159  1
  Ta  Ta110  1  0.29794232  0.89381879  0.13685854  1
  Ta  Ta111  1  0.30674589  0.50214001  0.12179850  1
  Ta  Ta112  1  0.69791347  0.49728768  0.37162386  1
  Ta  Ta113  1  0.20519704  0.40977557  0.50985292  1
  Ta  Ta114  1  0.49044749  0.71051299  0.88276769  1
  Ta  Ta115  1  0.29537883  0.89420653  0.36435720  1
  Ta  Ta116  1  0.79957171  -0.01738142  0.77596020  1
  Ta  Ta117  1  0.69865521  0.29711889  0.62337440  1
  Ta  Ta118  1  0.49729673  0.50491341  0.36777510  1
  Ta  Ta119  1  0.10967968  0.70155370  0.86385298  1
  Ti  Ti120  1  0.69375310  0.90716824  0.11804704  1
  Ti  Ti121  1  0.89848698  0.70463885  0.12013520  1
  Ti  Ti122  1  0.01379627  -0.01189438  0.24538714  1
  Ti  Ti123  1  0.59038028  0.19661105  0.00568858  1
  Ti  Ti124  1  0.49627047  0.69524102  0.62574615  1
  Ti  Ti125  1  0.09961265  0.91005809  0.63224609  1
  Ti  Ti126  1  0.10962179  0.88727935  0.37521705  1
  Ti  Ti127  1  0.79716335  0.39382757  0.50032417  1
  Ti  Ti128  1  0.40492046  0.79915483  0.73841416  1
  Ti  Ti129  1  0.09622939  0.09561865  0.36239469  1
  Ti  Ti130  1  0.40137181  0.62002820  0.23444759  1
  Ti  Ti131  1  0.79654651  -0.00523063  -0.00138255  1
  Ti  Ti132  1  0.69457798  0.29849781  0.35753823  1
  Ti  Ti133  1  0.67856920  0.91296062  0.37030940  1
  Ti  Ti134  1  0.60561145  0.19681869  0.48320848  1
  Ti  Ti135  1  0.30505196  0.09654514  0.87922277  1
  Ti  Ti136  1  0.79230791  0.20121151  0.24218994  1
  Ti  Ti137  1  0.41418157  -0.01043682  0.24310839  1
  Ti  Ti138  1  0.59121327  0.60027202  -0.00365460  1
  Ti  Ti139  1  -0.00059143  -0.00376619  0.49657468  1
  Ti  Ti140  1  0.68863664  0.50104431  0.61033160  1
  Ti  Ti141  1  0.19924602  0.78200151  0.52453525  1
  Ti  Ti142  1  0.90429075  0.30068959  0.12748415  1
  Ti  Ti143  1  0.09315333  0.49613279  0.10870755  1
  Ti  Ti144  1  0.59444586  -0.00691086  0.75536222  1
  Ti  Ti145  1  0.68188114  0.10380834  0.13362660  1
  Ti  Ti146  1  0.09902208  0.10383932  0.87335210  1
  Ti  Ti147  1  0.19526901  0.21002367  0.49925827  1
  Ti  Ti148  1  0.00802019  0.59681315  0.24225849  1
  Ti  Ti149  1  -0.00192036  0.60112836  0.74730925  1
  Ti  Ti150  1  0.20538534  0.79958248  0.00215482  1
  Ti  Ti151  1  0.58680518  0.59949301  0.76738147  1
  Ti  Ti152  1  0.39894963  0.42007293  0.76585396  1
  Ti  Ti153  1  0.80005014  0.81253484  -0.01515198  1
  Ti  Ti154  1  0.10086660  0.50543613  0.38327614  1
  Ti  Ti155  1  0.22392021  0.60005849  0.74512082  1
  Ti  Ti156  1  0.00385748  0.80163872  -0.01020657  1
  Ti  Ti157  1  0.90487721  0.28610238  0.63578846  1
  Ti  Ti158  1  0.10215735  0.71223008  0.11100778  1
  Ti  Ti159  1  0.90773158  0.10114651  0.35453784  1
  Mo  Mo160  1  0.59658186  0.00131819  0.01973367  1
  Mo  Mo161  1  0.60480932  0.00103341  0.49311480  1
  Mo  Mo162  1  0.39756590  0.79377945  0.51479109  1
  Mo  Mo163  1  0.39648109  0.80028978  0.00994114  1
  Mo  Mo164  1  0.40280469  0.60752660  0.75999431  1
  Mo  Mo165  1  0.49764340  0.69809278  0.10431141  1
  Mo  Mo166  1  0.19417373  -0.01090470  0.26073529  1
  Mo  Mo167  1  0.39769506  0.79547509  0.23149021  1
  Mo  Mo168  1  0.30370827  0.70312741  0.11210927  1
  Mo  Mo169  1  0.10288525  0.69889128  0.64227149  1
  Mo  Mo170  1  0.39991673  0.00238180  0.48153155  1
  Mo  Mo171  1  0.89975297  0.89815422  0.87896833  1
  Mo  Mo172  1  0.60700386  0.19659126  0.25809064  1
  Mo  Mo173  1  0.19739037  0.80549180  0.23316907  1
  Mo  Mo174  1  0.40130093  0.40386072  0.26400879  1
  Mo  Mo175  1  0.70152206  0.29833580  0.13221243  1
  Mo  Mo176  1  0.70063034  0.10318701  0.36274907  1
  Mo  Mo177  1  0.20137827  0.59793364  0.51586389  1
  Mo  Mo178  1  -0.00176706  0.40228823  -0.01237275  1
  Mo  Mo179  1  0.10703688  0.89443099  0.10897194  1
  Mo  Mo180  1  0.00484417  0.19489989  0.76117713  1
  Mo  Mo181  1  0.69416602  0.89939407  0.88613115  1
  Mo  Mo182  1  0.59511398  -0.00051165  0.23633648  1
  Mo  Mo183  1  0.49585374  0.09788100  0.89187416  1
  Mo  Mo184  1  0.30729673  0.49515057  0.62377413  1
  Mo  Mo185  1  -0.00063220  0.41034365  0.24914594  1
  Mo  Mo186  1  0.60185146  0.40229710  0.26645526  1
  Mo  Mo187  1  0.30661373  0.69534363  0.63697630  1
  Mo  Mo188  1  0.70041413  0.50374101  0.88952281  1
  Mo  Mo189  1  0.50072322  0.10219164  0.13350898  1
  Mo  Mo190  1  0.59269638  0.60028655  0.49155610  1
  Mo  Mo191  1  -0.00106499  0.19947463  0.25985992  1
  Mo  Mo192  1  0.50044210  0.90089919  0.61653095  1
  Mo  Mo193  1  0.30085741  0.50401730  0.88699975  1
  Mo  Mo194  1  0.49349157  0.90309398  0.11342776  1
  Mo  Mo195  1  0.49729415  0.50787699  0.87430601  1
  Mo  Mo196  1  -0.00014532  0.19437499  -0.01002119  1
  Mo  Mo197  1  0.50450206  0.29970974  0.36669301  1
  Mo  Mo198  1  0.79384969  0.79938837  0.74696620  1
  Mo  Mo199  1  0.10606819  0.29752199  0.63281838  1
