# generated using pymatgen
data_HfZrTaTiMo
_symmetry_space_group_name_H-M   'P 1'
_cell_length_a   15.92380467
_cell_length_b   15.92831648
_cell_length_c   15.18706790
_cell_angle_alpha   89.98230859
_cell_angle_beta   90.02999345
_cell_angle_gamma   89.95300235
_symmetry_Int_Tables_number   1
_chemical_formula_structural   HfZrTaTiMo
_chemical_formula_sum   'Hf40 Zr40 Ta40 Ti40 Mo40'
_cell_volume   3852.03678897
_cell_formula_units_Z   40
loop_
 _symmetry_equiv_pos_site_id
 _symmetry_equiv_pos_as_xyz
  1  'x, y, z'
loop_
 _atom_site_type_symbol
 _atom_site_label
 _atom_site_symmetry_multiplicity
 _atom_site_fract_x
 _atom_site_fract_y
 _atom_site_fract_z
 _atom_site_occupancy
  Hf  Hf0  1  0.60845346  0.20258407  0.25414086  1
  Hf  Hf1  1  0.89448900  0.11716945  0.36818526  1
  Hf  Hf2  1  -0.00304830  0.39322271  0.22285825  1
  Hf  Hf3  1  0.40065845  0.80786333  0.25649593  1
  Hf  Hf4  1  0.29591040  0.50435304  0.88217122  1
  Hf  Hf5  1  0.49763327  0.30368682  0.37737677  1
  Hf  Hf6  1  0.19914168  0.80291994  0.24648933  1
  Hf  Hf7  1  0.69370939  0.69767985  0.62652850  1
  Hf  Hf8  1  0.40242331  0.19424363  0.74926293  1
  Hf  Hf9  1  0.18833806  0.38960017  0.77077353  1
  Hf  Hf10  1  0.00216028  0.00465294  0.49604174  1
  Hf  Hf11  1  0.11852671  0.89389657  0.89086960  1
  Hf  Hf12  1  0.60869607  -0.00201555  0.74051075  1
  Hf  Hf13  1  0.79637079  0.80598563  0.74427959  1
  Hf  Hf14  1  0.60184575  0.40004120  0.23568157  1
  Hf  Hf15  1  0.00107671  0.20242200  0.50694510  1
  Hf  Hf16  1  0.59699830  -0.00138952  0.26236490  1
  Hf  Hf17  1  0.70860624  0.88948242  0.13947223  1
  Hf  Hf18  1  0.89307754  0.28986242  0.89920997  1
  Hf  Hf19  1  0.00196712  0.80445117  0.26531009  1
  Hf  Hf20  1  0.00832883  -0.00246483  0.75246739  1
  Hf  Hf21  1  0.30656131  0.29254185  0.89543636  1
  Hf  Hf22  1  0.70643487  0.48780414  0.37066126  1
  Hf  Hf23  1  0.71148892  0.10532861  0.87319651  1
  Hf  Hf24  1  -0.00431723  0.59851468  0.00528010  1
  Hf  Hf25  1  0.80320905  0.59125583  0.49722403  1
  Hf  Hf26  1  0.80192418  -0.00357394  0.73741610  1
  Hf  Hf27  1  0.70472844  0.69480840  0.37067232  1
  Hf  Hf28  1  0.71092385  0.10293446  0.13462241  1
  Hf  Hf29  1  0.19316435  0.79600725  0.47712501  1
  Hf  Hf30  1  0.37467134  0.81479257  0.74807868  1
  Hf  Hf31  1  0.19726923  0.60139812  0.22959523  1
  Hf  Hf32  1  0.09289658  0.49626318  0.36204060  1
  Hf  Hf33  1  0.80151678  0.40265978  0.75324390  1
  Hf  Hf34  1  0.19542446  0.39732172  0.22038625  1
  Hf  Hf35  1  0.00777664  0.02247357  -0.01233442  1
  Hf  Hf36  1  0.30043263  0.91584818  0.37856953  1
  Hf  Hf37  1  0.60380022  0.39966764  0.75900813  1
  Hf  Hf38  1  0.31028076  0.29468404  0.36298355  1
  Hf  Hf39  1  0.80336733  0.00096026  -0.00471350  1
  Zr  Zr40  1  0.30788882  0.29116446  0.10543077  1
  Zr  Zr41  1  0.09515791  0.29871284  0.36703375  1
  Zr  Zr42  1  0.70588754  0.69681273  0.13835160  1
  Zr  Zr43  1  0.30202580  0.48953507  0.36010897  1
  Zr  Zr44  1  0.89560185  0.31093983  0.37849660  1
  Zr  Zr45  1  0.50457552  0.70699434  0.11874255  1
  Zr  Zr46  1  0.71317009  0.29414283  0.39017589  1
  Zr  Zr47  1  0.30507627  0.08796370  0.88679642  1
  Zr  Zr48  1  0.21615528  -0.01980046  0.74370604  1
  Zr  Zr49  1  0.60944814  0.80258217  -0.02059890  1
  Zr  Zr50  1  0.88836066  0.70556454  0.13284336  1
  Zr  Zr51  1  0.19731400  0.19887995  0.50008213  1
  Zr  Zr52  1  0.48910516  0.90725298  0.87250224  1
  Zr  Zr53  1  0.28751271  0.70641297  0.62521134  1
  Zr  Zr54  1  0.29958081  0.51298244  0.65360020  1
  Zr  Zr55  1  0.59980371  0.00354319  0.49761264  1
  Zr  Zr56  1  0.60176106  0.60318724  -0.01294021  1
  Zr  Zr57  1  0.49458065  0.50388265  0.86985251  1
  Zr  Zr58  1  0.29210006  0.29554262  0.63556430  1
  Zr  Zr59  1  0.90154693  0.69295271  0.62969175  1
  Zr  Zr60  1  0.09156197  0.69930090  0.61528559  1
  Zr  Zr61  1  0.00606077  0.19997600  0.76732854  1
  Zr  Zr62  1  0.49590134  0.69393097  0.64123753  1
  Zr  Zr63  1  0.50137811  0.29918383  0.11341003  1
  Zr  Zr64  1  0.40321161  0.60272581  0.23911675  1
  Zr  Zr65  1  0.90055478  0.89739036  0.87836927  1
  Zr  Zr66  1  0.59749113  0.00413560  0.00467336  1
  Zr  Zr67  1  0.19757620  0.19312798  0.22718326  1
  Zr  Zr68  1  0.29881651  0.10152156  0.37640486  1
  Zr  Zr69  1  0.50406078  0.30027315  0.62593402  1
  Zr  Zr70  1  0.40011983  0.40588236  0.51480639  1
  Zr  Zr71  1  0.09509586  0.50634988  0.63052635  1
  Zr  Zr72  1  0.01651986  0.79436018  0.76113999  1
  Zr  Zr73  1  0.19534916  0.40390567  0.50642472  1
  Zr  Zr74  1  0.90264919  0.90160399  0.12485429  1
  Zr  Zr75  1  0.50397711  0.89234516  0.62006403  1
  Zr  Zr76  1  0.70762576  0.30132313  0.61447830  1
  Zr  Zr77  1  0.58854817  0.80085130  0.27109417  1
  Zr  Zr78  1  -0.00402240  0.39735304  0.76112883  1
  Zr  Zr79  1  0.39976431  0.59909113  0.49566593  1
  Ta  Ta80  1  0.88752044  0.50268957  0.12517918  1
  Ta  Ta81  1  0.91194535  0.89430911  0.61084827  1
  Ta  Ta82  1  0.29911054  0.69643817  0.36737127  1
  Ta  Ta83  1  0.48939190  0.10546131  0.36611763  1
  Ta  Ta84  1  0.59630952  0.59394688  0.25509121  1
  Ta  Ta85  1  0.80090149  0.00367082  0.49973140  1
  Ta  Ta86  1  0.80682138  0.80111365  0.49673831  1
  Ta  Ta87  1  0.90159848  0.10331510  0.62780048  1
  Ta  Ta88  1  0.59882352  0.19116386  0.49408728  1
  Ta  Ta89  1  0.10755872  0.89475888  0.60997137  1
  Ta  Ta90  1  0.09404848  0.70395543  0.12134619  1
  Ta  Ta91  1  0.18962747  0.39802076  0.00623403  1
  Ta  Ta92  1  0.40371361  0.80030319  0.48566881  1
  Ta  Ta93  1  0.60136651  0.41373082  0.50892091  1
  Ta  Ta94  1  0.30326275  0.90133610  0.11632574  1
  Ta  Ta95  1  0.89544484  0.69618689  0.87556456  1
  Ta  Ta96  1  0.50390896  0.10070445  0.86797962  1
  Ta  Ta97  1  0.39890630  0.00795337  0.23304516  1
  Ta  Ta98  1  0.90529946  0.10376589  0.13722566  1
  Ta  Ta99  1  0.70559995  0.89820072  0.38370108  1
  Ta  Ta100  1  0.60564220  0.19674817  0.00046799  1
  Ta  Ta101  1  0.29838868  0.09370948  0.61829046  1
  Ta  Ta102  1  0.50277127  0.49478019  0.36943485  1
  Ta  Ta103  1  0.30349459  0.50261022  0.10296736  1
  Ta  Ta104  1  0.09790095  0.09926235  0.35936196  1
  Ta  Ta105  1  0.09667104  0.50037116  0.89251364  1
  Ta  Ta106  1  0.89628078  0.49926676  0.35645645  1
  Ta  Ta107  1  0.60889137  0.40465979  -0.00221395  1
  Ta  Ta108  1  0.18245789  0.61927043  0.77634015  1
  Ta  Ta109  1  0.19483806  0.59956892  0.48085291  1
  Ta  Ta110  1  0.70520690  0.30075752  0.89069244  1
  Ta  Ta111  1  0.39161513  0.61595046  -0.00480746  1
  Ta  Ta112  1  0.10729227  0.09788513  0.63319497  1
  Ta  Ta113  1  -0.00030150  0.60429940  0.47718417  1
  Ta  Ta114  1  -0.00435681  0.59507860  0.77488056  1
  Ta  Ta115  1  0.80308930  -0.00102370  0.26968599  1
  Ta  Ta116  1  0.59466201  0.59639812  0.49280153  1
  Ta  Ta117  1  0.79313035  0.59751757  -0.01154523  1
  Ta  Ta118  1  0.60517466  0.20127150  0.75778463  1
  Ta  Ta119  1  0.50054570  0.29531232  0.89012305  1
  Ti  Ti120  1  0.09546403  0.30043062  0.62785868  1
  Ti  Ti121  1  0.50083362  0.90318500  0.11915989  1
  Ti  Ti122  1  0.70298769  0.50424152  0.12534836  1
  Ti  Ti123  1  0.70261600  0.10731857  0.62165622  1
  Ti  Ti124  1  0.19870648  -0.00060958  0.23317404  1
  Ti  Ti125  1  0.90036874  0.50552840  0.63082416  1
  Ti  Ti126  1  -0.00021276  0.39493854  0.01063775  1
  Ti  Ti127  1  0.89888736  0.30430733  0.61709697  1
  Ti  Ti128  1  0.69897966  0.51027153  0.63579731  1
  Ti  Ti129  1  0.41574429  0.16799677  0.01354885  1
  Ti  Ti130  1  -0.00096829  0.79844937  -0.00013223  1
  Ti  Ti131  1  0.20037839  0.00802195  0.01724918  1
  Ti  Ti132  1  0.79490214  0.38848122  0.22895172  1
  Ti  Ti133  1  0.20423881  0.78992331  0.01888612  1
  Ti  Ti134  1  0.40603844  0.00414136  0.50991430  1
  Ti  Ti135  1  0.40308051  0.40066215  0.23108291  1
  Ti  Ti136  1  0.10108615  0.91162261  0.37790782  1
  Ti  Ti137  1  0.17686156  0.18698146  0.00268903  1
  Ti  Ti138  1  0.70252265  0.68937465  0.85203872  1
  Ti  Ti139  1  0.09611154  0.90249526  0.11960132  1
  Ti  Ti140  1  0.39910139  0.39421511  0.75795642  1
  Ti  Ti141  1  0.40826292  0.19184239  0.51364874  1
  Ti  Ti142  1  0.59659570  0.79628959  0.49115492  1
  Ti  Ti143  1  0.00009022  0.00034201  0.25498452  1
  Ti  Ti144  1  0.39990470  0.79972702  0.00293577  1
  Ti  Ti145  1  0.50221829  0.51152485  0.64604706  1
  Ti  Ti146  1  -0.00188773  0.60001071  0.24154657  1
  Ti  Ti147  1  -0.00866431  0.41268245  0.50327155  1
  Ti  Ti148  1  0.48907843  0.70321956  0.85782061  1
  Ti  Ti149  1  0.30139102  0.90041618  0.90046447  1
  Ti  Ti150  1  0.60625006  0.80827262  0.75637743  1
  Ti  Ti151  1  0.28755703  0.71180954  0.88049667  1
  Ti  Ti152  1  0.80463877  0.20275365  0.74494269  1
  Ti  Ti153  1  0.89094773  0.49337746  0.89044188  1
  Ti  Ti154  1  0.89027385  0.28833292  0.11265807  1
  Ti  Ti155  1  0.49797944  0.50297251  0.10879447  1
  Ti  Ti156  1  0.79309965  0.79494964  -0.01578725  1
  Ti  Ti157  1  0.40601201  0.00406122  0.72942363  1
  Ti  Ti158  1  0.19763741  0.19229920  0.76407868  1
  Ti  Ti159  1  0.89752129  0.69919417  0.36622273  1
  Mo  Mo160  1  0.09880598  0.70152243  0.90128009  1
  Mo  Mo161  1  0.80277292  0.19359665  0.51851064  1
  Mo  Mo162  1  0.70503654  0.49958789  0.87115665  1
  Mo  Mo163  1  0.80690379  0.41059544  0.51939156  1
  Mo  Mo164  1  -0.00118164  0.20059367  0.23535393  1
  Mo  Mo165  1  0.09287849  0.50154790  0.11367688  1
  Mo  Mo166  1  0.09262753  0.09031366  0.13957404  1
  Mo  Mo167  1  0.80388791  0.80580246  0.27616619  1
  Mo  Mo168  1  0.38839540  0.61083412  0.76902567  1
  Mo  Mo169  1  0.19701920  0.60522565  0.00241253  1
  Mo  Mo170  1  0.80271664  0.20624140  0.23616395  1
  Mo  Mo171  1  0.29888346  0.90186848  0.59799619  1
  Mo  Mo172  1  0.40422925  -0.00556868  0.01669940  1
  Mo  Mo173  1  0.50389519  0.10336551  0.63412457  1
  Mo  Mo174  1  0.08907008  0.29066004  0.10806124  1
  Mo  Mo175  1  0.30070352  0.70547112  0.12069842  1
  Mo  Mo176  1  0.10038566  0.29600902  0.89843396  1
  Mo  Mo177  1  -0.00232651  0.80097732  0.48095005  1
  Mo  Mo178  1  0.70434235  0.30224246  0.10736258  1
  Mo  Mo179  1  0.70802508  0.89357734  0.59996841  1
  Mo  Mo180  1  0.49931712  0.69368616  0.37937287  1
  Mo  Mo181  1  0.50481013  0.10038219  0.14166779  1
  Mo  Mo182  1  0.40470114  0.41026048  -0.00155404  1
  Mo  Mo183  1  0.19613154  0.00078796  0.50694687  1
  Mo  Mo184  1  -0.00046877  0.19573116  0.00206424  1
  Mo  Mo185  1  0.79738694  0.40445598  0.01033595  1
  Mo  Mo186  1  0.40532950  0.19535316  0.23806066  1
  Mo  Mo187  1  0.70332810  0.10051344  0.37455501  1
  Mo  Mo188  1  0.59973580  0.60206092  0.75687106  1
  Mo  Mo189  1  0.29948186  0.09402345  0.11503091  1
  Mo  Mo190  1  0.19695502  0.80176001  0.75271578  1
  Mo  Mo191  1  0.11055576  0.09563066  0.86400564  1
  Mo  Mo192  1  0.80352345  0.59379314  0.76125502  1
  Mo  Mo193  1  0.09669440  0.69312572  0.35893627  1
  Mo  Mo194  1  0.90370329  0.90492941  0.38648678  1
  Mo  Mo195  1  0.70013538  0.89902506  0.87483546  1
  Mo  Mo196  1  0.89860493  0.10225152  0.85642997  1
  Mo  Mo197  1  0.49412056  0.90723958  0.38819849  1
  Mo  Mo198  1  0.80149794  0.19409835  0.01025315  1
  Mo  Mo199  1  0.80038577  0.59183496  0.25502204  1
