# generated using pymatgen
data_HfZrTaTiMo
_symmetry_space_group_name_H-M   'P 1'
_cell_length_a   15.92225061
_cell_length_b   15.92876662
_cell_length_c   15.19348215
_cell_angle_alpha   90.05253908
_cell_angle_beta   90.00494533
_cell_angle_gamma   90.04476320
_symmetry_Int_Tables_number   1
_chemical_formula_structural   HfZrTaTiMo
_chemical_formula_sum   'Hf40 Zr40 Ta40 Ti40 Mo40'
_cell_volume   3853.39569261
_cell_formula_units_Z   40
loop_
 _symmetry_equiv_pos_site_id
 _symmetry_equiv_pos_as_xyz
  1  'x, y, z'
loop_
 _atom_site_type_symbol
 _atom_site_label
 _atom_site_symmetry_multiplicity
 _atom_site_fract_x
 _atom_site_fract_y
 _atom_site_fract_z
 _atom_site_occupancy
  Hf  Hf0  1  0.29405262  0.10306125  0.36451943  1
  Hf  Hf1  1  0.89622703  0.50096263  0.38339002  1
  Hf  Hf2  1  0.60337742  0.39843353  0.73511107  1
  Hf  Hf3  1  0.39793468  0.19199870  0.73728116  1
  Hf  Hf4  1  0.19934859  0.18944693  0.00529935  1
  Hf  Hf5  1  0.20412714  0.39532288  -0.00912474  1
  Hf  Hf6  1  0.61217248  -0.02840570  0.48861650  1
  Hf  Hf7  1  -0.00925794  0.21021567  0.75640545  1
  Hf  Hf8  1  0.61078634  0.20749632  0.49970942  1
  Hf  Hf9  1  0.09820013  0.70964155  0.87382117  1
  Hf  Hf10  1  0.88864167  0.49234746  0.86573144  1
  Hf  Hf11  1  0.40862881  0.20717446  0.01160403  1
  Hf  Hf12  1  0.39538903  0.39873957  0.50510829  1
  Hf  Hf13  1  0.39691969  -0.00677247  0.48875426  1
  Hf  Hf14  1  0.29238610  0.90201198  0.12915413  1
  Hf  Hf15  1  0.31417702  0.50161711  0.86632674  1
  Hf  Hf16  1  0.40332675  0.60542712  0.24354298  1
  Hf  Hf17  1  0.78716440  0.19633658  0.00937005  1
  Hf  Hf18  1  0.38656014  -0.01705472  0.74159698  1
  Hf  Hf19  1  0.71015668  0.90043914  0.13728808  1
  Hf  Hf20  1  0.59718985  0.59375847  0.00316524  1
  Hf  Hf21  1  0.90814723  0.10389308  0.13364846  1
  Hf  Hf22  1  0.09464367  0.29191062  0.12468370  1
  Hf  Hf23  1  0.59727069  0.38251182  0.00002555  1
  Hf  Hf24  1  0.49264076  0.90138958  0.87945412  1
  Hf  Hf25  1  0.49454518  0.69118778  0.86740609  1
  Hf  Hf26  1  0.09079077  0.49945769  0.11839601  1
  Hf  Hf27  1  0.59586805  0.60209325  0.51006945  1
  Hf  Hf28  1  0.19831943  0.39780495  0.49924506  1
  Hf  Hf29  1  0.29497586  0.70366133  0.12523597  1
  Hf  Hf30  1  0.70835648  0.29521950  0.85584368  1
  Hf  Hf31  1  0.90201468  0.09773955  0.62245707  1
  Hf  Hf32  1  0.50516341  0.09372432  0.61323389  1
  Hf  Hf33  1  0.10061369  0.10384967  0.62546145  1
  Hf  Hf34  1  0.90069922  0.30039672  0.39113002  1
  Hf  Hf35  1  0.11259777  0.71362537  0.61362513  1
  Hf  Hf36  1  0.09905533  0.29175783  0.87646687  1
  Hf  Hf37  1  0.91228828  0.89957289  0.13431518  1
  Hf  Hf38  1  0.00941571  0.00421805  -0.00259874  1
  Hf  Hf39  1  0.40735746  -0.00367069  0.25467525  1
  Zr  Zr40  1  0.70540370  0.49344786  0.12759701  1
  Zr  Zr41  1  0.39952999  0.01058181  0.01165864  1
  Zr  Zr42  1  0.09929605  0.70154275  0.39010493  1
  Zr  Zr43  1  0.40549884  0.80338521  0.48479618  1
  Zr  Zr44  1  0.89500740  0.30133184  0.12442678  1
  Zr  Zr45  1  0.20376629  0.60937312  0.74929308  1
  Zr  Zr46  1  0.81471519  0.79767503  -0.01404665  1
  Zr  Zr47  1  0.29317409  0.50265020  0.37009877  1
  Zr  Zr48  1  0.29362703  0.09517662  0.87123950  1
  Zr  Zr49  1  0.70943715  0.09055254  0.37553269  1
  Zr  Zr50  1  0.00103909  0.80433799  0.74423873  1
  Zr  Zr51  1  0.89472247  0.71191840  0.38180130  1
  Zr  Zr52  1  0.70906927  0.69948830  0.12988666  1
  Zr  Zr53  1  -0.00876729  0.60783344  0.51768462  1
  Zr  Zr54  1  0.08820747  0.30237465  0.61955625  1
  Zr  Zr55  1  0.60575519  0.79596286  -0.00397302  1
  Zr  Zr56  1  0.28957748  0.69851677  0.38062769  1
  Zr  Zr57  1  0.61383193  0.01189135  -0.00381231  1
  Zr  Zr58  1  0.70382232  0.10330454  0.85258375  1
  Zr  Zr59  1  0.40823383  0.20306148  0.24875972  1
  Zr  Zr60  1  0.00057041  0.40224800  0.25672202  1
  Zr  Zr61  1  0.48683936  0.50718558  0.63744535  1
  Zr  Zr62  1  0.20511315  0.60504590  -0.01160854  1
  Zr  Zr63  1  0.89802036  0.10200745  0.87026981  1
  Zr  Zr64  1  0.59824418  -0.00533070  0.75076211  1
  Zr  Zr65  1  0.90207467  0.48040863  0.63129818  1
  Zr  Zr66  1  0.23268641  0.80821989  0.75081942  1
  Zr  Zr67  1  0.79517977  0.60327304  0.73664748  1
  Zr  Zr68  1  0.69586974  0.50360696  0.36558150  1
  Zr  Zr69  1  0.29075521  0.49767510  0.13195016  1
  Zr  Zr70  1  0.50949122  0.90103774  0.12679064  1
  Zr  Zr71  1  0.78768787  0.60469695  0.51613895  1
  Zr  Zr72  1  0.09775130  0.49870784  0.62962242  1
  Zr  Zr73  1  0.40460475  0.39743541  0.00419455  1
  Zr  Zr74  1  0.90150257  0.90247096  0.61694984  1
  Zr  Zr75  1  0.50813847  0.88064854  0.62815938  1
  Zr  Zr76  1  0.08957600  0.49951980  0.86482237  1
  Zr  Zr77  1  0.09293092  0.70832997  0.11462983  1
  Zr  Zr78  1  0.50044957  0.30156651  0.38271618  1
  Zr  Zr79  1  0.89757246  0.90480954  0.38137111  1
  Ta  Ta80  1  0.28813412  0.30081486  0.36191300  1
  Ta  Ta81  1  0.39759399  0.79415644  0.00107919  1
  Ta  Ta82  1  0.50345672  0.11165260  0.86856518  1
  Ta  Ta83  1  0.28968188  0.30016337  0.14424420  1
  Ta  Ta84  1  0.40330406  0.80029942  0.25528554  1
  Ta  Ta85  1  0.89819806  0.29562050  0.61269597  1
  Ta  Ta86  1  0.90491141  0.10008757  0.38218420  1
  Ta  Ta87  1  -0.01124208  0.39492835  -0.00837329  1
  Ta  Ta88  1  0.59922852  0.79958025  0.25996638  1
  Ta  Ta89  1  0.00796484  0.80416147  0.25066196  1
  Ta  Ta90  1  0.09787872  0.10029260  0.37236912  1
  Ta  Ta91  1  0.89774631  0.50619231  0.12057693  1
  Ta  Ta92  1  0.09856040  0.89674072  0.38569655  1
  Ta  Ta93  1  0.52662347  0.11355093  0.14042291  1
  Ta  Ta94  1  0.60260271  0.40473689  0.51036012  1
  Ta  Ta95  1  0.30268679  0.29236403  0.86246984  1
  Ta  Ta96  1  0.49803384  0.29438970  0.62040130  1
  Ta  Ta97  1  0.10810047  0.91218060  0.86516107  1
  Ta  Ta98  1  0.50149708  0.49668034  0.86329030  1
  Ta  Ta99  1  0.09746845  0.50313872  0.38460550  1
  Ta  Ta100  1  0.39103172  0.19868809  0.49872701  1
  Ta  Ta101  1  0.20327658  0.39198302  0.74994923  1
  Ta  Ta102  1  0.70275620  0.69271608  0.86753791  1
  Ta  Ta103  1  0.59692768  0.39203302  0.25093728  1
  Ta  Ta104  1  0.40070543  0.40069140  0.24922237  1
  Ta  Ta105  1  -0.01345883  0.61497805  0.74340120  1
  Ta  Ta106  1  0.70793616  0.09491883  0.62599981  1
  Ta  Ta107  1  0.80642752  -0.00180353  0.00292968  1
  Ta  Ta108  1  0.69547712  0.49563751  0.86830954  1
  Ta  Ta109  1  0.79977987  0.20425979  0.25934410  1
  Ta  Ta110  1  -0.00389896  0.60475801  0.25062948  1
  Ta  Ta111  1  0.78162798  0.39414699  0.51017368  1
  Ta  Ta112  1  0.50961427  0.09641341  0.37603805  1
  Ta  Ta113  1  0.49928538  0.50191791  0.37154482  1
  Ta  Ta114  1  0.09818094  0.09402627  0.14588197  1
  Ta  Ta115  1  0.50366193  0.49613865  0.13463015  1
  Ta  Ta116  1  0.50550677  0.69373875  0.37267154  1
  Ta  Ta117  1  0.20435896  -0.00373469  0.49417223  1
  Ta  Ta118  1  0.68615188  0.72025318  0.63160787  1
  Ta  Ta119  1  0.28970965  0.10298288  0.14192171  1
  Ti  Ti120  1  0.79514526  0.39413899  0.25211765  1
  Ti  Ti121  1  0.29229178  0.09838099  0.61645664  1
  Ti  Ti122  1  0.38450809  0.62220223  0.74394902  1
  Ti  Ti123  1  0.10599099  0.90686545  0.61911372  1
  Ti  Ti124  1  0.10019554  0.09920449  0.85997219  1
  Ti  Ti125  1  0.28997515  0.29024400  0.62957405  1
  Ti  Ti126  1  0.18357230  0.60116454  0.24686443  1
  Ti  Ti127  1  0.60332043  0.79746271  0.76670170  1
  Ti  Ti128  1  -0.01478835  0.60644457  -0.00988376  1
  Ti  Ti129  1  0.60147279  0.60058684  0.74368287  1
  Ti  Ti130  1  0.68053722  0.28010382  0.13900811  1
  Ti  Ti131  1  0.80869402  -0.00024307  0.25218024  1
  Ti  Ti132  1  0.19518998  -0.00082020  0.00741613  1
  Ti  Ti133  1  0.39574618  0.60125559  0.50249111  1
  Ti  Ti134  1  0.90223577  0.70096560  0.12744705  1
  Ti  Ti135  1  0.77962320  0.81191338  0.49993699  1
  Ti  Ti136  1  0.18924293  -0.01003353  0.25864132  1
  Ti  Ti137  1  0.40813858  0.60106136  0.01081139  1
  Ti  Ti138  1  0.00337080  0.81116425  -0.00755310  1
  Ti  Ti139  1  0.71604992  0.90344839  0.86569743  1
  Ti  Ti140  1  0.79701952  0.19912776  0.50130620  1
  Ti  Ti141  1  0.29412423  0.50600579  0.62760249  1
  Ti  Ti142  1  0.80847019  0.79310891  0.75386273  1
  Ti  Ti143  1  0.50374115  0.29357390  0.85706770  1
  Ti  Ti144  1  0.00680745  0.00421190  0.49494282  1
  Ti  Ti145  1  0.19559212  0.80380099  0.25364483  1
  Ti  Ti146  1  0.79997770  0.59815755  -0.00878629  1
  Ti  Ti147  1  0.70190651  0.09616361  0.14441559  1
  Ti  Ti148  1  0.49413518  0.70490196  0.63146606  1
  Ti  Ti149  1  0.70944673  0.90246868  0.64056049  1
  Ti  Ti150  1  0.20170752  -0.00104531  0.73988463  1
  Ti  Ti151  1  0.80708294  0.60375168  0.25061368  1
  Ti  Ti152  1  0.39603715  0.39218172  0.74224195  1
  Ti  Ti153  1  0.79487539  0.39665924  0.00070433  1
  Ti  Ti154  1  0.90675111  0.90985758  0.86196081  1
  Ti  Ti155  1  0.20035259  0.81286221  -0.00761687  1
  Ti  Ti156  1  0.19552811  0.19980468  0.49110693  1
  Ti  Ti157  1  0.70034807  0.70448958  0.37030192  1
  Ti  Ti158  1  0.00189468  0.20185682  0.26734229  1
  Ti  Ti159  1  0.59750462  0.60294238  0.24294379  1
  Mo  Mo160  1  0.00260126  0.19625475  0.49031839  1
  Mo  Mo161  1  0.70474775  0.30413413  0.36968430  1
  Mo  Mo162  1  0.29796407  0.90162067  0.61229347  1
  Mo  Mo163  1  0.30616315  0.70219400  0.89494057  1
  Mo  Mo164  1  0.70373360  0.29377131  0.63276402  1
  Mo  Mo165  1  -0.00459356  0.39720609  0.76756816  1
  Mo  Mo166  1  0.89395616  0.29856244  0.88993768  1
  Mo  Mo167  1  0.20786558  0.81429704  0.50367399  1
  Mo  Mo168  1  0.01112837  0.00128270  0.75299139  1
  Mo  Mo169  1  -0.00259881  0.40088607  0.48635573  1
  Mo  Mo170  1  0.50471569  0.89708407  0.36303734  1
  Mo  Mo171  1  0.80024888  0.39174906  0.73811514  1
  Mo  Mo172  1  0.19275657  0.40059582  0.26073283  1
  Mo  Mo173  1  0.79708739  0.00002791  0.50671905  1
  Mo  Mo174  1  0.10261011  0.90224983  0.12741958  1
  Mo  Mo175  1  0.80579797  0.79430139  0.25213072  1
  Mo  Mo176  1  0.70887477  0.88994066  0.35554943  1
  Mo  Mo177  1  0.29714395  0.90330303  0.89682432  1
  Mo  Mo178  1  0.20763910  0.59775825  0.51454957  1
  Mo  Mo179  1  0.19177578  0.19966878  0.25153197  1
  Mo  Mo180  1  0.80559072  -0.00746104  0.74551484  1
  Mo  Mo181  1  0.59564048  0.19950670  -0.00368729  1
  Mo  Mo182  1  0.69446169  0.50027411  0.63151191  1
  Mo  Mo183  1  0.30998797  0.70063154  0.60593739  1
  Mo  Mo184  1  0.50258292  0.30058777  0.13832887  1
  Mo  Mo185  1  0.90237521  0.69792187  0.87750692  1
  Mo  Mo186  1  0.80227149  0.20115056  0.73110624  1
  Mo  Mo187  1  0.50013305  0.69920122  0.13674281  1
  Mo  Mo188  1  0.60536185  -0.00257805  0.26003966  1
  Mo  Mo189  1  0.00477984  0.00026562  0.26253194  1
  Mo  Mo190  1  0.61011047  0.19948430  0.27090328  1
  Mo  Mo191  1  0.88983024  0.71490476  0.61404147  1
  Mo  Mo192  1  0.60694092  0.78842300  0.48376050  1
  Mo  Mo193  1  0.10013513  0.29845310  0.38198210  1
  Mo  Mo194  1  0.40256126  0.79711227  0.76019098  1
  Mo  Mo195  1  0.59566716  0.19838897  0.72875221  1
  Mo  Mo196  1  -0.00064758  0.19743783  -0.00673039  1
  Mo  Mo197  1  0.29276818  0.89985355  0.35960225  1
  Mo  Mo198  1  0.20207260  0.20046718  0.74412061  1
  Mo  Mo199  1  0.00417685  0.81170773  0.50852686  1
