# generated using pymatgen
data_HfZrTaTiMo
_symmetry_space_group_name_H-M   'P 1'
_cell_length_a   16.31209302
_cell_length_b   16.38904314
_cell_length_c   14.37852078
_cell_angle_alpha   89.75285535
_cell_angle_beta   89.92701607
_cell_angle_gamma   91.12306357
_symmetry_Int_Tables_number   1
_chemical_formula_structural   HfZrTaTiMo
_chemical_formula_sum   'Hf40 Zr40 Ta40 Ti40 Mo40'
_cell_volume   3843.17022856
_cell_formula_units_Z   40
loop_
 _symmetry_equiv_pos_site_id
 _symmetry_equiv_pos_as_xyz
  1  'x, y, z'
loop_
 _atom_site_type_symbol
 _atom_site_label
 _atom_site_symmetry_multiplicity
 _atom_site_fract_x
 _atom_site_fract_y
 _atom_site_fract_z
 _atom_site_occupancy
  Hf  Hf0  1  0.40179075  0.40458158  -0.01081985  1
  Hf  Hf1  1  0.39423924  0.19845139  0.24569432  1
  Hf  Hf2  1  0.60685368  0.21230427  -0.00258758  1
  Hf  Hf3  1  0.70294800  0.69802405  0.11133678  1
  Hf  Hf4  1  0.69704363  0.09666138  0.64010109  1
  Hf  Hf5  1  0.21392220  0.40532393  0.74843194  1
  Hf  Hf6  1  0.89177727  0.49622793  0.12342553  1
  Hf  Hf7  1  0.70607159  0.09361117  0.88581503  1
  Hf  Hf8  1  0.89194518  0.69257582  0.11336036  1
  Hf  Hf9  1  0.09790841  0.70771540  0.87290798  1
  Hf  Hf10  1  0.50019279  0.49625245  0.63120533  1
  Hf  Hf11  1  0.79367674  0.60400894  0.50182364  1
  Hf  Hf12  1  0.71233654  0.70129068  0.88320773  1
  Hf  Hf13  1  0.69799049  0.30501083  0.37125275  1
  Hf  Hf14  1  -0.00230816  0.60147882  0.74445993  1
  Hf  Hf15  1  0.90199261  0.29544846  0.85761189  1
  Hf  Hf16  1  0.09915326  0.90190977  0.38464323  1
  Hf  Hf17  1  0.51052468  0.90142130  0.62071874  1
  Hf  Hf18  1  0.90282615  0.71103801  0.87277115  1
  Hf  Hf19  1  0.49966604  0.09438723  0.88180445  1
  Hf  Hf20  1  0.59234327  0.59941569  0.24791445  1
  Hf  Hf21  1  0.89513372  0.48999375  0.62343635  1
  Hf  Hf22  1  0.39492287  -0.00811312  0.24895796  1
  Hf  Hf23  1  0.50141038  0.30399879  0.36652315  1
  Hf  Hf24  1  0.28961878  0.09896550  0.86961682  1
  Hf  Hf25  1  0.40046931  0.20091305  -0.00078830  1
  Hf  Hf26  1  0.09452407  0.08986748  0.37530956  1
  Hf  Hf27  1  0.09136184  0.49140231  0.87029486  1
  Hf  Hf28  1  0.40677527  0.20293440  0.51273898  1
  Hf  Hf29  1  0.00800666  0.40035470  0.24917832  1
  Hf  Hf30  1  0.20843666  0.60302248  0.74166487  1
  Hf  Hf31  1  0.40181096  -0.00108088  0.74556991  1
  Hf  Hf32  1  0.79087762  -0.01964700  0.75646374  1
  Hf  Hf33  1  0.79983971  0.81021679  0.24073273  1
  Hf  Hf34  1  0.30168493  0.70409630  0.87532908  1
  Hf  Hf35  1  0.00710517  0.38699083  0.49236005  1
  Hf  Hf36  1  0.49611450  0.48975932  0.39228473  1
  Hf  Hf37  1  0.59594655  0.20568616  0.75664714  1
  Hf  Hf38  1  0.61447033  0.81182031  0.75860584  1
  Hf  Hf39  1  0.69993975  0.10122970  0.36104152  1
  Zr  Zr40  1  0.79659571  0.00252111  0.50802689  1
  Zr  Zr41  1  0.00565332  0.59346681  0.24941491  1
  Zr  Zr42  1  0.29568728  0.70118327  0.36885791  1
  Zr  Zr43  1  0.09733753  0.49540044  0.62387671  1
  Zr  Zr44  1  0.40286342  0.80359509  0.75328049  1
  Zr  Zr45  1  0.00665758  0.80719055  0.23650193  1
  Zr  Zr46  1  0.39025462  0.59793535  0.50979039  1
  Zr  Zr47  1  0.78948040  0.39579707  -0.01517570  1
  Zr  Zr48  1  0.59527012  0.19646932  0.51359984  1
  Zr  Zr49  1  0.88178613  0.29980133  0.37080203  1
  Zr  Zr50  1  0.20337940  0.57388640  0.23929217  1
  Zr  Zr51  1  0.70040811  0.50674426  0.11257362  1
  Zr  Zr52  1  0.29441818  0.29904144  0.12001057  1
  Zr  Zr53  1  0.39941454  0.79697256  0.51006003  1
  Zr  Zr54  1  0.59591264  0.79982592  0.23846803  1
  Zr  Zr55  1  0.20347311  0.81915187  0.01236513  1
  Zr  Zr56  1  0.40268192  0.00592135  0.50468198  1
  Zr  Zr57  1  0.80386096  0.20418619  0.00511029  1
  Zr  Zr58  1  0.40561480  0.59804984  0.24204466  1
  Zr  Zr59  1  0.09337228  0.90293151  0.86177581  1
  Zr  Zr60  1  0.39122563  0.41497196  0.23616312  1
  Zr  Zr61  1  0.51024709  0.09196597  0.12090486  1
  Zr  Zr62  1  0.50796325  0.09649185  0.36126566  1
  Zr  Zr63  1  0.00481157  0.81488235  0.02091542  1
  Zr  Zr64  1  0.90266783  0.89219872  0.62782608  1
  Zr  Zr65  1  0.10222968  0.29327731  0.86845495  1
  Zr  Zr66  1  0.89057676  0.49302446  0.38050049  1
  Zr  Zr67  1  0.89734027  0.09650911  0.36977670  1
  Zr  Zr68  1  0.10842484  0.70001763  0.37654922  1
  Zr  Zr69  1  0.30126482  0.70176104  0.12615715  1
  Zr  Zr70  1  0.19685029  0.20522766  0.49985757  1
  Zr  Zr71  1  0.90585893  0.90802787  0.38106955  1
  Zr  Zr72  1  0.60036175  0.61041926  0.50045513  1
  Zr  Zr73  1  0.59414277  0.80630206  -0.00507463  1
  Zr  Zr74  1  0.20270320  0.59030424  -0.00253615  1
  Zr  Zr75  1  -0.00294452  0.19512344  0.50585997  1
  Zr  Zr76  1  0.27608010  0.08164125  0.12239749  1
  Zr  Zr77  1  0.90062073  0.70514288  0.37718719  1
  Zr  Zr78  1  0.10652240  0.30355928  0.11981958  1
  Zr  Zr79  1  -0.00114441  0.20182103  0.24031403  1
  Ta  Ta80  1  0.89900754  0.09312412  0.11309806  1
  Ta  Ta81  1  0.78830704  0.80025007  0.50386939  1
  Ta  Ta82  1  0.29499104  0.10432800  0.63263075  1
  Ta  Ta83  1  0.59553015  0.39993776  -0.01572383  1
  Ta  Ta84  1  0.40326386  0.20381810  0.74665163  1
  Ta  Ta85  1  0.30523707  0.30731185  0.38008311  1
  Ta  Ta86  1  -0.00414538  0.00100522  0.74763091  1
  Ta  Ta87  1  0.00177252  0.60314142  0.50358663  1
  Ta  Ta88  1  0.20549328  0.80090674  0.51795062  1
  Ta  Ta89  1  0.29742858  0.89849320  0.37939192  1
  Ta  Ta90  1  0.79684604  0.00034407  0.23348182  1
  Ta  Ta91  1  0.50628862  0.30740999  0.12539192  1
  Ta  Ta92  1  0.89603641  0.29759513  0.63479213  1
  Ta  Ta93  1  0.50578504  0.69744250  0.64140554  1
  Ta  Ta94  1  0.69692821  0.49618038  0.62687228  1
  Ta  Ta95  1  0.70090842  0.31024230  0.13687416  1
  Ta  Ta96  1  0.60032579  0.39809258  0.76249189  1
  Ta  Ta97  1  0.79279019  0.40202684  0.75533016  1
  Ta  Ta98  1  0.29789664  0.29286910  0.86923882  1
  Ta  Ta99  1  0.79589165  0.59735727  0.74965943  1
  Ta  Ta100  1  0.19681400  0.20003629  0.26150752  1
  Ta  Ta101  1  0.50641358  0.89893814  0.37226776  1
  Ta  Ta102  1  0.20266356  -0.00229151  0.51061639  1
  Ta  Ta103  1  0.40528860  0.59756946  -0.00054642  1
  Ta  Ta104  1  0.69649294  0.48767854  0.38360027  1
  Ta  Ta105  1  -0.00763842  0.39312908  0.00280998  1
  Ta  Ta106  1  0.20137066  0.81872223  0.23858631  1
  Ta  Ta107  1  0.20835078  0.39994188  0.50417764  1
  Ta  Ta108  1  0.09788197  0.29897012  0.64100661  1
  Ta  Ta109  1  0.39475908  -0.01434765  -0.00240462  1
  Ta  Ta110  1  0.70571213  0.30087134  0.63463757  1
  Ta  Ta111  1  0.89709610  0.50271434  0.87301253  1
  Ta  Ta112  1  0.69348315  0.90540464  0.37350067  1
  Ta  Ta113  1  0.89667632  0.70248646  0.62933124  1
  Ta  Ta114  1  0.78933429  0.59808393  0.26324938  1
  Ta  Ta115  1  0.09832458  0.09826104  0.86739282  1
  Ta  Ta116  1  -0.00012794  0.19625088  0.00199281  1
  Ta  Ta117  1  0.40494378  0.80255615  0.00199691  1
  Ta  Ta118  1  0.90367405  0.09301498  0.87530515  1
  Ta  Ta119  1  0.20404573  0.80466846  0.73289275  1
  Ti  Ti120  1  0.70242154  0.91503908  0.10693533  1
  Ti  Ti121  1  0.70243337  0.70530605  0.63669887  1
  Ti  Ti122  1  0.79655423  0.20037612  0.51156289  1
  Ti  Ti123  1  0.20597101  0.40529030  -0.00927932  1
  Ti  Ti124  1  0.00298743  0.59183643  0.00304934  1
  Ti  Ti125  1  0.29559324  0.09844267  0.37973073  1
  Ti  Ti126  1  0.00840118  0.00447298  0.00394689  1
  Ti  Ti127  1  0.11062923  0.50080162  0.39126702  1
  Ti  Ti128  1  0.00075008  0.19216719  0.74797178  1
  Ti  Ti129  1  0.39411886  0.59399281  0.75196081  1
  Ti  Ti130  1  0.50022050  0.69794174  0.87007685  1
  Ti  Ti131  1  0.69694850  0.70641895  0.36858495  1
  Ti  Ti132  1  0.59865337  -0.00891713  0.76566176  1
  Ti  Ti133  1  0.89557589  0.10099202  0.63916485  1
  Ti  Ti134  1  0.79997956  0.19992663  0.22906500  1
  Ti  Ti135  1  0.18991448  0.19026395  0.00047678  1
  Ti  Ti136  1  0.09520746  0.90203813  0.62361290  1
  Ti  Ti137  1  0.60483007  0.20069785  0.23517052  1
  Ti  Ti138  1  0.29641494  0.90248670  0.87053466  1
  Ti  Ti139  1  0.50003172  0.50420958  0.86688817  1
  Ti  Ti140  1  0.20081806  0.39953757  0.26291841  1
  Ti  Ti141  1  0.50245922  0.90434329  0.12364432  1
  Ti  Ti142  1  0.19914562  -0.00389119  0.73902745  1
  Ti  Ti143  1  0.60055199  0.00401397  0.50172763  1
  Ti  Ti144  1  0.10074967  0.09847428  0.63253992  1
  Ti  Ti145  1  0.09700586  0.70536426  0.62619751  1
  Ti  Ti146  1  0.40375678  0.39482657  0.75511671  1
  Ti  Ti147  1  0.59655674  0.41178964  0.23863319  1
  Ti  Ti148  1  0.60569684  0.59904690  0.75544200  1
  Ti  Ti149  1  0.30396674  0.30150014  0.62812604  1
  Ti  Ti150  1  0.20610957  0.60045002  0.51591512  1
  Ti  Ti151  1  0.00234218  0.79499109  0.50726894  1
  Ti  Ti152  1  0.89382513  0.89559875  0.88272493  1
  Ti  Ti153  1  0.59682093  0.38813569  0.51896798  1
  Ti  Ti154  1  0.60462071  0.79905852  0.50163773  1
  Ti  Ti155  1  0.10373681  0.69193788  0.12486925  1
  Ti  Ti156  1  0.00185806  -0.00191837  0.22786973  1
  Ti  Ti157  1  0.40312913  0.80172959  0.24136140  1
  Ti  Ti158  1  0.49873435  0.70739023  0.37757279  1
  Ti  Ti159  1  0.59142677  0.59594021  -0.00679607  1
  Mo  Mo160  1  0.09721442  0.10158468  0.12420805  1
  Mo  Mo161  1  0.69484156  0.89773636  0.60700464  1
  Mo  Mo162  1  0.11684744  0.93246670  0.13292838  1
  Mo  Mo163  1  0.29884602  0.49493827  0.10318168  1
  Mo  Mo164  1  0.89765863  0.29941396  0.12627645  1
  Mo  Mo165  1  0.60069078  -0.00035463  0.00329495  1
  Mo  Mo166  1  -0.00520243  0.39702211  0.75195735  1
  Mo  Mo167  1  0.50044660  0.09780830  0.64257576  1
  Mo  Mo168  1  0.90059236  0.90899510  0.11816255  1
  Mo  Mo169  1  0.19609933  0.00131878  -0.02040986  1
  Mo  Mo170  1  0.80597530  0.59903962  -0.01909863  1
  Mo  Mo171  1  0.70665625  0.90071835  0.89708251  1
  Mo  Mo172  1  0.79166802  0.40509531  0.24285079  1
  Mo  Mo173  1  0.30861991  0.49951076  0.86841691  1
  Mo  Mo174  1  0.80387139  0.80880701  0.00703652  1
  Mo  Mo175  1  0.00374251  0.80084008  0.73905418  1
  Mo  Mo176  1  0.69427191  0.50618376  0.86545897  1
  Mo  Mo177  1  0.80599997  -0.00113332  -0.00008437  1
  Mo  Mo178  1  0.49627061  0.30260955  0.87376974  1
  Mo  Mo179  1  0.29630432  0.90508282  0.62145834  1
  Mo  Mo180  1  0.49990776  0.90360794  0.88091744  1
  Mo  Mo181  1  0.80014613  0.79674211  0.74224334  1
  Mo  Mo182  1  0.79033646  0.39531978  0.51824976  1
  Mo  Mo183  1  0.70382010  0.10275806  0.12651789  1
  Mo  Mo184  1  0.20114872  0.00223430  0.27612544  1
  Mo  Mo185  1  0.50537416  0.50088336  0.10558036  1
  Mo  Mo186  1  0.30676532  0.49542001  0.62866879  1
  Mo  Mo187  1  0.09645888  0.49137553  0.10590027  1
  Mo  Mo188  1  0.11161618  0.30099128  0.37056888  1
  Mo  Mo189  1  0.49881967  0.69985294  0.11028707  1
  Mo  Mo190  1  0.39766444  0.39294972  0.51543728  1
  Mo  Mo191  1  0.70095681  0.30003850  0.86284650  1
  Mo  Mo192  1  0.80271131  0.19385044  0.74951461  1
  Mo  Mo193  1  0.30680264  0.90159029  0.13172321  1
  Mo  Mo194  1  0.50068821  0.30489390  0.63800516  1
  Mo  Mo195  1  0.29495771  0.49416831  0.39580131  1
  Mo  Mo196  1  0.60668202  -0.00758590  0.24145510  1
  Mo  Mo197  1  0.00630413  0.00402067  0.52823024  1
  Mo  Mo198  1  0.20125382  0.19996338  0.73992828  1
  Mo  Mo199  1  0.30181272  0.70031252  0.63512074  1
