# generated using pymatgen
data_HfZrTaTiMo
_symmetry_space_group_name_H-M   'P 1'
_cell_length_a   15.94515412
_cell_length_b   15.93902299
_cell_length_c   15.16170137
_cell_angle_alpha   90.01785600
_cell_angle_beta   90.16544309
_cell_angle_gamma   89.94897532
_symmetry_Int_Tables_number   1
_chemical_formula_structural   HfZrTaTiMo
_chemical_formula_sum   'Hf40 Zr40 Ta40 Ti40 Mo40'
_cell_volume   3853.33132643
_cell_formula_units_Z   40
loop_
 _symmetry_equiv_pos_site_id
 _symmetry_equiv_pos_as_xyz
  1  'x, y, z'
loop_
 _atom_site_type_symbol
 _atom_site_label
 _atom_site_symmetry_multiplicity
 _atom_site_fract_x
 _atom_site_fract_y
 _atom_site_fract_z
 _atom_site_occupancy
  Hf  Hf0  1  0.19527758  0.40288966  -0.01372837  1
  Hf  Hf1  1  0.41194293  0.79063551  0.00336270  1
  Hf  Hf2  1  0.01629747  -0.00254715  0.49679067  1
  Hf  Hf3  1  0.20881509  0.79972860  0.25835018  1
  Hf  Hf4  1  0.58994715  0.41341086  0.74623539  1
  Hf  Hf5  1  0.00150175  0.20289285  0.24615640  1
  Hf  Hf6  1  0.79605507  0.41947747  0.51367780  1
  Hf  Hf7  1  0.80554967  0.40603382  -0.00862179  1
  Hf  Hf8  1  0.89806613  0.29759735  0.62219312  1
  Hf  Hf9  1  0.29883276  0.70386169  0.86939145  1
  Hf  Hf10  1  0.49616466  0.49302040  0.13545003  1
  Hf  Hf11  1  0.49472877  0.29637286  0.63376854  1
  Hf  Hf12  1  0.40416464  0.58520145  -0.01190523  1
  Hf  Hf13  1  0.29510371  0.48971165  0.12722028  1
  Hf  Hf14  1  0.79432307  0.40852976  0.74809486  1
  Hf  Hf15  1  0.88478614  0.50099309  0.35538344  1
  Hf  Hf16  1  0.40375050  0.17660290  0.51517089  1
  Hf  Hf17  1  0.21226876  0.00484686  0.73867681  1
  Hf  Hf18  1  0.51404443  0.68823749  0.85952544  1
  Hf  Hf19  1  0.80337262  0.80315410  0.24730342  1
  Hf  Hf20  1  0.19048406  0.59794123  0.25726205  1
  Hf  Hf21  1  0.68802839  0.29988083  0.87993892  1
  Hf  Hf22  1  -0.00710985  0.40663959  0.00392574  1
  Hf  Hf23  1  -0.00024790  0.00138169  0.24209168  1
  Hf  Hf24  1  0.21537004  0.20939344  -0.00429449  1
  Hf  Hf25  1  0.50086575  0.11082019  0.10338828  1
  Hf  Hf26  1  0.00378264  0.41205855  0.23781120  1
  Hf  Hf27  1  0.10430897  0.09482621  0.88020967  1
  Hf  Hf28  1  0.50852140  0.28764685  0.39728030  1
  Hf  Hf29  1  0.59844124  0.39656660  0.25666480  1
  Hf  Hf30  1  0.90812739  0.69488785  0.63152517  1
  Hf  Hf31  1  0.89118984  0.09675340  0.61500744  1
  Hf  Hf32  1  0.59666608  0.19946618  0.24279316  1
  Hf  Hf33  1  0.89510169  0.30569857  0.37340018  1
  Hf  Hf34  1  0.01269279  -0.00147509  0.73550287  1
  Hf  Hf35  1  0.29557589  0.50202863  0.62251737  1
  Hf  Hf36  1  0.80198987  0.80655129  0.76195314  1
  Hf  Hf37  1  0.08037825  0.28965923  0.86436103  1
  Hf  Hf38  1  0.19773132  0.40234190  0.76445167  1
  Hf  Hf39  1  0.10809070  0.89686448  0.89372969  1
  Zr  Zr40  1  0.69196015  0.29241795  0.61391468  1
  Zr  Zr41  1  0.69999124  0.29891545  0.39712710  1
  Zr  Zr42  1  0.19815257  0.39915084  0.25403591  1
  Zr  Zr43  1  0.29858937  0.69493265  0.11588061  1
  Zr  Zr44  1  0.20470582  0.20143882  0.24045427  1
  Zr  Zr45  1  0.60989531  0.79301603  0.22819561  1
  Zr  Zr46  1  0.90613277  0.90310261  0.88866204  1
  Zr  Zr47  1  0.90950343  0.10380444  0.87548843  1
  Zr  Zr48  1  0.51693819  0.69499633  0.37109210  1
  Zr  Zr49  1  0.79478997  0.19516539  0.24676920  1
  Zr  Zr50  1  0.30400321  0.90108020  0.87676102  1
  Zr  Zr51  1  0.38983159  0.38376918  -0.01586140  1
  Zr  Zr52  1  0.40157060  0.00066001  0.23874699  1
  Zr  Zr53  1  0.32245581  0.89393969  0.62913944  1
  Zr  Zr54  1  0.69963934  0.09377303  0.61305669  1
  Zr  Zr55  1  0.40976599  0.40965545  0.49913072  1
  Zr  Zr56  1  -0.01496209  0.60505852  0.48270398  1
  Zr  Zr57  1  0.60545325  0.79746632  0.00801268  1
  Zr  Zr58  1  0.70429280  0.90576311  0.60874544  1
  Zr  Zr59  1  0.29762226  0.29560746  0.38930526  1
  Zr  Zr60  1  0.29625074  0.30318835  0.62762194  1
  Zr  Zr61  1  0.69766464  0.10169027  0.10317646  1
  Zr  Zr62  1  0.39651040  0.59622039  0.26534374  1
  Zr  Zr63  1  0.68778362  0.51628915  0.88065200  1
  Zr  Zr64  1  0.00071687  0.19519117  0.49608960  1
  Zr  Zr65  1  -0.00461445  0.20348203  0.02194653  1
  Zr  Zr66  1  0.09033369  0.50729879  0.62073034  1
  Zr  Zr67  1  0.69508277  0.09678094  0.39421839  1
  Zr  Zr68  1  0.89815041  0.89819511  0.61468577  1
  Zr  Zr69  1  0.78685707  0.60726628  0.24138840  1
  Zr  Zr70  1  0.30339924  0.08936239  0.37143011  1
  Zr  Zr71  1  0.69763766  0.71227579  0.61644903  1
  Zr  Zr72  1  0.01006969  0.79803291  0.75190825  1
  Zr  Zr73  1  0.50223964  0.09653548  0.88251613  1
  Zr  Zr74  1  0.19513316  0.18207018  0.51444334  1
  Zr  Zr75  1  0.40794900  0.60479702  0.49762731  1
  Zr  Zr76  1  0.19010217  0.60616965  0.75539265  1
  Zr  Zr77  1  0.40191043  0.80122431  0.25005169  1
  Zr  Zr78  1  0.69710587  0.89933465  0.38868086  1
  Zr  Zr79  1  0.80156244  0.20132579  0.76278246  1
  Ta  Ta80  1  0.79997851  -0.00235937  0.24380486  1
  Ta  Ta81  1  0.19710844  0.19251643  0.74572717  1
  Ta  Ta82  1  0.49224539  0.70737403  0.64087865  1
  Ta  Ta83  1  0.79673733  0.60368052  0.74381996  1
  Ta  Ta84  1  0.80593996  0.20922353  -0.00269766  1
  Ta  Ta85  1  0.09623613  0.70355057  0.89416465  1
  Ta  Ta86  1  0.60979180  0.80485729  0.75819612  1
  Ta  Ta87  1  0.69794102  0.09739235  0.88978778  1
  Ta  Ta88  1  0.88271000  0.31134737  0.13842294  1
  Ta  Ta89  1  0.10665090  0.09576224  0.36162893  1
  Ta  Ta90  1  0.70006592  0.49251446  0.12220772  1
  Ta  Ta91  1  0.10352708  0.70504474  0.60925978  1
  Ta  Ta92  1  0.19533727  0.59373824  -0.00665625  1
  Ta  Ta93  1  0.69929859  0.69770201  0.38714600  1
  Ta  Ta94  1  -0.00982684  0.40484279  0.74918041  1
  Ta  Ta95  1  0.70927268  0.70132804  0.88335257  1
  Ta  Ta96  1  0.90705021  0.70172484  0.12644951  1
  Ta  Ta97  1  0.20525425  0.80370522  0.49418659  1
  Ta  Ta98  1  0.90371863  0.69345087  0.88449052  1
  Ta  Ta99  1  0.09950828  0.70115177  0.12113790  1
  Ta  Ta100  1  0.20458823  0.00382300  0.01544105  1
  Ta  Ta101  1  0.09541259  0.30334817  0.62663766  1
  Ta  Ta102  1  0.50392250  0.89885738  0.87045253  1
  Ta  Ta103  1  0.10445360  0.89281887  0.12293244  1
  Ta  Ta104  1  0.59756504  0.60365708  0.02010679  1
  Ta  Ta105  1  0.30232293  0.70117293  0.62571695  1
  Ta  Ta106  1  0.59558284  0.19069719  0.75147762  1
  Ta  Ta107  1  0.68773036  0.30475072  0.10765426  1
  Ta  Ta108  1  0.70163263  0.90849394  0.89400868  1
  Ta  Ta109  1  0.50404424  0.90539966  0.36609838  1
  Ta  Ta110  1  0.29168883  0.49685492  0.38791741  1
  Ta  Ta111  1  0.09278245  0.70833238  0.37091601  1
  Ta  Ta112  1  0.20497777  -0.00535252  0.23629106  1
  Ta  Ta113  1  0.40512604  0.21005484  0.24041502  1
  Ta  Ta114  1  0.38545205  0.18581556  0.75796919  1
  Ta  Ta115  1  0.19715019  0.80372306  0.73639956  1
  Ta  Ta116  1  0.79494897  0.60051403  0.50265080  1
  Ta  Ta117  1  0.82092832  0.78887185  0.47932564  1
  Ta  Ta118  1  0.09803727  0.30533048  0.38841835  1
  Ta  Ta119  1  0.60787765  -0.00414051  0.23510773  1
  Ti  Ti120  1  0.00033366  0.60365400  0.24359258  1
  Ti  Ti121  1  -0.00326846  0.59381359  0.01380262  1
  Ti  Ti122  1  0.59610641  0.59461999  0.51991437  1
  Ti  Ti123  1  0.40084973  0.39170038  0.26398735  1
  Ti  Ti124  1  0.08509660  0.51099866  0.87284014  1
  Ti  Ti125  1  0.90051577  0.51236871  0.86430659  1
  Ti  Ti126  1  0.80536139  0.59993400  0.01084893  1
  Ti  Ti127  1  0.50400657  0.09436556  0.36952305  1
  Ti  Ti128  1  0.80487518  0.79922031  0.00971165  1
  Ti  Ti129  1  0.50275777  0.89454196  0.64730461  1
  Ti  Ti130  1  0.20421782  -0.00741672  0.50970113  1
  Ti  Ti131  1  0.59419315  0.42142735  0.51049105  1
  Ti  Ti132  1  0.89787934  0.09514188  0.37610739  1
  Ti  Ti133  1  0.68334273  0.51192753  0.37191159  1
  Ti  Ti134  1  0.09733190  0.49660525  0.38734510  1
  Ti  Ti135  1  0.57466586  -0.00209023  0.50712762  1
  Ti  Ti136  1  0.40008773  -0.01280439  0.49319357  1
  Ti  Ti137  1  0.30819402  0.10661049  0.11656930  1
  Ti  Ti138  1  0.81114450  0.00268225  0.01339853  1
  Ti  Ti139  1  0.91172876  0.89631002  0.36678661  1
  Ti  Ti140  1  0.40204622  0.58545448  0.75371724  1
  Ti  Ti141  1  0.60967636  -0.00396949  0.75735967  1
  Ti  Ti142  1  0.58241974  0.40483766  -0.00583470  1
  Ti  Ti143  1  0.10697308  0.30835098  0.12102252  1
  Ti  Ti144  1  0.39729240  0.00055012  -0.00361356  1
  Ti  Ti145  1  0.19853382  0.60876265  0.49074248  1
  Ti  Ti146  1  0.10741630  0.90339064  0.36590084  1
  Ti  Ti147  1  0.79865627  -0.00089388  0.76087034  1
  Ti  Ti148  1  0.10665921  0.09950945  0.12670938  1
  Ti  Ti149  1  0.58294060  0.80344102  0.50529486  1
  Ti  Ti150  1  0.49092012  0.08075577  0.64771962  1
  Ti  Ti151  1  0.90493333  0.89832502  0.12669668  1
  Ti  Ti152  1  -0.00724243  0.40743830  0.50509870  1
  Ti  Ti153  1  0.49166089  0.29527059  0.86298108  1
  Ti  Ti154  1  0.00821461  0.80288710  0.49274262  1
  Ti  Ti155  1  0.50559919  0.90907607  0.11597763  1
  Ti  Ti156  1  0.30056777  0.89545810  0.11131652  1
  Ti  Ti157  1  0.39862780  0.79978070  0.48246392  1
  Ti  Ti158  1  0.00135219  0.00416203  0.01977071  1
  Ti  Ti159  1  -0.00101473  0.79820115  0.01032129  1
  Mo  Mo160  1  0.81824496  -0.00906690  0.47323292  1
  Mo  Mo161  1  0.30719121  0.09004653  0.62422987  1
  Mo  Mo162  1  0.40777512  -0.00287925  0.76440989  1
  Mo  Mo163  1  0.10034203  0.09864146  0.63116716  1
  Mo  Mo164  1  0.20119558  0.79726548  0.01043416  1
  Mo  Mo165  1  0.29413395  0.69850471  0.39076218  1
  Mo  Mo166  1  0.29610142  0.29445811  0.85234015  1
  Mo  Mo167  1  0.71092428  0.69768443  0.10478530  1
  Mo  Mo168  1  0.00464977  0.20108510  0.73338874  1
  Mo  Mo169  1  0.78764602  0.40095905  0.24265649  1
  Mo  Mo170  1  0.00650791  0.80031705  0.24315904  1
  Mo  Mo171  1  0.30264482  0.90032184  0.38466685  1
  Mo  Mo172  1  0.50542100  0.49555228  0.36506539  1
  Mo  Mo173  1  0.09911894  0.50917152  0.11410626  1
  Mo  Mo174  1  0.69526817  0.51100546  0.62755217  1
  Mo  Mo175  1  0.30749973  0.30042673  0.13360801  1
  Mo  Mo176  1  0.71313124  0.90449362  0.11343938  1
  Mo  Mo177  1  0.60443157  0.60741269  0.73594014  1
  Mo  Mo178  1  0.59522065  0.21207737  -0.01120341  1
  Mo  Mo179  1  0.90300798  0.70322535  0.35680246  1
  Mo  Mo180  1  0.89674851  0.50413971  0.13238900  1
  Mo  Mo181  1  0.29576747  0.50140365  0.86738104  1
  Mo  Mo182  1  0.58660249  0.18098562  0.52335972  1
  Mo  Mo183  1  0.30050673  0.09906287  0.88941520  1
  Mo  Mo184  1  0.10975511  0.89430162  0.61224938  1
  Mo  Mo185  1  0.89727702  0.50521666  0.63735722  1
  Mo  Mo186  1  0.49782909  0.49885384  0.86839309  1
  Mo  Mo187  1  0.39694399  0.20305021  -0.00845071  1
  Mo  Mo188  1  0.40365964  0.79373252  0.75947843  1
  Mo  Mo189  1  0.80211899  0.19721259  0.48891616  1
  Mo  Mo190  1  0.59995663  -0.00609096  0.00225597  1
  Mo  Mo191  1  0.49795673  0.30318759  0.12067906  1
  Mo  Mo192  1  0.18865243  0.40425768  0.49823773  1
  Mo  Mo193  1  0.89850643  0.10189451  0.12466710  1
  Mo  Mo194  1  0.89685292  0.30712684  0.86428361  1
  Mo  Mo195  1  0.39520124  0.40041632  0.76186762  1
  Mo  Mo196  1  0.50272110  0.69263972  0.13422033  1
  Mo  Mo197  1  0.49584245  0.50849929  0.64172458  1
  Mo  Mo198  1  -0.00250214  0.60411579  0.76166607  1
  Mo  Mo199  1  0.60156540  0.59829434  0.23270770  1
