# generated using pymatgen
data_HfZrTaTiMo
_symmetry_space_group_name_H-M   'P 1'
_cell_length_a   15.93089001
_cell_length_b   15.93339312
_cell_length_c   15.19544743
_cell_angle_alpha   90.01469667
_cell_angle_beta   90.03123614
_cell_angle_gamma   90.07727956
_symmetry_Int_Tables_number   1
_chemical_formula_structural   HfZrTaTiMo
_chemical_formula_sum   'Hf40 Zr40 Ta40 Ti40 Mo40'
_cell_volume   3857.10382282
_cell_formula_units_Z   40
loop_
 _symmetry_equiv_pos_site_id
 _symmetry_equiv_pos_as_xyz
  1  'x, y, z'
loop_
 _atom_site_type_symbol
 _atom_site_label
 _atom_site_symmetry_multiplicity
 _atom_site_fract_x
 _atom_site_fract_y
 _atom_site_fract_z
 _atom_site_occupancy
  Hf  Hf0  1  0.29370824  0.28956291  0.37203683  1
  Hf  Hf1  1  0.69633800  0.69353436  0.63507964  1
  Hf  Hf2  1  0.29721775  0.29938843  0.62356305  1
  Hf  Hf3  1  0.08845125  0.28966869  0.35999906  1
  Hf  Hf4  1  0.29395415  0.69556292  0.89035297  1
  Hf  Hf5  1  0.81687396  -0.01152864  0.49400567  1
  Hf  Hf6  1  0.90770243  0.30904841  0.62876852  1
  Hf  Hf7  1  0.50662675  0.90087608  0.86114991  1
  Hf  Hf8  1  -0.01647444  0.59549094  0.50252361  1
  Hf  Hf9  1  0.89131465  0.70248694  0.86791374  1
  Hf  Hf10  1  0.80483010  0.39196792  0.00396713  1
  Hf  Hf11  1  0.08286822  0.48814892  0.63199500  1
  Hf  Hf12  1  0.38903857  0.59284212  0.73207510  1
  Hf  Hf13  1  0.10007820  0.90289652  0.13449230  1
  Hf  Hf14  1  0.09179044  0.71482231  0.61594800  1
  Hf  Hf15  1  0.41385337  0.39936777  0.25173038  1
  Hf  Hf16  1  0.10102250  0.30724556  0.85602939  1
  Hf  Hf17  1  0.50544910  0.69907016  0.61945488  1
  Hf  Hf18  1  0.39194430  0.00210597  0.73696674  1
  Hf  Hf19  1  0.60136288  0.19126556  0.73595072  1
  Hf  Hf20  1  0.60364508  -0.00669215  0.25425888  1
  Hf  Hf21  1  0.70845116  0.10386224  0.38232064  1
  Hf  Hf22  1  0.09742173  0.70660572  0.37619410  1
  Hf  Hf23  1  0.40069676  0.80411931  0.01523128  1
  Hf  Hf24  1  0.90520735  0.30450655  0.15124383  1
  Hf  Hf25  1  0.20211754  0.20277952  -0.00637415  1
  Hf  Hf26  1  0.60031262  0.19762413  0.01188633  1
  Hf  Hf27  1  0.29288755  0.70846743  0.37815653  1
  Hf  Hf28  1  0.41061651  -0.00132837  0.01558800  1
  Hf  Hf29  1  0.49545106  0.68527668  0.87988911  1
  Hf  Hf30  1  0.39972031  0.19711706  0.49726937  1
  Hf  Hf31  1  0.19445826  0.40145042  0.48993859  1
  Hf  Hf32  1  0.29484231  0.90474072  0.88334326  1
  Hf  Hf33  1  0.70517277  0.29114768  0.85968822  1
  Hf  Hf34  1  0.39927244  -0.00460052  0.48841065  1
  Hf  Hf35  1  0.89132126  0.09208320  0.88463172  1
  Hf  Hf36  1  0.70541003  0.30958471  0.62721716  1
  Hf  Hf37  1  0.79832398  0.40324573  0.49101461  1
  Hf  Hf38  1  -0.01073837  0.81965066  0.49355010  1
  Hf  Hf39  1  0.88354519  0.71367537  0.38107206  1
  Zr  Zr40  1  0.29314202  0.10361367  0.13189123  1
  Zr  Zr41  1  0.39330091  0.79453343  0.74624423  1
  Zr  Zr42  1  0.19438206  0.59295816  0.50211582  1
  Zr  Zr43  1  0.59440301  0.59970765  0.27025021  1
  Zr  Zr44  1  0.89655267  0.29586748  0.85653642  1
  Zr  Zr45  1  0.09518820  0.49587283  0.13120978  1
  Zr  Zr46  1  0.70393480  0.49605163  0.85656156  1
  Zr  Zr47  1  0.50716089  0.31080804  0.61697615  1
  Zr  Zr48  1  0.10502267  0.92223581  0.62941429  1
  Zr  Zr49  1  0.28099513  0.08998631  0.60864430  1
  Zr  Zr50  1  0.61340293  -0.01566196  0.49429177  1
  Zr  Zr51  1  0.60742329  0.00107575  0.01646253  1
  Zr  Zr52  1  0.10005905  0.29347017  0.62728577  1
  Zr  Zr53  1  0.69656955  0.69791248  0.10433802  1
  Zr  Zr54  1  -0.00343336  0.20177694  0.00511351  1
  Zr  Zr55  1  -0.00122142  0.40274844  -0.00533648  1
  Zr  Zr56  1  0.00313002  0.00491499  0.26320933  1
  Zr  Zr57  1  0.10759065  0.50842959  0.87193648  1
  Zr  Zr58  1  0.40554759  0.19862508  0.25574825  1
  Zr  Zr59  1  0.10700570  0.29557935  0.14135328  1
  Zr  Zr60  1  0.60204865  0.80678294  -0.00509888  1
  Zr  Zr61  1  0.80216403  0.59574605  -0.00445412  1
  Zr  Zr62  1  0.41031081  0.20052222  0.00263335  1
  Zr  Zr63  1  0.20624791  0.18648146  0.75629714  1
  Zr  Zr64  1  0.50525610  0.88882712  0.62156760  1
  Zr  Zr65  1  0.69758596  0.49583685  0.13261101  1
  Zr  Zr66  1  -0.00161911  0.60822721  0.00642820  1
  Zr  Zr67  1  0.70537013  0.09252930  0.87472785  1
  Zr  Zr68  1  0.21200278  0.41561232  0.25993032  1
  Zr  Zr69  1  0.50490379  0.50197845  0.11289587  1
  Zr  Zr70  1  0.79070199  0.61511848  0.25474784  1
  Zr  Zr71  1  0.19796439  0.80500453  0.75133332  1
  Zr  Zr72  1  0.59962407  0.39149178  -0.01003189  1
  Zr  Zr73  1  0.60803544  0.79146075  0.25396280  1
  Zr  Zr74  1  0.41084213  0.41415681  0.74792601  1
  Zr  Zr75  1  0.41014265  0.79513537  0.24292916  1
  Zr  Zr76  1  0.09374169  0.08656789  0.87045576  1
  Zr  Zr77  1  0.39253899  0.59410973  0.25471144  1
  Zr  Zr78  1  0.20403543  0.60315720  0.73509777  1
  Zr  Zr79  1  0.39458536  0.59230238  0.50634743  1
  Ta  Ta80  1  0.89818771  0.89971417  0.12858556  1
  Ta  Ta81  1  0.40330193  -0.00339027  0.25876500  1
  Ta  Ta82  1  0.89688287  0.49872313  0.14675016  1
  Ta  Ta83  1  0.50623307  0.49447891  0.39266957  1
  Ta  Ta84  1  0.30350397  0.30551013  0.12656447  1
  Ta  Ta85  1  -0.00265510  0.60969056  0.74530741  1
  Ta  Ta86  1  0.58463004  0.57894690  0.74542956  1
  Ta  Ta87  1  0.50349225  0.09568590  0.86235134  1
  Ta  Ta88  1  0.19635268  0.60577879  0.01825810  1
  Ta  Ta89  1  -0.00214167  0.80533462  -0.00229730  1
  Ta  Ta90  1  0.79884055  0.19870874  0.25240096  1
  Ta  Ta91  1  0.40307325  0.19573890  0.74392272  1
  Ta  Ta92  1  0.20328348  0.00872002  0.26640348  1
  Ta  Ta93  1  0.60199369  0.20443940  0.25902671  1
  Ta  Ta94  1  0.50590754  0.09653733  0.61318010  1
  Ta  Ta95  1  0.19511633  0.60969919  0.24211119  1
  Ta  Ta96  1  0.19697850  -0.00064498  0.00267956  1
  Ta  Ta97  1  0.89347637  0.70441021  0.63095480  1
  Ta  Ta98  1  0.79502939  0.80822589  0.74923173  1
  Ta  Ta99  1  0.30664417  0.30485202  0.87038660  1
  Ta  Ta100  1  -0.00395192  0.61002362  0.24788156  1
  Ta  Ta101  1  0.50619130  0.09930111  0.38028075  1
  Ta  Ta102  1  0.29553852  0.89395691  0.37213245  1
  Ta  Ta103  1  0.80165549  0.00097563  0.25147275  1
  Ta  Ta104  1  -0.00602884  0.79989268  0.25040026  1
  Ta  Ta105  1  0.90737320  0.90428195  0.63850960  1
  Ta  Ta106  1  0.90108321  0.49867118  0.85126528  1
  Ta  Ta107  1  0.69438191  0.30235520  0.14504145  1
  Ta  Ta108  1  0.60880200  0.20375635  0.49658019  1
  Ta  Ta109  1  0.61099684  -0.00510169  0.73279986  1
  Ta  Ta110  1  0.71003057  0.09925560  0.60833023  1
  Ta  Ta111  1  -0.00384945  0.80641536  0.76002383  1
  Ta  Ta112  1  0.29379792  0.90219912  0.13890715  1
  Ta  Ta113  1  0.50201874  0.29564554  0.86012149  1
  Ta  Ta114  1  0.18907283  0.80056257  0.01172950  1
  Ta  Ta115  1  0.89698857  0.09638572  0.12817771  1
  Ta  Ta116  1  0.90532892  0.11442908  0.37593537  1
  Ta  Ta117  1  0.30759246  0.50453997  0.89551173  1
  Ta  Ta118  1  0.40366619  0.39298374  -0.00028926  1
  Ta  Ta119  1  0.89678004  0.50436085  0.36222208  1
  Ti  Ti120  1  0.09466395  0.90335799  0.87543595  1
  Ti  Ti121  1  0.50009186  0.69913746  0.39692517  1
  Ti  Ti122  1  0.20511224  0.39889840  -0.00155492  1
  Ti  Ti123  1  0.70738845  0.90566296  0.86904328  1
  Ti  Ti124  1  0.09204092  0.50676383  0.36468183  1
  Ti  Ti125  1  0.72403914  0.87849684  0.36477595  1
  Ti  Ti126  1  0.69239438  0.69780558  0.86209385  1
  Ti  Ti127  1  -0.00268673  -0.00551530  0.00858709  1
  Ti  Ti128  1  0.79090156  0.19488953  0.02463006  1
  Ti  Ti129  1  0.51070905  0.30309610  0.38575114  1
  Ti  Ti130  1  0.79486194  0.80591458  0.52041901  1
  Ti  Ti131  1  0.49933594  0.88903403  0.37815649  1
  Ti  Ti132  1  0.30808326  0.09627024  0.87956992  1
  Ti  Ti133  1  0.90862637  0.09758343  0.61237895  1
  Ti  Ti134  1  0.61237898  0.79520064  0.49280345  1
  Ti  Ti135  1  0.50550490  0.68899817  0.10943070  1
  Ti  Ti136  1  0.80291652  0.00173208  0.73423226  1
  Ti  Ti137  1  0.10950640  0.89531102  0.37044978  1
  Ti  Ti138  1  0.80308007  0.81107894  -0.00733548  1
  Ti  Ti139  1  0.80508472  0.18883530  0.73126057  1
  Ti  Ti140  1  0.89851577  0.90909902  0.87203212  1
  Ti  Ti141  1  0.29675069  0.71694144  0.60173132  1
  Ti  Ti142  1  -0.00814187  0.40142405  0.48027040  1
  Ti  Ti143  1  0.09647431  0.09952023  0.61480782  1
  Ti  Ti144  1  0.79146534  0.39687827  0.27056114  1
  Ti  Ti145  1  0.89705589  0.70949368  0.12358907  1
  Ti  Ti146  1  0.39533535  0.40242846  0.49592998  1
  Ti  Ti147  1  0.29111447  0.89650312  0.60165975  1
  Ti  Ti148  1  0.21429397  0.41282958  0.74724769  1
  Ti  Ti149  1  -0.00366359  0.18642813  0.74396650  1
  Ti  Ti150  1  -0.00282069  0.20416388  0.49663238  1
  Ti  Ti151  1  0.09763904  0.10185741  0.13160926  1
  Ti  Ti152  1  0.29228593  0.70434234  0.12774023  1
  Ti  Ti153  1  0.00715096  0.00522258  0.48203505  1
  Ti  Ti154  1  0.88158639  0.50467900  0.64263536  1
  Ti  Ti155  1  0.78511089  0.59441792  0.50011238  1
  Ti  Ti156  1  0.30261125  0.50131061  0.11328447  1
  Ti  Ti157  1  0.50713278  0.10037068  0.14384413  1
  Ti  Ti158  1  0.09779226  0.70496262  0.87695485  1
  Ti  Ti159  1  0.71032607  0.89963424  0.12819638  1
  Mo  Mo160  1  0.70040368  0.29845138  0.37223835  1
  Mo  Mo161  1  0.70071733  0.70013379  0.39873630  1
  Mo  Mo162  1  0.50438118  0.29988433  0.13287144  1
  Mo  Mo163  1  0.60573028  0.79705859  0.76439606  1
  Mo  Mo164  1  0.30014882  0.09575870  0.37522793  1
  Mo  Mo165  1  0.39293229  0.60067047  0.01676077  1
  Mo  Mo166  1  0.29518475  0.48771563  0.61128967  1
  Mo  Mo167  1  0.79659514  0.60458968  0.74634305  1
  Mo  Mo168  1  0.69528502  0.49930834  0.63272397  1
  Mo  Mo169  1  -0.00847475  0.00357996  0.75000592  1
  Mo  Mo170  1  0.09481207  0.70675187  0.13208047  1
  Mo  Mo171  1  0.79965652  0.39879499  0.73838138  1
  Mo  Mo172  1  0.70770860  0.89616816  0.63252377  1
  Mo  Mo173  1  0.40225759  0.80114833  0.49081440  1
  Mo  Mo174  1  0.49533590  0.49908867  0.88879529  1
  Mo  Mo175  1  0.10358254  0.10646182  0.38631946  1
  Mo  Mo176  1  0.59813330  0.59547973  -0.02199802  1
  Mo  Mo177  1  0.90121533  0.90412262  0.36060905  1
  Mo  Mo178  1  0.60982749  0.40151493  0.48453751  1
  Mo  Mo179  1  0.80149682  0.80289170  0.23756953  1
  Mo  Mo180  1  0.30193858  0.49967767  0.37996632  1
  Mo  Mo181  1  0.60467800  0.59492283  0.50080627  1
  Mo  Mo182  1  0.19780597  0.80294210  0.24017325  1
  Mo  Mo183  1  0.69935600  0.49992707  0.37013056  1
  Mo  Mo184  1  0.49920338  0.90060475  0.14204591  1
  Mo  Mo185  1  0.19949867  0.19415045  0.24654701  1
  Mo  Mo186  1  0.19409362  -0.00070574  0.47479909  1
  Mo  Mo187  1  0.70431290  0.10317231  0.14064202  1
  Mo  Mo188  1  -0.00435033  0.19503092  0.24717721  1
  Mo  Mo189  1  0.89657756  0.29934492  0.37272351  1
  Mo  Mo190  1  0.19571220  0.80791907  0.49997214  1
  Mo  Mo191  1  0.51083784  0.49693715  0.60280520  1
  Mo  Mo192  1  0.60164389  0.39587848  0.26774619  1
  Mo  Mo193  1  -0.00471443  0.40926314  0.26631608  1
  Mo  Mo194  1  0.80533145  -0.00713749  0.01714481  1
  Mo  Mo195  1  0.81040884  0.19924822  0.50380546  1
  Mo  Mo196  1  0.20005029  -0.00187041  0.76598330  1
  Mo  Mo197  1  0.59753254  0.39780265  0.75806738  1
  Mo  Mo198  1  0.00118086  0.40639829  0.75468641  1
  Mo  Mo199  1  0.19159816  0.19711622  0.49414708  1
