# generated using pymatgen
data_HfZrTaTiMo
_symmetry_space_group_name_H-M   'P 1'
_cell_length_a   15.93017949
_cell_length_b   15.92753972
_cell_length_c   15.20460513
_cell_angle_alpha   89.99783668
_cell_angle_beta   89.97933825
_cell_angle_gamma   89.94611487
_symmetry_Int_Tables_number   1
_chemical_formula_structural   HfZrTaTiMo
_chemical_formula_sum   'Hf40 Zr40 Ta40 Ti40 Mo40'
_cell_volume   3857.84070566
_cell_formula_units_Z   40
loop_
 _symmetry_equiv_pos_site_id
 _symmetry_equiv_pos_as_xyz
  1  'x, y, z'
loop_
 _atom_site_type_symbol
 _atom_site_label
 _atom_site_symmetry_multiplicity
 _atom_site_fract_x
 _atom_site_fract_y
 _atom_site_fract_z
 _atom_site_occupancy
  Hf  Hf0  1  0.81057481  0.40182863  0.00972529  1
  Hf  Hf1  1  0.20803483  0.79620166  0.25621880  1
  Hf  Hf2  1  0.79983231  0.40295379  0.48393844  1
  Hf  Hf3  1  0.21958133  0.78350143  0.49114040  1
  Hf  Hf4  1  -0.00758972  -0.00502393  0.47390633  1
  Hf  Hf5  1  0.59456856  0.60016645  -0.00777592  1
  Hf  Hf6  1  0.10790683  0.29915492  0.14466502  1
  Hf  Hf7  1  0.60654319  -0.00034852  0.22403039  1
  Hf  Hf8  1  -0.00284652  0.20613991  0.02476134  1
  Hf  Hf9  1  0.79120552  0.19246390  0.75932872  1
  Hf  Hf10  1  0.20872799  0.40279893  0.28229409  1
  Hf  Hf11  1  0.40081658  0.79294763  -0.01108202  1
  Hf  Hf12  1  0.30583561  0.90147693  0.86236889  1
  Hf  Hf13  1  0.49417871  0.29584831  0.39966564  1
  Hf  Hf14  1  0.71287266  0.89649777  0.88697030  1
  Hf  Hf15  1  0.79327263  0.40743017  0.25684326  1
  Hf  Hf16  1  0.10904374  0.50586338  0.14598973  1
  Hf  Hf17  1  0.40250693  0.40666259  0.26497801  1
  Hf  Hf18  1  0.10349753  0.90244351  0.11896023  1
  Hf  Hf19  1  0.90499539  0.71216250  0.88446495  1
  Hf  Hf20  1  0.69660947  0.69555364  0.39544425  1
  Hf  Hf21  1  0.49493255  0.30738917  0.87512625  1
  Hf  Hf22  1  0.09914203  0.69488806  0.61645307  1
  Hf  Hf23  1  0.49449937  0.09159841  0.86946074  1
  Hf  Hf24  1  0.29391055  0.10206892  0.86583174  1
  Hf  Hf25  1  0.90643163  0.70180019  0.61586879  1
  Hf  Hf26  1  0.39425932  0.20961161  0.74011426  1
  Hf  Hf27  1  0.18767836  0.21049137  0.73478739  1
  Hf  Hf28  1  0.40321198  0.00426704  0.24351838  1
  Hf  Hf29  1  0.01181583  0.58260250  0.75058040  1
  Hf  Hf30  1  0.50330428  0.90173934  0.65004081  1
  Hf  Hf31  1  0.29764775  0.30762951  0.12368170  1
  Hf  Hf32  1  0.79806177  0.40279778  0.74838335  1
  Hf  Hf33  1  0.91326508  0.49945375  0.60526989  1
  Hf  Hf34  1  0.80246845  0.00235743  0.49176403  1
  Hf  Hf35  1  0.90079228  0.69600233  0.11663004  1
  Hf  Hf36  1  0.89595487  0.09064298  0.90649341  1
  Hf  Hf37  1  0.08067032  0.08652115  0.62214019  1
  Hf  Hf38  1  0.81454986  0.00372454  0.76023058  1
  Hf  Hf39  1  0.40485262  -0.00685852  0.50752383  1
  Zr  Zr40  1  0.49041790  0.68907612  0.12461035  1
  Zr  Zr41  1  0.69895044  0.30110538  0.11809302  1
  Zr  Zr42  1  0.18319019  -0.00782950  0.74934551  1
  Zr  Zr43  1  0.10414637  0.69831876  0.87610340  1
  Zr  Zr44  1  0.69706148  0.09856704  0.36864834  1
  Zr  Zr45  1  0.29230230  0.50096492  0.61543172  1
  Zr  Zr46  1  0.19221184  0.20129750  0.50571365  1
  Zr  Zr47  1  0.69191940  0.29354786  0.37923646  1
  Zr  Zr48  1  0.10592151  0.89876882  0.37028380  1
  Zr  Zr49  1  0.39656064  0.20473470  0.24925118  1
  Zr  Zr50  1  -0.00483295  0.79828026  0.25549182  1
  Zr  Zr51  1  0.61890416  0.01104128  0.76012278  1
  Zr  Zr52  1  0.60050441  0.59424820  0.24639501  1
  Zr  Zr53  1  0.90746604  0.29688287  0.61088169  1
  Zr  Zr54  1  0.91729368  0.89934777  0.62257254  1
  Zr  Zr55  1  0.59256791  0.40884496  0.24880921  1
  Zr  Zr56  1  0.17379982  0.40519342  0.73409951  1
  Zr  Zr57  1  0.19455763  0.41289519  -0.00548173  1
  Zr  Zr58  1  0.59626519  0.41678065  -0.00581328  1
  Zr  Zr59  1  0.49346463  0.71410756  0.38351337  1
  Zr  Zr60  1  0.71215193  0.89669718  0.63406603  1
  Zr  Zr61  1  0.09249229  0.09801348  0.88675540  1
  Zr  Zr62  1  0.70059953  0.89813525  0.37096106  1
  Zr  Zr63  1  0.19995580  -0.00369156  0.49903223  1
  Zr  Zr64  1  0.29797429  0.69508557  0.12590286  1
  Zr  Zr65  1  0.80558246  0.59483470  0.75652111  1
  Zr  Zr66  1  0.39279899  0.20358715  -0.00469643  1
  Zr  Zr67  1  0.70411883  0.29440767  0.60888397  1
  Zr  Zr68  1  0.90062151  0.29620219  0.87948730  1
  Zr  Zr69  1  0.10364633  0.69755447  0.11646448  1
  Zr  Zr70  1  0.60224046  0.20664375  0.75056547  1
  Zr  Zr71  1  0.00535020  0.58269690  -0.00524146  1
  Zr  Zr72  1  0.60219563  0.40455121  0.74207505  1
  Zr  Zr73  1  0.60496432  0.59925834  0.74056779  1
  Zr  Zr74  1  0.50304030  0.51210595  0.40617998  1
  Zr  Zr75  1  0.69877364  0.70939265  0.87105438  1
  Zr  Zr76  1  0.29977037  0.89029405  0.63475980  1
  Zr  Zr77  1  -0.00568729  0.19351484  0.74876224  1
  Zr  Zr78  1  0.58793142  0.19857660  0.23571392  1
  Zr  Zr79  1  0.60247773  0.79748447  0.23625610  1
  Ta  Ta80  1  0.50778913  0.89238050  0.86966692  1
  Ta  Ta81  1  0.60057809  -0.00105326  0.50940625  1
  Ta  Ta82  1  0.39118788  0.41664270  -0.01393475  1
  Ta  Ta83  1  0.79923690  0.58965213  -0.01301740  1
  Ta  Ta84  1  0.38469180  0.62319085  0.51221234  1
  Ta  Ta85  1  0.49580462  0.89829571  0.11035823  1
  Ta  Ta86  1  -0.00448447  0.00026263  0.24497517  1
  Ta  Ta87  1  -0.00185540  0.40048634  0.25812563  1
  Ta  Ta88  1  0.28779553  0.30891137  0.86842615  1
  Ta  Ta89  1  0.70302602  0.29918177  0.89022709  1
  Ta  Ta90  1  0.90095099  0.50693995  0.14546865  1
  Ta  Ta91  1  0.38830511  0.40330766  0.74113429  1
  Ta  Ta92  1  0.19430209  0.20492913  -0.00141403  1
  Ta  Ta93  1  0.31902345  0.89579514  0.37402408  1
  Ta  Ta94  1  0.19703385  0.59439194  0.48268436  1
  Ta  Ta95  1  0.90259372  0.50695197  0.37524647  1
  Ta  Ta96  1  0.59942143  -0.00116240  0.00087998  1
  Ta  Ta97  1  0.89886188  0.29060049  0.36836667  1
  Ta  Ta98  1  0.60044621  0.19442588  -0.00173721  1
  Ta  Ta99  1  0.49932123  0.09972842  0.62793652  1
  Ta  Ta100  1  0.70861321  0.70698635  0.61822105  1
  Ta  Ta101  1  -0.00137309  0.39821117  0.02766555  1
  Ta  Ta102  1  0.48612208  0.51027202  0.85301339  1
  Ta  Ta103  1  0.39609924  -0.00447359  -0.00086036  1
  Ta  Ta104  1  0.79879305  0.80133241  0.24116539  1
  Ta  Ta105  1  0.30599603  0.50629366  0.13228207  1
  Ta  Ta106  1  0.49953548  0.09824961  0.38750926  1
  Ta  Ta107  1  0.50566961  0.90622257  0.37483600  1
  Ta  Ta108  1  0.20619819  0.19750846  0.26752887  1
  Ta  Ta109  1  0.59457584  0.80829190  0.51503309  1
  Ta  Ta110  1  0.30336571  0.09722495  0.62902364  1
  Ta  Ta111  1  0.79888800  0.60641336  0.26362325  1
  Ta  Ta112  1  0.28874753  0.09940725  0.12067664  1
  Ta  Ta113  1  0.79814215  0.19623648  0.23687630  1
  Ta  Ta114  1  0.89649221  0.09512734  0.12748066  1
  Ta  Ta115  1  0.20514994  0.60012552  0.27826404  1
  Ta  Ta116  1  0.20754526  0.80308668  -0.01249458  1
  Ta  Ta117  1  0.49196777  0.31277302  0.10858987  1
  Ta  Ta118  1  0.30827313  0.10170046  0.38627225  1
  Ta  Ta119  1  0.08807791  0.30970240  0.88129615  1
  Ti  Ti120  1  0.70667813  0.51150967  0.12116911  1
  Ti  Ti121  1  0.20063791  -0.00011224  -0.00380045  1
  Ti  Ti122  1  0.70909435  0.69737277  0.11415939  1
  Ti  Ti123  1  0.82035701  0.80722913  0.75351674  1
  Ti  Ti124  1  0.20187029  0.59360280  0.74921355  1
  Ti  Ti125  1  0.50091030  0.70376134  0.62695436  1
  Ti  Ti126  1  0.39484374  0.59544940  0.26676308  1
  Ti  Ti127  1  0.81206129  0.80819671  0.49120808  1
  Ti  Ti128  1  0.09299916  0.88350611  0.61402676  1
  Ti  Ti129  1  0.20975942  0.00450862  0.25641661  1
  Ti  Ti130  1  0.70678154  0.10180028  0.61407969  1
  Ti  Ti131  1  -0.00153804  -0.02652152  0.77410996  1
  Ti  Ti132  1  -0.00808131  0.19258729  0.48622999  1
  Ti  Ti133  1  0.00529712  0.60407935  0.26871420  1
  Ti  Ti134  1  0.10652338  0.09746381  0.13266015  1
  Ti  Ti135  1  0.40048125  0.78893841  0.74805309  1
  Ti  Ti136  1  0.30576912  0.68991240  0.85713304  1
  Ti  Ti137  1  0.21286262  0.59431561  -0.01661372  1
  Ti  Ti138  1  0.50251699  0.70212863  0.85906224  1
  Ti  Ti139  1  0.91407549  0.48257961  0.87229069  1
  Ti  Ti140  1  0.49266518  0.50688584  0.62245970  1
  Ti  Ti141  1  0.79106939  -0.00349528  0.02083386  1
  Ti  Ti142  1  -0.00052477  0.19757025  0.24847565  1
  Ti  Ti143  1  0.39635671  0.59321640  -0.01444584  1
  Ti  Ti144  1  0.40252533  0.80528677  0.24251738  1
  Ti  Ti145  1  0.18796245  0.79830217  0.75566339  1
  Ti  Ti146  1  0.49188750  0.10131165  0.10887483  1
  Ti  Ti147  1  0.90181615  0.70322633  0.38461022  1
  Ti  Ti148  1  0.48814504  0.30449555  0.61129747  1
  Ti  Ti149  1  0.30016439  0.90353329  0.12116907  1
  Ti  Ti150  1  0.10032417  0.10178132  0.36501570  1
  Ti  Ti151  1  0.90009778  0.89721744  0.11485094  1
  Ti  Ti152  1  0.59634188  0.19065768  0.50962496  1
  Ti  Ti153  1  0.89388607  0.10099401  0.61658615  1
  Ti  Ti154  1  0.70800076  0.51781872  0.60003329  1
  Ti  Ti155  1  0.60076885  0.40832633  0.51072299  1
  Ti  Ti156  1  0.30680890  0.30091998  0.40717882  1
  Ti  Ti157  1  0.89238786  0.09764007  0.35295294  1
  Ti  Ti158  1  0.09392892  0.29798347  0.38002949  1
  Ti  Ti159  1  0.60164750  0.79985303  0.00716899  1
  Mo  Mo160  1  0.40184377  0.00306528  0.75102165  1
  Mo  Mo161  1  0.70422036  0.49613727  0.88150144  1
  Mo  Mo162  1  0.00141098  0.39546902  0.47178756  1
  Mo  Mo163  1  0.90285833  0.30108978  0.15051882  1
  Mo  Mo164  1  0.08836981  0.30270004  0.59756552  1
  Mo  Mo165  1  0.40788391  0.80288715  0.51079106  1
  Mo  Mo166  1  0.69940089  0.09789896  0.11646529  1
  Mo  Mo167  1  0.09688112  0.49289934  0.87830945  1
  Mo  Mo168  1  0.89328356  0.89958244  0.35531942  1
  Mo  Mo169  1  0.80412629  -0.00592694  0.23273909  1
  Mo  Mo170  1  0.09342027  0.49773086  0.59189886  1
  Mo  Mo171  1  0.30913058  0.70148747  0.36403006  1
  Mo  Mo172  1  0.80265000  0.60529955  0.49042225  1
  Mo  Mo173  1  0.19234569  0.39670135  0.49772680  1
  Mo  Mo174  1  0.09899101  0.89558563  0.89639618  1
  Mo  Mo175  1  0.80755725  0.19193699  0.48489713  1
  Mo  Mo176  1  0.39691851  0.40253342  0.51512425  1
  Mo  Mo177  1  0.39915386  0.19480176  0.51740334  1
  Mo  Mo178  1  0.00203312  0.00005214  0.02291153  1
  Mo  Mo179  1  0.70403256  0.10250373  0.90104172  1
  Mo  Mo180  1  0.79623445  0.19856039  0.01702904  1
  Mo  Mo181  1  0.29720118  0.30148052  0.61971485  1
  Mo  Mo182  1  0.80036853  0.79570599  0.01619244  1
  Mo  Mo183  1  0.09772014  0.69843442  0.38311703  1
  Mo  Mo184  1  0.29416700  0.69864948  0.64342854  1
  Mo  Mo185  1  0.48047818  0.49997350  0.12095505  1
  Mo  Mo186  1  0.00341197  0.60134606  0.48419036  1
  Mo  Mo187  1  0.59560683  0.60838231  0.52211089  1
  Mo  Mo188  1  0.60498187  0.79776924  0.74292047  1
  Mo  Mo189  1  0.00696030  0.80383983  0.76108013  1
  Mo  Mo190  1  0.09628340  0.49816872  0.37531933  1
  Mo  Mo191  1  0.70103272  0.50913701  0.39045153  1
  Mo  Mo192  1  0.90545466  0.89847483  0.90192614  1
  Mo  Mo193  1  0.29784693  0.50316230  0.85478225  1
  Mo  Mo194  1  0.00429969  0.80418522  0.00064983  1
  Mo  Mo195  1  0.30753668  0.50122979  0.39586280  1
  Mo  Mo196  1  0.70035156  0.89157836  0.11269242  1
  Mo  Mo197  1  0.39928063  0.60492192  0.73589613  1
  Mo  Mo198  1  0.00150303  0.79761189  0.48176542  1
  Mo  Mo199  1  0.00041058  0.39559905  0.74392474  1
