# generated using pymatgen
data_HfZrTaTiMo
_symmetry_space_group_name_H-M   'P 1'
_cell_length_a   15.92531231
_cell_length_b   15.92637722
_cell_length_c   15.20456055
_cell_angle_alpha   89.95267554
_cell_angle_beta   90.03318910
_cell_angle_gamma   90.10574572
_symmetry_Int_Tables_number   1
_chemical_formula_structural   HfZrTaTiMo
_chemical_formula_sum   'Hf40 Zr40 Ta40 Ti40 Mo40'
_cell_volume   3856.36265105
_cell_formula_units_Z   40
loop_
 _symmetry_equiv_pos_site_id
 _symmetry_equiv_pos_as_xyz
  1  'x, y, z'
loop_
 _atom_site_type_symbol
 _atom_site_label
 _atom_site_symmetry_multiplicity
 _atom_site_fract_x
 _atom_site_fract_y
 _atom_site_fract_z
 _atom_site_occupancy
  Hf  Hf0  1  0.39233896  0.57500182  0.00561251  1
  Hf  Hf1  1  0.81046600  0.39679326  0.50850466  1
  Hf  Hf2  1  0.19969049  0.40449612  0.26610445  1
  Hf  Hf3  1  0.30939849  0.10012800  0.87573388  1
  Hf  Hf4  1  0.60758695  0.18795037  0.50664054  1
  Hf  Hf5  1  0.49981505  0.68451885  0.88175563  1
  Hf  Hf6  1  0.28833883  0.88877782  0.12161665  1
  Hf  Hf7  1  0.49384123  0.29820194  0.85833900  1
  Hf  Hf8  1  0.01057567  0.41704763  -0.00925013  1
  Hf  Hf9  1  0.09535816  0.50708300  0.38781437  1
  Hf  Hf10  1  0.00057567  0.21600371  0.75856236  1
  Hf  Hf11  1  0.49338923  0.89534579  0.88178504  1
  Hf  Hf12  1  0.09595971  0.09700902  0.64126599  1
  Hf  Hf13  1  0.40472833  0.21964244  0.01103857  1
  Hf  Hf14  1  0.80410187  0.60378614  0.49994764  1
  Hf  Hf15  1  0.50512486  0.51649481  0.59633817  1
  Hf  Hf16  1  0.18475046  -0.00549771  0.23636733  1
  Hf  Hf17  1  0.60472587  0.79263480  0.00174594  1
  Hf  Hf18  1  0.81379073  0.20047163  0.25046346  1
  Hf  Hf19  1  0.09475063  0.89287982  0.64034299  1
  Hf  Hf20  1  0.59765393  0.79370594  0.26168149  1
  Hf  Hf21  1  0.50762609  0.47787315  0.86879826  1
  Hf  Hf22  1  -0.00998489  -0.00467994  0.51147700  1
  Hf  Hf23  1  -0.01215865  0.21104079  0.51042534  1
  Hf  Hf24  1  0.30158217  0.09506982  0.36728318  1
  Hf  Hf25  1  0.40288735  0.59767904  0.73918656  1
  Hf  Hf26  1  0.11008342  0.30346099  0.12148213  1
  Hf  Hf27  1  0.29366862  0.10580932  0.12657763  1
  Hf  Hf28  1  0.40291843  0.19633281  0.72630179  1
  Hf  Hf29  1  0.78887003  0.00355434  0.51457196  1
  Hf  Hf30  1  0.00868300  0.21199109  -0.02232363  1
  Hf  Hf31  1  0.29205784  0.68897971  0.61230837  1
  Hf  Hf32  1  0.60620085  0.39786707  0.49962903  1
  Hf  Hf33  1  -0.00367012  0.42269090  0.74683579  1
  Hf  Hf34  1  0.10577908  0.31263834  0.63092241  1
  Hf  Hf35  1  0.80699695  -0.00068435  0.24266743  1
  Hf  Hf36  1  0.40906014  0.80609069  0.25271699  1
  Hf  Hf37  1  0.40876579  0.19432257  0.25422078  1
  Hf  Hf38  1  0.00287443  0.19920828  0.24918242  1
  Hf  Hf39  1  0.89677255  0.29686217  0.10136871  1
  Zr  Zr40  1  0.61192443  0.58392073  0.74742073  1
  Zr  Zr41  1  0.77110941  0.41273480  0.01421643  1
  Zr  Zr42  1  0.89111750  0.09717349  0.65446379  1
  Zr  Zr43  1  0.00743677  0.81464156  0.24376275  1
  Zr  Zr44  1  0.49578905  0.67926362  0.13628774  1
  Zr  Zr45  1  0.39738196  -0.00893941  0.73031205  1
  Zr  Zr46  1  0.80018222  0.40492947  0.24325604  1
  Zr  Zr47  1  0.60787538  -0.00331101  -0.00858512  1
  Zr  Zr48  1  0.60858479  0.57250053  0.00642243  1
  Zr  Zr49  1  0.69185888  0.70141175  0.61795453  1
  Zr  Zr50  1  0.39948198  0.81257699  0.50511217  1
  Zr  Zr51  1  -0.00415726  0.39779195  0.25080192  1
  Zr  Zr52  1  0.80566980  0.80392617  0.49991720  1
  Zr  Zr53  1  0.70752522  0.29228762  0.37193529  1
  Zr  Zr54  1  0.19447356  0.79715059  0.48668808  1
  Zr  Zr55  1  0.20731493  0.21086752  -0.01471110  1
  Zr  Zr56  1  0.79982013  0.59933970  0.00857216  1
  Zr  Zr57  1  0.88001297  0.31844790  0.86828492  1
  Zr  Zr58  1  0.70354957  0.69363867  0.14127648  1
  Zr  Zr59  1  0.57638092  -0.01073479  0.24213499  1
  Zr  Zr60  1  0.60475630  0.20635868  -0.00202652  1
  Zr  Zr61  1  0.09807445  0.09711741  0.38456944  1
  Zr  Zr62  1  0.70346490  0.10233010  0.12833283  1
  Zr  Zr63  1  0.21774047  -0.00770745  0.52069785  1
  Zr  Zr64  1  0.11125906  0.70967503  0.11515143  1
  Zr  Zr65  1  -0.00604289  0.00587984  0.23630867  1
  Zr  Zr66  1  0.80141165  0.19968071  0.51409725  1
  Zr  Zr67  1  0.10990233  0.51375545  0.60991145  1
  Zr  Zr68  1  0.20052663  0.19864365  0.50745485  1
  Zr  Zr69  1  0.70002904  0.90133913  0.37123926  1
  Zr  Zr70  1  0.59715833  -0.00290380  0.75003376  1
  Zr  Zr71  1  0.39638752  0.78793700  0.00930638  1
  Zr  Zr72  1  0.21981172  0.41138566  0.01122319  1
  Zr  Zr73  1  0.79986882  0.80402133  -0.01242973  1
  Zr  Zr74  1  0.30064350  0.48606163  0.85768943  1
  Zr  Zr75  1  0.40126774  0.79311452  0.73745957  1
  Zr  Zr76  1  0.81751919  0.60706823  0.73417818  1
  Zr  Zr77  1  -0.00714823  0.78759154  0.76156593  1
  Zr  Zr78  1  0.89870737  0.09833163  0.87091806  1
  Zr  Zr79  1  0.68361156  0.32472263  0.85484763  1
  Ta  Ta80  1  0.29486504  0.68880253  0.14091749  1
  Ta  Ta81  1  0.48337746  0.48343633  0.15582641  1
  Ta  Ta82  1  0.89242222  0.89603901  0.65189153  1
  Ta  Ta83  1  0.90435960  0.70510119  0.36602349  1
  Ta  Ta84  1  0.49706985  0.10235832  0.88056033  1
  Ta  Ta85  1  0.69615681  0.09298559  0.36749081  1
  Ta  Ta86  1  0.59607446  0.79367703  0.74981130  1
  Ta  Ta87  1  0.39742371  0.19474205  0.50439965  1
  Ta  Ta88  1  0.20739037  0.20259732  0.74943527  1
  Ta  Ta89  1  0.29609203  0.89403422  0.87661090  1
  Ta  Ta90  1  0.41079151  0.39843434  0.71198788  1
  Ta  Ta91  1  0.10371215  0.69580989  0.88485927  1
  Ta  Ta92  1  -0.00083080  0.80291172  -0.00578311  1
  Ta  Ta93  1  0.50086748  0.09055507  0.60955570  1
  Ta  Ta94  1  0.70293688  0.89656340  0.12933219  1
  Ta  Ta95  1  0.49744489  0.29243988  0.38480282  1
  Ta  Ta96  1  0.89467296  0.09949082  0.38320317  1
  Ta  Ta97  1  0.59418569  0.39603534  0.26471591  1
  Ta  Ta98  1  0.10790102  0.51361505  0.13472774  1
  Ta  Ta99  1  0.10129231  0.89734565  0.87562953  1
  Ta  Ta100  1  0.20261700  -0.00245951  0.75694221  1
  Ta  Ta101  1  0.19700411  0.60832509  0.27130150  1
  Ta  Ta102  1  0.90596408  0.70292493  0.12958363  1
  Ta  Ta103  1  0.31907958  0.31868524  0.14992805  1
  Ta  Ta104  1  0.90293363  0.50329126  0.37872065  1
  Ta  Ta105  1  0.09583063  0.10162128  0.10297933  1
  Ta  Ta106  1  0.39897433  -0.00245671  0.01092359  1
  Ta  Ta107  1  0.49815842  0.09922099  0.11613276  1
  Ta  Ta108  1  0.19950250  0.80000224  0.26595239  1
  Ta  Ta109  1  0.79444827  -0.00385188  -0.01562443  1
  Ta  Ta110  1  0.30155491  0.29797868  0.37800610  1
  Ta  Ta111  1  0.19477473  0.59939939  0.75668143  1
  Ta  Ta112  1  0.00168768  0.60555758  0.25134962  1
  Ta  Ta113  1  0.12386715  0.32917457  0.85596961  1
  Ta  Ta114  1  0.80305309  0.60023984  0.25776645  1
  Ta  Ta115  1  0.70049793  0.50385558  0.37756275  1
  Ta  Ta116  1  0.19782584  -0.00346469  -0.00655709  1
  Ta  Ta117  1  0.70127558  0.29834250  0.64014319  1
  Ta  Ta118  1  0.49453788  0.08242376  0.38834377  1
  Ta  Ta119  1  0.31028398  0.91268869  0.36043148  1
  Ti  Ti120  1  0.30375864  0.50787381  0.15761515  1
  Ti  Ti121  1  0.30725536  0.69867378  0.37405846  1
  Ti  Ti122  1  0.89103047  0.50895321  0.87882092  1
  Ti  Ti123  1  0.09778666  0.90571467  0.38328116  1
  Ti  Ti124  1  0.10437417  0.09728379  0.86954569  1
  Ti  Ti125  1  0.30028816  0.30481910  0.61520757  1
  Ti  Ti126  1  0.31026434  0.30857178  0.85449440  1
  Ti  Ti127  1  0.40082830  0.40028304  0.49290303  1
  Ti  Ti128  1  0.59808172  0.19348121  0.73765611  1
  Ti  Ti129  1  -0.00466931  0.80054793  0.50271455  1
  Ti  Ti130  1  0.00407024  0.60148113  0.00234362  1
  Ti  Ti131  1  0.69841119  0.89411461  0.63753010  1
  Ti  Ti132  1  0.59659396  0.19307895  0.25715070  1
  Ti  Ti133  1  0.79487577  0.42374841  0.72332555  1
  Ti  Ti134  1  0.19517790  0.20340742  0.25274143  1
  Ti  Ti135  1  0.70365734  0.69267083  0.86660673  1
  Ti  Ti136  1  0.89856558  0.90120293  0.10979206  1
  Ti  Ti137  1  0.80598534  0.80095733  0.25161478  1
  Ti  Ti138  1  0.20122848  0.79152012  0.75655582  1
  Ti  Ti139  1  0.90176023  0.10338544  0.09795609  1
  Ti  Ti140  1  0.09960924  0.69931465  0.62146112  1
  Ti  Ti141  1  0.69163951  0.29733163  0.13852433  1
  Ti  Ti142  1  0.78704560  0.19649946  -0.02005022  1
  Ti  Ti143  1  0.57725785  0.39009598  0.03136553  1
  Ti  Ti144  1  -0.00104195  -0.00564776  -0.01150289  1
  Ti  Ti145  1  0.78814227  -0.00810397  0.76851616  1
  Ti  Ti146  1  0.90307245  0.90520508  0.37533126  1
  Ti  Ti147  1  0.90073184  0.69613787  0.88444978  1
  Ti  Ti148  1  0.59794551  -0.01356741  0.50783697  1
  Ti  Ti149  1  0.29879091  0.69561356  0.87790949  1
  Ti  Ti150  1  0.59604856  0.79318180  0.48834663  1
  Ti  Ti151  1  -0.00917279  0.40024985  0.50905554  1
  Ti  Ti152  1  0.20202266  0.59577943  -0.00522257  1
  Ti  Ti153  1  -0.00357634  0.61619546  0.49779019  1
  Ti  Ti154  1  0.09572648  0.30098661  0.38450558  1
  Ti  Ti155  1  0.90643892  0.50853053  0.12829750  1
  Ti  Ti156  1  0.00330869  0.60343351  0.74816526  1
  Ti  Ti157  1  0.30028347  0.50445993  0.60448246  1
  Ti  Ti158  1  0.20641790  0.40185012  0.49172835  1
  Ti  Ti159  1  0.59265301  0.59521732  0.27411927  1
  Mo  Mo160  1  0.69748777  0.88945146  0.86181206  1
  Mo  Mo161  1  0.68390837  0.49876114  0.15801361  1
  Mo  Mo162  1  0.50382521  0.70057024  0.60820049  1
  Mo  Mo163  1  0.69667842  0.10522774  0.86187851  1
  Mo  Mo164  1  0.51295908  0.89008722  0.61453041  1
  Mo  Mo165  1  0.29926231  0.50267735  0.38801006  1
  Mo  Mo166  1  0.78866682  0.20087579  0.75678726  1
  Mo  Mo167  1  0.21231912  0.40578349  0.72716466  1
  Mo  Mo168  1  0.39599145  0.59940098  0.27121803  1
  Mo  Mo169  1  0.09239501  0.70651770  0.37532273  1
  Mo  Mo170  1  0.00229996  -0.00641741  0.76558141  1
  Mo  Mo171  1  0.49439903  0.90498195  0.39142661  1
  Mo  Mo172  1  0.49702640  0.69828243  0.38398363  1
  Mo  Mo173  1  0.70414684  0.69864004  0.36949995  1
  Mo  Mo174  1  0.20275739  0.79365382  -0.01744030  1
  Mo  Mo175  1  0.79401495  0.79819511  0.75865680  1
  Mo  Mo176  1  0.91123911  0.50879825  0.60808078  1
  Mo  Mo177  1  0.09702081  0.90432884  0.09679013  1
  Mo  Mo178  1  0.28931797  0.89059665  0.64626165  1
  Mo  Mo179  1  0.49990142  0.89720689  0.10909745  1
  Mo  Mo180  1  0.89668827  0.30819266  0.64965514  1
  Mo  Mo181  1  0.20111023  0.60470131  0.48222505  1
  Mo  Mo182  1  0.70369371  0.50039857  0.60192157  1
  Mo  Mo183  1  0.69576827  0.09513855  0.64447781  1
  Mo  Mo184  1  0.91204644  0.30235488  0.37517647  1
  Mo  Mo185  1  0.39951886  0.39973578  0.28342165  1
  Mo  Mo186  1  0.91295929  0.70883486  0.61714780  1
  Mo  Mo187  1  0.29739281  0.09991485  0.63323786  1
  Mo  Mo188  1  0.59530293  0.39914384  0.71902117  1
  Mo  Mo189  1  0.39593881  -0.00223845  0.22998843  1
  Mo  Mo190  1  0.10187834  0.51082937  0.87076977  1
  Mo  Mo191  1  0.50037780  0.29608287  0.60653054  1
  Mo  Mo192  1  0.89955417  0.89969196  0.87071072  1
  Mo  Mo193  1  0.40036323  -0.00155058  0.51220721  1
  Mo  Mo194  1  0.40433655  0.39736693  0.01145987  1
  Mo  Mo195  1  0.50400190  0.29575067  0.15346378  1
  Mo  Mo196  1  0.60332866  0.60767459  0.47468664  1
  Mo  Mo197  1  0.49757302  0.49853932  0.37903005  1
  Mo  Mo198  1  0.70936356  0.50131028  0.86296226  1
  Mo  Mo199  1  0.40018464  0.60489856  0.48537631  1
