# generated using pymatgen
data_HfZrTaTiMo
_symmetry_space_group_name_H-M   'P 1'
_cell_length_a   15.93128224
_cell_length_b   15.93214493
_cell_length_c   15.20226029
_cell_angle_alpha   90.05405607
_cell_angle_beta   90.01839380
_cell_angle_gamma   89.87840389
_symmetry_Int_Tables_number   1
_chemical_formula_structural   HfZrTaTiMo
_chemical_formula_sum   'Hf40 Zr40 Ta40 Ti40 Mo40'
_cell_volume   3858.61946625
_cell_formula_units_Z   40
loop_
 _symmetry_equiv_pos_site_id
 _symmetry_equiv_pos_as_xyz
  1  'x, y, z'
loop_
 _atom_site_type_symbol
 _atom_site_label
 _atom_site_symmetry_multiplicity
 _atom_site_fract_x
 _atom_site_fract_y
 _atom_site_fract_z
 _atom_site_occupancy
  Hf  Hf0  1  0.09500524  0.10896022  0.36548538  1
  Hf  Hf1  1  0.91638919  0.88275951  0.88230231  1
  Hf  Hf2  1  0.39015759  0.79543946  0.00683872  1
  Hf  Hf3  1  0.80376786  0.59534204  0.50652049  1
  Hf  Hf4  1  0.09794018  0.30820309  0.62408419  1
  Hf  Hf5  1  0.59691993  0.40382481  -0.02876111  1
  Hf  Hf6  1  0.81583818  0.79217341  0.74007158  1
  Hf  Hf7  1  0.00971951  0.79945302  0.24656323  1
  Hf  Hf8  1  0.60328473  0.80065149  0.73821898  1
  Hf  Hf9  1  0.59636726  0.01042920  0.75602480  1
  Hf  Hf10  1  0.09803605  0.10030261  0.12472581  1
  Hf  Hf11  1  0.68945569  0.70784247  0.38583437  1
  Hf  Hf12  1  -0.00116349  0.60639879  0.73354832  1
  Hf  Hf13  1  0.79537180  0.20958468  0.49505519  1
  Hf  Hf14  1  0.40603994  0.39361969  -0.01975490  1
  Hf  Hf15  1  0.91007977  0.10051929  0.89922137  1
  Hf  Hf16  1  0.39191425  0.59461679  0.26905107  1
  Hf  Hf17  1  0.11118471  0.90811454  0.61919293  1
  Hf  Hf18  1  0.20820136  0.40202167  0.25399131  1
  Hf  Hf19  1  0.52229867  0.90520371  0.36413683  1
  Hf  Hf20  1  0.28685252  0.09167452  0.62240059  1
  Hf  Hf21  1  0.60018912  0.79634299  0.00764344  1
  Hf  Hf22  1  0.38971798  0.40786790  0.49402045  1
  Hf  Hf23  1  0.30246846  0.10249111  0.12291432  1
  Hf  Hf24  1  0.89567107  0.68516872  0.89179758  1
  Hf  Hf25  1  0.59715942  -0.00311308  0.00397652  1
  Hf  Hf26  1  0.40348274  0.58839704  -0.01239210  1
  Hf  Hf27  1  0.40316947  -0.01370773  0.50984184  1
  Hf  Hf28  1  0.08592999  0.50348670  0.35817508  1
  Hf  Hf29  1  0.39645331  0.79848616  0.51927988  1
  Hf  Hf30  1  0.81146526  0.59384495  0.73071001  1
  Hf  Hf31  1  0.20009852  0.60409706  0.24310839  1
  Hf  Hf32  1  0.49827028  0.89468407  0.87036089  1
  Hf  Hf33  1  0.61319797  0.58961153  0.00074491  1
  Hf  Hf34  1  0.50422253  0.48624583  0.13330184  1
  Hf  Hf35  1  0.29306219  0.30428546  0.63135545  1
  Hf  Hf36  1  0.79295933  0.79522907  0.00931763  1
  Hf  Hf37  1  0.31059436  0.30039033  0.12128599  1
  Hf  Hf38  1  -0.00265342  0.39384834  -0.00285032  1
  Hf  Hf39  1  0.49680025  0.09623794  0.38526729  1
  Zr  Zr40  1  0.60265382  0.39312117  0.50381117  1
  Zr  Zr41  1  0.71098872  0.91940456  0.63589135  1
  Zr  Zr42  1  0.49405879  0.68920296  0.13054284  1
  Zr  Zr43  1  0.79349757  0.19960310  0.24343275  1
  Zr  Zr44  1  0.59861096  0.20482776  0.24668454  1
  Zr  Zr45  1  0.00949467  -0.00538861  0.75752331  1
  Zr  Zr46  1  0.20147565  0.20857865  -0.00233436  1
  Zr  Zr47  1  0.69546296  0.31351004  0.11108026  1
  Zr  Zr48  1  0.89057103  0.49434497  0.13765242  1
  Zr  Zr49  1  0.79732609  0.42260989  -0.02304870  1
  Zr  Zr50  1  0.19909477  0.80078860  0.49024628  1
  Zr  Zr51  1  0.00659603  -0.00690580  0.48234042  1
  Zr  Zr52  1  0.19088705  0.80926578  0.00953848  1
  Zr  Zr53  1  0.80006514  -0.00088488  0.00694493  1
  Zr  Zr54  1  0.01066743  0.59397108  0.52156281  1
  Zr  Zr55  1  0.19331670  0.81198100  0.75467287  1
  Zr  Zr56  1  0.08406634  0.70834343  0.88059352  1
  Zr  Zr57  1  0.08078899  0.30578056  0.36592380  1
  Zr  Zr58  1  0.50789411  0.68983901  0.86137823  1
  Zr  Zr59  1  0.50474820  0.10259226  0.61511170  1
  Zr  Zr60  1  0.68744815  0.08948241  0.38147553  1
  Zr  Zr61  1  0.79962167  0.79871166  0.25588214  1
  Zr  Zr62  1  0.79526385  0.59864729  0.26388469  1
  Zr  Zr63  1  0.90413225  0.90516121  0.13099737  1
  Zr  Zr64  1  0.19338071  0.19424351  0.76151020  1
  Zr  Zr65  1  0.90541923  0.48653676  0.37450181  1
  Zr  Zr66  1  0.89212937  0.09426157  0.62171538  1
  Zr  Zr67  1  0.29495723  0.69775258  0.86600730  1
  Zr  Zr68  1  0.49138967  0.71178236  0.37919141  1
  Zr  Zr69  1  0.50087679  0.29091726  0.38767516  1
  Zr  Zr70  1  -0.00517984  0.20238975  0.76282428  1
  Zr  Zr71  1  0.89880037  0.10345087  0.36499803  1
  Zr  Zr72  1  0.20771369  0.59748991  0.49471303  1
  Zr  Zr73  1  0.32189622  0.88734028  0.35458648  1
  Zr  Zr74  1  0.09786545  0.10502780  0.61162352  1
  Zr  Zr75  1  0.20019031  0.59653135  0.00916995  1
  Zr  Zr76  1  0.39584211  -0.00535014  -0.00196167  1
  Zr  Zr77  1  0.79896435  0.80342955  0.49877549  1
  Zr  Zr78  1  0.40254379  0.19693282  0.75462451  1
  Zr  Zr79  1  0.70030446  0.10685101  0.88936185  1
  Ta  Ta80  1  0.69622002  0.90239033  0.13597134  1
  Ta  Ta81  1  0.30157889  0.89896828  0.14131636  1
  Ta  Ta82  1  0.29324273  0.69723549  0.63377914  1
  Ta  Ta83  1  0.80326137  0.40035343  0.75951794  1
  Ta  Ta84  1  0.49427661  0.11547673  0.11358227  1
  Ta  Ta85  1  0.79750905  0.20383890  0.76258706  1
  Ta  Ta86  1  0.20247260  -0.00027755  0.25932332  1
  Ta  Ta87  1  0.29542205  0.30573969  0.86893848  1
  Ta  Ta88  1  0.39070932  -0.00519546  0.75000096  1
  Ta  Ta89  1  0.09788593  0.30068078  0.13220491  1
  Ta  Ta90  1  0.20710094  0.20130252  0.25739034  1
  Ta  Ta91  1  0.60293793  0.20843287  0.75475018  1
  Ta  Ta92  1  0.20990713  0.00023896  0.47088554  1
  Ta  Ta93  1  0.69825298  0.49276143  0.62580630  1
  Ta  Ta94  1  0.70358339  0.69783644  0.86606492  1
  Ta  Ta95  1  0.90104996  0.69239874  0.12125514  1
  Ta  Ta96  1  0.59849200  0.59126619  0.26531307  1
  Ta  Ta97  1  0.91163092  0.89631031  0.61514621  1
  Ta  Ta98  1  -0.00390682  0.41126279  0.75243885  1
  Ta  Ta99  1  0.89670877  0.30322563  0.63560054  1
  Ta  Ta100  1  0.10055147  0.09291111  0.89866414  1
  Ta  Ta101  1  0.40183509  0.39949229  0.27047833  1
  Ta  Ta102  1  0.50003241  0.49849235  0.63100295  1
  Ta  Ta103  1  0.20367173  0.20590494  0.48158211  1
  Ta  Ta104  1  0.39612066  0.80411780  0.73833849  1
  Ta  Ta105  1  0.39696443  0.59542028  0.74102049  1
  Ta  Ta106  1  0.19304251  0.40451026  0.48997312  1
  Ta  Ta107  1  0.91638105  0.69526493  0.38181012  1
  Ta  Ta108  1  0.59611354  0.81714475  0.51733726  1
  Ta  Ta109  1  0.49923922  0.69479218  0.62585756  1
  Ta  Ta110  1  0.30805304  0.49553485  0.12410920  1
  Ta  Ta111  1  0.70639731  0.89403416  0.86935422  1
  Ta  Ta112  1  0.29216833  0.49593457  0.86039528  1
  Ta  Ta113  1  0.69844390  0.49489489  0.38891965  1
  Ta  Ta114  1  0.39653234  0.59774088  0.50347413  1
  Ta  Ta115  1  0.59352847  0.59730294  0.50355513  1
  Ta  Ta116  1  0.60253367  0.79558776  0.23796303  1
  Ta  Ta117  1  0.59999569  0.40079453  0.26859387  1
  Ta  Ta118  1  -0.00021743  0.58538511  0.01280587  1
  Ta  Ta119  1  0.90341634  0.89614013  0.37339604  1
  Ti  Ti120  1  0.58655190  0.21639196  -0.01585344  1
  Ti  Ti121  1  0.79439792  0.00162431  0.24845471  1
  Ti  Ti122  1  0.70356321  0.30140569  0.63982278  1
  Ti  Ti123  1  0.09825379  0.30380617  0.87708527  1
  Ti  Ti124  1  0.70445197  0.10495946  0.62874053  1
  Ti  Ti125  1  0.60929865  0.20355735  0.51062684  1
  Ti  Ti126  1  0.00468824  -0.00265344  0.25130986  1
  Ti  Ti127  1  0.79436573  -0.00510174  0.48867100  1
  Ti  Ti128  1  0.49783265  0.30191878  0.62884487  1
  Ti  Ti129  1  0.70303233  0.68487800  0.13090185  1
  Ti  Ti130  1  0.19737328  0.40772096  0.00173163  1
  Ti  Ti131  1  0.49553038  0.90178394  0.13566535  1
  Ti  Ti132  1  0.90314228  0.29682577  0.13147858  1
  Ti  Ti133  1  0.39404165  0.20275972  0.26264263  1
  Ti  Ti134  1  0.09870505  0.50154758  0.87023471  1
  Ti  Ti135  1  0.29828107  0.09651019  0.88172142  1
  Ti  Ti136  1  0.40200557  0.40150174  0.75405521  1
  Ti  Ti137  1  0.80983696  0.00439237  0.76582565  1
  Ti  Ti138  1  0.29084470  0.49379624  0.63693818  1
  Ti  Ti139  1  0.49350220  0.10597117  0.88463226  1
  Ti  Ti140  1  0.60185904  0.01039257  0.23050024  1
  Ti  Ti141  1  0.20570437  0.79330502  0.24843214  1
  Ti  Ti142  1  0.69522312  0.51734367  0.84770526  1
  Ti  Ti143  1  -0.00964821  0.21176914  0.50148595  1
  Ti  Ti144  1  0.20367113  -0.01109906  -0.00081990  1
  Ti  Ti145  1  0.69661923  0.69543458  0.62111296  1
  Ti  Ti146  1  0.78548910  0.39485496  0.25682601  1
  Ti  Ti147  1  0.09724636  0.70050824  0.37182845  1
  Ti  Ti148  1  0.80636473  0.39333802  0.50531078  1
  Ti  Ti149  1  0.90163422  0.30192352  0.35950629  1
  Ti  Ti150  1  0.38727194  0.20038426  0.50036035  1
  Ti  Ti151  1  0.09469518  0.69642196  0.12341762  1
  Ti  Ti152  1  0.59845108  0.39898258  0.75530556  1
  Ti  Ti153  1  0.49532440  0.29890528  0.12763107  1
  Ti  Ti154  1  0.69725055  0.11164349  0.10864094  1
  Ti  Ti155  1  0.18880945  0.59702921  0.73975107  1
  Ti  Ti156  1  0.01843988  -0.02412637  0.01047763  1
  Ti  Ti157  1  0.40472783  0.01146626  0.24607089  1
  Ti  Ti158  1  0.81168675  0.22507488  -0.01241462  1
  Ti  Ti159  1  0.90764996  0.10852928  0.11762078  1
  Mo  Mo160  1  0.90870857  0.50470534  0.87464423  1
  Mo  Mo161  1  0.50124692  0.50202554  0.38614609  1
  Mo  Mo162  1  0.11133249  0.90432857  0.14401419  1
  Mo  Mo163  1  0.19298378  0.40333798  0.75993055  1
  Mo  Mo164  1  0.79338716  0.60015673  0.00095707  1
  Mo  Mo165  1  0.00094702  0.60604484  0.23739116  1
  Mo  Mo166  1  -0.00514964  0.39532768  0.51532478  1
  Mo  Mo167  1  0.89987380  0.48504745  0.61785847  1
  Mo  Mo168  1  0.49894725  0.50056104  0.84679173  1
  Mo  Mo169  1  0.60688176  -0.00195618  0.51310132  1
  Mo  Mo170  1  0.29932786  0.69767669  0.13098096  1
  Mo  Mo171  1  0.70003676  0.90390547  0.35697862  1
  Mo  Mo172  1  0.10066291  0.49384427  0.12885784  1
  Mo  Mo173  1  0.29653837  0.29878192  0.37857877  1
  Mo  Mo174  1  0.49749939  0.29908069  0.85351076  1
  Mo  Mo175  1  0.10894602  0.49276479  0.63426712  1
  Mo  Mo176  1  0.00086853  0.79668262  0.72699821  1
  Mo  Mo177  1  0.00130825  0.79354734  0.02283933  1
  Mo  Mo178  1  0.29684949  0.90378488  0.63221950  1
  Mo  Mo179  1  0.90454243  0.70533060  0.60322735  1
  Mo  Mo180  1  0.00432760  0.79702497  0.49576215  1
  Mo  Mo181  1  0.29488378  0.49908130  0.37767734  1
  Mo  Mo182  1  0.69084258  0.49989433  0.14351732  1
  Mo  Mo183  1  0.90263193  0.30278235  0.86571925  1
  Mo  Mo184  1  0.10444159  0.89893537  0.36040010  1
  Mo  Mo185  1  0.40346323  0.20281813  -0.01365727  1
  Mo  Mo186  1  0.10337752  0.70639577  0.62782847  1
  Mo  Mo187  1  0.60549044  0.59901409  0.72767180  1
  Mo  Mo188  1  0.29840744  0.90502534  0.86792254  1
  Mo  Mo189  1  -0.00267687  0.39832334  0.22873449  1
  Mo  Mo190  1  0.30507757  0.09980818  0.37270441  1
  Mo  Mo191  1  -0.00236134  0.19842199  0.23034622  1
  Mo  Mo192  1  0.20381006  0.00352298  0.77220293  1
  Mo  Mo193  1  0.09820421  0.90490169  0.87722398  1
  Mo  Mo194  1  0.50137413  0.90008025  0.64010353  1
  Mo  Mo195  1  -0.00066688  0.20589783  0.00624189  1
  Mo  Mo196  1  0.70805374  0.30342257  0.37817037  1
  Mo  Mo197  1  0.40383946  0.79713040  0.23183943  1
  Mo  Mo198  1  0.69978501  0.30435655  0.86601490  1
  Mo  Mo199  1  0.29890183  0.69965479  0.37245926  1
