# generated using pymatgen
data_HfZrTaTiMo
_symmetry_space_group_name_H-M   'P 1'
_cell_length_a   15.93120731
_cell_length_b   15.93860438
_cell_length_c   15.20164022
_cell_angle_alpha   89.97110201
_cell_angle_beta   89.99617618
_cell_angle_gamma   89.86828215
_symmetry_Int_Tables_number   1
_chemical_formula_structural   HfZrTaTiMo
_chemical_formula_sum   'Hf40 Zr40 Ta40 Ti40 Mo40'
_cell_volume   3860.00818986
_cell_formula_units_Z   40
loop_
 _symmetry_equiv_pos_site_id
 _symmetry_equiv_pos_as_xyz
  1  'x, y, z'
loop_
 _atom_site_type_symbol
 _atom_site_label
 _atom_site_symmetry_multiplicity
 _atom_site_fract_x
 _atom_site_fract_y
 _atom_site_fract_z
 _atom_site_occupancy
  Hf  Hf0  1  0.10086579  0.30231385  0.14095550  1
  Hf  Hf1  1  0.70178466  0.89705489  0.12446120  1
  Hf  Hf2  1  -0.00590630  0.60189133  0.49781811  1
  Hf  Hf3  1  0.00604084  0.20108631  -0.00773303  1
  Hf  Hf4  1  0.11178541  0.70922120  0.37943431  1
  Hf  Hf5  1  0.20666747  0.57405071  -0.02337934  1
  Hf  Hf6  1  0.89970421  0.30923830  0.86803127  1
  Hf  Hf7  1  -0.00468945  0.40605985  0.49601074  1
  Hf  Hf8  1  0.60270342  0.19880000  -0.00200391  1
  Hf  Hf9  1  0.69368273  0.69463802  0.37474613  1
  Hf  Hf10  1  0.80818141  -0.00572701  0.25980929  1
  Hf  Hf11  1  0.10036693  0.48082080  0.84835271  1
  Hf  Hf12  1  0.00788027  0.59369641  0.26206364  1
  Hf  Hf13  1  0.58739637  0.79721414  0.23773448  1
  Hf  Hf14  1  0.60638139  0.60469331  0.00951188  1
  Hf  Hf15  1  -0.00262288  0.79938718  0.25138308  1
  Hf  Hf16  1  0.89888542  0.09956488  0.87129604  1
  Hf  Hf17  1  0.78138785  0.38914158  0.24035353  1
  Hf  Hf18  1  0.62224872  0.22488167  0.25440148  1
  Hf  Hf19  1  0.90266220  0.89500197  0.11008191  1
  Hf  Hf20  1  0.50365513  0.30921453  0.88315449  1
  Hf  Hf21  1  0.39335493  0.20463497  0.00636211  1
  Hf  Hf22  1  0.40568065  0.01312555  0.00574233  1
  Hf  Hf23  1  0.70869455  0.10100259  0.13173989  1
  Hf  Hf24  1  0.00368178  0.79943361  0.76862532  1
  Hf  Hf25  1  0.10452322  0.10154779  0.13759542  1
  Hf  Hf26  1  0.20203615  0.79398162  0.76849876  1
  Hf  Hf27  1  0.28291359  0.31810317  0.84949181  1
  Hf  Hf28  1  0.50267669  0.70333232  0.61799817  1
  Hf  Hf29  1  0.39892764  0.60232333  0.75589048  1
  Hf  Hf30  1  0.49774783  0.89114835  0.38700600  1
  Hf  Hf31  1  0.30535898  0.29988624  0.39021583  1
  Hf  Hf32  1  0.39376762  0.20594964  0.25442931  1
  Hf  Hf33  1  0.90954796  0.09854673  0.12337176  1
  Hf  Hf34  1  0.61785282  0.00115512  0.48709767  1
  Hf  Hf35  1  0.29410145  0.09031833  0.63461871  1
  Hf  Hf36  1  0.29530238  0.88028630  0.36171379  1
  Hf  Hf37  1  0.30056629  0.90588253  0.88316717  1
  Hf  Hf38  1  0.51019398  0.10222015  0.13809530  1
  Hf  Hf39  1  0.19976597  0.21352804  -0.00441044  1
  Zr  Zr40  1  0.18688337  0.40682586  0.27945171  1
  Zr  Zr41  1  0.38617075  0.00091561  0.49231994  1
  Zr  Zr42  1  0.00474270  0.40646017  0.00143099  1
  Zr  Zr43  1  0.80734387  0.58687441  0.00069676  1
  Zr  Zr44  1  0.79616396  0.19555823  0.50841714  1
  Zr  Zr45  1  0.00713761  0.80479906  0.50207123  1
  Zr  Zr46  1  0.49860372  0.11068325  0.37594670  1
  Zr  Zr47  1  0.70029174  0.70005903  0.63597638  1
  Zr  Zr48  1  0.79774665  -0.00187417  -0.01402848  1
  Zr  Zr49  1  0.40237718  0.80102373  0.75566574  1
  Zr  Zr50  1  0.19034012  -0.01123875  0.48116112  1
  Zr  Zr51  1  0.29699030  0.10644114  0.86470923  1
  Zr  Zr52  1  0.50187922  0.49790796  0.88258130  1
  Zr  Zr53  1  0.40764881  0.80141146  0.01337223  1
  Zr  Zr54  1  0.68910927  0.48221117  0.38741468  1
  Zr  Zr55  1  0.49581292  0.30100407  0.60233197  1
  Zr  Zr56  1  0.19926071  0.79040940  0.22933606  1
  Zr  Zr57  1  0.49653592  0.31547709  0.13043376  1
  Zr  Zr58  1  0.50646557  0.32346146  0.37835017  1
  Zr  Zr59  1  0.08774281  0.09341727  0.61695658  1
  Zr  Zr60  1  0.47871510  0.50958299  0.11725058  1
  Zr  Zr61  1  0.59664720  0.59500792  0.24110332  1
  Zr  Zr62  1  0.30549511  0.67300860  0.10963787  1
  Zr  Zr63  1  0.19761014  0.59800121  0.50076080  1
  Zr  Zr64  1  0.79715540  0.39110152  0.73040846  1
  Zr  Zr65  1  -0.00802623  0.19609427  0.74062780  1
  Zr  Zr66  1  0.36311509  0.40696327  -0.00289003  1
  Zr  Zr67  1  0.10536637  0.90373275  0.63911899  1
  Zr  Zr68  1  0.50421233  0.10069411  0.61170381  1
  Zr  Zr69  1  0.41500676  0.19915633  0.75730647  1
  Zr  Zr70  1  0.80136070  0.79961701  0.50099596  1
  Zr  Zr71  1  0.90676489  0.69838113  0.11735412  1
  Zr  Zr72  1  0.00990366  -0.00910466  0.26577130  1
  Zr  Zr73  1  0.70684011  0.91192867  0.63424887  1
  Zr  Zr74  1  0.89731460  0.69798770  0.64202271  1
  Zr  Zr75  1  0.30060173  0.29189798  0.61566441  1
  Zr  Zr76  1  0.39413913  0.60881432  0.26789523  1
  Zr  Zr77  1  0.19390472  0.78663750  -0.00844065  1
  Zr  Zr78  1  0.70159729  0.69652382  0.86764826  1
  Zr  Zr79  1  0.40233572  -0.00734273  0.24530287  1
  Ta  Ta80  1  0.59739464  0.39957402  0.73679072  1
  Ta  Ta81  1  0.29995468  0.49829466  0.62707314  1
  Ta  Ta82  1  0.50158675  0.90305050  0.61916341  1
  Ta  Ta83  1  0.19317276  0.40518587  0.50278797  1
  Ta  Ta84  1  0.90212637  0.50128823  0.84970432  1
  Ta  Ta85  1  0.79446677  0.19867284  0.73813063  1
  Ta  Ta86  1  -0.00463162  0.20519972  0.26907362  1
  Ta  Ta87  1  0.79979725  0.59375123  0.49905499  1
  Ta  Ta88  1  0.90535766  0.10018021  0.39004651  1
  Ta  Ta89  1  -0.00981484  0.39515066  0.26657538  1
  Ta  Ta90  1  0.50980985  0.90226960  0.88908611  1
  Ta  Ta91  1  0.09828959  0.29601286  0.61290421  1
  Ta  Ta92  1  0.62107647  0.40771202  0.01787214  1
  Ta  Ta93  1  0.60477888  -0.00476862  0.25838754  1
  Ta  Ta94  1  0.50484677  0.70477229  0.88623903  1
  Ta  Ta95  1  0.90652792  0.49436110  0.13876559  1
  Ta  Ta96  1  0.80024003  0.59709886  0.24940170  1
  Ta  Ta97  1  0.39296792  0.60638311  0.50290725  1
  Ta  Ta98  1  0.60737969  0.20799986  0.74959460  1
  Ta  Ta99  1  0.19493394  0.00921043  -0.00176885  1
  Ta  Ta100  1  0.70337916  0.49231938  0.86165044  1
  Ta  Ta101  1  0.49953407  0.50542434  0.39258287  1
  Ta  Ta102  1  0.80716446  0.81921239  0.76812080  1
  Ta  Ta103  1  0.40502082  0.79590660  0.22868004  1
  Ta  Ta104  1  0.59650713  0.00592036  0.76206373  1
  Ta  Ta105  1  0.49422677  0.70600324  0.39446884  1
  Ta  Ta106  1  0.80154307  0.20690821  -0.00138883  1
  Ta  Ta107  1  0.59811559  0.81053601  0.75733734  1
  Ta  Ta108  1  0.69671013  0.50682743  0.62307230  1
  Ta  Ta109  1  0.41182746  -0.00305593  0.75786571  1
  Ta  Ta110  1  0.10200373  0.69606852  0.63632511  1
  Ta  Ta111  1  0.09593575  0.90335173  0.10699497  1
  Ta  Ta112  1  0.88722495  0.49661483  0.37134356  1
  Ta  Ta113  1  0.70173787  0.30493027  0.87710297  1
  Ta  Ta114  1  0.90306932  0.29704923  0.12750248  1
  Ta  Ta115  1  0.70098868  0.10598344  0.86471508  1
  Ta  Ta116  1  0.71147532  0.70683292  0.12808967  1
  Ta  Ta117  1  0.20318600  0.60042263  0.75351265  1
  Ta  Ta118  1  0.29060214  0.91062406  0.12159627  1
  Ta  Ta119  1  0.90232969  0.91403021  0.62478635  1
  Ti  Ti120  1  0.09499872  0.29077070  0.39110223  1
  Ti  Ti121  1  0.09320241  0.50046923  0.63426602  1
  Ti  Ti122  1  0.90113888  0.90130761  0.39071574  1
  Ti  Ti123  1  0.50244194  0.50560186  0.61046109  1
  Ti  Ti124  1  0.30167009  0.90185139  0.63654594  1
  Ti  Ti125  1  0.69475774  0.30545757  0.60805518  1
  Ti  Ti126  1  0.88496347  0.30181880  0.38754545  1
  Ti  Ti127  1  0.89465523  0.08569970  0.61506708  1
  Ti  Ti128  1  0.00295219  0.79668929  -0.02039186  1
  Ti  Ti129  1  0.20050441  0.59734225  0.26604016  1
  Ti  Ti130  1  0.28724136  0.48877995  0.14404832  1
  Ti  Ti131  1  0.59572641  0.59701899  0.75232776  1
  Ti  Ti132  1  0.89022316  0.70165317  0.36885853  1
  Ti  Ti133  1  0.28755437  0.30671903  0.14631801  1
  Ti  Ti134  1  0.10279661  0.49878574  0.12815203  1
  Ti  Ti135  1  0.40622690  0.40543589  0.73838206  1
  Ti  Ti136  1  0.09858434  0.68547225  0.11640236  1
  Ti  Ti137  1  0.09621075  0.30145770  0.85025472  1
  Ti  Ti138  1  0.10158739  0.10118753  0.37234823  1
  Ti  Ti139  1  0.20472312  0.18702844  0.49193678  1
  Ti  Ti140  1  0.10138408  0.09180170  0.86589767  1
  Ti  Ti141  1  0.89794813  0.50399162  0.63448229  1
  Ti  Ti142  1  0.80416169  0.40150227  0.00681077  1
  Ti  Ti143  1  0.19029303  0.19604066  0.74198457  1
  Ti  Ti144  1  0.70172287  0.09618813  0.63302822  1
  Ti  Ti145  1  0.21053041  0.79856375  0.50995779  1
  Ti  Ti146  1  0.29939622  0.70274928  0.62559365  1
  Ti  Ti147  1  0.79752699  0.79891868  -0.01852726  1
  Ti  Ti148  1  0.90528947  0.29617666  0.61203500  1
  Ti  Ti149  1  0.00768836  0.59603742  -0.01588168  1
  Ti  Ti150  1  0.60363089  0.00115759  -0.00620567  1
  Ti  Ti151  1  0.90065780  0.68935749  0.86846703  1
  Ti  Ti152  1  0.30767524  0.49618439  0.38680648  1
  Ti  Ti153  1  0.80970426  0.20357211  0.25367348  1
  Ti  Ti154  1  0.60714169  0.20392144  0.48862950  1
  Ti  Ti155  1  0.28715796  0.10473507  0.14199486  1
  Ti  Ti156  1  0.60542857  0.80272392  0.50548370  1
  Ti  Ti157  1  0.70684815  0.88809196  0.36549985  1
  Ti  Ti158  1  -0.00625487  -0.01202227  0.76671505  1
  Ti  Ti159  1  0.71053070  0.10357041  0.36799799  1
  Mo  Mo160  1  0.50779083  0.10185566  0.87667955  1
  Mo  Mo161  1  0.19433543  0.39651989  0.71600335  1
  Mo  Mo162  1  0.19466187  0.19947737  0.26880967  1
  Mo  Mo163  1  0.09553745  0.68501216  0.87029644  1
  Mo  Mo164  1  -0.00262870  -0.00085128  0.49027777  1
  Mo  Mo165  1  0.79711742  0.59583075  0.75216783  1
  Mo  Mo166  1  0.09197398  0.50033161  0.38346806  1
  Mo  Mo167  1  0.39517334  0.41375803  0.50698339  1
  Mo  Mo168  1  0.71004927  0.29864500  0.10726840  1
  Mo  Mo169  1  0.69665756  0.90282721  0.87109056  1
  Mo  Mo170  1  0.59805965  0.60446535  0.50263381  1
  Mo  Mo171  1  0.39806854  0.60116520  -0.02411702  1
  Mo  Mo172  1  0.90142149  0.89650559  0.88779909  1
  Mo  Mo173  1  0.39217021  0.80072738  0.51741343  1
  Mo  Mo174  1  0.20048833  -0.00256926  0.76594315  1
  Mo  Mo175  1  0.50626314  0.90640071  0.11363096  1
  Mo  Mo176  1  0.60882448  0.80261218  0.00366497  1
  Mo  Mo177  1  0.70419313  0.30031528  0.39248984  1
  Mo  Mo178  1  0.80319739  0.00523358  0.75692708  1
  Mo  Mo179  1  0.10165149  0.89290570  0.37418697  1
  Mo  Mo180  1  0.80285758  0.40457349  0.51428842  1
  Mo  Mo181  1  0.59620585  0.40781836  0.23284105  1
  Mo  Mo182  1  0.30514504  0.70177302  0.38301047  1
  Mo  Mo183  1  -0.00008776  0.19995212  0.49102706  1
  Mo  Mo184  1  0.19246661  0.39534774  0.00584750  1
  Mo  Mo185  1  0.70918026  0.50310676  0.12934261  1
  Mo  Mo186  1  0.30471092  0.69375313  0.88119280  1
  Mo  Mo187  1  0.39328954  0.41063448  0.25804938  1
  Mo  Mo188  1  0.80044150  0.79570557  0.25907339  1
  Mo  Mo189  1  0.28826055  0.09986869  0.35786716  1
  Mo  Mo190  1  0.80074301  -0.00231223  0.48599525  1
  Mo  Mo191  1  0.50589576  0.70194574  0.10943730  1
  Mo  Mo192  1  0.19920255  -0.00370363  0.24672603  1
  Mo  Mo193  1  0.39435328  0.19289557  0.48555542  1
  Mo  Mo194  1  0.09932888  0.90661043  0.88722240  1
  Mo  Mo195  1  -0.00381363  0.39527050  0.72296563  1
  Mo  Mo196  1  0.60036356  0.40653345  0.51888710  1
  Mo  Mo197  1  0.00140456  0.59870216  0.75032188  1
  Mo  Mo198  1  0.00772323  0.00065718  -0.00898903  1
  Mo  Mo199  1  0.29879463  0.49341915  0.84281019  1
