# generated using pymatgen
data_HfZrTaTiMo
_symmetry_space_group_name_H-M   'P 1'
_cell_length_a   15.93364043
_cell_length_b   15.93606737
_cell_length_c   15.19203574
_cell_angle_alpha   89.98371411
_cell_angle_beta   89.94851134
_cell_angle_gamma   89.92502515
_symmetry_Int_Tables_number   1
_chemical_formula_structural   HfZrTaTiMo
_chemical_formula_sum   'Hf40 Zr40 Ta40 Ti40 Mo40'
_cell_volume   3857.55012630
_cell_formula_units_Z   40
loop_
 _symmetry_equiv_pos_site_id
 _symmetry_equiv_pos_as_xyz
  1  'x, y, z'
loop_
 _atom_site_type_symbol
 _atom_site_label
 _atom_site_symmetry_multiplicity
 _atom_site_fract_x
 _atom_site_fract_y
 _atom_site_fract_z
 _atom_site_occupancy
  Hf  Hf0  1  0.60391736  0.20724470  -0.00094727  1
  Hf  Hf1  1  0.00576794  -0.00369082  0.48916151  1
  Hf  Hf2  1  0.00683291  0.40333092  0.49743895  1
  Hf  Hf3  1  0.79444449  0.60114893  0.72979543  1
  Hf  Hf4  1  0.20098687  0.79045078  0.24267633  1
  Hf  Hf5  1  0.40308551  0.79459820  0.00260957  1
  Hf  Hf6  1  0.00311969  0.20341661  -0.00079320  1
  Hf  Hf7  1  0.29694165  0.90683496  0.12613397  1
  Hf  Hf8  1  0.70306899  0.31280189  0.87084154  1
  Hf  Hf9  1  0.40179041  -0.00476852  0.75931004  1
  Hf  Hf10  1  0.30330664  0.08923058  0.61366000  1
  Hf  Hf11  1  0.59277738  0.19592207  0.26871724  1
  Hf  Hf12  1  0.50495302  0.89780549  0.12873960  1
  Hf  Hf13  1  0.48963123  0.31231015  0.61956833  1
  Hf  Hf14  1  0.50155302  0.31235573  0.86717819  1
  Hf  Hf15  1  0.90137627  0.30754410  0.87277684  1
  Hf  Hf16  1  0.10390107  0.70436838  0.64097752  1
  Hf  Hf17  1  -0.00162861  0.41326837  0.24694419  1
  Hf  Hf18  1  0.59658766  0.00240060  0.26484017  1
  Hf  Hf19  1  0.09588709  0.10280535  0.62064126  1
  Hf  Hf20  1  0.59596904  0.61026525  0.75973741  1
  Hf  Hf21  1  0.80327387  0.20732373  0.73987429  1
  Hf  Hf22  1  -0.00955403  0.80277497  0.76562249  1
  Hf  Hf23  1  0.18029667  0.57344905  0.75403503  1
  Hf  Hf24  1  0.40335720  0.18941329  0.74932993  1
  Hf  Hf25  1  0.40419510  0.78328337  0.24870739  1
  Hf  Hf26  1  0.79862875  0.40871197  0.72034726  1
  Hf  Hf27  1  0.19303828  0.19561969  0.75364598  1
  Hf  Hf28  1  0.90782589  0.10762458  0.61226051  1
  Hf  Hf29  1  0.69824769  0.50561169  0.12756288  1
  Hf  Hf30  1  0.81022254  -0.00178876  0.75075059  1
  Hf  Hf31  1  0.29950561  0.89762033  0.37630798  1
  Hf  Hf32  1  0.11309841  0.51749560  0.37290124  1
  Hf  Hf33  1  0.10070776  0.89523323  0.35587234  1
  Hf  Hf34  1  0.89008810  0.49968100  0.89104994  1
  Hf  Hf35  1  0.81053264  0.79001912  0.50332655  1
  Hf  Hf36  1  0.90252103  0.51235442  0.37982423  1
  Hf  Hf37  1  0.59219645  -0.00072476  0.75969020  1
  Hf  Hf38  1  0.29026697  0.30809752  0.36671572  1
  Hf  Hf39  1  0.39898888  0.00648674  0.25964382  1
  Zr  Zr40  1  0.79165547  0.39903625  0.50658072  1
  Zr  Zr41  1  0.29346834  0.89223765  0.86933851  1
  Zr  Zr42  1  0.09563991  0.70325166  0.11950401  1
  Zr  Zr43  1  0.30051352  0.69112741  0.86817518  1
  Zr  Zr44  1  0.29857957  0.30136550  0.62676653  1
  Zr  Zr45  1  0.71099707  0.89998374  0.13048453  1
  Zr  Zr46  1  0.10485080  0.69658284  0.88615967  1
  Zr  Zr47  1  0.70333833  0.29180624  0.14365580  1
  Zr  Zr48  1  0.29688058  0.30394813  0.86366824  1
  Zr  Zr49  1  0.19277368  0.78876754  0.49603571  1
  Zr  Zr50  1  0.60177014  0.20320852  0.74006068  1
  Zr  Zr51  1  0.31781386  0.49785423  0.64235177  1
  Zr  Zr52  1  0.39174199  0.20329339  0.00343887  1
  Zr  Zr53  1  0.39919554  0.39675208  0.02031732  1
  Zr  Zr54  1  0.80817897  -0.00927309  0.49870219  1
  Zr  Zr55  1  0.70682809  0.09836548  0.12955363  1
  Zr  Zr56  1  0.81235974  0.59796776  0.23780221  1
  Zr  Zr57  1  -0.00548830  0.81624568  -0.00204149  1
  Zr  Zr58  1  -0.01489866  0.59755778  0.74926494  1
  Zr  Zr59  1  0.60209949  -0.00384935  -0.00995502  1
  Zr  Zr60  1  0.50449360  0.68413238  0.61438087  1
  Zr  Zr61  1  0.29548964  0.49187825  0.87762636  1
  Zr  Zr62  1  0.39412252  0.19686335  0.25643725  1
  Zr  Zr63  1  0.19230210  0.20428829  0.49287398  1
  Zr  Zr64  1  0.69872198  0.50133028  0.88947105  1
  Zr  Zr65  1  -0.00097523  0.79792481  0.49500797  1
  Zr  Zr66  1  0.90248393  0.10378264  0.12776890  1
  Zr  Zr67  1  0.58882179  0.40834411  0.25777428  1
  Zr  Zr68  1  0.69132327  0.89200338  0.62975584  1
  Zr  Zr69  1  0.70707299  0.89293171  0.86980097  1
  Zr  Zr70  1  0.30628603  0.69578820  0.64105806  1
  Zr  Zr71  1  0.60626934  0.78913994  0.48364471  1
  Zr  Zr72  1  0.49387930  0.09817774  0.11511044  1
  Zr  Zr73  1  0.70792109  0.89893098  0.36765671  1
  Zr  Zr74  1  0.49521828  0.89373049  0.61634657  1
  Zr  Zr75  1  0.69974337  0.09846039  0.61165786  1
  Zr  Zr76  1  0.10610224  0.29432035  0.13646137  1
  Zr  Zr77  1  0.00558425  0.41088384  0.73429274  1
  Zr  Zr78  1  0.29488289  0.67105240  0.38157480  1
  Zr  Zr79  1  0.60432086  0.21454621  0.49667883  1
  Ta  Ta80  1  0.20572647  0.59566637  0.22937056  1
  Ta  Ta81  1  0.70697057  0.69429736  0.89262731  1
  Ta  Ta82  1  0.80458296  0.20319878  -0.00593864  1
  Ta  Ta83  1  0.39758417  0.78952457  0.49179393  1
  Ta  Ta84  1  0.40160116  0.59571546  0.22803666  1
  Ta  Ta85  1  0.00069565  0.61154179  0.50868960  1
  Ta  Ta86  1  0.69849471  0.70556549  0.12050991  1
  Ta  Ta87  1  0.20281145  0.41309392  0.50370597  1
  Ta  Ta88  1  0.39401310  0.41087646  0.24762332  1
  Ta  Ta89  1  0.00515841  0.00360495  0.24772052  1
  Ta  Ta90  1  0.19719578  -0.00947017  0.50188482  1
  Ta  Ta91  1  0.49687927  0.50243656  0.88482063  1
  Ta  Ta92  1  -0.00454535  0.59235597  0.00855421  1
  Ta  Ta93  1  0.10702724  0.10034147  0.12532500  1
  Ta  Ta94  1  0.49610173  0.89938575  0.38382004  1
  Ta  Ta95  1  0.59836060  0.79168849  0.25517983  1
  Ta  Ta96  1  0.80406771  0.40043857  0.25179969  1
  Ta  Ta97  1  0.90150691  0.29660582  0.37432106  1
  Ta  Ta98  1  0.59875589  0.41613604  0.72916531  1
  Ta  Ta99  1  0.10419750  0.90288412  0.64012256  1
  Ta  Ta100  1  0.58817283  0.60913054  0.24880995  1
  Ta  Ta101  1  0.81612752  -0.00317120  -0.00808266  1
  Ta  Ta102  1  0.49862912  0.08933957  0.60245681  1
  Ta  Ta103  1  0.90517645  0.89524631  0.35505874  1
  Ta  Ta104  1  0.39778741  0.59963961  0.01292046  1
  Ta  Ta105  1  0.79992441  0.78703289  0.74554083  1
  Ta  Ta106  1  0.10353347  0.90797610  0.86633379  1
  Ta  Ta107  1  0.29827771  0.88984283  0.62932815  1
  Ta  Ta108  1  0.59770184  0.40112855  0.01658983  1
  Ta  Ta109  1  0.70839901  0.69015619  0.36305043  1
  Ta  Ta110  1  0.80212613  0.60792784  0.50672629  1
  Ta  Ta111  1  0.29024378  0.09569868  0.88724530  1
  Ta  Ta112  1  0.69861296  0.50522387  0.37310261  1
  Ta  Ta113  1  0.70948754  0.10485356  0.87611571  1
  Ta  Ta114  1  0.80392009  0.39514957  0.02414658  1
  Ta  Ta115  1  0.59809709  0.79604462  -0.00779181  1
  Ta  Ta116  1  0.70851068  0.10491721  0.38466300  1
  Ta  Ta117  1  0.59280174  0.41011012  0.49438041  1
  Ta  Ta118  1  0.90510320  0.10227036  0.87620339  1
  Ta  Ta119  1  0.10153423  0.31209651  0.87369348  1
  Ti  Ti120  1  0.00285824  0.00680445  0.75729096  1
  Ti  Ti121  1  0.39736770  -0.00604772  -0.01013824  1
  Ti  Ti122  1  0.19004957  -0.00329662  0.00468199  1
  Ti  Ti123  1  0.29085946  0.49395814  0.12086070  1
  Ti  Ti124  1  0.28503644  0.29486856  0.14165500  1
  Ti  Ti125  1  0.42891989  0.78974367  0.76718695  1
  Ti  Ti126  1  0.10157997  0.50029578  0.12068498  1
  Ti  Ti127  1  0.90957708  0.89851500  0.63261458  1
  Ti  Ti128  1  0.20078180  0.00175684  0.74871017  1
  Ti  Ti129  1  0.49852160  0.10280006  0.88461720  1
  Ti  Ti130  1  0.19285887  0.39410297  0.00612812  1
  Ti  Ti131  1  0.89993884  0.70093911  0.11935103  1
  Ti  Ti132  1  0.89859945  0.29403368  0.14205866  1
  Ti  Ti133  1  0.59107245  0.60320299  0.01158325  1
  Ti  Ti134  1  0.19860921  0.80463970  0.00947987  1
  Ti  Ti135  1  0.00286318  0.19541146  0.25798326  1
  Ti  Ti136  1  0.48728788  0.51750123  0.38066215  1
  Ti  Ti137  1  0.90257579  0.10819706  0.38021387  1
  Ti  Ti138  1  0.10120519  0.10047660  0.88338829  1
  Ti  Ti139  1  0.10099968  0.30454227  0.36280913  1
  Ti  Ti140  1  0.28647565  0.10701806  0.11537812  1
  Ti  Ti141  1  0.20058659  0.01008618  0.24816120  1
  Ti  Ti142  1  0.00130363  0.20338495  0.75587178  1
  Ti  Ti143  1  0.67828807  0.52036262  0.60246619  1
  Ti  Ti144  1  0.49008669  0.30768997  0.37782672  1
  Ti  Ti145  1  -0.00284480  0.39844467  0.01339364  1
  Ti  Ti146  1  0.39448395  0.41363613  0.48633412  1
  Ti  Ti147  1  0.90681198  0.90070743  0.14055830  1
  Ti  Ti148  1  0.49870077  0.29864934  0.13731641  1
  Ti  Ti149  1  0.40096326  0.19718530  0.49045405  1
  Ti  Ti150  1  0.88935471  0.69655337  0.88909768  1
  Ti  Ti151  1  0.80547429  0.80607107  0.00155394  1
  Ti  Ti152  1  0.90736595  0.29137705  0.60461419  1
  Ti  Ti153  1  0.29597352  0.09556913  0.38713109  1
  Ti  Ti154  1  0.09966878  0.30171919  0.62494050  1
  Ti  Ti155  1  0.10299751  0.10247633  0.37123835  1
  Ti  Ti156  1  0.80693555  0.79236290  0.24926027  1
  Ti  Ti157  1  0.70852781  0.30293210  0.37112190  1
  Ti  Ti158  1  0.80916549  0.00914172  0.25825034  1
  Ti  Ti159  1  0.00276963  -0.00234641  0.00311562  1
  Mo  Mo160  1  0.50539480  0.69189335  0.89375177  1
  Mo  Mo161  1  0.19884166  0.59489121  0.51580664  1
  Mo  Mo162  1  0.10327692  0.50275976  0.60679305  1
  Mo  Mo163  1  0.90566012  0.70130112  0.35893424  1
  Mo  Mo164  1  0.50027274  0.89465449  0.87821828  1
  Mo  Mo165  1  0.90202912  0.90679691  0.86844540  1
  Mo  Mo166  1  0.90170538  0.50428713  0.60154039  1
  Mo  Mo167  1  0.41374148  0.40449827  0.75528255  1
  Mo  Mo168  1  0.80537509  0.19886095  0.27161243  1
  Mo  Mo169  1  0.69897806  0.69952208  0.62033141  1
  Mo  Mo170  1  0.90332972  0.49448285  0.11818658  1
  Mo  Mo171  1  0.00584296  0.60475861  0.23293728  1
  Mo  Mo172  1  0.30077535  0.49646460  0.36437682  1
  Mo  Mo173  1  0.69388478  0.31142984  0.62442042  1
  Mo  Mo174  1  0.00378217  0.20441635  0.48085750  1
  Mo  Mo175  1  0.19940064  0.40451209  0.24386360  1
  Mo  Mo176  1  0.19024241  0.39393372  0.73912569  1
  Mo  Mo177  1  0.39249419  -0.00813094  0.49371997  1
  Mo  Mo178  1  0.08915884  0.68930476  0.35479751  1
  Mo  Mo179  1  0.60161905  0.59907657  0.47428136  1
  Mo  Mo180  1  0.80075584  0.60700536  0.01529186  1
  Mo  Mo181  1  0.40984123  0.59777390  0.77212419  1
  Mo  Mo182  1  0.49858595  0.09744252  0.39763369  1
  Mo  Mo183  1  0.60525517  0.79228725  0.76931000  1
  Mo  Mo184  1  0.09344775  0.48983517  0.90221261  1
  Mo  Mo185  1  0.19403676  0.19808494  -0.01167213  1
  Mo  Mo186  1  0.59626688  0.00054747  0.48574739  1
  Mo  Mo187  1  0.29721470  0.69473151  0.11485157  1
  Mo  Mo188  1  0.49950818  0.50317543  0.61060986  1
  Mo  Mo189  1  0.49779665  0.49973126  0.11924405  1
  Mo  Mo190  1  -0.00662161  0.79893315  0.24282693  1
  Mo  Mo191  1  0.39802163  0.59454602  0.49839942  1
  Mo  Mo192  1  0.10101127  0.91147916  0.13241698  1
  Mo  Mo193  1  0.49754890  0.69626056  0.37753063  1
  Mo  Mo194  1  0.90067498  0.70565792  0.63030117  1
  Mo  Mo195  1  0.19709321  0.18988860  0.26292080  1
  Mo  Mo196  1  0.80394731  0.20513559  0.49301962  1
  Mo  Mo197  1  0.50565622  0.69928043  0.11719408  1
  Mo  Mo198  1  0.19792361  0.58927180  0.01035329  1
  Mo  Mo199  1  0.19615561  0.80458075  0.75015176  1
