# generated using pymatgen
data_HfZrTaTiMo
_symmetry_space_group_name_H-M   'P 1'
_cell_length_a   15.93590366
_cell_length_b   15.91746832
_cell_length_c   15.21872904
_cell_angle_alpha   89.98336199
_cell_angle_beta   90.02308165
_cell_angle_gamma   90.15250972
_symmetry_Int_Tables_number   1
_chemical_formula_structural   HfZrTaTiMo
_chemical_formula_sum   'Hf40 Zr40 Ta40 Ti40 Mo40'
_cell_volume   3860.35711632
_cell_formula_units_Z   40
loop_
 _symmetry_equiv_pos_site_id
 _symmetry_equiv_pos_as_xyz
  1  'x, y, z'
loop_
 _atom_site_type_symbol
 _atom_site_label
 _atom_site_symmetry_multiplicity
 _atom_site_fract_x
 _atom_site_fract_y
 _atom_site_fract_z
 _atom_site_occupancy
  Hf  Hf0  1  0.79907070  0.40553763  0.00205640  1
  Hf  Hf1  1  0.30483490  0.10886048  0.10596774  1
  Hf  Hf2  1  0.81075601  0.80286587  0.49792057  1
  Hf  Hf3  1  0.30119089  0.69839613  0.11803085  1
  Hf  Hf4  1  0.69077177  0.29384906  0.13008566  1
  Hf  Hf5  1  -0.00464187  0.19666626  0.49822641  1
  Hf  Hf6  1  0.19439315  0.60003806  -0.00489872  1
  Hf  Hf7  1  0.88415862  0.49580921  0.35885150  1
  Hf  Hf8  1  0.11120400  0.90596024  0.36496991  1
  Hf  Hf9  1  0.70788452  0.29524844  0.61660552  1
  Hf  Hf10  1  0.37847775  0.39625045  0.51050816  1
  Hf  Hf11  1  -0.00197202  0.40787462  -0.00470809  1
  Hf  Hf12  1  0.60874326  0.78689691  0.26079906  1
  Hf  Hf13  1  0.59885525  0.40361805  0.49249068  1
  Hf  Hf14  1  0.60335278  0.39923364  0.27413800  1
  Hf  Hf15  1  0.20633596  0.21407649  0.23569423  1
  Hf  Hf16  1  0.51142218  0.89896297  0.87122146  1
  Hf  Hf17  1  0.40501803  0.79311676  -0.01049205  1
  Hf  Hf18  1  0.30420649  0.89863738  0.11322397  1
  Hf  Hf19  1  0.09002430  0.09724864  0.35636896  1
  Hf  Hf20  1  -0.00120079  0.20207404  0.00113810  1
  Hf  Hf21  1  0.40695073  0.00143693  -0.01112098  1
  Hf  Hf22  1  0.60305403  0.20046180  0.49021994  1
  Hf  Hf23  1  0.49821714  0.89002827  0.62814524  1
  Hf  Hf24  1  0.80538023  -0.00187811  0.01340222  1
  Hf  Hf25  1  0.39975864  0.20506969  0.76275489  1
  Hf  Hf26  1  0.00404623  0.40341861  0.48704419  1
  Hf  Hf27  1  0.49817150  0.10167881  0.62524941  1
  Hf  Hf28  1  0.49983314  0.89148834  0.38263914  1
  Hf  Hf29  1  0.00097414  0.59660975  0.50299109  1
  Hf  Hf30  1  0.69108183  0.29382811  0.87416738  1
  Hf  Hf31  1  0.39845164  0.00103945  0.75975545  1
  Hf  Hf32  1  -0.00417579  0.22421317  0.77088122  1
  Hf  Hf33  1  0.69802832  0.50066777  0.61782910  1
  Hf  Hf34  1  0.70747242  0.88544930  0.13186152  1
  Hf  Hf35  1  0.20474304  0.80129552  0.50347438  1
  Hf  Hf36  1  0.27144800  0.49088535  0.36128238  1
  Hf  Hf37  1  0.01111803  0.79816047  0.49766736  1
  Hf  Hf38  1  0.89963958  0.90336882  0.63825189  1
  Hf  Hf39  1  0.00502580  0.40209482  0.24981821  1
  Zr  Zr40  1  0.51019716  0.10608900  0.11206703  1
  Zr  Zr41  1  0.50037081  0.69741679  0.61991438  1
  Zr  Zr42  1  0.10856079  0.89316129  0.64347346  1
  Zr  Zr43  1  0.88967122  0.69915238  0.13893691  1
  Zr  Zr44  1  0.71165558  0.89886494  0.37748667  1
  Zr  Zr45  1  0.00843631  0.00197636  0.75432451  1
  Zr  Zr46  1  0.90191945  0.70221588  0.36527038  1
  Zr  Zr47  1  0.20338012  0.40306036  -0.00650652  1
  Zr  Zr48  1  0.09488836  0.30433233  0.63420241  1
  Zr  Zr49  1  0.49850092  0.69186162  0.86427700  1
  Zr  Zr50  1  0.90530243  0.50498592  0.86402431  1
  Zr  Zr51  1  0.59682162  0.19649352  0.27744384  1
  Zr  Zr52  1  0.80102315  0.19871963  0.00580234  1
  Zr  Zr53  1  0.28576840  0.08573427  0.36970788  1
  Zr  Zr54  1  0.80090122  0.60623107  0.74169421  1
  Zr  Zr55  1  0.29511744  0.70126352  0.36724944  1
  Zr  Zr56  1  0.47832101  0.50047627  0.37886501  1
  Zr  Zr57  1  0.40701689  -0.00349277  0.24651724  1
  Zr  Zr58  1  0.70711122  0.90426086  0.86982871  1
  Zr  Zr59  1  0.89421627  0.28341432  0.36303239  1
  Zr  Zr60  1  0.19627861  0.20413618  0.49616787  1
  Zr  Zr61  1  0.89503542  0.09084569  0.86732658  1
  Zr  Zr62  1  0.69569952  0.09586062  0.87021206  1
  Zr  Zr63  1  0.39684269  0.19560124  0.26568720  1
  Zr  Zr64  1  0.90731373  0.89179990  0.12337718  1
  Zr  Zr65  1  0.59219237  0.60555348  0.27450300  1
  Zr  Zr66  1  0.39115660  0.19503633  0.49967914  1
  Zr  Zr67  1  0.38759139  -0.00701783  0.50486623  1
  Zr  Zr68  1  0.70417615  0.50479868  0.14116407  1
  Zr  Zr69  1  0.30911652  0.50116522  0.86357106  1
  Zr  Zr70  1  0.79746021  0.60396679  -0.00654071  1
  Zr  Zr71  1  0.49313618  0.49386261  0.13709397  1
  Zr  Zr72  1  0.48907174  0.29827533  0.13014964  1
  Zr  Zr73  1  0.58526303  0.39619206  -0.01035997  1
  Zr  Zr74  1  0.00739407  0.00297808  0.50998778  1
  Zr  Zr75  1  0.60612764  0.00633160  0.49586036  1
  Zr  Zr76  1  0.38566243  0.59909491  0.50699467  1
  Zr  Zr77  1  0.60221025  0.59901270  -0.00650082  1
  Zr  Zr78  1  0.81290337  0.38710565  0.74875464  1
  Zr  Zr79  1  0.18727033  0.59636311  0.50753249  1
  Ta  Ta80  1  0.19904950  0.00145350  0.51961113  1
  Ta  Ta81  1  0.40886304  0.79204168  0.24869203  1
  Ta  Ta82  1  0.29020490  0.30083781  0.64807845  1
  Ta  Ta83  1  0.10237728  0.30440961  0.11717848  1
  Ta  Ta84  1  0.69372662  0.49876490  0.85946102  1
  Ta  Ta85  1  0.10313305  0.69818353  0.64626817  1
  Ta  Ta86  1  0.49587093  0.30278803  0.62668731  1
  Ta  Ta87  1  0.72580716  0.11032917  0.36951403  1
  Ta  Ta88  1  0.81587008  0.01354640  0.49735065  1
  Ta  Ta89  1  0.19002581  0.60345266  0.23431986  1
  Ta  Ta90  1  0.90573291  0.89564547  0.87798310  1
  Ta  Ta91  1  0.29524015  0.70520638  0.64840626  1
  Ta  Ta92  1  0.09345004  0.50553812  0.12875592  1
  Ta  Ta93  1  0.80182959  0.78736772  -0.01865984  1
  Ta  Ta94  1  0.51083983  0.89081251  0.12215973  1
  Ta  Ta95  1  0.70172437  0.09726247  0.13916732  1
  Ta  Ta96  1  0.60369420  0.00136607  0.73709797  1
  Ta  Ta97  1  0.59440879  0.39818918  0.74413341  1
  Ta  Ta98  1  0.19925950  0.80093861  0.23409293  1
  Ta  Ta99  1  0.10714437  0.09914801  0.88347867  1
  Ta  Ta100  1  0.01329436  0.79976791  0.24530510  1
  Ta  Ta101  1  0.10124497  0.89677679  0.10697924  1
  Ta  Ta102  1  0.39281208  0.60270406  0.24463888  1
  Ta  Ta103  1  0.20187579  0.20739893  -0.00716779  1
  Ta  Ta104  1  0.60887704  0.79549381  0.74465040  1
  Ta  Ta105  1  0.60361398  -0.00012215  0.25738966  1
  Ta  Ta106  1  0.89914537  0.11245570  0.63681918  1
  Ta  Ta107  1  0.40096656  0.58927323  0.00420430  1
  Ta  Ta108  1  0.89709821  0.30688250  0.13332654  1
  Ta  Ta109  1  0.28599938  0.49838967  0.64708667  1
  Ta  Ta110  1  0.19286413  0.00390992  0.21839932  1
  Ta  Ta111  1  0.18887864  0.39290898  0.77262340  1
  Ta  Ta112  1  0.80075946  0.59683740  0.49974252  1
  Ta  Ta113  1  0.80136803  0.79668534  0.75387045  1
  Ta  Ta114  1  0.69883274  0.70366162  0.61335046  1
  Ta  Ta115  1  0.80943727  0.00118349  0.25101719  1
  Ta  Ta116  1  0.50410177  0.69901614  0.11997802  1
  Ta  Ta117  1  -0.00305877  0.60816374  0.00799879  1
  Ta  Ta118  1  0.70379365  0.89998208  0.62231111  1
  Ta  Ta119  1  0.09307997  0.69684990  0.87225856  1
  Ti  Ti120  1  -0.00383261  0.79419749  0.76322301  1
  Ti  Ti121  1  0.30153290  0.89193925  0.64326568  1
  Ti  Ti122  1  0.40065892  0.59849134  0.74072420  1
  Ti  Ti123  1  0.00007749  0.60121076  0.74761766  1
  Ti  Ti124  1  0.19182567  0.40327597  0.51014993  1
  Ti  Ti125  1  0.29600049  0.89774657  0.36127313  1
  Ti  Ti126  1  0.80281004  0.20225702  0.75171026  1
  Ti  Ti127  1  0.29816138  0.49166761  0.12633730  1
  Ti  Ti128  1  0.49660226  0.49830096  0.62296018  1
  Ti  Ti129  1  0.49467095  0.49060806  0.86105584  1
  Ti  Ti130  1  0.20012532  0.79952569  0.76903580  1
  Ti  Ti131  1  0.59975962  0.20128987  0.74166474  1
  Ti  Ti132  1  0.28976967  0.10611196  0.63959053  1
  Ti  Ti133  1  0.90579903  0.48788342  0.62472773  1
  Ti  Ti134  1  0.91575280  0.91212560  0.36178477  1
  Ti  Ti135  1  0.61360404  0.78831206  -0.00374942  1
  Ti  Ti136  1  0.72288841  0.31015622  0.38258390  1
  Ti  Ti137  1  0.60744640  -0.00265285  0.00859791  1
  Ti  Ti138  1  0.19350598  0.79445605  -0.00498867  1
  Ti  Ti139  1  0.71130359  0.09802995  0.62700960  1
  Ti  Ti140  1  0.10651411  0.11046192  0.64612624  1
  Ti  Ti141  1  0.39356360  0.79569719  0.49661437  1
  Ti  Ti142  1  0.60123693  0.59833762  0.74560750  1
  Ti  Ti143  1  0.40860780  0.22138219  -0.02419549  1
  Ti  Ti144  1  0.09768240  0.49788203  0.64952138  1
  Ti  Ti145  1  0.48220026  0.30268484  0.38436088  1
  Ti  Ti146  1  0.37387612  0.38432502  0.25327215  1
  Ti  Ti147  1  0.90705513  0.09961579  0.13985640  1
  Ti  Ti148  1  0.77675994  0.61643551  0.26617148  1
  Ti  Ti149  1  0.51498461  0.10760498  0.87798503  1
  Ti  Ti150  1  0.30030894  0.69791257  0.86599712  1
  Ti  Ti151  1  0.29270423  0.89959119  0.88112004  1
  Ti  Ti152  1  0.00592166  0.00410922  0.00608986  1
  Ti  Ti153  1  0.10038407  0.90086321  0.88907592  1
  Ti  Ti154  1  0.10013407  0.69188411  0.36082671  1
  Ti  Ti155  1  0.20400786  0.00261837  0.75895663  1
  Ti  Ti156  1  0.90508635  0.70158492  0.62525026  1
  Ti  Ti157  1  0.29487316  0.10308397  0.88171677  1
  Ti  Ti158  1  0.11549162  0.31204591  0.36393457  1
  Ti  Ti159  1  0.00656518  0.19891880  0.23565200  1
  Mo  Mo160  1  0.00729387  -0.00191407  0.22959589  1
  Mo  Mo161  1  0.30290534  0.30149648  0.87139481  1
  Mo  Mo162  1  0.70418856  0.50044280  0.38901381  1
  Mo  Mo163  1  0.09659000  0.50823942  0.86657031  1
  Mo  Mo164  1  0.69635657  0.70511288  0.12377708  1
  Mo  Mo165  1  0.00000161  0.60181546  0.23771228  1
  Mo  Mo166  1  0.10088821  0.10281071  0.11267184  1
  Mo  Mo167  1  0.80475503  0.19464041  0.50771586  1
  Mo  Mo168  1  0.29007826  0.30583462  0.38200587  1
  Mo  Mo169  1  0.50790558  0.09332170  0.38552850  1
  Mo  Mo170  1  0.09702552  0.70554210  0.11508984  1
  Mo  Mo171  1  0.30537455  0.30426057  0.10075947  1
  Mo  Mo172  1  0.90096270  0.30148373  0.61171266  1
  Mo  Mo173  1  0.00168789  0.40668875  0.76106353  1
  Mo  Mo174  1  0.69915718  0.69825159  0.85725434  1
  Mo  Mo175  1  0.19494861  0.60155509  0.75860518  1
  Mo  Mo176  1  0.39997900  0.40257880  0.73150556  1
  Mo  Mo177  1  0.89817449  0.50457118  0.14139816  1
  Mo  Mo178  1  0.09831354  0.30263606  0.88834018  1
  Mo  Mo179  1  0.79798316  0.40063993  0.23865367  1
  Mo  Mo180  1  0.80470552  0.80285181  0.26941024  1
  Mo  Mo181  1  0.69596875  0.69894845  0.40537891  1
  Mo  Mo182  1  0.90520441  0.70277811  0.86890154  1
  Mo  Mo183  1  0.50089275  0.30375338  0.85673302  1
  Mo  Mo184  1  0.80967003  0.40017122  0.51067078  1
  Mo  Mo185  1  0.89282453  0.30035597  0.89704865  1
  Mo  Mo186  1  0.90586777  0.09465861  0.35694477  1
  Mo  Mo187  1  0.49231241  0.70322516  0.39101192  1
  Mo  Mo188  1  0.39893479  0.40324916  -0.00202236  1
  Mo  Mo189  1  0.59670621  0.19387381  -0.00444737  1
  Mo  Mo190  1  0.09306256  0.50814683  0.35615705  1
  Mo  Mo191  1  0.00073720  0.79654849  -0.01243523  1
  Mo  Mo192  1  0.19738570  0.40085367  0.22612602  1
  Mo  Mo193  1  0.39422204  0.79982643  0.76408653  1
  Mo  Mo194  1  0.19972687  0.00040291  -0.00461209  1
  Mo  Mo195  1  0.80320079  0.19857103  0.23450272  1
  Mo  Mo196  1  0.19993091  0.19779677  0.77301415  1
  Mo  Mo197  1  0.59983422  0.60057464  0.49509666  1
  Mo  Mo198  1  0.60255303  0.79870678  0.50624845  1
  Mo  Mo199  1  0.79884563  -0.00049268  0.73309392  1
