# generated using pymatgen
data_HfZrTaTiMo
_symmetry_space_group_name_H-M   'P 1'
_cell_length_a   16.39726487
_cell_length_b   16.34707882
_cell_length_c   14.34827102
_cell_angle_alpha   90.00504922
_cell_angle_beta   90.16900334
_cell_angle_gamma   88.65630785
_symmetry_Int_Tables_number   1
_chemical_formula_structural   HfZrTaTiMo
_chemical_formula_sum   'Hf40 Zr40 Ta40 Ti40 Mo40'
_cell_volume   3844.94215838
_cell_formula_units_Z   40
loop_
 _symmetry_equiv_pos_site_id
 _symmetry_equiv_pos_as_xyz
  1  'x, y, z'
loop_
 _atom_site_type_symbol
 _atom_site_label
 _atom_site_symmetry_multiplicity
 _atom_site_fract_x
 _atom_site_fract_y
 _atom_site_fract_z
 _atom_site_occupancy
  Hf  Hf0  1  0.00694832  0.19979278  0.50750979  1
  Hf  Hf1  1  0.59915825  0.40331024  -0.00199214  1
  Hf  Hf2  1  0.50097912  0.89123871  0.11639435  1
  Hf  Hf3  1  0.60358205  0.39963752  0.75431361  1
  Hf  Hf4  1  0.00705756  0.40305851  0.49696499  1
  Hf  Hf5  1  0.00009705  0.59329732  0.49680965  1
  Hf  Hf6  1  0.28871446  0.70585723  0.87100258  1
  Hf  Hf7  1  0.49490796  0.50612066  0.37666385  1
  Hf  Hf8  1  0.19333025  0.60419472  0.48722938  1
  Hf  Hf9  1  0.20003670  -0.00244379  0.25327114  1
  Hf  Hf10  1  0.40541527  0.19840723  0.00607016  1
  Hf  Hf11  1  0.10589462  0.50289595  0.88088332  1
  Hf  Hf12  1  0.79322359  0.79253338  0.49912115  1
  Hf  Hf13  1  0.09878838  0.50537973  0.12169001  1
  Hf  Hf14  1  0.39727253  0.40700883  0.24467758  1
  Hf  Hf15  1  0.59769902  0.79830115  0.26575329  1
  Hf  Hf16  1  0.89966704  0.09443795  0.12302174  1
  Hf  Hf17  1  0.09802209  0.69990267  0.12450127  1
  Hf  Hf18  1  0.48217092  0.69259436  0.61429880  1
  Hf  Hf19  1  0.10487370  0.87771488  0.39112412  1
  Hf  Hf20  1  0.80213262  0.60354513  -0.00759850  1
  Hf  Hf21  1  0.00882512  0.00431212  0.50980319  1
  Hf  Hf22  1  0.80494450  0.80147989  -0.01259881  1
  Hf  Hf23  1  0.69746850  0.10091429  0.14028289  1
  Hf  Hf24  1  0.11133495  0.89201118  0.87412910  1
  Hf  Hf25  1  0.89497551  0.09543945  0.63887922  1
  Hf  Hf26  1  0.50198631  0.10257970  0.37416356  1
  Hf  Hf27  1  0.50229152  0.09479059  0.85265652  1
  Hf  Hf28  1  0.01673461  0.38804170  0.74673184  1
  Hf  Hf29  1  0.59657672  0.40946758  0.50894139  1
  Hf  Hf30  1  0.79678874  0.78951318  0.75718319  1
  Hf  Hf31  1  0.90408794  0.50629186  0.12718173  1
  Hf  Hf32  1  0.29774880  0.50669268  0.11202529  1
  Hf  Hf33  1  0.19903379  0.19415301  0.52132969  1
  Hf  Hf34  1  0.20027543  0.00068894  0.49749689  1
  Hf  Hf35  1  0.19749485  0.80345314  0.24172118  1
  Hf  Hf36  1  0.89619029  0.49744556  0.86559979  1
  Hf  Hf37  1  0.78781179  0.80763703  0.26391154  1
  Hf  Hf38  1  0.00968548  0.19626639  0.25501382  1
  Hf  Hf39  1  0.60558799  -0.01530943  0.26120611  1
  Zr  Zr40  1  0.67476250  0.89522772  0.86516171  1
  Zr  Zr41  1  0.00198017  0.77990210  0.51018390  1
  Zr  Zr42  1  0.29799514  0.10747508  0.37108531  1
  Zr  Zr43  1  0.89342550  0.90412208  0.38105383  1
  Zr  Zr44  1  0.69260062  0.70137116  0.11842392  1
  Zr  Zr45  1  0.20943852  0.39406549  0.24377880  1
  Zr  Zr46  1  0.70596746  0.09384368  0.38080405  1
  Zr  Zr47  1  0.79256362  0.20097479  -0.00595299  1
  Zr  Zr48  1  0.30973325  0.30732903  0.86895042  1
  Zr  Zr49  1  0.30565610  0.31732178  0.62481778  1
  Zr  Zr50  1  0.10505298  0.09637832  0.11496778  1
  Zr  Zr51  1  0.70528021  0.30401754  0.61558497  1
  Zr  Zr52  1  0.69600723  0.29256849  0.37130115  1
  Zr  Zr53  1  0.59413729  0.60077427  0.74574633  1
  Zr  Zr54  1  0.01085311  -0.01178549  0.25236042  1
  Zr  Zr55  1  0.49366622  0.91488298  0.62464982  1
  Zr  Zr56  1  0.59619983  0.00472460  -0.00053018  1
  Zr  Zr57  1  0.40241529  0.80079062  0.75702196  1
  Zr  Zr58  1  0.19020929  0.21260410  0.74355834  1
  Zr  Zr59  1  0.78682823  0.20518112  0.75461562  1
  Zr  Zr60  1  0.89167631  0.09431863  0.37410341  1
  Zr  Zr61  1  0.49389922  0.69791886  0.37528156  1
  Zr  Zr62  1  0.30441714  0.51709766  0.63361297  1
  Zr  Zr63  1  0.00413186  0.60120504  0.75517277  1
  Zr  Zr64  1  0.09878716  0.09704041  0.87864636  1
  Zr  Zr65  1  0.89787032  0.29912496  0.37718459  1
  Zr  Zr66  1  0.90121319  0.29841369  0.87109952  1
  Zr  Zr67  1  0.89906312  0.89691871  0.63563562  1
  Zr  Zr68  1  0.29935607  0.89348374  0.62078562  1
  Zr  Zr69  1  0.80494432  0.40297930  0.24092026  1
  Zr  Zr70  1  0.19563995  0.00624972  0.73236835  1
  Zr  Zr71  1  0.38857695  0.21167523  0.24260353  1
  Zr  Zr72  1  0.90344044  0.70284287  0.13820293  1
  Zr  Zr73  1  0.30147576  0.09865081  0.87126086  1
  Zr  Zr74  1  0.79768554  -0.00086178  -0.01191770  1
  Zr  Zr75  1  0.50302308  0.30053383  0.37646159  1
  Zr  Zr76  1  0.50565357  0.29340267  0.86566761  1
  Zr  Zr77  1  0.71938789  0.50559525  0.63253336  1
  Zr  Zr78  1  0.70137347  0.49890346  0.37262130  1
  Zr  Zr79  1  0.51071080  0.70519767  0.89197653  1
  Ta  Ta80  1  0.60429044  0.60487359  0.50069382  1
  Ta  Ta81  1  0.89732677  0.49667033  0.63658156  1
  Ta  Ta82  1  0.49942032  0.09861034  0.14059292  1
  Ta  Ta83  1  0.00016346  0.79925892  -0.00678891  1
  Ta  Ta84  1  -0.00000967  -0.01132419  -0.00285657  1
  Ta  Ta85  1  0.90138661  0.89708442  0.13019981  1
  Ta  Ta86  1  0.49517592  0.69767653  0.12396229  1
  Ta  Ta87  1  0.69894492  0.50228273  0.87759848  1
  Ta  Ta88  1  0.90687094  0.09392124  0.86598482  1
  Ta  Ta89  1  0.11551565  0.29200782  0.37166756  1
  Ta  Ta90  1  0.29587583  0.90249380  0.11129416  1
  Ta  Ta91  1  0.69575032  0.90230850  0.62490667  1
  Ta  Ta92  1  0.49645567  0.30443883  0.62866717  1
  Ta  Ta93  1  0.30040961  0.09614592  0.12336918  1
  Ta  Ta94  1  0.89695195  0.30832261  0.62861376  1
  Ta  Ta95  1  0.39199128  0.80562908  0.25173757  1
  Ta  Ta96  1  0.59924066  0.80025244  0.49835550  1
  Ta  Ta97  1  0.00629644  0.19945267  0.74086583  1
  Ta  Ta98  1  0.00154724  0.39628576  0.00472515  1
  Ta  Ta99  1  0.89140978  0.68362149  0.63650179  1
  Ta  Ta100  1  0.40137486  -0.00051145  -0.00093379  1
  Ta  Ta101  1  0.40252468  0.20042519  0.50856427  1
  Ta  Ta102  1  0.20579333  0.20695356  0.00482114  1
  Ta  Ta103  1  0.39185505  0.60394923  0.24608989  1
  Ta  Ta104  1  0.39931360  -0.01070432  0.25259511  1
  Ta  Ta105  1  0.59851271  0.59861347  0.24694644  1
  Ta  Ta106  1  0.11549469  0.69768705  0.64535214  1
  Ta  Ta107  1  0.29877950  0.30416425  0.39048049  1
  Ta  Ta108  1  0.39366484  0.80739838  0.48469157  1
  Ta  Ta109  1  0.79670856  0.39818402  0.00084907  1
  Ta  Ta110  1  0.10283439  0.29886809  0.12481793  1
  Ta  Ta111  1  0.29642302  0.90320545  0.88181595  1
  Ta  Ta112  1  0.69518393  0.29989363  0.12714455  1
  Ta  Ta113  1  0.29281495  0.70543964  0.37422816  1
  Ta  Ta114  1  0.50662960  0.29996621  0.12754660  1
  Ta  Ta115  1  0.30132219  0.70348813  0.11818255  1
  Ta  Ta116  1  0.20049572  0.40515617  0.75624919  1
  Ta  Ta117  1  0.00491188  0.39750431  0.25056773  1
  Ta  Ta118  1  0.40291000  0.59955248  -0.00321144  1
  Ta  Ta119  1  0.20154255  0.39624071  -0.00412667  1
  Ti  Ti120  1  0.39541117  0.40996540  0.49413626  1
  Ti  Ti121  1  -0.00352441  0.61170713  -0.01466977  1
  Ti  Ti122  1  0.48493432  0.50543941  0.62770782  1
  Ti  Ti123  1  0.68510635  0.10715255  0.85894913  1
  Ti  Ti124  1  0.19951696  0.40696355  0.49934926  1
  Ti  Ti125  1  0.69061745  0.69600500  0.87973147  1
  Ti  Ti126  1  0.00247490  0.20329684  -0.00487381  1
  Ti  Ti127  1  0.10582920  0.49348577  0.36324405  1
  Ti  Ti128  1  0.00154440  0.79034365  0.76008753  1
  Ti  Ti129  1  0.10019282  0.88790662  0.63302180  1
  Ti  Ti130  1  0.40008880  0.20053946  0.73434581  1
  Ti  Ti131  1  0.29783661  0.69874744  0.62437939  1
  Ti  Ti132  1  0.90403905  0.29798119  0.12223852  1
  Ti  Ti133  1  0.90574197  0.70203714  0.36654524  1
  Ti  Ti134  1  0.78974280  -0.00234589  0.75624874  1
  Ti  Ti135  1  0.32538220  0.08368861  0.62193746  1
  Ti  Ti136  1  0.50188898  0.09751103  0.62650421  1
  Ti  Ti137  1  0.69820982  0.50532143  0.12101169  1
  Ti  Ti138  1  0.90756583  0.90381309  0.86341566  1
  Ti  Ti139  1  0.40543394  0.40390932  -0.00157561  1
  Ti  Ti140  1  0.79538651  0.60442885  0.26195097  1
  Ti  Ti141  1  0.80783600  0.59981194  0.48389705  1
  Ti  Ti142  1  0.81249261  0.41018459  0.49060829  1
  Ti  Ti143  1  0.20438652  0.60090586  0.25665485  1
  Ti  Ti144  1  0.10947384  0.50356953  0.63246754  1
  Ti  Ti145  1  0.00383313  0.59705694  0.26696807  1
  Ti  Ti146  1  0.39630856  0.80210692  -0.00200932  1
  Ti  Ti147  1  0.30776655  0.50445715  0.86968887  1
  Ti  Ti148  1  0.69260443  0.09193277  0.62811296  1
  Ti  Ti149  1  0.80220064  0.20259457  0.24424195  1
  Ti  Ti150  1  0.59895283  0.40403276  0.24190475  1
  Ti  Ti151  1  0.59996669  0.19916286  0.00564837  1
  Ti  Ti152  1  0.19874343  0.60758084  -0.00838177  1
  Ti  Ti153  1  0.50188079  0.50746792  0.12077977  1
  Ti  Ti154  1  0.59463538  0.79748698  0.73332994  1
  Ti  Ti155  1  0.59650229  0.19800995  0.51380128  1
  Ti  Ti156  1  0.70174067  0.69466988  0.62328407  1
  Ti  Ti157  1  0.80203752  0.19412499  0.50863529  1
  Ti  Ti158  1  0.60044343  -0.00550376  0.49671297  1
  Ti  Ti159  1  0.70227757  0.89847668  0.11672239  1
  Mo  Mo160  1  0.49081872  0.90108502  0.87739785  1
  Mo  Mo161  1  0.59994577  0.59408733  0.01057550  1
  Mo  Mo162  1  0.69675212  0.89961681  0.39934455  1
  Mo  Mo163  1  0.79581742  0.60306029  0.76213213  1
  Mo  Mo164  1  0.90534280  0.50476655  0.36520323  1
  Mo  Mo165  1  0.10109881  0.70254162  0.87890820  1
  Mo  Mo166  1  0.29945859  0.50366178  0.37559847  1
  Mo  Mo167  1  0.40209661  0.00371008  0.48068042  1
  Mo  Mo168  1  0.40206559  0.59920205  0.77157318  1
  Mo  Mo169  1  0.09700539  0.89486179  0.10835231  1
  Mo  Mo170  1  0.59946025  -0.00004901  0.73906965  1
  Mo  Mo171  1  -0.00125426  0.79427695  0.24817058  1
  Mo  Mo172  1  0.09954921  0.69436870  0.35717710  1
  Mo  Mo173  1  0.09154035  0.09684623  0.63324518  1
  Mo  Mo174  1  0.20181021  0.79232575  0.50889534  1
  Mo  Mo175  1  0.69791902  0.69329366  0.38128461  1
  Mo  Mo176  1  0.20145087  0.20308403  0.23780642  1
  Mo  Mo177  1  0.29905807  0.89774612  0.37449721  1
  Mo  Mo178  1  0.10139044  0.29948169  0.89461587  1
  Mo  Mo179  1  0.90248060  0.70331356  0.86981989  1
  Mo  Mo180  1  0.79827200  -0.00839747  0.23519588  1
  Mo  Mo181  1  0.20037989  0.80108569  0.74194436  1
  Mo  Mo182  1  0.69663418  0.30173558  0.88964816  1
  Mo  Mo183  1  0.49452083  0.50247673  0.87749338  1
  Mo  Mo184  1  0.39124880  0.60322044  0.48267024  1
  Mo  Mo185  1  0.80114638  0.40043573  0.76344128  1
  Mo  Mo186  1  0.59766072  0.19812821  0.72735785  1
  Mo  Mo187  1  0.40587869  0.40959319  0.75568968  1
  Mo  Mo188  1  0.49533211  0.90250803  0.38338580  1
  Mo  Mo189  1  0.20315551  0.00002859  0.00486613  1
  Mo  Mo190  1  0.59894597  0.79882370  0.01054163  1
  Mo  Mo191  1  0.39888916  -0.00238973  0.76607241  1
  Mo  Mo192  1  0.30470038  0.30415037  0.10623701  1
  Mo  Mo193  1  -0.00053851  -0.00501686  0.75665619  1
  Mo  Mo194  1  0.79309158  -0.00092005  0.52631526  1
  Mo  Mo195  1  0.20412586  0.59925004  0.75821178  1
  Mo  Mo196  1  0.19884694  0.80108508  0.01016874  1
  Mo  Mo197  1  0.10430909  0.10557356  0.37417179  1
  Mo  Mo198  1  0.59882589  0.20159572  0.24121481  1
  Mo  Mo199  1  0.10224777  0.30912418  0.60910101  1
