# generated using pymatgen
data_HfZrTaTiMo
_symmetry_space_group_name_H-M   'P 1'
_cell_length_a   15.93450043
_cell_length_b   15.92900591
_cell_length_c   15.20024975
_cell_angle_alpha   90.04468276
_cell_angle_beta   89.97818452
_cell_angle_gamma   90.01519917
_symmetry_Int_Tables_number   1
_chemical_formula_structural   HfZrTaTiMo
_chemical_formula_sum   'Hf40 Zr40 Ta40 Ti40 Mo40'
_cell_volume   3858.13722907
_cell_formula_units_Z   40
loop_
 _symmetry_equiv_pos_site_id
 _symmetry_equiv_pos_as_xyz
  1  'x, y, z'
loop_
 _atom_site_type_symbol
 _atom_site_label
 _atom_site_symmetry_multiplicity
 _atom_site_fract_x
 _atom_site_fract_y
 _atom_site_fract_z
 _atom_site_occupancy
  Hf  Hf0  1  0.49545348  0.49426256  0.12273241  1
  Hf  Hf1  1  0.89304431  0.88908921  0.87356003  1
  Hf  Hf2  1  0.29314175  0.10815657  0.61704253  1
  Hf  Hf3  1  0.09030215  0.90856012  0.38308284  1
  Hf  Hf4  1  0.30636496  0.90766085  0.86694515  1
  Hf  Hf5  1  0.49210157  0.30382129  0.88305486  1
  Hf  Hf6  1  0.61198844  0.59545673  0.24467493  1
  Hf  Hf7  1  0.90986877  0.10630699  0.39063711  1
  Hf  Hf8  1  0.79268132  0.00676879  -0.00434277  1
  Hf  Hf9  1  0.19582911  0.79744588  0.49720732  1
  Hf  Hf10  1  0.69313112  0.51170074  0.61686154  1
  Hf  Hf11  1  0.70854163  0.10409636  0.61678087  1
  Hf  Hf12  1  -0.00101424  0.39547029  0.74201063  1
  Hf  Hf13  1  0.30043615  0.29309807  0.87746373  1
  Hf  Hf14  1  0.60074778  0.40225634  0.75721410  1
  Hf  Hf15  1  0.60549425  0.00120654  0.75700295  1
  Hf  Hf16  1  0.30323698  0.69768723  0.62180369  1
  Hf  Hf17  1  0.50707134  0.50029901  0.62360901  1
  Hf  Hf18  1  0.10884848  0.50677760  0.61456784  1
  Hf  Hf19  1  0.50462865  0.28649102  0.12371415  1
  Hf  Hf20  1  0.79631549  -0.00249246  0.75616634  1
  Hf  Hf21  1  0.19119279  0.39976748  0.25690118  1
  Hf  Hf22  1  -0.00096647  0.01717605  0.24045408  1
  Hf  Hf23  1  0.91216797  0.69555396  0.11526197  1
  Hf  Hf24  1  0.60106328  0.80368975  0.48118698  1
  Hf  Hf25  1  0.49532168  0.69577872  0.13024079  1
  Hf  Hf26  1  0.50509289  0.89628637  0.62309643  1
  Hf  Hf27  1  0.50050610  0.50133783  0.37484804  1
  Hf  Hf28  1  0.09165654  0.70237507  0.87675112  1
  Hf  Hf29  1  0.09694756  0.29728307  0.11182028  1
  Hf  Hf30  1  0.70464615  0.29814739  0.10902959  1
  Hf  Hf31  1  0.50678881  0.89511699  0.87583669  1
  Hf  Hf32  1  0.60150577  0.20160739  0.75349399  1
  Hf  Hf33  1  0.30314618  0.69669263  0.87929309  1
  Hf  Hf34  1  -0.00448467  0.39724556  0.23931369  1
  Hf  Hf35  1  0.70859040  0.89429153  0.61123064  1
  Hf  Hf36  1  0.20053655  0.60911853  0.25931977  1
  Hf  Hf37  1  0.61105877  0.39056749  0.25087584  1
  Hf  Hf38  1  0.51723889  0.69274473  0.88094477  1
  Hf  Hf39  1  0.29358060  0.51735272  0.12243913  1
  Zr  Zr40  1  0.89830966  0.50632534  0.38498800  1
  Zr  Zr41  1  0.19897958  0.39532061  0.74886744  1
  Zr  Zr42  1  0.71440500  0.69767585  0.38507358  1
  Zr  Zr43  1  0.39938626  0.80325714  0.00719589  1
  Zr  Zr44  1  0.39748674  -0.00604049  0.24069262  1
  Zr  Zr45  1  0.70470752  0.49932089  0.39244371  1
  Zr  Zr46  1  0.79958627  0.39891199  0.75748413  1
  Zr  Zr47  1  0.19211179  0.19713598  0.26451521  1
  Zr  Zr48  1  0.11600420  0.69122910  0.10746931  1
  Zr  Zr49  1  0.19666624  0.40689394  -0.00161040  1
  Zr  Zr50  1  0.40144630  0.37676198  0.50805944  1
  Zr  Zr51  1  0.80594992  0.59008000  0.00564818  1
  Zr  Zr52  1  0.10768108  0.90560146  0.12349327  1
  Zr  Zr53  1  0.89500499  0.89965613  0.37962271  1
  Zr  Zr54  1  0.49966518  0.28136409  0.36444328  1
  Zr  Zr55  1  0.09681622  0.50558592  0.38751767  1
  Zr  Zr56  1  0.49829026  0.09598344  0.38060757  1
  Zr  Zr57  1  0.20035896  0.59228741  0.75795419  1
  Zr  Zr58  1  0.00069716  0.38963028  0.51436091  1
  Zr  Zr59  1  0.00819657  0.79557829  0.24748694  1
  Zr  Zr60  1  -0.00243259  0.00563451  0.00707049  1
  Zr  Zr61  1  0.40043003  0.59716190  0.50255413  1
  Zr  Zr62  1  0.20058953  0.80116917  0.75134540  1
  Zr  Zr63  1  0.29795488  0.29575075  0.11951708  1
  Zr  Zr64  1  0.80192847  0.40272919  0.23640984  1
  Zr  Zr65  1  0.38764834  0.39683561  0.25844337  1
  Zr  Zr66  1  0.20347211  0.00298495  0.26279066  1
  Zr  Zr67  1  0.90469155  0.10487450  0.86375361  1
  Zr  Zr68  1  0.30259724  0.90204939  0.62022790  1
  Zr  Zr69  1  0.89248110  0.50531395  0.62213235  1
  Zr  Zr70  1  0.09614325  0.90972021  0.63088242  1
  Zr  Zr71  1  0.21174205  0.38295784  0.48814159  1
  Zr  Zr72  1  0.79607506  0.80182944  0.24300736  1
  Zr  Zr73  1  0.08697376  0.29505734  0.88604776  1
  Zr  Zr74  1  0.89286766  0.29484401  0.38412361  1
  Zr  Zr75  1  0.39461447  0.18088291  0.00264233  1
  Zr  Zr76  1  0.60114591  0.80714948  0.25233169  1
  Zr  Zr77  1  0.51505692  0.69656566  0.62575710  1
  Zr  Zr78  1  0.60250565  -0.00291258  0.25530111  1
  Zr  Zr79  1  0.79419254  0.61317971  0.76050166  1
  Ta  Ta80  1  0.30569653  0.70459749  0.38078871  1
  Ta  Ta81  1  0.09757869  0.10019151  0.87135691  1
  Ta  Ta82  1  0.49195036  0.09727311  0.86930026  1
  Ta  Ta83  1  0.60343334  0.18983742  -0.01266578  1
  Ta  Ta84  1  0.59842671  0.00564923  -0.00635123  1
  Ta  Ta85  1  0.19947595  0.80984415  -0.01038899  1
  Ta  Ta86  1  0.79968591  0.20081371  0.24321988  1
  Ta  Ta87  1  0.49250383  0.69826315  0.36589717  1
  Ta  Ta88  1  -0.00063966  0.19916264  0.73516652  1
  Ta  Ta89  1  0.00020156  0.80566636  -0.00008856  1
  Ta  Ta90  1  0.39936018  0.39839543  0.74015413  1
  Ta  Ta91  1  0.62413156  0.79719851  0.75590955  1
  Ta  Ta92  1  0.89457472  0.90260396  0.12356542  1
  Ta  Ta93  1  0.20882927  0.00888760  -0.01608250  1
  Ta  Ta94  1  0.70781774  0.71819491  0.89882922  1
  Ta  Ta95  1  0.79706271  0.00627443  0.24968097  1
  Ta  Ta96  1  0.39957194  0.59859398  -0.00112586  1
  Ta  Ta97  1  0.60256956  0.40197600  -0.00096722  1
  Ta  Ta98  1  0.89814457  0.30120224  0.88811532  1
  Ta  Ta99  1  0.69669171  0.70193610  0.10944203  1
  Ta  Ta100  1  0.20853338  0.80144293  0.25793109  1
  Ta  Ta101  1  0.31067155  0.49367204  0.88236749  1
  Ta  Ta102  1  0.00011787  0.61509375  0.51375698  1
  Ta  Ta103  1  0.41107550  0.79609585  0.75132785  1
  Ta  Ta104  1  0.69136178  0.10270786  0.12936843  1
  Ta  Ta105  1  0.09149292  0.90757567  0.86643384  1
  Ta  Ta106  1  0.49901546  0.49971978  0.88143526  1
  Ta  Ta107  1  0.19634062  0.19620103  0.75441239  1
  Ta  Ta108  1  0.90378700  0.69754786  0.38164866  1
  Ta  Ta109  1  0.40331443  0.00441751  0.74123595  1
  Ta  Ta110  1  -0.00524462  0.80010913  0.51091069  1
  Ta  Ta111  1  0.70425087  0.69931702  0.61046834  1
  Ta  Ta112  1  0.40577973  0.59294426  0.75328881  1
  Ta  Ta113  1  0.69041131  0.51250374  0.88601498  1
  Ta  Ta114  1  0.69931150  0.30241079  0.62073211  1
  Ta  Ta115  1  0.70321549  0.11524556  0.37758347  1
  Ta  Ta116  1  0.80566181  0.59587464  0.23087086  1
  Ta  Ta117  1  0.30605424  0.11075839  0.39352899  1
  Ta  Ta118  1  -0.00470564  0.60103027  0.75100383  1
  Ta  Ta119  1  0.59492678  0.20565827  0.51078069  1
  Ti  Ti120  1  0.11006508  0.10737534  0.10885385  1
  Ti  Ti121  1  0.80130356  0.19424863  0.00106799  1
  Ti  Ti122  1  -0.00174565  0.59521091  0.24975412  1
  Ti  Ti123  1  0.60392401  0.00143193  0.49127147  1
  Ti  Ti124  1  0.79494064  0.39085542  0.50600780  1
  Ti  Ti125  1  0.79794612  0.20192195  0.75372728  1
  Ti  Ti126  1  0.80321595  0.00309151  0.49648410  1
  Ti  Ti127  1  0.09129355  0.50245512  0.88431301  1
  Ti  Ti128  1  0.40323103  -0.00075740  0.50604111  1
  Ti  Ti129  1  0.11376030  0.28501848  0.61692569  1
  Ti  Ti130  1  0.09308105  0.10034307  0.61755521  1
  Ti  Ti131  1  -0.00989795  0.79832458  0.74394076  1
  Ti  Ti132  1  0.89012356  0.28156575  0.61927824  1
  Ti  Ti133  1  0.09623578  0.70027789  0.38231767  1
  Ti  Ti134  1  0.08678333  0.27952137  0.38597874  1
  Ti  Ti135  1  0.39981044  0.20226187  0.73850360  1
  Ti  Ti136  1  0.29356163  0.89837263  0.11877834  1
  Ti  Ti137  1  0.19896495  0.00989319  0.75431130  1
  Ti  Ti138  1  0.89092933  0.70965471  0.62508325  1
  Ti  Ti139  1  0.49999902  0.10215038  0.62089356  1
  Ti  Ti140  1  0.59822660  0.38976756  0.49851515  1
  Ti  Ti141  1  0.90528147  0.49455500  0.88170320  1
  Ti  Ti142  1  0.28994609  0.09463795  0.12274400  1
  Ti  Ti143  1  0.50643691  0.90346248  0.11765092  1
  Ti  Ti144  1  0.39802131  0.18481576  0.23849895  1
  Ti  Ti145  1  0.69911707  0.89902787  0.10961361  1
  Ti  Ti146  1  0.89880590  0.70330771  0.88121011  1
  Ti  Ti147  1  0.29873512  0.49808952  0.62054809  1
  Ti  Ti148  1  0.29968782  0.50788142  0.37926727  1
  Ti  Ti149  1  0.40133050  0.00177161  0.00417075  1
  Ti  Ti150  1  0.08682358  0.50928822  0.10755682  1
  Ti  Ti151  1  -0.00951658  0.20095252  0.23419898  1
  Ti  Ti152  1  -0.01190116  0.19480394  0.01206276  1
  Ti  Ti153  1  0.90016825  0.90736129  0.62725458  1
  Ti  Ti154  1  0.09950427  0.69969425  0.63096762  1
  Ti  Ti155  1  0.38930818  0.79730065  0.24242804  1
  Ti  Ti156  1  0.30607638  0.89929128  0.38659793  1
  Ti  Ti157  1  0.19416873  0.00953374  0.49154243  1
  Ti  Ti158  1  0.70664452  0.30183862  0.88557924  1
  Ti  Ti159  1  0.48530753  0.89429527  0.37870643  1
  Mo  Mo160  1  -0.00458866  0.00007442  0.51777778  1
  Mo  Mo161  1  0.90049684  0.09705628  0.62734016  1
  Mo  Mo162  1  0.60923912  0.19541463  0.24458658  1
  Mo  Mo163  1  0.40284510  0.40177985  0.00160973  1
  Mo  Mo164  1  0.30207490  0.09782466  0.85387190  1
  Mo  Mo165  1  0.29749378  0.29495911  0.64274397  1
  Mo  Mo166  1  0.60249404  0.80680101  0.00883467  1
  Mo  Mo167  1  0.69832176  0.29396384  0.39058622  1
  Mo  Mo168  1  0.80299861  0.79927949  0.74007685  1
  Mo  Mo169  1  0.60503294  0.60396587  0.76447107  1
  Mo  Mo170  1  0.40095549  0.19656352  0.51655349  1
  Mo  Mo171  1  0.69835865  0.10691700  0.87391447  1
  Mo  Mo172  1  0.30258107  0.28760039  0.36083673  1
  Mo  Mo173  1  -0.00037193  0.59953294  -0.02035383  1
  Mo  Mo174  1  0.90694955  0.49867064  0.11812507  1
  Mo  Mo175  1  0.09474392  0.10237458  0.39589169  1
  Mo  Mo176  1  0.40167043  0.80419657  0.49317911  1
  Mo  Mo177  1  0.69824902  0.50013351  0.11017172  1
  Mo  Mo178  1  0.19914934  0.60601373  0.49230761  1
  Mo  Mo179  1  0.80503781  0.80322506  0.01487761  1
  Mo  Mo180  1  0.69909602  0.89671480  0.88581229  1
  Mo  Mo181  1  0.19458053  0.18868057  -0.01461783  1
  Mo  Mo182  1  0.88825144  0.10370780  0.13032967  1
  Mo  Mo183  1  0.80972456  0.80299882  0.50756106  1
  Mo  Mo184  1  0.39434707  0.60578175  0.25789948  1
  Mo  Mo185  1  0.59930759  0.59944309  0.01004102  1
  Mo  Mo186  1  0.60134229  0.60247546  0.48194836  1
  Mo  Mo187  1  -0.00999029  0.40458088  0.00833608  1
  Mo  Mo188  1  0.50468709  0.29681488  0.63523306  1
  Mo  Mo189  1  0.50344251  0.09254420  0.11656483  1
  Mo  Mo190  1  0.79854243  0.39771903  -0.00951547  1
  Mo  Mo191  1  0.29873363  0.70880698  0.12158895  1
  Mo  Mo192  1  0.70521149  0.91560431  0.38906696  1
  Mo  Mo193  1  0.20231381  0.60171185  -0.01406457  1
  Mo  Mo194  1  0.80829175  0.60585392  0.51112595  1
  Mo  Mo195  1  0.79481644  0.20080095  0.50472354  1
  Mo  Mo196  1  -0.00117236  0.19690608  0.52241508  1
  Mo  Mo197  1  0.00109289  0.00350852  0.74322105  1
  Mo  Mo198  1  0.89800511  0.29665530  0.10855635  1
  Mo  Mo199  1  0.19727570  0.19797117  0.49218837  1
