# generated using pymatgen
data_HfZrTaTiMo
_symmetry_space_group_name_H-M   'P 1'
_cell_length_a   15.92642680
_cell_length_b   15.93217050
_cell_length_c   15.20324634
_cell_angle_alpha   89.98682497
_cell_angle_beta   90.06996149
_cell_angle_gamma   90.05147447
_symmetry_Int_Tables_number   1
_chemical_formula_structural   HfZrTaTiMo
_chemical_formula_sum   'Hf40 Zr40 Ta40 Ti40 Mo40'
_cell_volume   3857.70591946
_cell_formula_units_Z   40
loop_
 _symmetry_equiv_pos_site_id
 _symmetry_equiv_pos_as_xyz
  1  'x, y, z'
loop_
 _atom_site_type_symbol
 _atom_site_label
 _atom_site_symmetry_multiplicity
 _atom_site_fract_x
 _atom_site_fract_y
 _atom_site_fract_z
 _atom_site_occupancy
  Hf  Hf0  1  0.50445015  0.49589906  0.37936518  1
  Hf  Hf1  1  0.50770718  0.90671902  0.38849952  1
  Hf  Hf2  1  0.71202835  0.91049308  0.36540356  1
  Hf  Hf3  1  0.20037618  0.20262740  -0.00780110  1
  Hf  Hf4  1  0.09222948  0.10155396  0.12119465  1
  Hf  Hf5  1  0.89637472  0.90623190  0.87372229  1
  Hf  Hf6  1  0.49712403  0.50032331  0.60606967  1
  Hf  Hf7  1  0.00821521  0.80194011  0.74917541  1
  Hf  Hf8  1  0.29755874  0.10178628  0.61737606  1
  Hf  Hf9  1  0.40314039  0.79152431  -0.00513672  1
  Hf  Hf10  1  0.09262010  0.69237965  0.13733019  1
  Hf  Hf11  1  0.30279251  0.89812814  0.86887827  1
  Hf  Hf12  1  0.81915425  0.81109369  0.50665046  1
  Hf  Hf13  1  0.30633697  0.28601601  0.13853875  1
  Hf  Hf14  1  0.19921609  0.18619095  0.26149622  1
  Hf  Hf15  1  0.79189730  0.59359597  0.01210399  1
  Hf  Hf16  1  0.88909090  0.70202617  0.64974426  1
  Hf  Hf17  1  0.69552308  0.70658616  0.64577953  1
  Hf  Hf18  1  0.89643576  0.10687903  0.13517004  1
  Hf  Hf19  1  0.90830933  0.91052757  0.11629171  1
  Hf  Hf20  1  0.09870576  0.90746664  0.87830351  1
  Hf  Hf21  1  0.89038298  0.09786316  0.36791269  1
  Hf  Hf22  1  0.49668806  0.49425033  0.87161555  1
  Hf  Hf23  1  0.49314764  0.90484078  0.11946924  1
  Hf  Hf24  1  0.69433982  0.09783565  0.37552943  1
  Hf  Hf25  1  0.49485152  0.10914255  0.38490085  1
  Hf  Hf26  1  0.49904476  0.30394582  0.38345162  1
  Hf  Hf27  1  0.90007963  0.30056986  0.12380552  1
  Hf  Hf28  1  0.50935144  0.89619946  0.62487229  1
  Hf  Hf29  1  0.90812536  0.71206089  0.35234416  1
  Hf  Hf30  1  0.20480813  -0.00491087  0.25408777  1
  Hf  Hf31  1  0.49724437  0.10265199  0.86330334  1
  Hf  Hf32  1  0.20828420  0.78500227  -0.00308651  1
  Hf  Hf33  1  0.01109662  0.00106440  0.26310046  1
  Hf  Hf34  1  0.20426019  0.60052879  0.72529459  1
  Hf  Hf35  1  0.88685316  0.69390298  0.86999276  1
  Hf  Hf36  1  0.39613641  0.60375190  -0.00553331  1
  Hf  Hf37  1  0.90096386  0.69713624  0.13485401  1
  Hf  Hf38  1  0.30858818  0.48811918  0.38409624  1
  Hf  Hf39  1  0.60879583  0.39679857  0.23253392  1
  Zr  Zr40  1  0.11329280  0.09677779  0.40907802  1
  Zr  Zr41  1  0.10096467  0.90016947  0.11279894  1
  Zr  Zr42  1  0.30357772  0.69950763  0.14762577  1
  Zr  Zr43  1  0.31359872  0.49098239  0.14694853  1
  Zr  Zr44  1  0.30681897  0.27944499  0.39041009  1
  Zr  Zr45  1  0.69634129  0.70375179  0.86802055  1
  Zr  Zr46  1  0.90376292  0.50834582  0.36640537  1
  Zr  Zr47  1  0.80056870  0.40586507  0.75333719  1
  Zr  Zr48  1  0.20312697  0.01363034  -0.01185274  1
  Zr  Zr49  1  0.18828760  0.58204435  0.25092426  1
  Zr  Zr50  1  0.60158649  0.79909294  0.00572352  1
  Zr  Zr51  1  0.19580064  -0.00706187  0.73707623  1
  Zr  Zr52  1  0.62085054  0.80217068  0.49145189  1
  Zr  Zr53  1  -0.01495138  -0.01100160  0.50753602  1
  Zr  Zr54  1  0.70458180  0.50104976  0.37377919  1
  Zr  Zr55  1  0.17759928  0.77688972  0.51829179  1
  Zr  Zr56  1  0.18684615  0.38320638  0.25955412  1
  Zr  Zr57  1  0.30230259  0.30720820  0.85559134  1
  Zr  Zr58  1  0.58621796  0.60129493  0.75211402  1
  Zr  Zr59  1  0.79778954  0.61134779  0.50047582  1
  Zr  Zr60  1  0.00551910  0.62491572  0.50901311  1
  Zr  Zr61  1  0.00042347  0.78706951  -0.01147301  1
  Zr  Zr62  1  0.48661843  0.10315150  0.12098730  1
  Zr  Zr63  1  0.90622761  0.10759129  0.63858156  1
  Zr  Zr64  1  0.28229390  0.90359357  0.40234473  1
  Zr  Zr65  1  0.48809739  0.70302666  0.59958099  1
  Zr  Zr66  1  0.80680005  0.20315976  0.49897844  1
  Zr  Zr67  1  0.39892985  0.39810017  -0.00179214  1
  Zr  Zr68  1  0.29916611  0.69212592  0.38353630  1
  Zr  Zr69  1  0.69768513  0.30556878  0.38320531  1
  Zr  Zr70  1  -0.00250343  0.58678242  0.75711536  1
  Zr  Zr71  1  0.40219337  0.78065081  0.76139021  1
  Zr  Zr72  1  0.49412370  0.29859351  0.12674022  1
  Zr  Zr73  1  0.10477506  0.49041832  0.87305792  1
  Zr  Zr74  1  -0.01189412  0.19050768  -0.02575055  1
  Zr  Zr75  1  0.39601206  0.81587652  0.26161566  1
  Zr  Zr76  1  0.10438158  0.29706721  0.85583339  1
  Zr  Zr77  1  0.59907611  0.00271283  0.23611628  1
  Zr  Zr78  1  0.50256796  0.29850160  0.62280276  1
  Zr  Zr79  1  0.60914639  0.00251705  0.75843053  1
  Ta  Ta80  1  0.60252560  0.20195970  0.24056547  1
  Ta  Ta81  1  0.20338946  0.40401943  0.72018508  1
  Ta  Ta82  1  0.00886749  0.21129685  0.26926278  1
  Ta  Ta83  1  0.80397694  0.01514876  -0.00694560  1
  Ta  Ta84  1  0.09258431  0.29111713  0.62020047  1
  Ta  Ta85  1  0.30872275  0.88264751  0.61580937  1
  Ta  Ta86  1  0.70490439  0.30176064  0.62630758  1
  Ta  Ta87  1  0.60440703  0.40015686  0.74686582  1
  Ta  Ta88  1  0.50583853  0.89774418  0.87330351  1
  Ta  Ta89  1  0.79073257  -0.00086537  0.51892912  1
  Ta  Ta90  1  0.89867848  0.49862123  0.62015811  1
  Ta  Ta91  1  0.89944841  0.30878374  0.36632187  1
  Ta  Ta92  1  0.70317917  0.30715857  0.88645033  1
  Ta  Ta93  1  0.50557585  0.09966623  0.62594245  1
  Ta  Ta94  1  0.49996422  0.69451170  0.14606947  1
  Ta  Ta95  1  0.69706231  0.69974770  0.13529178  1
  Ta  Ta96  1  0.29479050  0.10686451  0.84800661  1
  Ta  Ta97  1  0.09887232  0.49985141  0.39644467  1
  Ta  Ta98  1  0.70091525  0.10806525  0.63326037  1
  Ta  Ta99  1  0.59231279  0.59930668  0.00845263  1
  Ta  Ta100  1  0.90543054  0.30132733  0.62778232  1
  Ta  Ta101  1  0.70272118  0.11083710  0.11306851  1
  Ta  Ta102  1  0.19974066  0.58948600  0.01096509  1
  Ta  Ta103  1  0.38824538  0.59735080  0.74762118  1
  Ta  Ta104  1  0.19830689  0.39883641  0.01418246  1
  Ta  Ta105  1  0.50589280  0.69675601  0.36814313  1
  Ta  Ta106  1  0.50603328  0.30164737  0.86577891  1
  Ta  Ta107  1  0.29143767  0.50018965  0.87058698  1
  Ta  Ta108  1  0.00311746  0.58933495  -0.00072362  1
  Ta  Ta109  1  0.60541392  0.40665738  0.00478446  1
  Ta  Ta110  1  0.40248398  0.00010923  0.50930610  1
  Ta  Ta111  1  0.59741973  0.20419325  -0.00612896  1
  Ta  Ta112  1  0.90604556  0.49687471  0.12729118  1
  Ta  Ta113  1  0.39420153  0.19620765  -0.02052164  1
  Ta  Ta114  1  0.19829112  0.39360722  0.50645781  1
  Ta  Ta115  1  0.09266977  0.49413755  0.61175482  1
  Ta  Ta116  1  0.79815867  0.81266626  0.23308350  1
  Ta  Ta117  1  0.70788065  0.70289084  0.34904260  1
  Ta  Ta118  1  0.60445989  0.00617475  -0.00758682  1
  Ta  Ta119  1  0.30302540  0.90897443  0.11735552  1
  Ti  Ti120  1  0.60759327  0.59437929  0.24330383  1
  Ti  Ti121  1  0.09140927  0.89993614  0.62296754  1
  Ti  Ti122  1  0.49788046  0.50337726  0.13540367  1
  Ti  Ti123  1  0.60235964  0.80614001  0.24538399  1
  Ti  Ti124  1  0.39548861  0.40973162  0.73520463  1
  Ti  Ti125  1  0.80185458  0.00621403  0.75323208  1
  Ti  Ti126  1  0.38785484  0.01158371  0.26669935  1
  Ti  Ti127  1  0.89267900  0.49129595  0.88739819  1
  Ti  Ti128  1  0.89726725  0.90191345  0.35890246  1
  Ti  Ti129  1  0.09211379  0.29554599  0.11976825  1
  Ti  Ti130  1  0.19166101  0.80825582  0.25275240  1
  Ti  Ti131  1  0.30179316  0.29820689  0.61625846  1
  Ti  Ti132  1  0.70070546  0.50342572  0.62280447  1
  Ti  Ti133  1  0.70554502  0.90015082  0.64079101  1
  Ti  Ti134  1  0.39819903  0.00475706  -0.01557703  1
  Ti  Ti135  1  0.09535268  0.10721578  0.62800667  1
  Ti  Ti136  1  0.40060452  0.20286467  0.74211582  1
  Ti  Ti137  1  0.79122225  0.21015976  0.25156904  1
  Ti  Ti138  1  0.30488694  0.09815701  0.12237518  1
  Ti  Ti139  1  0.61067711  0.20773492  0.75645179  1
  Ti  Ti140  1  0.11074322  0.68819551  0.87094740  1
  Ti  Ti141  1  -0.00056172  0.39526283  -0.00413292  1
  Ti  Ti142  1  0.60534867  0.19801532  0.50916774  1
  Ti  Ti143  1  0.08407589  0.88172302  0.39080891  1
  Ti  Ti144  1  0.70327160  0.89950117  0.87749170  1
  Ti  Ti145  1  -0.00598158  0.39225454  0.49647456  1
  Ti  Ti146  1  0.79631821  0.80218143  0.00898701  1
  Ti  Ti147  1  0.40064386  -0.00591296  0.74061358  1
  Ti  Ti148  1  0.60886242  0.60465045  0.49328657  1
  Ti  Ti149  1  0.09298047  0.69705263  0.35883520  1
  Ti  Ti150  1  0.20613898  0.78762088  0.74177899  1
  Ti  Ti151  1  0.79777614  0.40664029  0.23554476  1
  Ti  Ti152  1  0.70980965  0.29908630  0.10432004  1
  Ti  Ti153  1  -0.00423850  0.39467916  0.74685980  1
  Ti  Ti154  1  0.00924640  0.40382139  0.25235313  1
  Ti  Ti155  1  0.70614438  0.91342641  0.11896294  1
  Ti  Ti156  1  0.70719254  0.11070648  0.88048122  1
  Ti  Ti157  1  0.80103238  0.40282226  0.50615559  1
  Ti  Ti158  1  0.69795723  0.50055760  0.88016334  1
  Ti  Ti159  1  0.80783143  0.21025452  0.76506992  1
  Mo  Mo160  1  0.79489875  0.58605853  0.75197319  1
  Mo  Mo161  1  0.30356763  0.09284637  0.40082381  1
  Mo  Mo162  1  0.30274457  0.49802817  0.60490394  1
  Mo  Mo163  1  0.79774166  0.60052701  0.23546585  1
  Mo  Mo164  1  0.09415354  0.30190026  0.39555836  1
  Mo  Mo165  1  0.79706973  0.81513771  0.75351629  1
  Mo  Mo166  1  0.09372944  0.69751497  0.64472585  1
  Mo  Mo167  1  0.19455243  -0.01047294  0.52486353  1
  Mo  Mo168  1  0.19698964  0.20169229  0.51632731  1
  Mo  Mo169  1  0.40172885  0.60141042  0.48410943  1
  Mo  Mo170  1  0.00410295  0.80703519  0.24745542  1
  Mo  Mo171  1  -0.00199384  0.20445110  0.75596725  1
  Mo  Mo172  1  0.40544897  0.80285062  0.48638018  1
  Mo  Mo173  1  0.39952645  0.39721014  0.51027125  1
  Mo  Mo174  1  0.09191573  0.48621232  0.11132060  1
  Mo  Mo175  1  0.79609918  0.20358858  -0.01152245  1
  Mo  Mo176  1  0.40500590  0.19569556  0.51705961  1
  Mo  Mo177  1  -0.00904043  0.80341609  0.51479200  1
  Mo  Mo178  1  0.29000450  0.68587551  0.87681585  1
  Mo  Mo179  1  0.89492456  0.10084472  0.85810531  1
  Mo  Mo180  1  0.60931341  0.00707608  0.51956346  1
  Mo  Mo181  1  0.80364087  0.40188225  -0.00088472  1
  Mo  Mo182  1  0.19820676  0.59065741  0.50805855  1
  Mo  Mo183  1  0.69935350  0.50008396  0.12062513  1
  Mo  Mo184  1  0.00084006  0.58743637  0.24798468  1
  Mo  Mo185  1  0.40010371  0.18851762  0.25891427  1
  Mo  Mo186  1  0.89793337  0.30735445  0.87158184  1
  Mo  Mo187  1  -0.00436289  0.00921618  -0.02145595  1
  Mo  Mo188  1  0.79990199  0.00539313  0.22991147  1
  Mo  Mo189  1  0.89455725  0.90659342  0.64872794  1
  Mo  Mo190  1  0.00160514  0.00372338  0.75000153  1
  Mo  Mo191  1  0.49830214  0.69346801  0.87803281  1
  Mo  Mo192  1  0.09645175  0.10076685  0.84711362  1
  Mo  Mo193  1  -0.00411027  0.20866884  0.48747349  1
  Mo  Mo194  1  0.61322185  0.40203827  0.51909138  1
  Mo  Mo195  1  0.30275318  0.69529862  0.60613737  1
  Mo  Mo196  1  0.19985310  0.20398858  0.73060095  1
  Mo  Mo197  1  0.41264555  0.59857784  0.26516725  1
  Mo  Mo198  1  0.59855912  0.80633227  0.76173979  1
  Mo  Mo199  1  0.40766394  0.39430724  0.25329149  1
