# generated using pymatgen
data_HfZrTaTiMo
_symmetry_space_group_name_H-M   'P 1'
_cell_length_a   15.92084766
_cell_length_b   15.93145022
_cell_length_c   15.20647005
_cell_angle_alpha   89.98969410
_cell_angle_beta   90.00334885
_cell_angle_gamma   89.88991577
_symmetry_Int_Tables_number   1
_chemical_formula_structural   HfZrTaTiMo
_chemical_formula_sum   'Hf40 Zr40 Ta40 Ti40 Mo40'
_cell_volume   3856.99520611
_cell_formula_units_Z   40
loop_
 _symmetry_equiv_pos_site_id
 _symmetry_equiv_pos_as_xyz
  1  'x, y, z'
loop_
 _atom_site_type_symbol
 _atom_site_label
 _atom_site_symmetry_multiplicity
 _atom_site_fract_x
 _atom_site_fract_y
 _atom_site_fract_z
 _atom_site_occupancy
  Hf  Hf0  1  0.50662085  0.09964663  0.11283070  1
  Hf  Hf1  1  0.39387446  0.81233215  0.74333272  1
  Hf  Hf2  1  0.60163373  0.79691139  0.26004209  1
  Hf  Hf3  1  0.21624446  0.18985574  -0.00539605  1
  Hf  Hf4  1  0.40311615  -0.00855692  0.26054215  1
  Hf  Hf5  1  0.90233184  0.90053081  0.62660272  1
  Hf  Hf6  1  0.39969793  0.41243706  0.74260245  1
  Hf  Hf7  1  0.49727798  0.51527447  0.86589417  1
  Hf  Hf8  1  0.49591738  0.30498149  0.11952247  1
  Hf  Hf9  1  0.10702731  0.30768630  0.11603121  1
  Hf  Hf10  1  0.19974827  0.60204525  0.49365831  1
  Hf  Hf11  1  0.19852626  0.40572662  0.75481841  1
  Hf  Hf12  1  0.50038384  0.30699776  0.37999770  1
  Hf  Hf13  1  0.40226169  0.20551254  0.25534989  1
  Hf  Hf14  1  0.22546899  0.40282703  0.49065894  1
  Hf  Hf15  1  0.00221192  0.40650432  0.24033283  1
  Hf  Hf16  1  0.29207444  0.09719179  0.37736234  1
  Hf  Hf17  1  0.29210924  0.08677469  0.61873787  1
  Hf  Hf18  1  0.30348327  0.31106784  0.11248013  1
  Hf  Hf19  1  0.90083560  0.29049557  0.36014629  1
  Hf  Hf20  1  0.90093719  0.10455673  0.63948430  1
  Hf  Hf21  1  0.89546293  0.90028486  0.88075149  1
  Hf  Hf22  1  0.79946494  -0.00371657  0.24416802  1
  Hf  Hf23  1  0.29943631  0.30024670  0.63109905  1
  Hf  Hf24  1  0.79921258  0.59373725  -0.01871089  1
  Hf  Hf25  1  0.30347217  0.30288840  0.87820393  1
  Hf  Hf26  1  0.69716622  0.89397552  0.11582544  1
  Hf  Hf27  1  0.60344255  0.00588900  0.25355525  1
  Hf  Hf28  1  0.60303431  0.41472766  0.00674173  1
  Hf  Hf29  1  0.28413925  0.71484480  0.62639808  1
  Hf  Hf30  1  0.39394592  0.59075119  0.50663692  1
  Hf  Hf31  1  -0.01829562  0.60364465  0.50547285  1
  Hf  Hf32  1  0.20212159  0.20434246  0.24792450  1
  Hf  Hf33  1  0.60082742  0.60532228  0.49787622  1
  Hf  Hf34  1  0.10640556  0.08440648  0.88878079  1
  Hf  Hf35  1  0.41017049  -0.00189056  0.75344970  1
  Hf  Hf36  1  0.91061514  0.90063768  0.38213388  1
  Hf  Hf37  1  0.50750691  0.30700697  0.87605011  1
  Hf  Hf38  1  0.09616580  0.29434636  0.88436627  1
  Hf  Hf39  1  0.09304777  0.49801843  0.38116160  1
  Zr  Zr40  1  -0.00330049  0.62759431  0.26587880  1
  Zr  Zr41  1  0.20462171  0.77438248  0.00803617  1
  Zr  Zr42  1  -0.00163897  0.78371907  0.75264726  1
  Zr  Zr43  1  -0.01033936  0.39022295  0.75289531  1
  Zr  Zr44  1  0.10095801  0.09083697  0.12290050  1
  Zr  Zr45  1  0.61580504  0.20132236  -0.00284458  1
  Zr  Zr46  1  0.90107345  0.89115727  0.10864844  1
  Zr  Zr47  1  0.90785162  0.09945967  0.88662350  1
  Zr  Zr48  1  0.29759004  0.89975421  0.89067295  1
  Zr  Zr49  1  0.10884124  0.51332858  0.11821437  1
  Zr  Zr50  1  0.80005405  0.78638735  0.51131793  1
  Zr  Zr51  1  -0.00345370  0.19392562  0.51162471  1
  Zr  Zr52  1  0.40407709  0.78840400  0.00663415  1
  Zr  Zr53  1  0.40214302  0.19044921  0.75482085  1
  Zr  Zr54  1  0.70945947  0.30693487  0.62687772  1
  Zr  Zr55  1  0.39157752  0.42658982  -0.00521108  1
  Zr  Zr56  1  0.09647530  0.88962752  0.11244646  1
  Zr  Zr57  1  0.61781250  0.18697832  0.76102239  1
  Zr  Zr58  1  0.78636696  0.59640063  0.49498656  1
  Zr  Zr59  1  0.40252536  0.20507329  0.50085582  1
  Zr  Zr60  1  -0.01141288  0.41569833  0.00283092  1
  Zr  Zr61  1  0.71004333  0.89648973  0.37855866  1
  Zr  Zr62  1  0.40355400  -0.00135294  0.49778777  1
  Zr  Zr63  1  0.09981460  0.88805707  0.88953257  1
  Zr  Zr64  1  0.79023011  0.40209833  0.00315756  1
  Zr  Zr65  1  0.51301760  0.30462632  0.62506668  1
  Zr  Zr66  1  0.19138992  0.19640717  0.50176885  1
  Zr  Zr67  1  0.79539620  0.40445580  0.25052640  1
  Zr  Zr68  1  0.60702416  0.00366002  0.48278457  1
  Zr  Zr69  1  0.18523428  0.78732488  0.25605250  1
  Zr  Zr70  1  0.69649357  0.91261699  0.62771775  1
  Zr  Zr71  1  0.80536069  0.60924042  0.74580894  1
  Zr  Zr72  1  0.59645355  0.60788510  0.73513906  1
  Zr  Zr73  1  0.49806378  0.89971360  0.11693502  1
  Zr  Zr74  1  0.09582703  0.29479220  0.37116563  1
  Zr  Zr75  1  0.81029553  0.20933330  0.76004417  1
  Zr  Zr76  1  0.59839322  0.61460321  -0.00109299  1
  Zr  Zr77  1  0.30865350  0.08962066  0.12384066  1
  Zr  Zr78  1  0.09576378  0.49430150  0.61971513  1
  Zr  Zr79  1  0.01199131  -0.00278607  0.74355309  1
  Ta  Ta80  1  0.50158081  0.69443383  0.14074276  1
  Ta  Ta81  1  0.90064695  0.09488114  0.12274280  1
  Ta  Ta82  1  0.80267054  0.20229532  0.49936126  1
  Ta  Ta83  1  0.81396342  0.78401001  0.25513788  1
  Ta  Ta84  1  0.69892470  0.29606075  0.36725131  1
  Ta  Ta85  1  0.80079745  0.40008267  0.48598318  1
  Ta  Ta86  1  0.29792552  0.69608135  0.85855364  1
  Ta  Ta87  1  0.09026769  0.09231734  0.36049882  1
  Ta  Ta88  1  0.19961023  0.59989686  0.26758143  1
  Ta  Ta89  1  0.81061215  0.01567263  0.49994170  1
  Ta  Ta90  1  0.78106138  0.00968104  0.76173914  1
  Ta  Ta91  1  0.89382067  0.52102387  0.13521641  1
  Ta  Ta92  1  0.89974817  0.29536735  0.12566409  1
  Ta  Ta93  1  0.78806046  0.78862218  -0.01593274  1
  Ta  Ta94  1  0.61109460  0.40960642  0.48373112  1
  Ta  Ta95  1  0.88797704  0.48817914  0.62846044  1
  Ta  Ta96  1  0.19335610  0.18652114  0.75385479  1
  Ta  Ta97  1  0.61211938  0.19990379  0.49874616  1
  Ta  Ta98  1  0.12160517  0.89283699  0.61441761  1
  Ta  Ta99  1  0.21034065  0.40479781  0.26227354  1
  Ta  Ta100  1  0.69541223  0.51513451  0.14192360  1
  Ta  Ta101  1  0.19908422  -0.01318825  0.25723743  1
  Ta  Ta102  1  0.09765008  0.50431327  0.87945756  1
  Ta  Ta103  1  0.90606077  0.10046201  0.35962997  1
  Ta  Ta104  1  0.52249557  0.09182003  0.62698771  1
  Ta  Ta105  1  0.69722520  0.49143002  0.63147462  1
  Ta  Ta106  1  0.49109385  0.70823551  0.86085953  1
  Ta  Ta107  1  0.90015006  0.29704025  0.89615741  1
  Ta  Ta108  1  0.29409235  0.89257548  0.38636244  1
  Ta  Ta109  1  0.09632530  0.70263188  0.62029613  1
  Ta  Ta110  1  0.60028975  0.79180390  0.50096434  1
  Ta  Ta111  1  0.18883679  0.60481768  0.75004151  1
  Ta  Ta112  1  0.59577550  0.81483124  0.75476312  1
  Ta  Ta113  1  0.59492828  0.40512665  0.25276114  1
  Ta  Ta114  1  0.49605677  0.51221384  0.14099688  1
  Ta  Ta115  1  0.21109507  -0.01298006  0.74892321  1
  Ta  Ta116  1  0.50333017  0.90098424  0.61689550  1
  Ta  Ta117  1  0.79415216  0.19301312  0.23432445  1
  Ta  Ta118  1  0.00143196  -0.01055902  0.24431971  1
  Ta  Ta119  1  0.89904247  0.70086680  0.10748675  1
  Ti  Ti120  1  0.29748689  0.89815539  0.12372150  1
  Ti  Ti121  1  0.39483196  0.40504364  0.25704137  1
  Ti  Ti122  1  -0.00109665  0.19699809  0.01416361  1
  Ti  Ti123  1  0.69658949  0.30262907  0.13583474  1
  Ti  Ti124  1  0.09434164  0.29145516  0.63279420  1
  Ti  Ti125  1  0.50746096  0.09497470  0.88444072  1
  Ti  Ti126  1  0.30147495  0.70415884  0.37880652  1
  Ti  Ti127  1  0.08261533  0.69403866  0.10899385  1
  Ti  Ti128  1  0.59743521  0.80293356  -0.01574115  1
  Ti  Ti129  1  0.49549702  0.88926567  0.38398789  1
  Ti  Ti130  1  0.39682345  0.60892483  0.00169906  1
  Ti  Ti131  1  0.60281143  0.60166376  0.26828963  1
  Ti  Ti132  1  0.80059014  0.39878779  0.76573781  1
  Ti  Ti133  1  0.79660430  0.79983559  0.75191575  1
  Ti  Ti134  1  0.21275145  0.58795218  -0.01532448  1
  Ti  Ti135  1  0.39486065  0.79793491  0.25063823  1
  Ti  Ti136  1  0.49952398  0.71048340  0.62585079  1
  Ti  Ti137  1  0.69121450  0.70490076  0.86077559  1
  Ti  Ti138  1  0.70435324  0.69700719  0.13267781  1
  Ti  Ti139  1  -0.01195489  0.39303269  0.50345645  1
  Ti  Ti140  1  0.00155337  0.79517468  0.50354722  1
  Ti  Ti141  1  0.40008017  0.00649795  -0.01249267  1
  Ti  Ti142  1  0.50600167  0.10793521  0.37525881  1
  Ti  Ti143  1  0.50549923  0.49299148  0.61901971  1
  Ti  Ti144  1  0.71105954  0.10918426  0.37306121  1
  Ti  Ti145  1  0.39715786  0.79892863  0.50611772  1
  Ti  Ti146  1  -0.00581886  0.59654016  0.75471513  1
  Ti  Ti147  1  0.60425093  0.19867046  0.24588050  1
  Ti  Ti148  1  0.01050222  0.00517197  0.50770170  1
  Ti  Ti149  1  0.49390390  0.50042660  0.37536859  1
  Ti  Ti150  1  0.79694806  0.20047915  0.00902764  1
  Ti  Ti151  1  0.49330322  0.70282951  0.37578088  1
  Ti  Ti152  1  0.09874034  0.89667851  0.38440643  1
  Ti  Ti153  1  0.78665176  0.00366291  -0.00166787  1
  Ti  Ti154  1  0.89397329  0.50440334  0.36675043  1
  Ti  Ti155  1  0.39163578  0.60329389  0.73110391  1
  Ti  Ti156  1  0.69276825  0.49517730  0.85705863  1
  Ti  Ti157  1  0.30037393  0.68731877  0.13873473  1
  Ti  Ti158  1  0.39685931  0.60175265  0.26137510  1
  Ti  Ti159  1  0.29966389  0.50730159  0.13687868  1
  Mo  Mo160  1  0.89693510  0.70702510  0.38578569  1
  Mo  Mo161  1  0.29825226  0.51478210  0.85838194  1
  Mo  Mo162  1  0.70618664  0.09794256  0.89307009  1
  Mo  Mo163  1  0.89902932  0.49754059  0.85901719  1
  Mo  Mo164  1  0.20894530  -0.00852535  0.00918508  1
  Mo  Mo165  1  0.09982503  0.68696664  0.87924900  1
  Mo  Mo166  1  -0.00328301  0.80367429  0.25882465  1
  Mo  Mo167  1  0.09586750  0.70474017  0.39560483  1
  Mo  Mo168  1  0.60282119  -0.00625473  -0.01592039  1
  Mo  Mo169  1  0.89846650  0.30693205  0.61468268  1
  Mo  Mo170  1  -0.00741270  0.78728453  -0.01790963  1
  Mo  Mo171  1  0.70548630  0.10153529  0.61577619  1
  Mo  Mo172  1  0.30811047  0.50532412  0.36169834  1
  Mo  Mo173  1  0.70807674  0.30582402  0.87591959  1
  Mo  Mo174  1  0.01034047  0.20210676  0.74976299  1
  Mo  Mo175  1  0.20067153  0.40812130  -0.01593193  1
  Mo  Mo176  1  0.90142123  0.69788791  0.62687507  1
  Mo  Mo177  1  0.89708747  0.69805379  0.87993120  1
  Mo  Mo178  1  0.50253500  0.90085190  0.88424476  1
  Mo  Mo179  1  0.10413521  0.09317806  0.63858495  1
  Mo  Mo180  1  -0.00463520  -0.00309545  0.00971561  1
  Mo  Mo181  1  0.40816210  0.19469090  -0.01441402  1
  Mo  Mo182  1  0.18908684  -0.00385042  0.48552137  1
  Mo  Mo183  1  0.79672401  0.60723666  0.25606344  1
  Mo  Mo184  1  0.29815449  0.50715021  0.63695762  1
  Mo  Mo185  1  0.59993570  -0.00108468  0.76441036  1
  Mo  Mo186  1  0.30342150  0.09601646  0.87158796  1
  Mo  Mo187  1  0.19463323  0.79848684  0.75347783  1
  Mo  Mo188  1  0.70249610  0.09713311  0.11888686  1
  Mo  Mo189  1  0.60411206  0.40360227  0.75549204  1
  Mo  Mo190  1  0.19676380  0.79757828  0.48552988  1
  Mo  Mo191  1  -0.00341342  0.19443882  0.23161679  1
  Mo  Mo192  1  -0.00581038  0.60215341  -0.01532663  1
  Mo  Mo193  1  0.40951430  0.40903179  0.50762588  1
  Mo  Mo194  1  0.69193444  0.70869401  0.63919632  1
  Mo  Mo195  1  0.30566595  0.30447112  0.37162256  1
  Mo  Mo196  1  0.30088472  0.89993104  0.60966045  1
  Mo  Mo197  1  0.69942373  0.89847962  0.87627267  1
  Mo  Mo198  1  0.69367743  0.49820427  0.36356914  1
  Mo  Mo199  1  0.69652429  0.69870404  0.36362910  1
