# generated using pymatgen
data_HfZrTaTiMo
_symmetry_space_group_name_H-M   'P 1'
_cell_length_a   15.93605747
_cell_length_b   15.93154539
_cell_length_c   15.20412702
_cell_angle_alpha   89.95821387
_cell_angle_beta   90.06570844
_cell_angle_gamma   90.02045074
_symmetry_Int_Tables_number   1
_chemical_formula_structural   HfZrTaTiMo
_chemical_formula_sum   'Hf40 Zr40 Ta40 Ti40 Mo40'
_cell_volume   3860.11153254
_cell_formula_units_Z   40
loop_
 _symmetry_equiv_pos_site_id
 _symmetry_equiv_pos_as_xyz
  1  'x, y, z'
loop_
 _atom_site_type_symbol
 _atom_site_label
 _atom_site_symmetry_multiplicity
 _atom_site_fract_x
 _atom_site_fract_y
 _atom_site_fract_z
 _atom_site_occupancy
  Hf  Hf0  1  0.49658935  0.29534374  0.88410726  1
  Hf  Hf1  1  0.89926277  0.69928322  0.37119940  1
  Hf  Hf2  1  0.49008039  0.50958877  0.11512615  1
  Hf  Hf3  1  0.09729541  0.49908996  0.87988121  1
  Hf  Hf4  1  0.19500127  0.79300036  0.24755398  1
  Hf  Hf5  1  0.69640593  0.69428099  0.62190146  1
  Hf  Hf6  1  0.78271159  0.80915673  0.48184753  1
  Hf  Hf7  1  0.30046994  0.69358394  0.88460428  1
  Hf  Hf8  1  0.59341113  0.80079285  0.48355137  1
  Hf  Hf9  1  0.80393099  0.00623093  0.51610985  1
  Hf  Hf10  1  0.59790749  0.39477491  0.24854726  1
  Hf  Hf11  1  0.29817058  0.09198894  0.61814898  1
  Hf  Hf12  1  0.40239496  0.79926010  0.00865172  1
  Hf  Hf13  1  0.49878108  0.29096612  0.39053243  1
  Hf  Hf14  1  0.90514283  0.70687747  0.60300171  1
  Hf  Hf15  1  0.19518768  0.79783183  0.49260339  1
  Hf  Hf16  1  0.29919253  0.90914745  0.12802106  1
  Hf  Hf17  1  0.09813832  0.68607494  0.36647128  1
  Hf  Hf18  1  0.39026449  0.39549760  0.23931479  1
  Hf  Hf19  1  0.41469962  0.60630523  0.75744997  1
  Hf  Hf20  1  0.89356589  0.29498613  0.63538540  1
  Hf  Hf21  1  0.10896086  0.09903098  0.11286630  1
  Hf  Hf22  1  0.80268223  0.39704779  0.25245599  1
  Hf  Hf23  1  0.41041830  0.00499197  0.25545412  1
  Hf  Hf24  1  0.50443255  0.50845049  0.62474180  1
  Hf  Hf25  1  -0.00074084  0.00732124  0.25497400  1
  Hf  Hf26  1  0.19135332  0.20174582  0.51836177  1
  Hf  Hf27  1  0.77899295  0.59179202  0.48015164  1
  Hf  Hf28  1  0.60514056  0.19261326  0.24045312  1
  Hf  Hf29  1  0.89268038  0.70267669  0.89463570  1
  Hf  Hf30  1  0.30433266  0.68923679  0.12861140  1
  Hf  Hf31  1  0.60712206  0.40378000  -0.00083512  1
  Hf  Hf32  1  0.19420438  0.38825878  0.01284393  1
  Hf  Hf33  1  0.20517409  0.59783619  0.50182764  1
  Hf  Hf34  1  0.30059785  0.10829765  0.38723495  1
  Hf  Hf35  1  0.70928653  0.88271151  0.86655986  1
  Hf  Hf36  1  0.49575401  0.29630311  0.10210163  1
  Hf  Hf37  1  0.59292024  0.77330255  0.75080303  1
  Hf  Hf38  1  0.49981916  0.88860611  0.63675085  1
  Hf  Hf39  1  0.29560418  0.89758075  0.62879717  1
  Zr  Zr40  1  0.40185188  0.00167598  0.76093124  1
  Zr  Zr41  1  0.61370907  0.00089045  0.00127355  1
  Zr  Zr42  1  0.10153989  0.29708553  0.37383044  1
  Zr  Zr43  1  0.19599593  0.59536478  0.01060047  1
  Zr  Zr44  1  0.09204793  0.90931549  0.62783671  1
  Zr  Zr45  1  0.51014304  0.89029113  0.88321735  1
  Zr  Zr46  1  0.91113090  0.50448650  0.37330048  1
  Zr  Zr47  1  0.49816644  0.49971448  0.88556634  1
  Zr  Zr48  1  0.79420581  0.80819535  0.23816382  1
  Zr  Zr49  1  0.70937348  0.09345094  0.37453192  1
  Zr  Zr50  1  0.41218075  -0.01061470  0.49620221  1
  Zr  Zr51  1  0.80502592  0.00953301  -0.00177452  1
  Zr  Zr52  1  0.89098958  0.91490315  0.37254177  1
  Zr  Zr53  1  0.60980588  0.41462132  0.48566171  1
  Zr  Zr54  1  0.70813745  0.50286188  0.87758564  1
  Zr  Zr55  1  0.40242239  0.00480713  -0.00496732  1
  Zr  Zr56  1  0.40089213  0.19763937  0.23951266  1
  Zr  Zr57  1  0.00418480  0.39469687  0.50234288  1
  Zr  Zr58  1  0.89353940  0.50468584  0.60914177  1
  Zr  Zr59  1  0.18522184  0.79223637  0.75454008  1
  Zr  Zr60  1  -0.00044903  0.20226709  0.23912988  1
  Zr  Zr61  1  -0.01007325  0.41581427  0.75137448  1
  Zr  Zr62  1  0.80829154  0.00128497  0.75541307  1
  Zr  Zr63  1  0.69730684  0.30125076  0.63132481  1
  Zr  Zr64  1  0.88925674  0.31195482  0.87424479  1
  Zr  Zr65  1  0.90123348  0.89810528  0.62647179  1
  Zr  Zr66  1  0.50071720  0.29726562  0.61107486  1
  Zr  Zr67  1  0.29427640  0.29196689  0.87860322  1
  Zr  Zr68  1  -0.00039007  0.20978971  0.00449375  1
  Zr  Zr69  1  0.40083056  0.19952166  0.74026673  1
  Zr  Zr70  1  0.29443313  0.90230794  0.37032684  1
  Zr  Zr71  1  0.80717669  0.60660756  0.75312115  1
  Zr  Zr72  1  0.10934911  0.10698533  0.87324232  1
  Zr  Zr73  1  0.30715096  0.69856714  0.63173856  1
  Zr  Zr74  1  0.30106815  0.30207713  0.38978469  1
  Zr  Zr75  1  0.61263408  -0.01131227  0.50757974  1
  Zr  Zr76  1  0.40063639  0.78853218  0.48393514  1
  Zr  Zr77  1  0.81068326  0.20072429  0.23631612  1
  Zr  Zr78  1  0.00732647  0.61648385  0.74861488  1
  Zr  Zr79  1  0.10115567  0.90821708  0.11793463  1
  Ta  Ta80  1  0.00813604  0.81271234  0.47830382  1
  Ta  Ta81  1  0.70279402  0.29732042  0.86840848  1
  Ta  Ta82  1  0.68790947  0.69726875  0.34823703  1
  Ta  Ta83  1  0.20084644  0.40132498  0.52002804  1
  Ta  Ta84  1  0.51063224  0.69004813  0.90461794  1
  Ta  Ta85  1  0.59086102  0.60554644  0.48037677  1
  Ta  Ta86  1  -0.00024316  0.80057279  0.00968981  1
  Ta  Ta87  1  0.90052860  0.69999645  0.12761361  1
  Ta  Ta88  1  0.29152370  0.89562560  0.87821084  1
  Ta  Ta89  1  0.30279837  0.49293234  0.87793619  1
  Ta  Ta90  1  0.20135564  0.39431821  0.23359959  1
  Ta  Ta91  1  0.60131145  0.00580607  0.75233212  1
  Ta  Ta92  1  0.69640712  0.49990581  0.63940639  1
  Ta  Ta93  1  0.70319108  0.29136892  0.38182458  1
  Ta  Ta94  1  0.50994454  0.10264842  0.38862191  1
  Ta  Ta95  1  0.20230090  0.40030655  0.74235046  1
  Ta  Ta96  1  0.30569635  0.50028061  0.63378861  1
  Ta  Ta97  1  0.79703346  0.80450112  0.01933665  1
  Ta  Ta98  1  0.00005006  0.80311568  0.24544057  1
  Ta  Ta99  1  -0.00357781  0.39557950  0.24003286  1
  Ta  Ta100  1  0.09760363  0.30121143  0.86083598  1
  Ta  Ta101  1  0.50977039  0.89794575  0.13452459  1
  Ta  Ta102  1  0.79626520  0.00992266  0.22431859  1
  Ta  Ta103  1  0.49768642  0.69843668  0.35168816  1
  Ta  Ta104  1  0.09699641  0.50081362  0.13574759  1
  Ta  Ta105  1  0.70558051  0.30230065  0.11186572  1
  Ta  Ta106  1  0.89628754  0.50213905  0.12119901  1
  Ta  Ta107  1  0.20618471  0.20287098  0.23417185  1
  Ta  Ta108  1  0.40033265  0.59709703  0.48251550  1
  Ta  Ta109  1  0.38997045  0.59331005  0.25797812  1
  Ta  Ta110  1  0.10154405  0.50741212  0.62562114  1
  Ta  Ta111  1  0.69715289  0.50453598  0.13176598  1
  Ta  Ta112  1  0.09265280  0.29751003  0.64292192  1
  Ta  Ta113  1  0.59560558  0.39899391  0.75736931  1
  Ta  Ta114  1  0.10575707  0.49490698  0.36336818  1
  Ta  Ta115  1  0.69918429  0.11051815  0.63867157  1
  Ta  Ta116  1  0.20066608  0.59522668  0.75120748  1
  Ta  Ta117  1  -0.00759138  0.80173268  0.76352767  1
  Ta  Ta118  1  0.40053817  0.79549023  0.76616314  1
  Ta  Ta119  1  0.19495028  0.79883553  0.00649925  1
  Ti  Ti120  1  0.79573520  0.40041774  0.48735943  1
  Ti  Ti121  1  0.51234027  0.10523929  0.61702938  1
  Ti  Ti122  1  0.00730426  0.18441817  0.50896836  1
  Ti  Ti123  1  0.70319400  0.89151803  0.64775910  1
  Ti  Ti124  1  0.61322481  0.19314095  -0.00082474  1
  Ti  Ti125  1  0.39974750  0.80005143  0.25012379  1
  Ti  Ti126  1  0.37828181  0.18504052  0.00477606  1
  Ti  Ti127  1  0.80150567  0.19817024  0.50831846  1
  Ti  Ti128  1  0.19558829  0.01121052  0.26085072  1
  Ti  Ti129  1  0.49597368  0.49900835  0.36592439  1
  Ti  Ti130  1  0.90450535  0.90729467  0.11969994  1
  Ti  Ti131  1  0.09955908  0.89922712  0.88494247  1
  Ti  Ti132  1  -0.00465072  0.00504770  -0.00992246  1
  Ti  Ti133  1  0.20031762  0.00108146  0.75785750  1
  Ti  Ti134  1  0.50560210  0.10780567  0.87717896  1
  Ti  Ti135  1  0.70395130  0.11215716  0.85928847  1
  Ti  Ti136  1  0.69782538  0.69559191  0.88521582  1
  Ti  Ti137  1  0.20181290  0.19902977  0.73708764  1
  Ti  Ti138  1  0.91394745  0.10315813  0.63700113  1
  Ti  Ti139  1  0.50490795  0.09557942  0.11710920  1
  Ti  Ti140  1  0.90031842  0.29344977  0.38683605  1
  Ti  Ti141  1  0.39738918  0.39713945  0.74526389  1
  Ti  Ti142  1  0.00026174  0.60116972  0.23593748  1
  Ti  Ti143  1  0.90093030  0.11734348  0.86480891  1
  Ti  Ti144  1  0.00400361  0.00201363  0.76542834  1
  Ti  Ti145  1  -0.00220349  0.40094154  0.01349376  1
  Ti  Ti146  1  0.28919953  0.49656290  0.37040836  1
  Ti  Ti147  1  0.89572865  0.50540909  0.89848551  1
  Ti  Ti148  1  0.09554753  0.70215037  0.89061017  1
  Ti  Ti149  1  0.00071339  0.60340279  0.01558649  1
  Ti  Ti150  1  0.50581371  0.69572466  0.13422872  1
  Ti  Ti151  1  0.21572163  0.01162256  -0.01108224  1
  Ti  Ti152  1  0.39237298  0.40862286  0.50399085  1
  Ti  Ti153  1  0.80174631  0.19992747  0.00652598  1
  Ti  Ti154  1  0.79626970  0.59752672  0.24731424  1
  Ti  Ti155  1  0.90155193  0.89395742  0.88001975  1
  Ti  Ti156  1  0.17031454  0.00537338  0.48785467  1
  Ti  Ti157  1  0.61401218  0.79246801  0.02387290  1
  Ti  Ti158  1  0.78990709  0.60674178  0.01863954  1
  Ti  Ti159  1  0.90598638  0.10706644  0.38527192  1
  Mo  Mo160  1  0.60705091  0.60739971  0.02092419  1
  Mo  Mo161  1  0.40442826  0.19357054  0.51371217  1
  Mo  Mo162  1  0.29920687  0.29281564  0.10985502  1
  Mo  Mo163  1  0.39888325  0.59914547  -0.00267146  1
  Mo  Mo164  1  0.29900655  0.49515104  0.12148770  1
  Mo  Mo165  1  0.59774654  0.19670080  0.76383276  1
  Mo  Mo166  1  0.09308565  0.69917092  0.12965541  1
  Mo  Mo167  1  0.09378262  0.70218177  0.61124690  1
  Mo  Mo168  1  0.29929015  0.09339283  0.13416277  1
  Mo  Mo169  1  0.01385978  0.60764133  0.50176275  1
  Mo  Mo170  1  0.69890373  0.90383606  0.12864122  1
  Mo  Mo171  1  0.90485085  0.09633520  0.10922641  1
  Mo  Mo172  1  0.69222402  0.90447450  0.34917175  1
  Mo  Mo173  1  0.59455469  0.80242795  0.24533135  1
  Mo  Mo174  1  0.09497526  0.09848651  0.64443432  1
  Mo  Mo175  1  0.80099976  0.20057386  0.74743350  1
  Mo  Mo176  1  0.20244025  0.19719723  0.00893390  1
  Mo  Mo177  1  0.80420651  0.79365879  0.75805626  1
  Mo  Mo178  1  0.29766369  0.30623905  0.62348775  1
  Mo  Mo179  1  0.00154004  0.01200973  0.48963355  1
  Mo  Mo180  1  0.49943210  0.69243490  0.60987599  1
  Mo  Mo181  1  0.20054578  0.58733027  0.24505097  1
  Mo  Mo182  1  0.80101517  0.40491180  0.01393795  1
  Mo  Mo183  1  0.89698060  0.30766644  0.11072051  1
  Mo  Mo184  1  0.69540199  0.49865746  0.35161473  1
  Mo  Mo185  1  0.00020179  0.19962057  0.75537176  1
  Mo  Mo186  1  0.60147259  0.59624856  0.75274292  1
  Mo  Mo187  1  0.60321982  0.00192634  0.24246602  1
  Mo  Mo188  1  0.10286701  0.10478520  0.36789481  1
  Mo  Mo189  1  0.09781134  0.30258502  0.13276563  1
  Mo  Mo190  1  0.39158086  0.39787613  0.00606593  1
  Mo  Mo191  1  0.69910252  0.10762367  0.12043722  1
  Mo  Mo192  1  0.79205557  0.40401657  0.75115384  1
  Mo  Mo193  1  0.29918435  0.09831362  0.85970835  1
  Mo  Mo194  1  0.50667992  0.90043560  0.35141376  1
  Mo  Mo195  1  0.69993279  0.69713031  0.13419672  1
  Mo  Mo196  1  0.61092401  0.19305170  0.49460947  1
  Mo  Mo197  1  0.59305785  0.59545498  0.24799255  1
  Mo  Mo198  1  0.30016090  0.69095952  0.35898745  1
  Mo  Mo199  1  0.09625870  0.90147276  0.36548840  1
