# generated using pymatgen
data_HfZrTaTiMo
_symmetry_space_group_name_H-M   'P 1'
_cell_length_a   15.93247650
_cell_length_b   15.95417580
_cell_length_c   15.17691408
_cell_angle_alpha   89.98525006
_cell_angle_beta   90.06370493
_cell_angle_gamma   89.87404700
_symmetry_Int_Tables_number   1
_chemical_formula_structural   HfZrTaTiMo
_chemical_formula_sum   'Hf40 Zr40 Ta40 Ti40 Mo40'
_cell_volume   3857.80083540
_cell_formula_units_Z   40
loop_
 _symmetry_equiv_pos_site_id
 _symmetry_equiv_pos_as_xyz
  1  'x, y, z'
loop_
 _atom_site_type_symbol
 _atom_site_label
 _atom_site_symmetry_multiplicity
 _atom_site_fract_x
 _atom_site_fract_y
 _atom_site_fract_z
 _atom_site_occupancy
  Hf  Hf0  1  -0.00986700  0.60824436  0.75790771  1
  Hf  Hf1  1  0.40318844  0.40359928  0.76495426  1
  Hf  Hf2  1  0.11603342  0.69667231  0.62480460  1
  Hf  Hf3  1  0.60968213  0.40699824  0.48346202  1
  Hf  Hf4  1  0.09498241  0.89391739  0.39716951  1
  Hf  Hf5  1  0.80530297  -0.00499088  0.74459954  1
  Hf  Hf6  1  0.69032560  0.89196213  0.12872296  1
  Hf  Hf7  1  0.00486814  0.39229104  0.25949502  1
  Hf  Hf8  1  0.48987206  0.89694766  0.63428859  1
  Hf  Hf9  1  0.40335341  0.20764493  0.73946309  1
  Hf  Hf10  1  0.79176684  0.20515758  0.00733795  1
  Hf  Hf11  1  0.00094338  0.20305631  0.74140286  1
  Hf  Hf12  1  0.79849499  -0.00614831  0.26532241  1
  Hf  Hf13  1  0.30228043  0.89062669  0.63733345  1
  Hf  Hf14  1  0.88983913  0.12233695  0.37829614  1
  Hf  Hf15  1  0.50731208  0.49317543  0.14165363  1
  Hf  Hf16  1  0.60183815  0.59878665  0.01129188  1
  Hf  Hf17  1  0.19612520  -0.00036085  0.75446970  1
  Hf  Hf18  1  0.69539324  0.09475979  0.14066059  1
  Hf  Hf19  1  0.30091124  0.09988548  0.10670481  1
  Hf  Hf20  1  0.28675837  0.30669000  0.36779459  1
  Hf  Hf21  1  0.39556790  0.19654440  0.24382496  1
  Hf  Hf22  1  0.90544673  0.50809293  0.12389540  1
  Hf  Hf23  1  0.71786041  0.28743643  0.37536265  1
  Hf  Hf24  1  0.81019514  0.78709726  0.75332700  1
  Hf  Hf25  1  0.11265976  0.49846895  0.36520455  1
  Hf  Hf26  1  0.00366281  -0.00451344  0.24190145  1
  Hf  Hf27  1  0.89022838  0.89291251  0.13035648  1
  Hf  Hf28  1  0.19957416  0.40377952  0.75866480  1
  Hf  Hf29  1  -0.00015821  0.00202142  0.00310708  1
  Hf  Hf30  1  0.30077785  0.50057620  0.13075476  1
  Hf  Hf31  1  0.59129821  0.79483593  0.49625823  1
  Hf  Hf32  1  0.89748268  0.89376373  0.39547274  1
  Hf  Hf33  1  0.49855576  0.09885198  0.86507848  1
  Hf  Hf34  1  0.10026152  0.29507003  0.88047264  1
  Hf  Hf35  1  0.30626025  0.29159965  0.89506807  1
  Hf  Hf36  1  0.50693101  0.08384489  0.63418188  1
  Hf  Hf37  1  0.29765292  0.70237975  0.11182456  1
  Hf  Hf38  1  0.20522488  0.00303951  0.51354878  1
  Hf  Hf39  1  0.89463697  0.30787561  0.62007210  1
  Zr  Zr40  1  0.80944957  0.60660299  0.26161393  1
  Zr  Zr41  1  0.89236792  0.50574412  0.62216487  1
  Zr  Zr42  1  0.40157405  0.19484824  0.50285157  1
  Zr  Zr43  1  0.49923669  0.08734364  0.12936018  1
  Zr  Zr44  1  0.60412408  0.78831321  0.73359699  1
  Zr  Zr45  1  0.29434870  0.10290153  0.36717175  1
  Zr  Zr46  1  -0.01231935  0.80224461  -0.01349995  1
  Zr  Zr47  1  0.78713567  0.01390612  0.50753695  1
  Zr  Zr48  1  0.48426990  0.49373887  0.61919402  1
  Zr  Zr49  1  0.20706524  0.42182417  0.50704416  1
  Zr  Zr50  1  0.60194017  0.19473512  0.00147934  1
  Zr  Zr51  1  0.18613468  0.80725800  0.23124271  1
  Zr  Zr52  1  0.61116529  0.39599788  -0.00713994  1
  Zr  Zr53  1  -0.00307633  0.79015544  0.24622237  1
  Zr  Zr54  1  0.29218158  0.89815393  0.36994935  1
  Zr  Zr55  1  0.00086083  0.80651406  0.75460629  1
  Zr  Zr56  1  0.51287007  0.29051222  0.36588001  1
  Zr  Zr57  1  0.49432993  0.69371167  0.86692911  1
  Zr  Zr58  1  0.09888803  0.10757184  0.38509807  1
  Zr  Zr59  1  0.59334022  0.59906775  0.49532677  1
  Zr  Zr60  1  0.31210592  0.32149989  0.61698932  1
  Zr  Zr61  1  0.19707466  0.40278770  0.00178740  1
  Zr  Zr62  1  0.89505983  0.30882655  0.87612427  1
  Zr  Zr63  1  0.49868342  0.89537985  0.12749520  1
  Zr  Zr64  1  0.09891452  0.50632024  0.12673785  1
  Zr  Zr65  1  0.89950729  0.11071462  0.86856439  1
  Zr  Zr66  1  -0.00012769  0.20149111  0.23817537  1
  Zr  Zr67  1  0.18979059  0.00642383  0.22927743  1
  Zr  Zr68  1  0.78818706  0.80361236  -0.02015373  1
  Zr  Zr69  1  0.29918277  0.10134745  0.88327132  1
  Zr  Zr70  1  0.88721689  0.31810822  0.11879021  1
  Zr  Zr71  1  0.69247394  0.68865965  0.87110421  1
  Zr  Zr72  1  -0.00758191  0.01014602  0.52294489  1
  Zr  Zr73  1  0.71080054  0.49109894  0.13883029  1
  Zr  Zr74  1  0.79806746  -0.00110161  -0.01324571  1
  Zr  Zr75  1  0.59823769  0.39730712  0.74673114  1
  Zr  Zr76  1  0.38036593  0.60064976  0.49115329  1
  Zr  Zr77  1  0.69567031  0.89911174  0.61930190  1
  Zr  Zr78  1  0.01246350  0.59482095  0.49722031  1
  Zr  Zr79  1  0.29897065  0.70113864  0.87891641  1
  Ta  Ta80  1  0.10319885  0.69587663  0.88741190  1
  Ta  Ta81  1  0.80124465  0.59834920  -0.00345337  1
  Ta  Ta82  1  0.20432514  0.20541487  0.73858274  1
  Ta  Ta83  1  0.00199429  0.20236127  0.01320183  1
  Ta  Ta84  1  0.60341498  0.60215653  0.26360793  1
  Ta  Ta85  1  -0.00067211  0.40064307  0.49154149  1
  Ta  Ta86  1  0.69220914  0.10685289  0.36468548  1
  Ta  Ta87  1  0.90652983  0.70454996  0.39710435  1
  Ta  Ta88  1  0.60099786  0.79272611  0.27016127  1
  Ta  Ta89  1  0.40733648  0.59503791  0.01113740  1
  Ta  Ta90  1  0.49918918  0.09248322  0.36879718  1
  Ta  Ta91  1  0.30483626  0.89748267  0.88002008  1
  Ta  Ta92  1  0.60611482  -0.01502960  -0.02163305  1
  Ta  Ta93  1  0.18652938  0.21429716  0.22463815  1
  Ta  Ta94  1  0.30582740  0.51038340  0.88224584  1
  Ta  Ta95  1  0.59827848  -0.01388326  0.27030017  1
  Ta  Ta96  1  0.00248035  0.40847464  0.75409264  1
  Ta  Ta97  1  0.49967636  0.89193374  0.86240238  1
  Ta  Ta98  1  0.69611719  0.10221898  0.85386528  1
  Ta  Ta99  1  0.19726161  0.61601902  0.25287950  1
  Ta  Ta100  1  0.70516987  0.29258339  0.85564852  1
  Ta  Ta101  1  0.70611606  0.30203053  0.61872890  1
  Ta  Ta102  1  0.61202966  0.18530409  0.51027452  1
  Ta  Ta103  1  0.39619017  0.79845925  0.24880873  1
  Ta  Ta104  1  0.10478413  0.10490203  0.88136801  1
  Ta  Ta105  1  0.30183002  0.50530482  0.34884921  1
  Ta  Ta106  1  0.20120216  0.20464830  0.52100146  1
  Ta  Ta107  1  0.60202975  0.59086006  0.73033669  1
  Ta  Ta108  1  0.69511620  0.30151635  0.15312914  1
  Ta  Ta109  1  0.50437461  0.29928939  0.13203290  1
  Ta  Ta110  1  0.40216282  -0.00582984  0.49265787  1
  Ta  Ta111  1  0.30527338  0.30362975  0.11882383  1
  Ta  Ta112  1  0.10334990  0.10475866  0.63243942  1
  Ta  Ta113  1  0.30098328  0.90301684  0.10620996  1
  Ta  Ta114  1  0.09847822  0.31073156  0.62341327  1
  Ta  Ta115  1  0.70035933  0.70343453  0.12908645  1
  Ta  Ta116  1  0.00190278  -0.00135416  0.74891480  1
  Ta  Ta117  1  0.09586878  0.69391296  0.09929251  1
  Ta  Ta118  1  0.38921961  0.79369449  0.49279471  1
  Ta  Ta119  1  0.79333140  0.79652328  0.26920086  1
  Ti  Ti120  1  0.89630925  0.69690285  0.11550337  1
  Ti  Ti121  1  0.40799842  -0.00474087  -0.01265561  1
  Ti  Ti122  1  0.50918761  0.70468368  0.13021883  1
  Ti  Ti123  1  0.40791184  0.40714015  0.47211645  1
  Ti  Ti124  1  0.81188634  0.40444213  0.27992808  1
  Ti  Ti125  1  0.71687804  0.68281565  0.61524827  1
  Ti  Ti126  1  0.89283617  0.50485449  0.87691031  1
  Ti  Ti127  1  0.29803849  0.70080043  0.64341141  1
  Ti  Ti128  1  0.10273838  0.89196374  0.61988339  1
  Ti  Ti129  1  0.79981432  0.40492780  0.75350294  1
  Ti  Ti130  1  0.19536084  0.80036162  0.76300122  1
  Ti  Ti131  1  0.89818886  0.88851201  0.61454311  1
  Ti  Ti132  1  0.41303613  0.40267797  -0.00051777  1
  Ti  Ti133  1  0.10298348  0.29585803  0.38908196  1
  Ti  Ti134  1  0.10803075  0.90340505  0.88811222  1
  Ti  Ti135  1  0.30881720  0.09201866  0.63483738  1
  Ti  Ti136  1  0.79812733  0.58108308  0.47688609  1
  Ti  Ti137  1  -0.00358418  0.40747466  -0.00790638  1
  Ti  Ti138  1  0.40229012  0.60837462  0.24515547  1
  Ti  Ti139  1  0.41161834  0.79809110  0.00071310  1
  Ti  Ti140  1  0.70305261  0.49800488  0.86818061  1
  Ti  Ti141  1  0.47809198  0.69553607  0.63317676  1
  Ti  Ti142  1  0.50444007  0.29321037  0.88228659  1
  Ti  Ti143  1  0.10027837  0.51023402  0.88052647  1
  Ti  Ti144  1  0.28935219  0.52538091  0.64855459  1
  Ti  Ti145  1  0.60304725  0.20212354  0.73581470  1
  Ti  Ti146  1  0.70874282  0.49509628  0.62022729  1
  Ti  Ti147  1  0.50454861  0.50811410  0.87369998  1
  Ti  Ti148  1  0.40444377  0.39734672  0.25542992  1
  Ti  Ti149  1  0.10289014  0.50574942  0.63434583  1
  Ti  Ti150  1  0.89231898  0.10090993  0.13008414  1
  Ti  Ti151  1  0.00444723  0.60993742  0.26290936  1
  Ti  Ti152  1  0.70495494  0.70061899  0.38712112  1
  Ti  Ti153  1  0.59532529  -0.00338558  0.48615624  1
  Ti  Ti154  1  0.50785057  0.30245681  0.60804315  1
  Ti  Ti155  1  0.48813723  0.69805313  0.36958967  1
  Ti  Ti156  1  0.89686575  0.69903773  0.60455390  1
  Ti  Ti157  1  -0.00098066  0.20488290  0.51268027  1
  Ti  Ti158  1  0.48997267  0.89562790  0.37245450  1
  Ti  Ti159  1  0.11361626  0.70983853  0.39556229  1
  Mo  Mo160  1  0.79578413  0.78986106  0.49969135  1
  Mo  Mo161  1  0.90152193  0.10596846  0.63294727  1
  Mo  Mo162  1  0.49555813  0.50284385  0.35800681  1
  Mo  Mo163  1  0.39417555  0.79754100  0.75478195  1
  Mo  Mo164  1  0.09679002  0.30574794  0.10911600  1
  Mo  Mo165  1  0.29829201  0.70441550  0.35577487  1
  Mo  Mo166  1  0.09961327  0.89695863  0.10366526  1
  Mo  Mo167  1  -0.00596393  0.59794182  -0.01366637  1
  Mo  Mo168  1  0.20311306  0.39689536  0.23994478  1
  Mo  Mo169  1  0.00287566  0.79830149  0.51936722  1
  Mo  Mo170  1  0.59825824  0.19306233  0.24783690  1
  Mo  Mo171  1  0.90344338  0.90439317  0.86175306  1
  Mo  Mo172  1  0.60204645  -0.00574147  0.76261329  1
  Mo  Mo173  1  0.39999610  0.59763387  0.75022684  1
  Mo  Mo174  1  0.20896192  0.79411546  0.50902905  1
  Mo  Mo175  1  0.90870294  0.50241546  0.37485725  1
  Mo  Mo176  1  0.60429885  0.40019228  0.26512630  1
  Mo  Mo177  1  0.19905817  -0.00309195  -0.00648418  1
  Mo  Mo178  1  0.90687425  0.30066264  0.39202384  1
  Mo  Mo179  1  0.20970203  0.60650263  0.48581468  1
  Mo  Mo180  1  0.20221115  0.59928368  -0.00517043  1
  Mo  Mo181  1  0.39788487  -0.00845829  0.25974401  1
  Mo  Mo182  1  0.69502988  0.89862115  0.86079295  1
  Mo  Mo183  1  0.19751802  0.80589939  -0.00047930  1
  Mo  Mo184  1  0.79833168  0.19922452  0.51919135  1
  Mo  Mo185  1  0.19409900  0.59977213  0.76870262  1
  Mo  Mo186  1  0.69287521  0.89710087  0.38605487  1
  Mo  Mo187  1  0.79345882  0.59309531  0.75207555  1
  Mo  Mo188  1  0.80315251  0.19994809  0.23799396  1
  Mo  Mo189  1  0.40821756  0.20817165  0.01223064  1
  Mo  Mo190  1  0.70189196  0.49898380  0.36645344  1
  Mo  Mo191  1  0.39701965  -0.00241866  0.76462401  1
  Mo  Mo192  1  0.59399674  0.79898510  -0.00100974  1
  Mo  Mo193  1  0.19495511  0.20010477  0.01330991  1
  Mo  Mo194  1  0.09809578  0.10188323  0.10782551  1
  Mo  Mo195  1  0.79557619  0.20167877  0.73515244  1
  Mo  Mo196  1  0.79252947  0.40580726  -0.01490027  1
  Mo  Mo197  1  0.89818285  0.69084289  0.88114318  1
  Mo  Mo198  1  0.69671664  0.10245986  0.64046506  1
  Mo  Mo199  1  0.80415466  0.40179129  0.48724561  1
