# generated using pymatgen
data_HfZrTaTiMo
_symmetry_space_group_name_H-M   'P 1'
_cell_length_a   15.93716241
_cell_length_b   15.91945590
_cell_length_c   15.22132527
_cell_angle_alpha   90.03656303
_cell_angle_beta   90.07157470
_cell_angle_gamma   89.85733210
_symmetry_Int_Tables_number   1
_chemical_formula_structural   HfZrTaTiMo
_chemical_formula_sum   'Hf40 Zr40 Ta40 Ti40 Mo40'
_cell_volume   3861.80119225
_cell_formula_units_Z   40
loop_
 _symmetry_equiv_pos_site_id
 _symmetry_equiv_pos_as_xyz
  1  'x, y, z'
loop_
 _atom_site_type_symbol
 _atom_site_label
 _atom_site_symmetry_multiplicity
 _atom_site_fract_x
 _atom_site_fract_y
 _atom_site_fract_z
 _atom_site_occupancy
  Hf  Hf0  1  0.79041367  0.59824496  0.23215660  1
  Hf  Hf1  1  0.19022317  0.59380536  0.74965246  1
  Hf  Hf2  1  0.89884669  0.71441846  0.87581128  1
  Hf  Hf3  1  0.80303086  0.20341133  0.49933261  1
  Hf  Hf4  1  0.79963117  0.00416143  0.49494769  1
  Hf  Hf5  1  0.38949523  0.39960323  0.01256079  1
  Hf  Hf6  1  0.06104508  0.50016339  0.62971645  1
  Hf  Hf7  1  0.91002534  0.09820579  0.86624940  1
  Hf  Hf8  1  0.41880976  0.19524572  0.75434682  1
  Hf  Hf9  1  0.50202637  0.10148898  0.11429907  1
  Hf  Hf10  1  0.00816519  0.00218643  0.25462670  1
  Hf  Hf11  1  0.79513702  0.79619321  0.51012446  1
  Hf  Hf12  1  0.68644534  0.91357639  0.13767382  1
  Hf  Hf13  1  0.69504084  0.49463271  0.37166878  1
  Hf  Hf14  1  0.49617579  0.70421042  0.37767898  1
  Hf  Hf15  1  0.30473197  0.30627688  0.36839314  1
  Hf  Hf16  1  0.80061953  0.39695949  0.74762192  1
  Hf  Hf17  1  0.00799527  0.20136698  0.48450768  1
  Hf  Hf18  1  0.09850817  0.29494289  0.88865384  1
  Hf  Hf19  1  0.49635179  0.49850203  0.37632963  1
  Hf  Hf20  1  0.19985528  -0.00150811  0.01929020  1
  Hf  Hf21  1  0.20260330  0.18856417  0.01176935  1
  Hf  Hf22  1  0.79506647  0.81971896  0.01595715  1
  Hf  Hf23  1  0.48399131  0.50808179  0.88129627  1
  Hf  Hf24  1  0.19664651  0.79917913  0.76019390  1
  Hf  Hf25  1  0.70139119  0.70905342  0.86372236  1
  Hf  Hf26  1  0.11075897  0.30746708  0.36780088  1
  Hf  Hf27  1  0.69829264  0.70743992  0.64661837  1
  Hf  Hf28  1  0.93612752  0.31501587  0.63572460  1
  Hf  Hf29  1  0.60541778  0.60428533  0.50356445  1
  Hf  Hf30  1  0.88737700  0.11783251  0.14710753  1
  Hf  Hf31  1  0.27554926  0.70646055  0.36040847  1
  Hf  Hf32  1  0.59427420  0.60752500  0.23276190  1
  Hf  Hf33  1  0.89923442  0.90831203  0.86049585  1
  Hf  Hf34  1  0.59924058  0.39561220  0.23386943  1
  Hf  Hf35  1  0.49831200  0.10388209  0.60917114  1
  Hf  Hf36  1  0.59418737  0.80401949  -0.00400710  1
  Hf  Hf37  1  0.30311876  0.28372667  0.61950053  1
  Hf  Hf38  1  0.40286100  0.40148317  0.24037433  1
  Hf  Hf39  1  0.11347476  0.09831610  0.61646938  1
  Zr  Zr40  1  0.00170757  0.40054853  0.24183996  1
  Zr  Zr41  1  0.60499315  0.00556568  -0.01378637  1
  Zr  Zr42  1  0.89520444  0.70184035  0.12301005  1
  Zr  Zr43  1  0.69487102  0.71138354  0.36894776  1
  Zr  Zr44  1  0.31296336  0.90536481  0.64477114  1
  Zr  Zr45  1  0.29904687  0.70018584  0.63585807  1
  Zr  Zr46  1  0.21453817  -0.01176387  0.48944510  1
  Zr  Zr47  1  0.68934165  0.10152097  0.62389747  1
  Zr  Zr48  1  0.30000038  0.29446247  0.87906504  1
  Zr  Zr49  1  0.37841819  0.81336528  0.48551617  1
  Zr  Zr50  1  0.90016296  0.89228347  0.37754889  1
  Zr  Zr51  1  0.02558424  0.77747344  0.49699280  1
  Zr  Zr52  1  0.71433476  0.90892134  0.85331408  1
  Zr  Zr53  1  0.59056620  0.01494193  0.26739101  1
  Zr  Zr54  1  0.79267173  0.60072475  -0.00249662  1
  Zr  Zr55  1  0.58489734  0.38199814  0.75746854  1
  Zr  Zr56  1  0.00232355  0.59280960  -0.00185496  1
  Zr  Zr57  1  0.29233695  0.49248852  0.86986111  1
  Zr  Zr58  1  0.91252986  0.89337263  0.61775363  1
  Zr  Zr59  1  0.49541332  0.50672660  0.63052843  1
  Zr  Zr60  1  0.17800812  0.38431332  0.73274578  1
  Zr  Zr61  1  0.80622253  0.59539206  0.51376340  1
  Zr  Zr62  1  0.30996565  0.69212491  0.89098388  1
  Zr  Zr63  1  0.89541053  0.28526482  0.86970588  1
  Zr  Zr64  1  0.71602113  0.11295613  0.85333261  1
  Zr  Zr65  1  0.09850358  0.90377295  0.88073431  1
  Zr  Zr66  1  -0.00425636  0.00384969  0.02528432  1
  Zr  Zr67  1  0.89304391  0.49587008  0.36539736  1
  Zr  Zr68  1  0.69213677  0.49308303  0.87668831  1
  Zr  Zr69  1  0.62904758  0.20786650  0.00246371  1
  Zr  Zr70  1  0.58069292  0.81510907  0.76533499  1
  Zr  Zr71  1  0.20121893  0.41087516  0.51265078  1
  Zr  Zr72  1  0.38025051  0.59332999  0.49714834  1
  Zr  Zr73  1  0.00364030  0.81033226  0.01300325  1
  Zr  Zr74  1  0.81719710  0.59121038  0.75352033  1
  Zr  Zr75  1  0.49667160  0.71480437  0.61715438  1
  Zr  Zr76  1  0.00571860  0.80303312  0.23786989  1
  Zr  Zr77  1  0.17758242  0.61202340  0.50756274  1
  Zr  Zr78  1  0.90414649  0.69232564  0.36682523  1
  Zr  Zr79  1  0.79584868  0.39368891  0.51644662  1
  Ta  Ta80  1  0.01478856  0.00020974  0.73642164  1
  Ta  Ta81  1  0.30380425  0.09762156  0.35964247  1
  Ta  Ta82  1  0.39484763  0.39420093  0.73653855  1
  Ta  Ta83  1  0.59559110  0.60888744  0.00051643  1
  Ta  Ta84  1  0.50364741  0.89517584  0.38226598  1
  Ta  Ta85  1  0.01560680  -0.00072059  0.48287520  1
  Ta  Ta86  1  0.50197970  0.91232801  0.61297814  1
  Ta  Ta87  1  0.69710084  0.29990475  0.36616238  1
  Ta  Ta88  1  0.39561841  0.60297779  0.24049071  1
  Ta  Ta89  1  0.20740740  0.19042386  0.48339763  1
  Ta  Ta90  1  0.89272532  0.49008966  0.11611387  1
  Ta  Ta91  1  0.30327716  0.90317292  0.88363433  1
  Ta  Ta92  1  0.40001128  0.39774183  0.50884225  1
  Ta  Ta93  1  -0.00092672  0.40508552  0.48172654  1
  Ta  Ta94  1  0.00795352  0.79091597  0.74632367  1
  Ta  Ta95  1  0.41341357  0.19637361  0.25501821  1
  Ta  Ta96  1  0.29170735  0.50147181  0.35853739  1
  Ta  Ta97  1  0.30924764  0.09440213  0.62791731  1
  Ta  Ta98  1  0.00850829  0.59452972  0.23366338  1
  Ta  Ta99  1  0.79756345  0.01782455  0.01850869  1
  Ta  Ta100  1  0.81286877  0.00530005  0.72044832  1
  Ta  Ta101  1  0.49840679  0.50424468  0.11213831  1
  Ta  Ta102  1  0.39974260  0.80385764  0.24212705  1
  Ta  Ta103  1  0.20548299  0.00562617  0.75835736  1
  Ta  Ta104  1  0.69011405  0.90445370  0.63103720  1
  Ta  Ta105  1  0.12157942  0.88412479  0.36776132  1
  Ta  Ta106  1  0.57657402  0.01520318  0.76016435  1
  Ta  Ta107  1  -0.00813882  0.39051379  0.00724269  1
  Ta  Ta108  1  -0.00325836  0.19703597  0.01876203  1
  Ta  Ta109  1  0.20550494  0.18871654  0.75383848  1
  Ta  Ta110  1  0.30165876  0.29132210  0.13084765  1
  Ta  Ta111  1  0.69053130  0.50131514  0.64062295  1
  Ta  Ta112  1  0.11111327  0.69647470  0.11833253  1
  Ta  Ta113  1  0.78978033  0.37223281  0.00685784  1
  Ta  Ta114  1  0.50468145  0.30154157  0.37929079  1
  Ta  Ta115  1  0.10254169  0.29736005  0.12475356  1
  Ta  Ta116  1  0.30268320  0.70114310  0.11891179  1
  Ta  Ta117  1  0.69477498  0.49447246  0.11063543  1
  Ta  Ta118  1  0.79403083  0.00502419  0.26081249  1
  Ta  Ta119  1  0.20161888  0.19425614  0.24730426  1
  Ti  Ti120  1  0.00663376  0.20155768  0.25383079  1
  Ti  Ti121  1  0.60270172  0.00124666  0.48545788  1
  Ti  Ti122  1  0.50202527  0.29148651  0.11873129  1
  Ti  Ti123  1  0.89531960  0.30000428  0.36330241  1
  Ti  Ti124  1  -0.00011797  0.59372875  0.77890764  1
  Ti  Ti125  1  0.48486588  0.90731009  0.11412682  1
  Ti  Ti126  1  0.60085240  0.39403278  0.00130318  1
  Ti  Ti127  1  0.58821849  0.80291578  0.23770819  1
  Ti  Ti128  1  0.79722959  0.39077866  0.23223655  1
  Ti  Ti129  1  0.79301793  0.80496615  0.23813564  1
  Ti  Ti130  1  0.40108634  0.00481096  0.47869640  1
  Ti  Ti131  1  0.91815094  0.10025907  0.61504294  1
  Ti  Ti132  1  0.69425012  0.89504504  0.37281956  1
  Ti  Ti133  1  0.90105858  0.10374854  0.37119815  1
  Ti  Ti134  1  0.40427114  0.79705647  0.76763280  1
  Ti  Ti135  1  0.31329770  0.09572386  0.13466257  1
  Ti  Ti136  1  0.80797655  0.20226366  0.72148856  1
  Ti  Ti137  1  0.31593837  0.09433147  0.88110421  1
  Ti  Ti138  1  0.49079037  0.70560414  0.11072504  1
  Ti  Ti139  1  0.20437882  0.80897564  0.22380381  1
  Ti  Ti140  1  0.92160035  0.68131054  0.62793397  1
  Ti  Ti141  1  0.48013710  0.91275228  0.88928710  1
  Ti  Ti142  1  0.10134566  0.48602169  0.88986246  1
  Ti  Ti143  1  0.59713210  0.39597381  0.50936982  1
  Ti  Ti144  1  0.40193136  0.19846372  0.48493791  1
  Ti  Ti145  1  0.19899292  0.40771121  0.23018778  1
  Ti  Ti146  1  0.02097369  0.19970260  0.74107140  1
  Ti  Ti147  1  0.40268558  -0.00563079  0.25812382  1
  Ti  Ti148  1  0.20141644  -0.00106491  0.24246849  1
  Ti  Ti149  1  0.20807918  0.57895503  0.01470483  1
  Ti  Ti150  1  0.49753209  0.28830561  0.89494929  1
  Ti  Ti151  1  0.58071376  0.60994125  0.76261384  1
  Ti  Ti152  1  0.11166919  0.89359061  0.62003816  1
  Ti  Ti153  1  0.19759205  0.59449989  0.23181400  1
  Ti  Ti154  1  0.10790686  0.69769546  0.89226085  1
  Ti  Ti155  1  0.10225554  0.51272540  0.36969613  1
  Ti  Ti156  1  0.67950118  0.29122503  0.63216963  1
  Ti  Ti157  1  0.20626201  0.80685030  0.01277772  1
  Ti  Ti158  1  0.09961361  0.09951577  0.87523209  1
  Ti  Ti159  1  0.60203392  0.19878166  0.48025613  1
  Mo  Mo160  1  0.81376864  0.80288141  0.72660932  1
  Mo  Mo161  1  0.70024501  0.10609010  0.14693174  1
  Mo  Mo162  1  0.70044103  0.10505034  0.38062021  1
  Mo  Mo163  1  0.30147414  0.49487923  0.64113291  1
  Mo  Mo164  1  0.10037631  0.10619848  0.14362294  1
  Mo  Mo165  1  0.50120406  0.29443257  0.60167148  1
  Mo  Mo166  1  0.10950828  0.28836442  0.60074958  1
  Mo  Mo167  1  0.10574783  0.69578859  0.34196305  1
  Mo  Mo168  1  0.89540159  0.49721378  0.62007509  1
  Mo  Mo169  1  0.29920546  0.49976643  0.13654819  1
  Mo  Mo170  1  0.09422341  0.69404260  0.64412767  1
  Mo  Mo171  1  0.59886778  0.20468132  0.25350646  1
  Mo  Mo172  1  -0.01115547  0.41693117  0.78704517  1
  Mo  Mo173  1  0.49665835  0.10274845  0.38507435  1
  Mo  Mo174  1  0.60161347  0.81310038  0.50400871  1
  Mo  Mo175  1  0.89956283  0.29807273  0.13497001  1
  Mo  Mo176  1  0.68650781  0.70740648  0.12498724  1
  Mo  Mo177  1  0.49431821  0.70100154  0.88836380  1
  Mo  Mo178  1  0.10738476  0.09605004  0.36601363  1
  Mo  Mo179  1  0.19468252  0.39425916  0.01805038  1
  Mo  Mo180  1  0.49768076  0.10584557  0.89396822  1
  Mo  Mo181  1  0.40423322  -0.00003461  0.76420413  1
  Mo  Mo182  1  0.70250279  0.29387858  0.85603300  1
  Mo  Mo183  1  0.30637755  0.90405134  0.13096045  1
  Mo  Mo184  1  0.19728976  0.80151332  0.50532575  1
  Mo  Mo185  1  0.59727997  0.20082218  0.76090430  1
  Mo  Mo186  1  0.39342566  0.00423306  -0.00013996  1
  Mo  Mo187  1  0.39742669  0.60003629  0.01966476  1
  Mo  Mo188  1  0.88803845  0.91276353  0.14326445  1
  Mo  Mo189  1  0.70444492  0.29096281  0.14354031  1
  Mo  Mo190  1  0.39747021  0.59690338  0.74512615  1
  Mo  Mo191  1  0.30215008  0.90082836  0.34903810  1
  Mo  Mo192  1  0.39584162  0.80626737  0.01080690  1
  Mo  Mo193  1  0.79752178  0.20171608  0.27582729  1
  Mo  Mo194  1  0.40055064  0.19881827  0.01072556  1
  Mo  Mo195  1  0.10510322  0.90170970  0.13185799  1
  Mo  Mo196  1  0.89672091  0.48832802  0.90041343  1
  Mo  Mo197  1  0.00003597  0.59263377  0.48055203  1
  Mo  Mo198  1  0.80861319  0.19609995  0.00384608  1
  Mo  Mo199  1  0.10029720  0.49615228  0.11338964  1
