# generated using pymatgen
data_HfZrTaTiMo
_symmetry_space_group_name_H-M   'P 1'
_cell_length_a   15.93244855
_cell_length_b   15.93824729
_cell_length_c   15.16268359
_cell_angle_alpha   90.02949804
_cell_angle_beta   90.04169852
_cell_angle_gamma   89.91385633
_symmetry_Int_Tables_number   1
_chemical_formula_structural   HfZrTaTiMo
_chemical_formula_sum   'Hf40 Zr40 Ta40 Ti40 Mo40'
_cell_volume   3850.33479959
_cell_formula_units_Z   40
loop_
 _symmetry_equiv_pos_site_id
 _symmetry_equiv_pos_as_xyz
  1  'x, y, z'
loop_
 _atom_site_type_symbol
 _atom_site_label
 _atom_site_symmetry_multiplicity
 _atom_site_fract_x
 _atom_site_fract_y
 _atom_site_fract_z
 _atom_site_occupancy
  Hf  Hf0  1  0.59685608  0.40750391  0.77251534  1
  Hf  Hf1  1  0.88725377  0.51210516  0.37708723  1
  Hf  Hf2  1  0.70465872  0.49799495  0.38479545  1
  Hf  Hf3  1  0.39232842  0.39563295  0.23839237  1
  Hf  Hf4  1  0.39972358  0.40748573  0.77572238  1
  Hf  Hf5  1  0.60470558  -0.01293902  0.50455769  1
  Hf  Hf6  1  0.39590938  0.19632179  0.24435187  1
  Hf  Hf7  1  0.10322663  0.50987501  0.89023674  1
  Hf  Hf8  1  0.40109841  -0.00608795  0.49848203  1
  Hf  Hf9  1  0.21022094  -0.00309886  0.02149375  1
  Hf  Hf10  1  0.70940868  0.69574104  0.35928806  1
  Hf  Hf11  1  0.67945893  0.70372078  0.64029074  1
  Hf  Hf12  1  0.01281237  -0.00569733  0.00475692  1
  Hf  Hf13  1  0.00214248  0.20133463  0.50265657  1
  Hf  Hf14  1  0.40004595  0.39657033  -0.00280186  1
  Hf  Hf15  1  0.11318484  0.71019776  0.63427454  1
  Hf  Hf16  1  0.70263795  0.10968358  0.11403088  1
  Hf  Hf17  1  0.79850662  0.20008941  0.24653958  1
  Hf  Hf18  1  0.38856480  0.78493456  0.47041779  1
  Hf  Hf19  1  0.70836766  0.09872924  0.64381210  1
  Hf  Hf20  1  0.39645742  0.19729936  0.74482532  1
  Hf  Hf21  1  0.09018693  0.49366344  0.36112474  1
  Hf  Hf22  1  0.59954020  0.19621811  0.49455043  1
  Hf  Hf23  1  0.80169954  0.40064153  -0.00532967  1
  Hf  Hf24  1  0.21053286  0.60467927  0.77105306  1
  Hf  Hf25  1  0.10405530  0.90464088  0.37458136  1
  Hf  Hf26  1  0.70053717  0.30027971  0.63572782  1
  Hf  Hf27  1  0.79741490  -0.00529713  0.50892972  1
  Hf  Hf28  1  0.90843169  0.70834708  0.63275348  1
  Hf  Hf29  1  0.10854809  0.10445162  0.88933408  1
  Hf  Hf30  1  0.20293095  0.61300896  0.47958308  1
  Hf  Hf31  1  0.71630260  0.09548512  0.86765362  1
  Hf  Hf32  1  0.19395804  0.19002850  0.72500721  1
  Hf  Hf33  1  0.50966184  0.29415917  0.11828028  1
  Hf  Hf34  1  -0.00086926  0.79992313  0.25691533  1
  Hf  Hf35  1  0.69506965  0.49673448  0.62656007  1
  Hf  Hf36  1  0.59786859  0.79910925  0.48554527  1
  Hf  Hf37  1  0.50382178  0.90168277  0.35289067  1
  Hf  Hf38  1  0.20055046  0.20115869  0.50047626  1
  Hf  Hf39  1  0.09778718  0.29166210  0.88018163  1
  Zr  Zr40  1  0.79291310  0.41479626  0.23040882  1
  Zr  Zr41  1  0.32162736  0.89543466  0.88103373  1
  Zr  Zr42  1  0.39820334  0.19761914  0.48944560  1
  Zr  Zr43  1  0.90029152  0.90281289  0.63347254  1
  Zr  Zr44  1  0.89952705  0.31858602  0.37198732  1
  Zr  Zr45  1  0.89988935  0.09631873  0.37493605  1
  Zr  Zr46  1  0.30840680  0.31456865  0.61828377  1
  Zr  Zr47  1  0.48855981  0.50334271  0.63355332  1
  Zr  Zr48  1  0.00217677  0.60602041  0.50420613  1
  Zr  Zr49  1  0.49329072  0.08396249  0.87539024  1
  Zr  Zr50  1  0.50293509  0.09641149  0.62844165  1
  Zr  Zr51  1  0.20866961  -0.00152872  0.74083976  1
  Zr  Zr52  1  0.30193516  0.09398668  0.88374230  1
  Zr  Zr53  1  0.79395052  0.59606874  0.75584496  1
  Zr  Zr54  1  0.78930527  0.80741768  0.75147516  1
  Zr  Zr55  1  0.39582518  0.59253884  0.47532875  1
  Zr  Zr56  1  0.71324587  0.29644599  0.86833973  1
  Zr  Zr57  1  -0.00259939  0.40503908  0.51283002  1
  Zr  Zr58  1  0.20684276  0.40599536  0.75534926  1
  Zr  Zr59  1  0.58680313  0.39668396  0.49400117  1
  Zr  Zr60  1  0.00420842  0.20661349  0.24805218  1
  Zr  Zr61  1  0.59912447  0.00065864  0.00725788  1
  Zr  Zr62  1  0.00477561  0.01161113  0.75644280  1
  Zr  Zr63  1  0.19872228  0.40046106  0.01415058  1
  Zr  Zr64  1  0.29449555  0.28506022  0.88511169  1
  Zr  Zr65  1  -0.01296282  0.60968041  0.24453343  1
  Zr  Zr66  1  0.50705386  0.50094469  0.11805364  1
  Zr  Zr67  1  0.30260901  0.87314654  0.62848073  1
  Zr  Zr68  1  0.20605943  0.00530961  0.50905880  1
  Zr  Zr69  1  0.00209707  0.40289463  0.75194750  1
  Zr  Zr70  1  0.79686599  0.59751594  0.00265305  1
  Zr  Zr71  1  0.09885498  0.88957573  0.62771760  1
  Zr  Zr72  1  0.59155148  0.60394895  0.48817085  1
  Zr  Zr73  1  0.70018817  0.09209708  0.37036499  1
  Zr  Zr74  1  -0.00327014  0.39667770  0.00663299  1
  Zr  Zr75  1  0.48593309  0.70023158  0.63163027  1
  Zr  Zr76  1  0.70260400  0.89912484  0.88741094  1
  Zr  Zr77  1  0.09162295  0.70747646  0.10842775  1
  Zr  Zr78  1  0.39232078  0.59818889  0.24328554  1
  Zr  Zr79  1  0.90657271  0.88624513  0.11034517  1
  Ta  Ta80  1  0.10234663  0.10242371  0.13676515  1
  Ta  Ta81  1  0.90534267  0.90239865  0.87424816  1
  Ta  Ta82  1  0.89385828  0.89865465  0.37614091  1
  Ta  Ta83  1  0.70473622  0.30383560  0.38035494  1
  Ta  Ta84  1  0.19914535  0.40834780  0.49987139  1
  Ta  Ta85  1  0.60117361  0.20151797  0.25356769  1
  Ta  Ta86  1  0.60510902  0.00069165  0.23273331  1
  Ta  Ta87  1  0.00220051  0.00424007  0.50093168  1
  Ta  Ta88  1  0.29496669  0.70409521  0.11566663  1
  Ta  Ta89  1  0.89907455  0.49936000  0.86810887  1
  Ta  Ta90  1  0.80632990  -0.00536723  0.23129129  1
  Ta  Ta91  1  0.18971499  0.60148391  0.24145162  1
  Ta  Ta92  1  0.30037400  0.69451598  0.63409340  1
  Ta  Ta93  1  0.89103482  0.30064710  0.63887879  1
  Ta  Ta94  1  0.11109814  0.51014391  0.62898370  1
  Ta  Ta95  1  0.60201002  -0.01739304  0.75117378  1
  Ta  Ta96  1  0.68716515  0.69630117  0.87533695  1
  Ta  Ta97  1  0.09760538  0.30680683  0.62485870  1
  Ta  Ta98  1  0.10519532  0.09989541  0.36456199  1
  Ta  Ta99  1  0.89088260  0.70807612  0.38766085  1
  Ta  Ta100  1  -0.00184432  -0.00098140  0.24099551  1
  Ta  Ta101  1  0.69795473  0.29974223  0.11204083  1
  Ta  Ta102  1  0.50199836  0.30383330  0.63263401  1
  Ta  Ta103  1  0.60427736  0.39358616  0.24957265  1
  Ta  Ta104  1  0.19093613  0.39486209  0.22694553  1
  Ta  Ta105  1  0.40119555  0.60962600  0.77954818  1
  Ta  Ta106  1  0.71000693  0.89428009  0.35294907  1
  Ta  Ta107  1  0.80132759  0.20684951  0.50376094  1
  Ta  Ta108  1  0.28607947  0.49122977  0.35892122  1
  Ta  Ta109  1  0.19435331  0.81247685  -0.00025583  1
  Ta  Ta110  1  0.90398266  0.70439209  0.87586485  1
  Ta  Ta111  1  0.39433058  0.80079023  0.24011988  1
  Ta  Ta112  1  0.40018298  0.18595432  0.02071813  1
  Ta  Ta113  1  0.78962932  0.80335964  0.50747332  1
  Ta  Ta114  1  0.49789936  0.89698009  0.12210004  1
  Ta  Ta115  1  0.50689124  0.69723316  0.34115720  1
  Ta  Ta116  1  0.50052005  0.70143341  0.12072240  1
  Ta  Ta117  1  0.00408689  0.60372883  0.75517646  1
  Ta  Ta118  1  0.89845156  0.29856439  0.12812368  1
  Ta  Ta119  1  0.59260735  0.20097620  0.76270552  1
  Ti  Ti120  1  0.10425397  0.30617226  0.36946110  1
  Ti  Ti121  1  -0.00397888  0.19551761  0.01134396  1
  Ti  Ti122  1  0.40756316  -0.01407813  0.73721380  1
  Ti  Ti123  1  0.50162645  0.88202067  0.62745864  1
  Ti  Ti124  1  0.59525681  0.20077462  -0.01640099  1
  Ti  Ti125  1  0.30197156  0.51060267  0.62089038  1
  Ti  Ti126  1  0.79682505  0.60944878  0.51802997  1
  Ti  Ti127  1  0.39458787  0.40190445  0.48178264  1
  Ti  Ti128  1  0.50070848  0.09229913  0.36315192  1
  Ti  Ti129  1  0.20079282  -0.00342486  0.23799354  1
  Ti  Ti130  1  -0.00333207  0.19892943  0.75026217  1
  Ti  Ti131  1  0.28814911  0.30311144  0.36620015  1
  Ti  Ti132  1  0.59519201  0.79778061  0.00170369  1
  Ti  Ti133  1  0.09963947  0.71085206  0.87986862  1
  Ti  Ti134  1  0.70153213  0.69771208  0.12316203  1
  Ti  Ti135  1  0.50055768  0.51746466  0.89125142  1
  Ti  Ti136  1  0.89897152  0.10438267  0.62921193  1
  Ti  Ti137  1  0.60259240  0.60328890  -0.00085152  1
  Ti  Ti138  1  0.80935328  0.78977978  0.23591132  1
  Ti  Ti139  1  0.39781423  0.00015570  0.23179774  1
  Ti  Ti140  1  0.80077184  0.79234431  -0.00433801  1
  Ti  Ti141  1  0.00276979  0.80200724  0.48861563  1
  Ti  Ti142  1  0.81842095  0.20096005  -0.00607419  1
  Ti  Ti143  1  0.57498726  0.79813850  0.77563875  1
  Ti  Ti144  1  0.60291692  0.39969584  -0.01382718  1
  Ti  Ti145  1  0.49926793  0.29957020  0.36550860  1
  Ti  Ti146  1  0.29707383  0.90094487  0.36208141  1
  Ti  Ti147  1  0.20454270  0.20226841  0.03443382  1
  Ti  Ti148  1  0.50116144  0.49562751  0.35637692  1
  Ti  Ti149  1  0.29164839  0.51181681  0.11355731  1
  Ti  Ti150  1  -0.00568658  0.60380067  -0.00213426  1
  Ti  Ti151  1  0.70502969  0.89482972  0.12106184  1
  Ti  Ti152  1  0.61605361  0.58833419  0.23630141  1
  Ti  Ti153  1  0.19800503  0.79600850  0.24980794  1
  Ti  Ti154  1  0.89422378  0.49823498  0.63365071  1
  Ti  Ti155  1  0.29355499  0.09444910  0.35979783  1
  Ti  Ti156  1  0.90341677  0.50623052  0.12478938  1
  Ti  Ti157  1  0.60547193  0.80005130  0.23508899  1
  Ti  Ti158  1  0.30545758  0.70156473  0.90157722  1
  Ti  Ti159  1  0.81623285  0.00814054  0.00570622  1
  Mo  Mo160  1  0.19833342  0.60883718  0.00194221  1
  Mo  Mo161  1  0.49394560  0.70725944  0.90104132  1
  Mo  Mo162  1  0.80526753  0.00192898  0.75299007  1
  Mo  Mo163  1  0.90568493  0.29295332  0.86551128  1
  Mo  Mo164  1  0.10388014  0.89939404  0.14172752  1
  Mo  Mo165  1  0.20571261  0.79278867  0.77680836  1
  Mo  Mo166  1  0.30414911  0.51165750  0.89930490  1
  Mo  Mo167  1  0.20149062  0.79464710  0.47659151  1
  Mo  Mo168  1  0.09338431  0.50524257  0.12551725  1
  Mo  Mo169  1  0.39752664  0.79150012  0.76130643  1
  Mo  Mo170  1  0.20115708  0.20109024  0.25672393  1
  Mo  Mo171  1  0.29540493  0.69860824  0.34352969  1
  Mo  Mo172  1  0.89625582  0.70137896  0.10151184  1
  Mo  Mo173  1  0.09776508  0.70433379  0.37224624  1
  Mo  Mo174  1  0.29911212  0.09806973  0.13986407  1
  Mo  Mo175  1  0.49972692  0.29084573  0.88403886  1
  Mo  Mo176  1  0.69166590  0.49485879  0.11173404  1
  Mo  Mo177  1  0.09042475  0.10520118  0.61516363  1
  Mo  Mo178  1  0.68846428  0.89439167  0.63688788  1
  Mo  Mo179  1  0.39935261  0.60396316  0.00470285  1
  Mo  Mo180  1  0.00364759  0.80469253  -0.01964774  1
  Mo  Mo181  1  0.30661705  0.09357721  0.61827244  1
  Mo  Mo182  1  0.69446404  0.50366795  0.88407244  1
  Mo  Mo183  1  0.00100367  0.40561537  0.23095582  1
  Mo  Mo184  1  0.09638128  0.29570277  0.12611128  1
  Mo  Mo185  1  0.29808069  0.89443927  0.13619025  1
  Mo  Mo186  1  0.59039810  0.60320335  0.77454879  1
  Mo  Mo187  1  0.79641062  0.60870226  0.23105363  1
  Mo  Mo188  1  0.90340269  0.10024408  0.11760103  1
  Mo  Mo189  1  0.81482967  0.19722986  0.75362179  1
  Mo  Mo190  1  0.50488396  0.09887650  0.13205088  1
  Mo  Mo191  1  0.90711737  0.10242641  0.88716092  1
  Mo  Mo192  1  0.30146471  0.29860367  0.12606731  1
  Mo  Mo193  1  0.10966374  0.89663277  0.86561214  1
  Mo  Mo194  1  0.40263789  -0.00000037  0.02824703  1
  Mo  Mo195  1  0.39796108  0.80248340  0.02185051  1
  Mo  Mo196  1  0.80299846  0.40277296  0.75637116  1
  Mo  Mo197  1  0.00450760  0.79936474  0.76940617  1
  Mo  Mo198  1  0.50029164  0.89632897  0.89091997  1
  Mo  Mo199  1  0.79808127  0.39922356  0.51519151  1
