# generated using pymatgen
data_HfZrTaTiMo
_symmetry_space_group_name_H-M   'P 1'
_cell_length_a   15.93804911
_cell_length_b   15.92863428
_cell_length_c   15.20419276
_cell_angle_alpha   89.99607893
_cell_angle_beta   90.03338748
_cell_angle_gamma   90.11635341
_symmetry_Int_Tables_number   1
_chemical_formula_structural   HfZrTaTiMo
_chemical_formula_sum   'Hf40 Zr40 Ta40 Ti40 Mo40'
_cell_volume   3859.90040075
_cell_formula_units_Z   40
loop_
 _symmetry_equiv_pos_site_id
 _symmetry_equiv_pos_as_xyz
  1  'x, y, z'
loop_
 _atom_site_type_symbol
 _atom_site_label
 _atom_site_symmetry_multiplicity
 _atom_site_fract_x
 _atom_site_fract_y
 _atom_site_fract_z
 _atom_site_occupancy
  Hf  Hf0  1  0.59771956  0.19199256  0.75857845  1
  Hf  Hf1  1  0.32165335  0.90777608  0.87569202  1
  Hf  Hf2  1  0.50421921  0.09325147  0.60454228  1
  Hf  Hf3  1  0.39802907  0.79503577  0.49950947  1
  Hf  Hf4  1  0.30346333  0.91492238  0.63752305  1
  Hf  Hf5  1  0.10785315  0.50509526  0.37587639  1
  Hf  Hf6  1  0.20429550  0.20962558  -0.00339880  1
  Hf  Hf7  1  -0.00202891  0.39836336  0.49017875  1
  Hf  Hf8  1  0.49460761  0.49394261  0.88172724  1
  Hf  Hf9  1  0.09779213  0.70799090  0.87250695  1
  Hf  Hf10  1  0.69810088  0.29946967  0.61831796  1
  Hf  Hf11  1  0.59984887  0.80161666  0.00241504  1
  Hf  Hf12  1  0.29746197  0.89154683  0.12169308  1
  Hf  Hf13  1  0.60445961  0.39687135  0.00346814  1
  Hf  Hf14  1  0.28883637  0.48954185  0.63739467  1
  Hf  Hf15  1  0.90325733  0.89951205  0.37448371  1
  Hf  Hf16  1  0.20623109  0.21298548  0.73960823  1
  Hf  Hf17  1  0.29973182  0.69631198  0.64065689  1
  Hf  Hf18  1  0.01466880  0.01528400  0.26091003  1
  Hf  Hf19  1  0.89153039  0.70238703  0.13212494  1
  Hf  Hf20  1  -0.00583296  0.60075978  0.75397734  1
  Hf  Hf21  1  0.48208371  0.69948274  0.10919680  1
  Hf  Hf22  1  0.59140822  -0.00343509  0.76518241  1
  Hf  Hf23  1  0.79775546  0.40193520  0.48197105  1
  Hf  Hf24  1  0.59230515  0.60140001  0.23811341  1
  Hf  Hf25  1  0.39810585  0.19195907  0.25311560  1
  Hf  Hf26  1  0.89803646  0.30385804  0.13603381  1
  Hf  Hf27  1  0.49779586  0.90094453  0.61248388  1
  Hf  Hf28  1  0.10351988  0.10082847  0.87484568  1
  Hf  Hf29  1  0.80531553  0.19935903  0.75644846  1
  Hf  Hf30  1  0.69153822  0.09999912  0.38529649  1
  Hf  Hf31  1  0.10568338  0.09855890  0.61309796  1
  Hf  Hf32  1  0.60498365  0.20122336  0.25020235  1
  Hf  Hf33  1  0.70967738  0.49621357  0.13669002  1
  Hf  Hf34  1  0.29160743  0.90548761  0.36302221  1
  Hf  Hf35  1  0.10341065  0.91260153  0.38987345  1
  Hf  Hf36  1  0.50460954  0.29689346  0.61712383  1
  Hf  Hf37  1  0.09316607  0.09772699  0.10527108  1
  Hf  Hf38  1  0.60263436  -0.00231261  0.01026957  1
  Hf  Hf39  1  0.79399496  0.60138609  0.50542297  1
  Zr  Zr40  1  0.49166446  0.28853481  0.88783853  1
  Zr  Zr41  1  -0.01087858  0.59915206  -0.00747107  1
  Zr  Zr42  1  0.69842254  0.10912288  0.60462991  1
  Zr  Zr43  1  0.10416152  0.90963474  0.63283224  1
  Zr  Zr44  1  0.60775480  0.59617169  0.00033076  1
  Zr  Zr45  1  0.89955444  0.50768949  0.35888775  1
  Zr  Zr46  1  0.89663632  0.49944845  0.13800009  1
  Zr  Zr47  1  0.39567597  0.39619046  0.49810881  1
  Zr  Zr48  1  0.89863261  0.70545733  0.36618254  1
  Zr  Zr49  1  0.70197936  0.89335588  0.37044898  1
  Zr  Zr50  1  0.70207810  0.29984123  0.87670414  1
  Zr  Zr51  1  0.50914059  0.90445768  0.37890476  1
  Zr  Zr52  1  0.09559703  0.48840186  0.63563230  1
  Zr  Zr53  1  0.01675134  0.61561984  0.24061520  1
  Zr  Zr54  1  0.50432340  0.69556989  0.37612639  1
  Zr  Zr55  1  0.79861710  0.00811237  0.74969757  1
  Zr  Zr56  1  0.39864885  0.79435360  0.25016553  1
  Zr  Zr57  1  0.38882195  0.19199668  0.48851770  1
  Zr  Zr58  1  0.80012164  0.79906057  0.74341465  1
  Zr  Zr59  1  0.69260236  0.91005832  0.61390619  1
  Zr  Zr60  1  0.20132169  0.79844503  0.51173229  1
  Zr  Zr61  1  0.90009871  0.10959891  0.11717809  1
  Zr  Zr62  1  0.00338355  0.20698631  0.74727672  1
  Zr  Zr63  1  0.91240746  0.91430149  0.12423407  1
  Zr  Zr64  1  0.36885650  0.58965889  -0.00856591  1
  Zr  Zr65  1  0.11867339  0.50565966  0.12427621  1
  Zr  Zr66  1  0.40025651  0.58940797  0.50504197  1
  Zr  Zr67  1  0.48671318  0.08460059  0.89372170  1
  Zr  Zr68  1  -0.00010622  0.39891419  -0.00843023  1
  Zr  Zr69  1  0.59927430  0.79795649  0.75446616  1
  Zr  Zr70  1  0.38866825  0.19692826  0.02324564  1
  Zr  Zr71  1  0.80366217  0.79782975  -0.00171449  1
  Zr  Zr72  1  0.79609936  0.79256697  0.51476759  1
  Zr  Zr73  1  0.00002874  0.79202096  0.51615920  1
  Zr  Zr74  1  0.90247498  0.30854650  0.62741809  1
  Zr  Zr75  1  0.21278816  0.40608366  -0.01012748  1
  Zr  Zr76  1  0.69862122  0.49045771  0.63478860  1
  Zr  Zr77  1  0.28398279  0.29493329  0.36779985  1
  Zr  Zr78  1  0.28616631  0.68875165  0.37357016  1
  Zr  Zr79  1  0.71391506  0.90404069  0.13753659  1
  Ta  Ta80  1  0.59616144  0.59718462  0.75669228  1
  Ta  Ta81  1  0.90848553  0.91085266  0.62727651  1
  Ta  Ta82  1  0.80520395  0.41275052  -0.01634885  1
  Ta  Ta83  1  0.59774494  0.40448160  0.48271152  1
  Ta  Ta84  1  0.30305224  0.09960713  0.86502356  1
  Ta  Ta85  1  0.40150438  0.59527007  0.75690340  1
  Ta  Ta86  1  0.09847191  0.29805009  0.13500062  1
  Ta  Ta87  1  0.70397151  0.10023331  0.89456794  1
  Ta  Ta88  1  0.39059529  0.39317007  0.01441930  1
  Ta  Ta89  1  0.80765434  0.00261884  0.49408415  1
  Ta  Ta90  1  0.69999188  0.69614877  0.87440799  1
  Ta  Ta91  1  0.20498715  0.80476717  0.75905775  1
  Ta  Ta92  1  0.29290445  0.49304929  0.36229636  1
  Ta  Ta93  1  0.91015110  0.89983892  0.86737682  1
  Ta  Ta94  1  0.50241338  0.69183101  0.63125105  1
  Ta  Ta95  1  0.39417639  0.38759991  0.75077704  1
  Ta  Ta96  1  0.00949177  0.81105754  0.24078436  1
  Ta  Ta97  1  0.39730630  0.39592601  0.24359438  1
  Ta  Ta98  1  0.60189507  0.59498424  0.50377412  1
  Ta  Ta99  1  0.59610546  0.39799090  0.75989300  1
  Ta  Ta100  1  0.49009911  0.70277667  0.88023528  1
  Ta  Ta101  1  0.90589805  0.10177559  0.60830858  1
  Ta  Ta102  1  0.49696990  0.49527357  0.35953918  1
  Ta  Ta103  1  0.40004682  0.19548448  0.74089645  1
  Ta  Ta104  1  -0.00155682  0.00681310  0.75468903  1
  Ta  Ta105  1  0.27977975  0.68924263  0.12506695  1
  Ta  Ta106  1  0.80709991  0.01386867  0.26323894  1
  Ta  Ta107  1  0.70101430  0.69993468  0.35710039  1
  Ta  Ta108  1  0.70594743  0.90233958  0.88034730  1
  Ta  Ta109  1  0.10684854  0.50359563  0.86372623  1
  Ta  Ta110  1  0.70812207  0.30145818  0.12910466  1
  Ta  Ta111  1  0.79495437  0.59581205  0.75904610  1
  Ta  Ta112  1  0.20778240  -0.00066898  -0.00835334  1
  Ta  Ta113  1  0.59958495  0.79905290  0.23178834  1
  Ta  Ta114  1  0.50475730  0.30193335  0.13193477  1
  Ta  Ta115  1  0.60555425  0.19605185  0.01851905  1
  Ta  Ta116  1  0.90366755  0.10026018  0.88924832  1
  Ta  Ta117  1  0.39065094  0.59191121  0.24097410  1
  Ta  Ta118  1  0.49447122  0.49318234  0.12520395  1
  Ta  Ta119  1  0.18377017  0.79579558  0.24577442  1
  Ti  Ti120  1  0.80845956  0.21139185  0.48295995  1
  Ti  Ti121  1  0.49832315  0.09516171  0.12738728  1
  Ti  Ti122  1  0.80484197  0.21139067  -0.00389733  1
  Ti  Ti123  1  0.59832907  0.00366003  0.24581188  1
  Ti  Ti124  1  -0.00290453  0.59981077  0.51314716  1
  Ti  Ti125  1  0.19426494  0.59564524  0.51050759  1
  Ti  Ti126  1  0.80471686  0.20113013  0.26765724  1
  Ti  Ti127  1  0.40092497  0.00365668  0.25159617  1
  Ti  Ti128  1  0.21384133  0.79376892  -0.01715487  1
  Ti  Ti129  1  0.79042540  0.38693431  0.27165891  1
  Ti  Ti130  1  0.28397802  0.30336944  0.14609936  1
  Ti  Ti131  1  0.18360249  0.18061691  0.25257653  1
  Ti  Ti132  1  0.00818112  0.39398102  0.25783411  1
  Ti  Ti133  1  0.50103561  0.49433587  0.63291193  1
  Ti  Ti134  1  0.28854378  0.08698791  0.13607634  1
  Ti  Ti135  1  0.10775067  0.90416257  0.11101816  1
  Ti  Ti136  1  0.09713911  0.70328778  0.38239682  1
  Ti  Ti137  1  0.00046150  0.20314588  0.26534779  1
  Ti  Ti138  1  0.10546644  0.70803937  0.10392240  1
  Ti  Ti139  1  0.48979174  0.90182414  0.11909995  1
  Ti  Ti140  1  0.50461037  0.30136775  0.36745038  1
  Ti  Ti141  1  0.10227330  0.90325581  0.86919131  1
  Ti  Ti142  1  0.30015607  0.09561684  0.63129400  1
  Ti  Ti143  1  0.89804581  0.70564842  0.87174459  1
  Ti  Ti144  1  0.70913192  0.69574151  0.13150351  1
  Ti  Ti145  1  0.91188813  0.10278446  0.39050928  1
  Ti  Ti146  1  0.80666489  0.00007672  -0.00396831  1
  Ti  Ti147  1  0.00777509  0.20663229  0.49571317  1
  Ti  Ti148  1  0.10219889  0.30815989  0.86708855  1
  Ti  Ti149  1  0.68948860  0.50422041  0.36271850  1
  Ti  Ti150  1  0.10583685  0.29778870  0.37912350  1
  Ti  Ti151  1  0.10248631  0.69731956  0.64420303  1
  Ti  Ti152  1  0.39286896  0.00541404  0.48111245  1
  Ti  Ti153  1  0.89622067  0.49380367  0.63960591  1
  Ti  Ti154  1  0.40906369  0.80248224  0.75549991  1
  Ti  Ti155  1  0.89973420  0.69680483  0.63642156  1
  Ti  Ti156  1  -0.00132501  0.21294148  -0.01048197  1
  Ti  Ti157  1  0.71338187  0.10477966  0.12716300  1
  Ti  Ti158  1  0.60674042  0.78270740  0.50829846  1
  Ti  Ti159  1  0.00136790  0.80966751  0.00024203  1
  Mo  Mo160  1  0.59764476  0.39831963  0.25147000  1
  Mo  Mo161  1  0.69940709  0.49985904  0.86724508  1
  Mo  Mo162  1  0.29835366  0.49499375  0.13981110  1
  Mo  Mo163  1  0.30505238  0.29618602  0.86616538  1
  Mo  Mo164  1  0.19195736  -0.00373211  0.23513832  1
  Mo  Mo165  1  0.20316419  0.00469474  0.76701417  1
  Mo  Mo166  1  0.28746303  0.09065702  0.35984094  1
  Mo  Mo167  1  0.50196086  0.89312627  0.89058011  1
  Mo  Mo168  1  0.39500548  0.00006901  0.02372777  1
  Mo  Mo169  1  0.20077740  0.20553495  0.51136775  1
  Mo  Mo170  1  0.00007734  0.39870193  0.76100079  1
  Mo  Mo171  1  0.19963547  0.60635451  0.25355629  1
  Mo  Mo172  1  0.59356017  0.20988673  0.47842322  1
  Mo  Mo173  1  0.29901075  0.49554770  0.85464653  1
  Mo  Mo174  1  0.40545927  0.00546983  0.74211781  1
  Mo  Mo175  1  0.79352703  0.60048019  0.26051685  1
  Mo  Mo176  1  0.29971425  0.70323145  0.85834986  1
  Mo  Mo177  1  0.69285378  0.68723402  0.63899902  1
  Mo  Mo178  1  0.90335665  0.30133667  0.87359501  1
  Mo  Mo179  1  0.80344503  0.80373314  0.24298356  1
  Mo  Mo180  1  0.10932292  0.30597136  0.60769587  1
  Mo  Mo181  1  0.59805835  0.00035899  0.48785727  1
  Mo  Mo182  1  0.20140360  0.39488885  0.76229153  1
  Mo  Mo183  1  0.19725397  0.39884128  0.49481317  1
  Mo  Mo184  1  0.19262218  0.39607602  0.25238044  1
  Mo  Mo185  1  0.19586695  0.60596082  -0.01920047  1
  Mo  Mo186  1  0.90452576  0.29513368  0.36663908  1
  Mo  Mo187  1  0.90037270  0.49843641  0.86060776  1
  Mo  Mo188  1  0.20174708  0.60283577  0.76001101  1
  Mo  Mo189  1  0.10881973  0.11049792  0.39204035  1
  Mo  Mo190  1  0.69660190  0.30064368  0.37780792  1
  Mo  Mo191  1  -0.00053503  0.00545216  0.49607016  1
  Mo  Mo192  1  0.30016711  0.29803001  0.62235961  1
  Mo  Mo193  1  0.39677243  0.79642703  -0.00260381  1
  Mo  Mo194  1  0.80215753  0.40073967  0.76474931  1
  Mo  Mo195  1  0.49676422  0.09664154  0.36866678  1
  Mo  Mo196  1  0.21490445  0.01499971  0.49503323  1
  Mo  Mo197  1  0.79989078  0.59672340  -0.02151058  1
  Mo  Mo198  1  0.00632922  -0.00646141  -0.01961488  1
  Mo  Mo199  1  0.00089353  0.80498682  0.74673984  1
