# generated using pymatgen
data_HfZrTaTiMo
_symmetry_space_group_name_H-M   'P 1'
_cell_length_a   15.93259962
_cell_length_b   15.93092248
_cell_length_c   15.21566872
_cell_angle_alpha   90.02823373
_cell_angle_beta   90.02801694
_cell_angle_gamma   90.02060445
_symmetry_Int_Tables_number   1
_chemical_formula_structural   HfZrTaTiMo
_chemical_formula_sum   'Hf40 Zr40 Ta40 Ti40 Mo40'
_cell_volume   3862.05521309
_cell_formula_units_Z   40
loop_
 _symmetry_equiv_pos_site_id
 _symmetry_equiv_pos_as_xyz
  1  'x, y, z'
loop_
 _atom_site_type_symbol
 _atom_site_label
 _atom_site_symmetry_multiplicity
 _atom_site_fract_x
 _atom_site_fract_y
 _atom_site_fract_z
 _atom_site_occupancy
  Hf  Hf0  1  0.79710954  0.79074964  0.50037857  1
  Hf  Hf1  1  -0.01817690  0.01127636  0.76029015  1
  Hf  Hf2  1  0.49914750  0.11066315  0.14082849  1
  Hf  Hf3  1  -0.01047696  0.39838680  0.00287112  1
  Hf  Hf4  1  0.80322366  0.60053084  0.49408083  1
  Hf  Hf5  1  0.90744449  0.28914092  0.85410924  1
  Hf  Hf6  1  0.70467411  0.49561754  0.13813719  1
  Hf  Hf7  1  0.11268867  0.29300703  0.86563578  1
  Hf  Hf8  1  0.00591723  0.40300723  0.73541827  1
  Hf  Hf9  1  0.79669777  0.20057791  0.00406803  1
  Hf  Hf10  1  0.50321621  0.89028581  0.37822611  1
  Hf  Hf11  1  0.80675776  0.59257250  -0.01521935  1
  Hf  Hf12  1  0.80602312  0.80741359  0.25855894  1
  Hf  Hf13  1  0.69750964  0.69612627  0.87071067  1
  Hf  Hf14  1  0.49933790  0.29944703  0.38889312  1
  Hf  Hf15  1  0.78751514  -0.00134606  0.76035124  1
  Hf  Hf16  1  0.20353181  0.59385706  0.51800913  1
  Hf  Hf17  1  0.59589877  0.58910565  -0.00089977  1
  Hf  Hf18  1  0.50569073  0.70281321  0.63498562  1
  Hf  Hf19  1  0.09484227  0.51419672  0.13266029  1
  Hf  Hf20  1  0.79952678  0.40214908  0.49865256  1
  Hf  Hf21  1  0.29893553  0.50241976  0.12711706  1
  Hf  Hf22  1  0.29648555  0.90074679  0.64213686  1
  Hf  Hf23  1  0.79828519  0.20345854  0.50812797  1
  Hf  Hf24  1  0.12288345  0.68924541  0.36891011  1
  Hf  Hf25  1  0.20212939  0.00278279  -0.01090285  1
  Hf  Hf26  1  0.58611364  0.60338026  0.24442753  1
  Hf  Hf27  1  0.10964484  0.31138074  0.11872181  1
  Hf  Hf28  1  0.00675276  0.79558868  0.49580859  1
  Hf  Hf29  1  0.50263786  0.09751444  0.38006730  1
  Hf  Hf30  1  0.91366526  0.69109766  0.13872285  1
  Hf  Hf31  1  0.19203907  0.18074956  0.50506658  1
  Hf  Hf32  1  0.80042733  0.80155546  0.74806430  1
  Hf  Hf33  1  0.20270908  0.40674881  0.49915721  1
  Hf  Hf34  1  -0.00121770  0.60485950  0.75842938  1
  Hf  Hf35  1  0.80580866  0.18354079  0.73247256  1
  Hf  Hf36  1  0.21162896  0.78397056  0.21969574  1
  Hf  Hf37  1  0.29724316  0.87810951  0.36687673  1
  Hf  Hf38  1  0.31167236  0.29940846  0.12431888  1
  Hf  Hf39  1  0.79876099  0.01213081  -0.01786891  1
  Zr  Zr40  1  0.89591742  0.49368903  0.14164931  1
  Zr  Zr41  1  0.49032438  0.51259294  0.38522663  1
  Zr  Zr42  1  0.29942105  0.10886860  0.85725587  1
  Zr  Zr43  1  0.41258144  0.00694759  -0.02503573  1
  Zr  Zr44  1  0.60307585  0.20812205  0.00792157  1
  Zr  Zr45  1  0.20078452  0.59756801  0.75329967  1
  Zr  Zr46  1  0.39658846  0.78838283  0.51134052  1
  Zr  Zr47  1  0.08758828  0.28421611  0.38684439  1
  Zr  Zr48  1  0.60261015  0.01740529  -0.01357026  1
  Zr  Zr49  1  0.70741336  0.69390652  0.12539020  1
  Zr  Zr50  1  0.49415754  0.90826364  0.12377117  1
  Zr  Zr51  1  0.70886575  0.91528782  0.11940489  1
  Zr  Zr52  1  0.58443834  0.01385036  0.76912460  1
  Zr  Zr53  1  0.38933887  0.40381267  0.27431014  1
  Zr  Zr54  1  0.39067781  -0.00120109  0.50098231  1
  Zr  Zr55  1  0.00386246  0.59564297  0.49710766  1
  Zr  Zr56  1  0.91006672  0.10826146  0.38464250  1
  Zr  Zr57  1  0.59665343  0.39766407  0.25838176  1
  Zr  Zr58  1  0.58794534  0.79415201  0.00119262  1
  Zr  Zr59  1  -0.00045961  0.81012974  0.75203639  1
  Zr  Zr60  1  0.80894880  0.79533980  -0.00359688  1
  Zr  Zr61  1  0.68056654  0.71162843  0.37386479  1
  Zr  Zr62  1  0.59523083  0.80495057  0.23606385  1
  Zr  Zr63  1  0.89573867  0.91709688  0.60698251  1
  Zr  Zr64  1  0.20251495  0.19868820  0.25398207  1
  Zr  Zr65  1  -0.00522947  0.19974659  0.00752097  1
  Zr  Zr66  1  -0.00525126  0.20140225  0.23331607  1
  Zr  Zr67  1  0.00047588  0.39939128  0.51056204  1
  Zr  Zr68  1  0.19940547  0.40446274  0.27504736  1
  Zr  Zr69  1  0.10533438  0.09219873  0.11940432  1
  Zr  Zr70  1  0.28493359  0.08298400  0.37242916  1
  Zr  Zr71  1  0.90754391  0.90744307  0.38599455  1
  Zr  Zr72  1  0.01438438  0.80241435  0.25253456  1
  Zr  Zr73  1  0.69138358  0.29937986  0.85389624  1
  Zr  Zr74  1  0.41521748  0.19182650  0.72866302  1
  Zr  Zr75  1  0.79356969  0.39433608  -0.00763479  1
  Zr  Zr76  1  0.10565941  0.49265525  0.88276953  1
  Zr  Zr77  1  0.50104341  0.90914473  0.63076306  1
  Zr  Zr78  1  0.40496206  0.59729235  -0.01005765  1
  Zr  Zr79  1  0.60150066  0.60784351  0.50790326  1
  Ta  Ta80  1  0.38870269  0.59451836  0.51825124  1
  Ta  Ta81  1  0.39692865  0.19663652  0.50720239  1
  Ta  Ta82  1  0.50079872  0.49458377  0.62719646  1
  Ta  Ta83  1  0.79892150  0.00632994  0.26528606  1
  Ta  Ta84  1  0.59386011  0.39912506  0.00916536  1
  Ta  Ta85  1  0.60232335  0.59710271  0.74691136  1
  Ta  Ta86  1  0.60383709  0.39864472  0.50607945  1
  Ta  Ta87  1  0.40497404  0.20721164  -0.00702680  1
  Ta  Ta88  1  0.30965769  0.09714123  0.12507006  1
  Ta  Ta89  1  0.09896377  0.70297228  0.63174156  1
  Ta  Ta90  1  0.18963709  -0.00578822  0.76033304  1
  Ta  Ta91  1  0.69154394  0.89907917  0.61019090  1
  Ta  Ta92  1  0.10326642  0.70829191  0.88565607  1
  Ta  Ta93  1  0.00490328  -0.00176848  0.24930246  1
  Ta  Ta94  1  0.90771814  0.90731654  0.12166957  1
  Ta  Ta95  1  0.89991550  0.69892149  0.62930377  1
  Ta  Ta96  1  0.19479567  0.80051025  0.75636299  1
  Ta  Ta97  1  0.39641432  -0.00547064  0.25197370  1
  Ta  Ta98  1  0.70113491  0.50226141  0.63194490  1
  Ta  Ta99  1  0.80340836  0.60280527  0.27501737  1
  Ta  Ta100  1  0.30311365  0.90218688  0.11083182  1
  Ta  Ta101  1  0.60944918  0.00701585  0.26015650  1
  Ta  Ta102  1  0.29825144  0.29551897  0.62041626  1
  Ta  Ta103  1  0.20029490  0.79630872  0.51466286  1
  Ta  Ta104  1  0.80161306  0.59995715  0.75177656  1
  Ta  Ta105  1  0.89334161  0.30361626  0.36841105  1
  Ta  Ta106  1  0.40166641  0.59499892  0.74904712  1
  Ta  Ta107  1  0.70856777  0.30214795  0.14560520  1
  Ta  Ta108  1  -0.00456994  0.60375818  -0.01381429  1
  Ta  Ta109  1  0.50088098  0.30749554  0.86319661  1
  Ta  Ta110  1  0.30185979  0.89524607  0.87194099  1
  Ta  Ta111  1  0.09591939  0.11051161  0.86508216  1
  Ta  Ta112  1  0.20589173  0.39930010  0.73497334  1
  Ta  Ta113  1  0.20140050  0.60644396  0.00133721  1
  Ta  Ta114  1  0.21254532  0.20190042  -0.00205375  1
  Ta  Ta115  1  0.60301480  0.20059519  0.50761169  1
  Ta  Ta116  1  0.09752140  0.09884009  0.64441270  1
  Ta  Ta117  1  0.50523349  0.48768539  0.85606757  1
  Ta  Ta118  1  0.30898296  0.48890784  0.86686134  1
  Ta  Ta119  1  0.88727660  0.09097468  0.13087791  1
  Ti  Ti120  1  0.69792165  0.30742943  0.62982233  1
  Ti  Ti121  1  0.91055946  0.49899461  0.36675706  1
  Ti  Ti122  1  0.10066746  0.28969346  0.62852549  1
  Ti  Ti123  1  0.40363941  0.39363336  0.73267119  1
  Ti  Ti124  1  0.39807141  0.79550695  -0.00176071  1
  Ti  Ti125  1  0.80273277  0.39925618  0.73816349  1
  Ti  Ti126  1  0.02291748  0.01855980  0.49855376  1
  Ti  Ti127  1  0.69350234  0.08111079  0.60928621  1
  Ti  Ti128  1  0.29324865  0.08977594  0.63554691  1
  Ti  Ti129  1  0.69014115  0.89457077  0.88105460  1
  Ti  Ti130  1  0.50002678  0.69813376  0.86257723  1
  Ti  Ti131  1  0.11466443  0.90939677  0.38324736  1
  Ti  Ti132  1  0.79448315  0.19901375  0.25806217  1
  Ti  Ti133  1  0.49829178  0.30257831  0.13696151  1
  Ti  Ti134  1  0.61109207  0.20014903  0.26347247  1
  Ti  Ti135  1  0.60438188  0.80398573  0.74960672  1
  Ti  Ti136  1  0.47802020  0.70362649  0.36854486  1
  Ti  Ti137  1  0.29937280  0.70112157  0.64312592  1
  Ti  Ti138  1  0.29858429  0.70194375  0.87614105  1
  Ti  Ti139  1  0.21548045  0.39813429  -0.00860597  1
  Ti  Ti140  1  0.59925200  0.19886269  0.72593710  1
  Ti  Ti141  1  0.89773766  0.50515624  0.62908604  1
  Ti  Ti142  1  0.30749618  0.30083894  0.85982043  1
  Ti  Ti143  1  0.89747796  0.49241774  0.86443177  1
  Ti  Ti144  1  0.69219394  0.48870397  0.85755564  1
  Ti  Ti145  1  0.69685955  0.49706785  0.37335209  1
  Ti  Ti146  1  -0.00429326  0.00545621  -0.00601468  1
  Ti  Ti147  1  0.90339765  0.89655279  0.88677069  1
  Ti  Ti148  1  0.40054805  0.79989378  0.75911809  1
  Ti  Ti149  1  0.40932227  0.39626688  -0.00634290  1
  Ti  Ti150  1  0.69517540  0.90896562  0.39445127  1
  Ti  Ti151  1  0.48900389  0.49653178  0.13195270  1
  Ti  Ti152  1  0.00146528  0.79367344  0.00134946  1
  Ti  Ti153  1  0.00015581  0.39719418  0.25394609  1
  Ti  Ti154  1  0.39270609  0.20219340  0.26956698  1
  Ti  Ti155  1  0.19713166  -0.01342045  0.23511615  1
  Ti  Ti156  1  0.09944307  0.89470079  0.10732066  1
  Ti  Ti157  1  0.38931531  0.40413777  0.50256482  1
  Ti  Ti158  1  0.09985471  0.90518613  0.62430001  1
  Ti  Ti159  1  0.09796658  0.89957483  0.88468163  1
  Mo  Mo160  1  0.90255779  0.10242575  0.88433457  1
  Mo  Mo161  1  0.70436789  0.70150595  0.63993612  1
  Mo  Mo162  1  0.59874733  0.80186228  0.50990598  1
  Mo  Mo163  1  0.70252297  0.10611780  0.14915128  1
  Mo  Mo164  1  0.39789145  0.79751955  0.23177229  1
  Mo  Mo165  1  0.48633075  0.69657471  0.12872687  1
  Mo  Mo166  1  0.90396333  0.70021891  0.86900217  1
  Mo  Mo167  1  0.00329256  0.59934356  0.26715495  1
  Mo  Mo168  1  0.30087101  0.28809827  0.40457328  1
  Mo  Mo169  1  0.50368268  0.13357482  0.87361012  1
  Mo  Mo170  1  0.20169502  0.60346618  0.22823302  1
  Mo  Mo171  1  0.88984797  0.30029631  0.14737789  1
  Mo  Mo172  1  0.59782001  0.39743241  0.72792700  1
  Mo  Mo173  1  0.30738984  0.49416430  0.64020122  1
  Mo  Mo174  1  0.90644051  0.69847375  0.36790322  1
  Mo  Mo175  1  0.50041727  0.30306407  0.60711116  1
  Mo  Mo176  1  0.69914595  0.11192142  0.85872931  1
  Mo  Mo177  1  0.59894288  0.00279395  0.48943229  1
  Mo  Mo178  1  0.10177719  0.50143665  0.63654140  1
  Mo  Mo179  1  0.09732464  0.50187827  0.36096723  1
  Mo  Mo180  1  0.70072521  0.10426814  0.37814442  1
  Mo  Mo181  1  0.79164627  0.00395577  0.48955463  1
  Mo  Mo182  1  0.09852494  0.08503704  0.36287001  1
  Mo  Mo183  1  0.30199786  0.70261881  0.09659304  1
  Mo  Mo184  1  0.39597662  -0.00228734  0.75904769  1
  Mo  Mo185  1  0.38874504  0.61557279  0.23832309  1
  Mo  Mo186  1  0.30451659  0.69458178  0.37671696  1
  Mo  Mo187  1  0.00040274  0.20118131  0.73633769  1
  Mo  Mo188  1  0.19335891  -0.01110358  0.51657370  1
  Mo  Mo189  1  0.79815395  0.40008588  0.27373013  1
  Mo  Mo190  1  0.89683537  0.30223461  0.63203880  1
  Mo  Mo191  1  0.20141539  0.80292459  -0.00663254  1
  Mo  Mo192  1  0.49611871  0.88007760  0.86601784  1
  Mo  Mo193  1  0.09653809  0.69972104  0.10460201  1
  Mo  Mo194  1  0.50688213  0.09777341  0.60614391  1
  Mo  Mo195  1  0.69989227  0.29933901  0.37702457  1
  Mo  Mo196  1  0.90326070  0.09789626  0.60648097  1
  Mo  Mo197  1  0.29167671  0.53590786  0.36519617  1
  Mo  Mo198  1  0.20322710  0.20208024  0.73581951  1
  Mo  Mo199  1  -0.00338235  0.19950718  0.52129546  1
