# generated using pymatgen
data_HfZrTaTiMo
_symmetry_space_group_name_H-M   'P 1'
_cell_length_a   15.93272287
_cell_length_b   15.92708087
_cell_length_c   15.21217120
_cell_angle_alpha   89.99946685
_cell_angle_beta   90.05144770
_cell_angle_gamma   89.83651922
_symmetry_Int_Tables_number   1
_chemical_formula_structural   HfZrTaTiMo
_chemical_formula_sum   'Hf40 Zr40 Ta40 Ti40 Mo40'
_cell_volume   3860.25015320
_cell_formula_units_Z   40
loop_
 _symmetry_equiv_pos_site_id
 _symmetry_equiv_pos_as_xyz
  1  'x, y, z'
loop_
 _atom_site_type_symbol
 _atom_site_label
 _atom_site_symmetry_multiplicity
 _atom_site_fract_x
 _atom_site_fract_y
 _atom_site_fract_z
 _atom_site_occupancy
  Hf  Hf0  1  0.39654343  0.00716533  0.24978695  1
  Hf  Hf1  1  0.50806789  0.31070997  0.62584450  1
  Hf  Hf2  1  0.00402657  0.19958776  0.26313619  1
  Hf  Hf3  1  0.10116000  0.28922880  0.12277796  1
  Hf  Hf4  1  0.79603883  0.80270086  0.74514347  1
  Hf  Hf5  1  0.59755815  0.00506954  0.24275159  1
  Hf  Hf6  1  0.20289721  -0.01161279  0.25877672  1
  Hf  Hf7  1  0.49561032  0.11379676  0.10839257  1
  Hf  Hf8  1  0.00304654  0.00082242  0.24669321  1
  Hf  Hf9  1  0.68480983  0.48719699  0.14566177  1
  Hf  Hf10  1  0.80838922  0.39684272  0.26467718  1
  Hf  Hf11  1  0.49626691  0.70306388  0.88259274  1
  Hf  Hf12  1  0.11064037  0.88861271  0.88163302  1
  Hf  Hf13  1  0.70955661  0.31026059  0.63429452  1
  Hf  Hf14  1  0.59222139  0.00334677  0.50720797  1
  Hf  Hf15  1  0.09241978  0.29592306  0.63946561  1
  Hf  Hf16  1  0.79863703  0.59874220  0.24657529  1
  Hf  Hf17  1  -0.00372016  0.58442512  0.24403524  1
  Hf  Hf18  1  0.30882534  0.29164442  0.11847223  1
  Hf  Hf19  1  0.59234199  0.60300589  0.02914262  1
  Hf  Hf20  1  0.30135484  0.09870603  0.62936161  1
  Hf  Hf21  1  0.19308755  0.60444550  0.73514721  1
  Hf  Hf22  1  0.30629266  0.08417733  0.40223438  1
  Hf  Hf23  1  0.00245764  0.79504500  0.75118876  1
  Hf  Hf24  1  0.39573135  0.39996339  0.26344898  1
  Hf  Hf25  1  0.89708745  0.10676335  0.12193183  1
  Hf  Hf26  1  0.49242648  0.11190798  0.87055621  1
  Hf  Hf27  1  0.69645045  0.49742364  0.62260759  1
  Hf  Hf28  1  0.89855982  0.30374637  0.84881026  1
  Hf  Hf29  1  0.10847006  0.09087074  0.10621615  1
  Hf  Hf30  1  0.69939835  0.10561157  0.11788348  1
  Hf  Hf31  1  0.30433846  0.50348881  0.61045419  1
  Hf  Hf32  1  0.20610954  0.18852151  0.26340465  1
  Hf  Hf33  1  0.89690908  0.70798585  0.36785582  1
  Hf  Hf34  1  0.30437970  0.30109429  0.62692350  1
  Hf  Hf35  1  0.59555936  0.39890663  -0.00898117  1
  Hf  Hf36  1  0.49509364  0.70802955  0.62034572  1
  Hf  Hf37  1  0.20206322  0.39210383  -0.01178836  1
  Hf  Hf38  1  -0.00373056  0.79491948  0.50963710  1
  Hf  Hf39  1  0.89450453  0.89995264  0.37386058  1
  Zr  Zr40  1  0.29093611  0.90089141  0.10310293  1
  Zr  Zr41  1  0.31623061  0.28581580  0.86384430  1
  Zr  Zr42  1  0.89724196  0.09489954  0.38317936  1
  Zr  Zr43  1  0.70524688  0.50577603  0.87432385  1
  Zr  Zr44  1  0.80381106  0.39962748  0.00094914  1
  Zr  Zr45  1  0.10963688  0.68214040  0.35456061  1
  Zr  Zr46  1  0.79965851  0.60263756  0.49295989  1
  Zr  Zr47  1  0.40130539  0.79415334  0.47620810  1
  Zr  Zr48  1  0.50226473  0.50786103  0.60664333  1
  Zr  Zr49  1  0.61338828  0.80528334  0.02041920  1
  Zr  Zr50  1  0.90073217  0.10446432  0.63610187  1
  Zr  Zr51  1  0.02038187  0.59182277  0.51165519  1
  Zr  Zr52  1  0.69990005  0.89614842  0.37182866  1
  Zr  Zr53  1  0.69121777  0.70548121  0.61539127  1
  Zr  Zr54  1  -0.00474757  0.40296768  -0.01162616  1
  Zr  Zr55  1  0.89438796  0.48292540  0.62338570  1
  Zr  Zr56  1  0.70258099  0.28964166  0.13363230  1
  Zr  Zr57  1  0.40689269  -0.01146567  0.74840692  1
  Zr  Zr58  1  0.20560174  -0.01271819  0.74861124  1
  Zr  Zr59  1  0.49840358  0.90405435  0.37076239  1
  Zr  Zr60  1  0.50823966  0.30716781  0.14022567  1
  Zr  Zr61  1  0.00145867  0.60478665  0.00540657  1
  Zr  Zr62  1  0.70136974  0.10081124  0.38131885  1
  Zr  Zr63  1  0.10524623  0.49417989  0.12400636  1
  Zr  Zr64  1  0.20566818  0.40945022  0.75337610  1
  Zr  Zr65  1  0.30110463  0.10297912  0.10613345  1
  Zr  Zr66  1  0.39205127  0.60628434  0.75806450  1
  Zr  Zr67  1  0.28057386  0.70571060  0.89777406  1
  Zr  Zr68  1  0.39603140  0.40653604  0.47954684  1
  Zr  Zr69  1  0.10303000  0.89100164  0.37994011  1
  Zr  Zr70  1  0.50600469  0.90011449  0.88514048  1
  Zr  Zr71  1  0.89700611  0.71584452  0.12858509  1
  Zr  Zr72  1  0.40059575  0.60237889  0.24471224  1
  Zr  Zr73  1  0.19873324  0.39418816  0.26415968  1
  Zr  Zr74  1  0.19660539  0.77989374  0.50711432  1
  Zr  Zr75  1  0.59631173  0.60373201  0.75152054  1
  Zr  Zr76  1  0.89273439  0.70377179  0.88671570  1
  Zr  Zr77  1  -0.00550785  0.19997115  -0.01799217  1
  Zr  Zr78  1  -0.00981851  -0.00543867  -0.01475636  1
  Zr  Zr79  1  0.70028965  0.70505661  0.88499946  1
  Ta  Ta80  1  0.20644008  0.79480720  0.73867039  1
  Ta  Ta81  1  0.41017229  0.19649261  0.50170232  1
  Ta  Ta82  1  0.70005364  0.10438893  0.63033769  1
  Ta  Ta83  1  0.80845045  0.59975766  0.74577294  1
  Ta  Ta84  1  0.40965768  0.40179360  -0.00532060  1
  Ta  Ta85  1  0.69468467  0.71107251  0.35900434  1
  Ta  Ta86  1  0.00052010  0.59960136  0.75006019  1
  Ta  Ta87  1  0.00075130  0.19840692  0.50692873  1
  Ta  Ta88  1  0.60250618  0.20735896  -0.02070833  1
  Ta  Ta89  1  0.79863306  0.59668118  0.02601876  1
  Ta  Ta90  1  0.10251970  0.29383919  0.85440909  1
  Ta  Ta91  1  0.80457989  0.21217359  0.50464674  1
  Ta  Ta92  1  0.10042317  0.89705714  0.62717329  1
  Ta  Ta93  1  0.30096864  0.49508287  0.11675920  1
  Ta  Ta94  1  0.41064661  0.40899875  0.75963657  1
  Ta  Ta95  1  -0.00447297  0.38824250  0.49198388  1
  Ta  Ta96  1  0.69876505  0.09515118  0.86821581  1
  Ta  Ta97  1  0.29899255  0.09827922  0.86798007  1
  Ta  Ta98  1  -0.00102783  0.39276496  0.26558602  1
  Ta  Ta99  1  0.59815496  0.20066265  0.74972430  1
  Ta  Ta100  1  0.30888028  0.89354245  0.60735479  1
  Ta  Ta101  1  0.19401923  0.19666602  0.51361551  1
  Ta  Ta102  1  0.40306519  0.19763909  0.27403931  1
  Ta  Ta103  1  0.89591922  0.90333439  0.63067051  1
  Ta  Ta104  1  0.40423659  0.59896571  0.01878870  1
  Ta  Ta105  1  0.69932034  0.30219961  0.85794668  1
  Ta  Ta106  1  0.60582317  -0.00141063  0.74405318  1
  Ta  Ta107  1  0.10261261  0.09443723  0.39636121  1
  Ta  Ta108  1  0.90199113  0.29984667  0.13030494  1
  Ta  Ta109  1  0.10245048  0.10202575  0.85491979  1
  Ta  Ta110  1  0.30341127  0.50751382  0.89253482  1
  Ta  Ta111  1  0.49636092  0.90521918  0.12268391  1
  Ta  Ta112  1  0.10717635  0.51590835  0.88148688  1
  Ta  Ta113  1  0.00179994  -0.00155249  0.51458218  1
  Ta  Ta114  1  0.51252603  0.50560133  0.36371557  1
  Ta  Ta115  1  0.09740727  0.89376548  0.11455858  1
  Ta  Ta116  1  0.79903934  -0.01010786  0.00072422  1
  Ta  Ta117  1  0.50795991  0.29877147  0.38239874  1
  Ta  Ta118  1  0.28756368  0.69929493  0.12642703  1
  Ta  Ta119  1  0.79833255  0.19719886  -0.01934729  1
  Ti  Ti120  1  0.51258692  0.70900269  0.35038343  1
  Ti  Ti121  1  0.80508592  0.19951755  0.26172612  1
  Ti  Ti122  1  0.38997468  0.81047573  0.24536478  1
  Ti  Ti123  1  0.89977646  0.30188353  0.63784334  1
  Ti  Ti124  1  0.69698153  0.50550521  0.37295555  1
  Ti  Ti125  1  0.71106060  0.90397076  0.87444472  1
  Ti  Ti126  1  0.29485526  0.29021067  0.39495806  1
  Ti  Ti127  1  0.89155657  0.08763161  0.85871352  1
  Ti  Ti128  1  -0.00401467  0.80273495  -0.00160370  1
  Ti  Ti129  1  0.89735255  0.69744126  0.62463978  1
  Ti  Ti130  1  0.20117412  0.19595507  -0.01941517  1
  Ti  Ti131  1  0.28888736  0.70685756  0.35231018  1
  Ti  Ti132  1  0.79466782  0.19438185  0.75282420  1
  Ti  Ti133  1  0.60407916  0.20195305  0.50519505  1
  Ti  Ti134  1  0.80053005  -0.00556900  0.23465861  1
  Ti  Ti135  1  0.10250840  0.29291287  0.38898467  1
  Ti  Ti136  1  0.69481325  0.90212933  0.62178678  1
  Ti  Ti137  1  0.40183495  0.79552060  0.01140999  1
  Ti  Ti138  1  0.79913579  0.00144314  0.51404409  1
  Ti  Ti139  1  0.50021377  0.89207864  0.61880973  1
  Ti  Ti140  1  0.00076581  -0.00521861  0.74838158  1
  Ti  Ti141  1  0.49966122  0.50550786  0.87738638  1
  Ti  Ti142  1  0.60984760  0.40197161  0.48517361  1
  Ti  Ti143  1  0.27431406  0.51970555  0.37541542  1
  Ti  Ti144  1  0.49959134  0.10395914  0.63031108  1
  Ti  Ti145  1  0.18348650  0.41042300  0.50047694  1
  Ti  Ti146  1  0.30842282  0.69818432  0.61811804  1
  Ti  Ti147  1  0.59601868  0.19772336  0.26608058  1
  Ti  Ti148  1  0.90351351  0.49628364  0.38769214  1
  Ti  Ti149  1  0.70406122  0.29981258  0.38010262  1
  Ti  Ti150  1  0.38943247  0.80509042  0.75888423  1
  Ti  Ti151  1  0.39683160  0.00038919  -0.01271011  1
  Ti  Ti152  1  0.39656654  0.60760318  0.47276319  1
  Ti  Ti153  1  0.19672364  -0.00860424  0.51061138  1
  Ti  Ti154  1  0.59654527  0.80879082  0.75228572  1
  Ti  Ti155  1  0.00505470  0.41744565  0.75698107  1
  Ti  Ti156  1  0.79523104  0.80405707  0.50689697  1
  Ti  Ti157  1  0.60547510  0.00237126  0.00038837  1
  Ti  Ti158  1  0.59603814  0.61421044  0.48079981  1
  Ti  Ti159  1  0.00446060  0.80615230  0.24280399  1
  Mo  Mo160  1  0.09829637  0.49220552  0.62304044  1
  Mo  Mo161  1  0.19965670  0.59771064  0.01302836  1
  Mo  Mo162  1  0.09722606  0.69825204  0.86555075  1
  Mo  Mo163  1  0.60017700  0.60480708  0.25056592  1
  Mo  Mo164  1  0.09728084  0.69987505  0.63616013  1
  Mo  Mo165  1  0.80194486  0.40795333  0.75806978  1
  Mo  Mo166  1  0.19968674  0.79981642  0.23664235  1
  Mo  Mo167  1  0.89588336  0.48899408  0.13359161  1
  Mo  Mo168  1  0.50145140  0.10691999  0.38670581  1
  Mo  Mo169  1  0.79562431  0.80892698  0.23728431  1
  Mo  Mo170  1  0.20762671  0.59721790  0.50923659  1
  Mo  Mo171  1  0.40605962  0.20769115  -0.00697667  1
  Mo  Mo172  1  0.49329186  0.49689898  0.14138719  1
  Mo  Mo173  1  0.50503976  0.30601004  0.85734596  1
  Mo  Mo174  1  0.18273778  0.79014081  0.01469793  1
  Mo  Mo175  1  0.40569746  0.20205572  0.72765150  1
  Mo  Mo176  1  0.59612884  0.80338690  0.23135581  1
  Mo  Mo177  1  0.49147711  0.71154162  0.13696626  1
  Mo  Mo178  1  0.20048825  0.19462740  0.74243974  1
  Mo  Mo179  1  0.20137892  0.59486677  0.23293288  1
  Mo  Mo180  1  0.29735644  0.89545857  0.38668039  1
  Mo  Mo181  1  0.70309208  0.90624667  0.13000359  1
  Mo  Mo182  1  0.90258269  0.50825527  0.86455879  1
  Mo  Mo183  1  0.40481729  -0.00279394  0.51532326  1
  Mo  Mo184  1  0.89531641  0.90430300  0.85846217  1
  Mo  Mo185  1  0.30252094  0.89430248  0.89048311  1
  Mo  Mo186  1  0.09802643  0.48872659  0.37659580  1
  Mo  Mo187  1  0.80479572  0.81426924  0.01062224  1
  Mo  Mo188  1  0.69963219  0.70275946  0.13988038  1
  Mo  Mo189  1  0.79331079  -0.00276048  0.74634442  1
  Mo  Mo190  1  0.59704969  0.40418982  0.76021145  1
  Mo  Mo191  1  0.90149940  0.90508408  0.13208010  1
  Mo  Mo192  1  0.09896525  0.70479522  0.13787838  1
  Mo  Mo193  1  0.60244514  0.79814852  0.49803293  1
  Mo  Mo194  1  0.79828571  0.39481177  0.48289023  1
  Mo  Mo195  1  0.90166167  0.29421584  0.38127063  1
  Mo  Mo196  1  0.60334953  0.39633569  0.27522903  1
  Mo  Mo197  1  0.19987334  -0.00077738  -0.02424363  1
  Mo  Mo198  1  0.09925725  0.09344672  0.62617207  1
  Mo  Mo199  1  -0.00208972  0.19269190  0.75007915  1
