# generated using pymatgen
data_HfZrTaTiMo
_symmetry_space_group_name_H-M   'P 1'
_cell_length_a   15.92805146
_cell_length_b   15.93177182
_cell_length_c   15.19207691
_cell_angle_alpha   89.92239194
_cell_angle_beta   90.02594512
_cell_angle_gamma   89.88849849
_symmetry_Int_Tables_number   1
_chemical_formula_structural   HfZrTaTiMo
_chemical_formula_sum   'Hf40 Zr40 Ta40 Ti40 Mo40'
_cell_volume   3855.16182277
_cell_formula_units_Z   40
loop_
 _symmetry_equiv_pos_site_id
 _symmetry_equiv_pos_as_xyz
  1  'x, y, z'
loop_
 _atom_site_type_symbol
 _atom_site_label
 _atom_site_symmetry_multiplicity
 _atom_site_fract_x
 _atom_site_fract_y
 _atom_site_fract_z
 _atom_site_occupancy
  Hf  Hf0  1  0.80097531  0.39795597  0.25007727  1
  Hf  Hf1  1  -0.00046169  0.40134763  0.48636939  1
  Hf  Hf2  1  0.09381050  0.70243255  0.11421266  1
  Hf  Hf3  1  0.39752574  0.60778301  0.01501546  1
  Hf  Hf4  1  0.59000857  0.59211213  0.49071354  1
  Hf  Hf5  1  0.20166079  0.80606344  -0.02298990  1
  Hf  Hf6  1  0.80160331  0.18553703  0.24586347  1
  Hf  Hf7  1  0.10943776  0.31113316  0.87876400  1
  Hf  Hf8  1  -0.00651133  0.20799706  0.50644480  1
  Hf  Hf9  1  0.90532437  0.29713031  0.12592995  1
  Hf  Hf10  1  0.60039845  0.80256827  0.24707689  1
  Hf  Hf11  1  0.49552988  0.90525741  0.11484152  1
  Hf  Hf12  1  0.80743594  0.59605675  0.49142724  1
  Hf  Hf13  1  0.30209193  0.28939796  0.12876263  1
  Hf  Hf14  1  0.40471306  -0.00827626  0.26429574  1
  Hf  Hf15  1  0.30260688  0.08153555  0.11611040  1
  Hf  Hf16  1  0.09683937  0.09672206  0.63119401  1
  Hf  Hf17  1  0.72090616  0.29137457  0.61780834  1
  Hf  Hf18  1  0.30256067  0.88853366  0.39509999  1
  Hf  Hf19  1  -0.01145354  0.81243256  -0.02093609  1
  Hf  Hf20  1  0.79634751  0.80625734  0.24179606  1
  Hf  Hf21  1  0.40396021  0.40481907  0.02225857  1
  Hf  Hf22  1  0.19393398  -0.00667894  0.26609732  1
  Hf  Hf23  1  0.60101948  0.79690526  0.75653055  1
  Hf  Hf24  1  0.81063418  -0.01329327  0.24116993  1
  Hf  Hf25  1  0.10113472  0.30283283  0.11902800  1
  Hf  Hf26  1  0.60659836  0.00034299  0.74913114  1
  Hf  Hf27  1  0.87876649  0.70652959  0.86651299  1
  Hf  Hf28  1  0.29958959  0.88950078  0.13422293  1
  Hf  Hf29  1  0.18463405  0.79047950  0.27116068  1
  Hf  Hf30  1  0.29123604  0.49497534  0.88898957  1
  Hf  Hf31  1  -0.01287430  0.59021639  0.75024789  1
  Hf  Hf32  1  0.49990087  0.30464284  0.88209939  1
  Hf  Hf33  1  -0.00992571  0.19615908  0.76071677  1
  Hf  Hf34  1  0.69457280  0.70600789  0.38407972  1
  Hf  Hf35  1  0.29390967  0.10241649  0.62424896  1
  Hf  Hf36  1  0.41067572  0.20854521  0.51220308  1
  Hf  Hf37  1  0.61716678  -0.00370906  0.25208307  1
  Hf  Hf38  1  0.79433787  0.40228688  0.00449022  1
  Hf  Hf39  1  0.80215197  0.00992848  0.75344297  1
  Zr  Zr40  1  0.09531195  0.10376176  0.38403264  1
  Zr  Zr41  1  0.51148302  0.31404587  0.62834255  1
  Zr  Zr42  1  0.11495210  0.09864504  0.86564001  1
  Zr  Zr43  1  0.80385550  0.41792957  0.76785294  1
  Zr  Zr44  1  0.40298071  0.19720244  0.75096495  1
  Zr  Zr45  1  0.71319559  0.09912451  0.39479257  1
  Zr  Zr46  1  0.40943245  0.18684749  -0.00999472  1
  Zr  Zr47  1  0.10583832  0.30439844  0.63974859  1
  Zr  Zr48  1  0.10514063  0.09675566  0.11366396  1
  Zr  Zr49  1  0.51082824  0.10826385  0.36640387  1
  Zr  Zr50  1  0.69989795  0.48828912  0.61257170  1
  Zr  Zr51  1  0.60047510  0.59602185  0.75031464  1
  Zr  Zr52  1  -0.01158188  0.80940711  0.25210099  1
  Zr  Zr53  1  0.91199553  0.31860355  0.88160073  1
  Zr  Zr54  1  0.40149302  0.60565502  0.24950520  1
  Zr  Zr55  1  0.30168603  0.29772802  0.36430416  1
  Zr  Zr56  1  0.38816328  0.40717249  0.74296432  1
  Zr  Zr57  1  0.69670396  0.69415941  0.62175805  1
  Zr  Zr58  1  0.20322208  0.58587340  0.74562019  1
  Zr  Zr59  1  0.90803455  0.08047656  0.38814005  1
  Zr  Zr60  1  0.30260151  0.70402277  0.62079657  1
  Zr  Zr61  1  0.81263348  -0.00759734  -0.01359253  1
  Zr  Zr62  1  0.60545145  0.00296760  0.52742940  1
  Zr  Zr63  1  0.49102582  0.88095893  0.62620300  1
  Zr  Zr64  1  0.79999266  0.61420022  0.24578821  1
  Zr  Zr65  1  0.50732702  0.10240632  0.13058741  1
  Zr  Zr66  1  0.80516420  0.38856931  0.47104513  1
  Zr  Zr67  1  0.69820911  0.50288051  0.12889729  1
  Zr  Zr68  1  0.10003397  0.49916691  0.61116150  1
  Zr  Zr69  1  0.61254862  0.39686799  0.76708504  1
  Zr  Zr70  1  0.30064942  0.10433327  0.38259510  1
  Zr  Zr71  1  0.39329429  0.79735523  -0.01267320  1
  Zr  Zr72  1  0.49484784  0.50617617  0.88116168  1
  Zr  Zr73  1  0.61298752  0.19168418  0.75738297  1
  Zr  Zr74  1  0.07522744  0.90371596  0.40126678  1
  Zr  Zr75  1  0.10203404  0.90519390  0.11342550  1
  Zr  Zr76  1  0.92235847  0.51858991  0.35883106  1
  Zr  Zr77  1  0.40592321  0.00479971  0.51115233  1
  Zr  Zr78  1  0.28475789  0.50626123  0.36822307  1
  Zr  Zr79  1  0.09161975  0.49200475  0.89066862  1
  Ta  Ta80  1  0.39852620  0.59527188  0.49401548  1
  Ta  Ta81  1  0.29513856  0.30565590  0.88820451  1
  Ta  Ta82  1  0.29270913  0.69623769  0.38386385  1
  Ta  Ta83  1  0.59802215  0.79501627  -0.00814253  1
  Ta  Ta84  1  0.59313353  0.60998446  0.01354046  1
  Ta  Ta85  1  0.40563166  0.40516871  0.48669328  1
  Ta  Ta86  1  0.91190697  0.51301830  0.11887660  1
  Ta  Ta87  1  0.09862303  0.30005821  0.35394919  1
  Ta  Ta88  1  0.59957690  0.39995609  0.24721892  1
  Ta  Ta89  1  0.69807616  0.89961373  0.10163744  1
  Ta  Ta90  1  0.80198092  0.19730032  -0.00829276  1
  Ta  Ta91  1  0.90922601  0.09595313  0.11296606  1
  Ta  Ta92  1  0.09640541  0.69752631  0.86361846  1
  Ta  Ta93  1  0.29334572  0.89054449  0.62982085  1
  Ta  Ta94  1  -0.00907279  0.79890075  0.52504678  1
  Ta  Ta95  1  0.09794419  0.69915484  0.63152059  1
  Ta  Ta96  1  0.50959798  0.89029853  0.38993176  1
  Ta  Ta97  1  0.90605881  0.71377038  0.38747009  1
  Ta  Ta98  1  0.09807281  0.50921422  0.12028610  1
  Ta  Ta99  1  0.79040214  0.61378392  0.00428550  1
  Ta  Ta100  1  0.50711362  0.29345607  0.13470158  1
  Ta  Ta101  1  0.70339246  0.09653606  0.10888420  1
  Ta  Ta102  1  0.90016556  0.70624933  0.10965124  1
  Ta  Ta103  1  0.70694526  0.88744737  0.87847717  1
  Ta  Ta104  1  0.90194084  0.30995753  0.63816735  1
  Ta  Ta105  1  0.70661412  0.89901478  0.39746548  1
  Ta  Ta106  1  0.28811760  0.50546055  0.13136721  1
  Ta  Ta107  1  0.20173109  0.60985608  -0.00022207  1
  Ta  Ta108  1  0.19840373  0.19289862  0.24636430  1
  Ta  Ta109  1  0.29874726  0.69771820  0.85546808  1
  Ta  Ta110  1  0.60387734  0.20031210  0.51216548  1
  Ta  Ta111  1  0.59678015  0.00220694  -0.01980511  1
  Ta  Ta112  1  0.80155713  0.80355165  0.51760592  1
  Ta  Ta113  1  -0.00437420  0.80249050  0.74470213  1
  Ta  Ta114  1  0.69396240  0.28843442  0.12277562  1
  Ta  Ta115  1  0.00225804  0.00006270  -0.02744787  1
  Ta  Ta116  1  0.40351810  0.40227786  0.24373645  1
  Ta  Ta117  1  -0.00022471  0.19633754  -0.00915861  1
  Ta  Ta118  1  0.50196367  0.29523269  0.35737645  1
  Ta  Ta119  1  0.49132660  0.90250344  0.86982043  1
  Ti  Ti120  1  -0.00312972  -0.00020097  0.24232361  1
  Ti  Ti121  1  0.80631736  -0.00671474  0.53025057  1
  Ti  Ti122  1  0.10350091  0.90078195  0.85267043  1
  Ti  Ti123  1  0.20660007  0.19425900  -0.00482529  1
  Ti  Ti124  1  0.89656798  0.49521807  0.62094756  1
  Ti  Ti125  1  0.40164430  0.59933531  0.73896771  1
  Ti  Ti126  1  0.20719383  -0.00675953  0.74800955  1
  Ti  Ti127  1  0.60647831  0.19537243  -0.01577905  1
  Ti  Ti128  1  0.18724502  0.79106891  0.50429722  1
  Ti  Ti129  1  0.59614919  0.39332625  0.47904193  1
  Ti  Ti130  1  0.59609853  0.60478027  0.24134886  1
  Ti  Ti131  1  0.19588916  0.21013352  0.49654921  1
  Ti  Ti132  1  0.19423586  -0.00491221  0.50868791  1
  Ti  Ti133  1  0.49240547  0.70802772  0.37743367  1
  Ti  Ti134  1  0.69530304  0.50136135  0.36367708  1
  Ti  Ti135  1  0.29449377  0.31098076  0.61753175  1
  Ti  Ti136  1  0.88746650  0.11642893  0.62584209  1
  Ti  Ti137  1  0.69809841  0.51578715  0.89032931  1
  Ti  Ti138  1  0.79507493  0.20526403  0.77939380  1
  Ti  Ti139  1  0.40347555  -0.00086083  0.74384831  1
  Ti  Ti140  1  0.49504167  0.69770045  0.87019465  1
  Ti  Ti141  1  0.29096576  0.70413408  0.14292348  1
  Ti  Ti142  1  0.79581168  0.80909154  0.73208823  1
  Ti  Ti143  1  0.59708920  0.40432345  0.01177855  1
  Ti  Ti144  1  0.91316910  0.28357494  0.35139385  1
  Ti  Ti145  1  0.00615260  0.40783026  0.24573794  1
  Ti  Ti146  1  0.09882579  0.89917761  0.63376003  1
  Ti  Ti147  1  0.49997664  0.49722163  0.36164264  1
  Ti  Ti148  1  0.19640458  0.39788084  0.48310644  1
  Ti  Ti149  1  0.49560254  0.69762487  0.61602603  1
  Ti  Ti150  1  0.49268186  0.71348462  0.13323873  1
  Ti  Ti151  1  0.29703256  0.49650030  0.60547927  1
  Ti  Ti152  1  0.30767378  0.08150603  0.87814800  1
  Ti  Ti153  1  0.90245974  0.51241861  0.89909133  1
  Ti  Ti154  1  0.49684113  0.49919279  0.61862766  1
  Ti  Ti155  1  0.19500219  0.40457937  0.24559617  1
  Ti  Ti156  1  0.21444285  0.20775364  0.75737981  1
  Ti  Ti157  1  0.89404050  0.69151678  0.63244001  1
  Ti  Ti158  1  0.69238668  0.28757440  0.36517869  1
  Ti  Ti159  1  0.09013595  0.67171616  0.39289469  1
  Mo  Mo160  1  0.69978838  0.30462986  0.90113165  1
  Mo  Mo161  1  0.39942548  -0.00859211  -0.01530314  1
  Mo  Mo162  1  0.10222815  0.49894797  0.37081303  1
  Mo  Mo163  1  -0.00021239  0.40509071  0.74163757  1
  Mo  Mo164  1  0.49993611  0.50249274  0.13602007  1
  Mo  Mo165  1  0.90498958  0.10432924  0.87843735  1
  Mo  Mo166  1  0.20584081  -0.00900004  -0.02326417  1
  Mo  Mo167  1  0.70290455  0.09659276  0.89033399  1
  Mo  Mo168  1  0.19481837  0.79964371  0.74980133  1
  Mo  Mo169  1  0.00419199  0.19220648  0.24064061  1
  Mo  Mo170  1  -0.00416295  0.60703832  0.51755556  1
  Mo  Mo171  1  0.90467024  0.90477223  0.11605173  1
  Mo  Mo172  1  0.90242279  0.90353158  0.63496023  1
  Mo  Mo173  1  0.39982728  0.79853604  0.26781085  1
  Mo  Mo174  1  0.20381878  0.40280903  0.02123155  1
  Mo  Mo175  1  0.00457231  0.61345920  0.23980851  1
  Mo  Mo176  1  0.70103143  0.89767702  0.62576152  1
  Mo  Mo177  1  0.50111969  0.10593447  0.64056361  1
  Mo  Mo178  1  0.39946878  0.78974495  0.49096205  1
  Mo  Mo179  1  -0.00691151  -0.00141452  0.53551123  1
  Mo  Mo180  1  0.50064420  0.09286611  0.86474543  1
  Mo  Mo181  1  0.20821654  0.39425347  0.74657434  1
  Mo  Mo182  1  0.79545879  0.80136083  0.00699589  1
  Mo  Mo183  1  0.19007944  0.60510210  0.24080695  1
  Mo  Mo184  1  0.40034721  0.79282996  0.75790110  1
  Mo  Mo185  1  0.61164761  0.19976358  0.24489894  1
  Mo  Mo186  1  -0.00142251  0.40442552  0.02031453  1
  Mo  Mo187  1  0.90139245  0.90016818  0.84899156  1
  Mo  Mo188  1  0.19734842  0.60129593  0.50841006  1
  Mo  Mo189  1  -0.00098105  -0.00268907  0.74993528  1
  Mo  Mo190  1  0.89091082  0.89579365  0.40256216  1
  Mo  Mo191  1  -0.00267627  0.61000881  -0.00944971  1
  Mo  Mo192  1  0.40136789  0.19868315  0.24148546  1
  Mo  Mo193  1  0.79704582  0.59977800  0.76168656  1
  Mo  Mo194  1  0.69283246  0.69900308  0.88120494  1
  Mo  Mo195  1  0.59951943  0.79529103  0.49950723  1
  Mo  Mo196  1  0.30094843  0.89819157  0.84632360  1
  Mo  Mo197  1  0.80729535  0.20503890  0.48873366  1
  Mo  Mo198  1  0.69270704  0.70758546  0.11910257  1
  Mo  Mo199  1  0.71101504  0.10772958  0.61857235  1
