# generated using pymatgen
data_HfZrTaTiMo
_symmetry_space_group_name_H-M   'P 1'
_cell_length_a   15.92760277
_cell_length_b   15.92578917
_cell_length_c   15.21275193
_cell_angle_alpha   89.93923555
_cell_angle_beta   89.98071881
_cell_angle_gamma   89.89574429
_symmetry_Int_Tables_number   1
_chemical_formula_structural   HfZrTaTiMo
_chemical_formula_sum   'Hf40 Zr40 Ta40 Ti40 Mo40'
_cell_volume   3858.85245993
_cell_formula_units_Z   40
loop_
 _symmetry_equiv_pos_site_id
 _symmetry_equiv_pos_as_xyz
  1  'x, y, z'
loop_
 _atom_site_type_symbol
 _atom_site_label
 _atom_site_symmetry_multiplicity
 _atom_site_fract_x
 _atom_site_fract_y
 _atom_site_fract_z
 _atom_site_occupancy
  Hf  Hf0  1  0.60086602  0.20164131  0.02096322  1
  Hf  Hf1  1  0.19868103  0.79857705  0.23115648  1
  Hf  Hf2  1  -0.00153074  0.40035814  0.26816178  1
  Hf  Hf3  1  0.10781375  0.10422931  0.12805486  1
  Hf  Hf4  1  0.60909709  0.00401972  0.74025741  1
  Hf  Hf5  1  0.30057029  0.69772848  0.38488648  1
  Hf  Hf6  1  0.51144200  0.88957317  0.89951766  1
  Hf  Hf7  1  0.19852482  0.79816025  0.75025424  1
  Hf  Hf8  1  0.90005785  0.31649832  0.12121602  1
  Hf  Hf9  1  0.89763064  0.69701214  0.37860243  1
  Hf  Hf10  1  0.20986380  0.40502251  0.52145424  1
  Hf  Hf11  1  0.01015403  0.59962015  0.51058419  1
  Hf  Hf12  1  0.89815596  0.50608618  0.12557803  1
  Hf  Hf13  1  0.19523786  0.80467854  0.51614937  1
  Hf  Hf14  1  0.59376138  -0.00085138  0.50092730  1
  Hf  Hf15  1  0.10116212  0.70108420  0.37516655  1
  Hf  Hf16  1  0.30427258  0.30682260  0.37620334  1
  Hf  Hf17  1  0.69595549  0.68905112  0.62335400  1
  Hf  Hf18  1  0.51683642  0.30061175  0.86889030  1
  Hf  Hf19  1  0.70030914  0.48442608  0.38815292  1
  Hf  Hf20  1  0.89892590  0.69363613  0.63179878  1
  Hf  Hf21  1  0.10299012  0.30110333  0.39627466  1
  Hf  Hf22  1  0.10933494  0.10304984  0.37670508  1
  Hf  Hf23  1  0.18030348  0.80883515  0.00478659  1
  Hf  Hf24  1  0.40025585  0.19935463  -0.00968768  1
  Hf  Hf25  1  0.50851001  0.11384567  0.62528387  1
  Hf  Hf26  1  0.29855614  0.30160815  0.12440250  1
  Hf  Hf27  1  0.88974660  0.70214766  0.85853572  1
  Hf  Hf28  1  0.59945836  0.59679786  0.25768001  1
  Hf  Hf29  1  0.89352212  0.09568429  0.61625440  1
  Hf  Hf30  1  0.78808252  0.61145044  -0.00338499  1
  Hf  Hf31  1  0.69223190  0.49948659  0.86615390  1
  Hf  Hf32  1  0.40319507  0.40280439  -0.00875441  1
  Hf  Hf33  1  0.30288064  0.69294690  0.62861170  1
  Hf  Hf34  1  -0.00227497  0.00058493  0.48242882  1
  Hf  Hf35  1  0.67484223  0.69622360  0.85798636  1
  Hf  Hf36  1  0.71406416  0.88157460  0.12886257  1
  Hf  Hf37  1  0.81493367  -0.00997349  0.01050190  1
  Hf  Hf38  1  0.59034902  0.58708006  0.49128252  1
  Hf  Hf39  1  0.29063838  0.91137580  0.88803217  1
  Zr  Zr40  1  -0.00259699  0.20326576  0.26397688  1
  Zr  Zr41  1  0.80315980  0.20344522  0.01126410  1
  Zr  Zr42  1  0.70588740  0.30261403  0.87990305  1
  Zr  Zr43  1  0.20699470  0.00127289  0.50225823  1
  Zr  Zr44  1  0.01430427  -0.01471326  0.01402003  1
  Zr  Zr45  1  0.49958219  0.70390636  0.37812863  1
  Zr  Zr46  1  0.19899040  0.19857637  0.74515577  1
  Zr  Zr47  1  0.40053695  0.79578064  0.23375588  1
  Zr  Zr48  1  0.49726580  0.10546333  0.36468948  1
  Zr  Zr49  1  0.30526884  0.09753109  0.63577392  1
  Zr  Zr50  1  0.10648067  0.08420544  0.86887614  1
  Zr  Zr51  1  0.70775439  0.49269045  0.12577858  1
  Zr  Zr52  1  0.40657198  0.82261567  0.50316223  1
  Zr  Zr53  1  0.50094032  0.09774451  0.13536814  1
  Zr  Zr54  1  0.89890038  0.30209096  0.86196663  1
  Zr  Zr55  1  0.30185477  0.70368929  0.88237816  1
  Zr  Zr56  1  0.58547879  0.81343312  0.72789398  1
  Zr  Zr57  1  0.90352769  0.90652489  0.62279084  1
  Zr  Zr58  1  0.09087167  0.49376674  0.13057357  1
  Zr  Zr59  1  0.49498020  0.69494727  0.61551861  1
  Zr  Zr60  1  0.90243782  0.10110123  0.86370057  1
  Zr  Zr61  1  0.19147864  0.60175828  0.00213823  1
  Zr  Zr62  1  0.40749716  -0.00272664  0.76616106  1
  Zr  Zr63  1  0.01670539  0.80158588  0.74633938  1
  Zr  Zr64  1  0.87921668  0.70822968  0.13463182  1
  Zr  Zr65  1  0.18837888  0.39602509  -0.00726054  1
  Zr  Zr66  1  0.30073147  0.90647634  0.36332213  1
  Zr  Zr67  1  0.79098129  0.38783743  0.72281696  1
  Zr  Zr68  1  0.90250513  0.10467266  0.13690276  1
  Zr  Zr69  1  0.49824701  0.49622427  0.12858116  1
  Zr  Zr70  1  0.29022853  0.50297010  0.86601464  1
  Zr  Zr71  1  0.78750970  0.80971384  0.74087140  1
  Zr  Zr72  1  0.40188949  0.21283368  0.50204975  1
  Zr  Zr73  1  0.89212839  0.50366043  0.85112083  1
  Zr  Zr74  1  0.69667480  0.09999368  0.88673669  1
  Zr  Zr75  1  0.70195753  0.89472932  0.89580829  1
  Zr  Zr76  1  0.01103064  0.21032755  -0.00890285  1
  Zr  Zr77  1  0.20082641  0.60253356  0.24185771  1
  Zr  Zr78  1  0.40824426  0.40457064  0.75390486  1
  Zr  Zr79  1  0.69797835  0.09409445  0.36775717  1
  Ta  Ta80  1  0.40811773  0.19804270  0.76474403  1
  Ta  Ta81  1  0.00185518  0.20200286  0.73090128  1
  Ta  Ta82  1  0.07994700  0.69838574  0.12213450  1
  Ta  Ta83  1  0.79849605  0.80050183  0.49683824  1
  Ta  Ta84  1  0.69791957  0.89387748  0.36981398  1
  Ta  Ta85  1  0.29589498  0.29937981  0.86418258  1
  Ta  Ta86  1  0.00183525  -0.00589436  0.25627794  1
  Ta  Ta87  1  0.90895069  0.90462977  0.86329237  1
  Ta  Ta88  1  0.89588451  0.29956641  0.39997545  1
  Ta  Ta89  1  0.89973521  0.49557841  0.39322953  1
  Ta  Ta90  1  0.20350659  0.59454683  0.50729397  1
  Ta  Ta91  1  0.49961554  0.30374296  0.13876645  1
  Ta  Ta92  1  0.41027388  0.60772966  0.76212884  1
  Ta  Ta93  1  0.89680436  0.50045240  0.62370818  1
  Ta  Ta94  1  -0.00508717  0.60455721  -0.01533932  1
  Ta  Ta95  1  -0.01362469  0.80106554  0.00025686  1
  Ta  Ta96  1  0.00606856  0.40357269  0.51443739  1
  Ta  Ta97  1  0.58642803  0.61692155  0.01393344  1
  Ta  Ta98  1  0.00611026  0.39653467  0.72922751  1
  Ta  Ta99  1  0.20466218  0.20307147  0.25354641  1
  Ta  Ta100  1  0.80947803  -0.00853365  0.25629214  1
  Ta  Ta101  1  0.79275097  0.19161479  0.49806389  1
  Ta  Ta102  1  0.39762302  0.59719359  0.24806558  1
  Ta  Ta103  1  -0.00331254  0.41078734  -0.01922801  1
  Ta  Ta104  1  -0.00442615  0.80443841  0.24704119  1
  Ta  Ta105  1  0.41033256  0.78588243  0.01488694  1
  Ta  Ta106  1  0.20516514  0.19667206  -0.01351631  1
  Ta  Ta107  1  0.49968481  0.31224106  0.36434604  1
  Ta  Ta108  1  0.00329489  0.80206650  0.50366611  1
  Ta  Ta109  1  0.10747983  0.49924162  0.38001766  1
  Ta  Ta110  1  0.70180920  0.08998934  0.13968652  1
  Ta  Ta111  1  0.79691473  0.00373348  0.75150198  1
  Ta  Ta112  1  0.51128724  0.90698460  0.35300738  1
  Ta  Ta113  1  0.30390108  0.49384788  0.36710085  1
  Ta  Ta114  1  0.89909642  0.29388617  0.60923382  1
  Ta  Ta115  1  0.29951186  0.10115198  0.12367027  1
  Ta  Ta116  1  0.30284143  0.49921573  0.12545787  1
  Ta  Ta117  1  0.60798349  0.20895880  0.25017571  1
  Ta  Ta118  1  0.40383972  0.00198115  0.00272405  1
  Ta  Ta119  1  0.30062884  0.90642554  0.11321343  1
  Ti  Ti120  1  0.79410283  0.59647750  0.26283581  1
  Ti  Ti121  1  0.70671299  0.30573972  0.12995661  1
  Ti  Ti122  1  0.60407175  0.40260846  0.00624330  1
  Ti  Ti123  1  0.71067797  0.91485384  0.60315122  1
  Ti  Ti124  1  0.80209247  0.39313941  0.26762977  1
  Ti  Ti125  1  0.19929155  0.39831562  0.25081734  1
  Ti  Ti126  1  0.51208005  0.89998823  0.12218330  1
  Ti  Ti127  1  0.30210308  0.50600374  0.64440761  1
  Ti  Ti128  1  0.70049950  0.70281858  0.38128929  1
  Ti  Ti129  1  0.39679642  0.00006416  0.24211302  1
  Ti  Ti130  1  0.18605952  -0.01357286  0.73810538  1
  Ti  Ti131  1  0.60012234  0.80793843  0.50346333  1
  Ti  Ti132  1  -0.00341717  0.59788221  0.26015168  1
  Ti  Ti133  1  0.40329826  0.80400393  0.75614206  1
  Ti  Ti134  1  0.69525632  0.49486700  0.61524052  1
  Ti  Ti135  1  0.39951539  0.00828581  0.49027280  1
  Ti  Ti136  1  0.10302068  0.89622125  0.36808715  1
  Ti  Ti137  1  0.20240568  0.00177051  0.24390234  1
  Ti  Ti138  1  0.69564630  0.29778755  0.39068733  1
  Ti  Ti139  1  0.10150743  0.30851939  0.85469205  1
  Ti  Ti140  1  0.09553221  0.50960294  0.85090241  1
  Ti  Ti141  1  0.10773931  0.51034163  0.64425869  1
  Ti  Ti142  1  0.50835751  0.51682154  0.88090366  1
  Ti  Ti143  1  0.39560242  0.20336574  0.25094597  1
  Ti  Ti144  1  0.09930410  0.30065871  0.12583135  1
  Ti  Ti145  1  0.60574212  0.79040636  0.24151141  1
  Ti  Ti146  1  0.49554654  0.49754250  0.62749168  1
  Ti  Ti147  1  0.78158630  0.19351864  0.72768283  1
  Ti  Ti148  1  0.51322092  0.09536760  0.88360211  1
  Ti  Ti149  1  0.60309059  0.39753979  0.25461678  1
  Ti  Ti150  1  0.09222644  0.09629889  0.61823661  1
  Ti  Ti151  1  0.20512729  0.19928159  0.51207634  1
  Ti  Ti152  1  0.30884630  0.30421002  0.63914209  1
  Ti  Ti153  1  0.39602038  0.57532130  0.49292825  1
  Ti  Ti154  1  0.60209057  0.39145903  0.73020786  1
  Ti  Ti155  1  0.89548134  0.89399108  0.37512139  1
  Ti  Ti156  1  0.30913957  0.90390735  0.63390111  1
  Ti  Ti157  1  0.79798389  0.59567356  0.50218845  1
  Ti  Ti158  1  0.80066724  0.20569029  0.26196760  1
  Ti  Ti159  1  0.58048814  0.38689529  0.50944420  1
  Mo  Mo160  1  0.50042018  0.29911635  0.63918818  1
  Mo  Mo161  1  0.30455706  0.10090905  0.88175346  1
  Mo  Mo162  1  0.00327860  0.60004192  0.74613807  1
  Mo  Mo163  1  0.60478469  0.78876234  0.02180976  1
  Mo  Mo164  1  0.79696446  0.79331499  0.27653734  1
  Mo  Mo165  1  0.30170687  0.10510620  0.35573464  1
  Mo  Mo166  1  0.39507654  0.39987581  0.24189872  1
  Mo  Mo167  1  0.78968961  0.59412505  0.73187569  1
  Mo  Mo168  1  0.90139592  0.89515216  0.14108156  1
  Mo  Mo169  1  0.60181037  -0.00150472  0.02186819  1
  Mo  Mo170  1  0.10327496  0.69718513  0.61593853  1
  Mo  Mo171  1  0.70382735  0.09772678  0.61131194  1
  Mo  Mo172  1  0.10025744  0.90711655  0.61641912  1
  Mo  Mo173  1  0.68909343  0.28949776  0.60345103  1
  Mo  Mo174  1  0.89786428  0.10081558  0.37362385  1
  Mo  Mo175  1  0.40094448  0.60190262  0.00335352  1
  Mo  Mo176  1  0.80024824  0.40882498  -0.00019605  1
  Mo  Mo177  1  0.49353040  0.91158392  0.62093051  1
  Mo  Mo178  1  0.60613444  0.20343156  0.74172730  1
  Mo  Mo179  1  0.59846926  0.20646600  0.48826934  1
  Mo  Mo180  1  0.19811403  0.60703533  0.74799105  1
  Mo  Mo181  1  0.69727822  0.69501132  0.13681318  1
  Mo  Mo182  1  0.40042636  0.40688281  0.51643918  1
  Mo  Mo183  1  0.79986615  -0.00500283  0.47605536  1
  Mo  Mo184  1  0.19802366  0.40093160  0.74037377  1
  Mo  Mo185  1  0.10057406  0.29734974  0.61850118  1
  Mo  Mo186  1  0.79843432  0.39674312  0.50516685  1
  Mo  Mo187  1  0.09513560  0.89749375  0.87231233  1
  Mo  Mo188  1  0.80540419  0.79673537  -0.01540388  1
  Mo  Mo189  1  0.60504268  -0.00812401  0.24003817  1
  Mo  Mo190  1  0.09115404  0.69742654  0.88680005  1
  Mo  Mo191  1  0.00302331  0.00375164  0.74181583  1
  Mo  Mo192  1  0.20537854  0.00411346  0.01267845  1
  Mo  Mo193  1  0.00028695  0.19900143  0.50620370  1
  Mo  Mo194  1  0.59089313  0.58362444  0.73564067  1
  Mo  Mo195  1  0.09872098  0.90069423  0.14227116  1
  Mo  Mo196  1  0.49164342  0.48705442  0.37003324  1
  Mo  Mo197  1  0.50045133  0.69728188  0.14047401  1
  Mo  Mo198  1  0.30078746  0.69537359  0.10915234  1
  Mo  Mo199  1  0.49830877  0.70009291  0.87376910  1
