# generated using pymatgen
data_HfZrTaTiMo
_symmetry_space_group_name_H-M   'P 1'
_cell_length_a   15.91981693
_cell_length_b   15.92751433
_cell_length_c   15.20483104
_cell_angle_alpha   90.02018923
_cell_angle_beta   90.00509708
_cell_angle_gamma   90.19202727
_symmetry_Int_Tables_number   1
_chemical_formula_structural   HfZrTaTiMo
_chemical_formula_sum   'Hf40 Zr40 Ta40 Ti40 Mo40'
_cell_volume   3855.36237166
_cell_formula_units_Z   40
loop_
 _symmetry_equiv_pos_site_id
 _symmetry_equiv_pos_as_xyz
  1  'x, y, z'
loop_
 _atom_site_type_symbol
 _atom_site_label
 _atom_site_symmetry_multiplicity
 _atom_site_fract_x
 _atom_site_fract_y
 _atom_site_fract_z
 _atom_site_occupancy
  Hf  Hf0  1  0.40851763  0.40152075  0.26403895  1
  Hf  Hf1  1  -0.00080978  0.00192867  0.50198128  1
  Hf  Hf2  1  0.10699701  0.71115040  0.10043509  1
  Hf  Hf3  1  0.10583496  0.50904803  0.88575810  1
  Hf  Hf4  1  0.79807088  0.39981306  0.25071820  1
  Hf  Hf5  1  0.79220995  0.00277582  0.26914298  1
  Hf  Hf6  1  0.60215397  -0.00749655  0.27417977  1
  Hf  Hf7  1  0.29862709  0.29289601  0.88496184  1
  Hf  Hf8  1  0.89197013  0.49732682  0.87425967  1
  Hf  Hf9  1  0.69692526  0.10163103  0.12211057  1
  Hf  Hf10  1  0.79070830  0.79321313  -0.00766295  1
  Hf  Hf11  1  0.40555469  0.40231448  0.48973155  1
  Hf  Hf12  1  0.29931139  0.90776772  0.87778587  1
  Hf  Hf13  1  0.89873096  0.70101451  0.12339528  1
  Hf  Hf14  1  0.28305870  0.70148879  0.37313005  1
  Hf  Hf15  1  0.19711177  0.38300745  0.47219025  1
  Hf  Hf16  1  0.00791726  0.19106536  0.75929857  1
  Hf  Hf17  1  0.10030208  0.10562115  0.35624416  1
  Hf  Hf18  1  0.70000207  0.29725321  0.12026888  1
  Hf  Hf19  1  0.59441032  0.79765568  0.25941208  1
  Hf  Hf20  1  0.60537426  -0.00882862  0.73939359  1
  Hf  Hf21  1  0.58832695  0.78706950  0.00967056  1
  Hf  Hf22  1  0.70420831  0.31127157  0.87512298  1
  Hf  Hf23  1  0.70066888  0.29996046  0.61878592  1
  Hf  Hf24  1  0.90825311  0.50433705  0.64682498  1
  Hf  Hf25  1  0.02315650  0.21094478  0.49455326  1
  Hf  Hf26  1  0.20561767  0.40804363  0.01445894  1
  Hf  Hf27  1  0.69729450  0.09606451  0.86981564  1
  Hf  Hf28  1  0.70858587  0.51219160  0.37512530  1
  Hf  Hf29  1  0.40379709  0.39737519  0.74852472  1
  Hf  Hf30  1  0.49261230  0.88493965  0.86117891  1
  Hf  Hf31  1  0.20047992  0.01579279  0.50512521  1
  Hf  Hf32  1  0.20693909  0.00837018  0.73631647  1
  Hf  Hf33  1  0.90589769  0.89954351  0.10927478  1
  Hf  Hf34  1  0.49955089  0.10375951  0.61474947  1
  Hf  Hf35  1  0.40186053  0.18638591  -0.00788619  1
  Hf  Hf36  1  0.29691259  0.28824542  0.61689752  1
  Hf  Hf37  1  0.48802933  0.07953260  0.85738745  1
  Hf  Hf38  1  -0.00081295  -0.00705369  0.24561516  1
  Hf  Hf39  1  0.19911744  0.80414958  0.73947432  1
  Zr  Zr40  1  0.09995850  0.28323451  0.12935363  1
  Zr  Zr41  1  0.91960448  0.30256184  0.35415259  1
  Zr  Zr42  1  0.69179690  0.50832389  0.87694494  1
  Zr  Zr43  1  0.79043815  0.80725211  0.24514986  1
  Zr  Zr44  1  0.81470308  -0.00682111  0.74745168  1
  Zr  Zr45  1  0.90236233  0.10797241  0.61489960  1
  Zr  Zr46  1  0.10349323  0.30666010  0.63619187  1
  Zr  Zr47  1  0.81069513  0.20715765  0.76494003  1
  Zr  Zr48  1  -0.01442979  0.79503210  0.51182572  1
  Zr  Zr49  1  0.10112252  0.88617517  0.37988179  1
  Zr  Zr50  1  0.81208527  0.40572730  0.48392785  1
  Zr  Zr51  1  0.39678620  -0.00500003  0.49658143  1
  Zr  Zr52  1  0.70367069  0.69720830  0.38253384  1
  Zr  Zr53  1  0.18502380  0.60156155  0.23799591  1
  Zr  Zr54  1  0.69423689  0.90308346  0.11484186  1
  Zr  Zr55  1  0.89904946  0.10366639  0.12933843  1
  Zr  Zr56  1  0.70730996  0.49955886  0.62579392  1
  Zr  Zr57  1  0.20215929  0.40395216  0.76305090  1
  Zr  Zr58  1  0.18092289  0.58504903  0.50727407  1
  Zr  Zr59  1  0.68619604  0.49882076  0.12584195  1
  Zr  Zr60  1  0.31399542  0.29232530  0.12909825  1
  Zr  Zr61  1  0.01334495  0.42677084  0.49161824  1
  Zr  Zr62  1  0.29396862  0.88818467  0.13225833  1
  Zr  Zr63  1  0.40628112  0.60760083  0.49780533  1
  Zr  Zr64  1  0.58667570  0.79489934  0.49562414  1
  Zr  Zr65  1  0.41387320  0.41070323  -0.00209521  1
  Zr  Zr66  1  0.20069442  0.40253259  0.24821515  1
  Zr  Zr67  1  0.49774258  0.10257761  0.14700676  1
  Zr  Zr68  1  0.89942060  0.30833433  0.62357997  1
  Zr  Zr69  1  0.30522124  0.70197119  0.88341529  1
  Zr  Zr70  1  0.10370982  0.70924190  0.88277286  1
  Zr  Zr71  1  0.29404318  0.09577523  0.13708882  1
  Zr  Zr72  1  0.78943148  0.80421933  0.75161655  1
  Zr  Zr73  1  0.51393737  0.30468614  0.13154394  1
  Zr  Zr74  1  0.09935839  0.29377559  0.89309572  1
  Zr  Zr75  1  0.59565135  0.19608876  -0.01260582  1
  Zr  Zr76  1  0.29751213  0.49282108  0.61931684  1
  Zr  Zr77  1  0.89881496  0.70120232  0.35677862  1
  Zr  Zr78  1  0.70046636  0.10531846  0.61335597  1
  Zr  Zr79  1  0.39166298  0.19054520  0.74881699  1
  Ta  Ta80  1  0.59398195  0.20626515  0.74981107  1
  Ta  Ta81  1  0.89801269  0.50258608  0.12799743  1
  Ta  Ta82  1  0.30139546  0.50779129  0.36653162  1
  Ta  Ta83  1  0.50187380  0.51113890  0.85936976  1
  Ta  Ta84  1  0.80334099  -0.00766509  0.49191499  1
  Ta  Ta85  1  0.68872052  0.89684659  0.87991568  1
  Ta  Ta86  1  0.29234634  0.89559904  0.37601671  1
  Ta  Ta87  1  0.91398991  0.52343342  0.34996230  1
  Ta  Ta88  1  0.40246125  -0.00671915  0.00893937  1
  Ta  Ta89  1  0.11240552  0.08999453  0.89504522  1
  Ta  Ta90  1  0.80378149  0.40035374  0.00566337  1
  Ta  Ta91  1  0.39108131  0.79515141  0.72364823  1
  Ta  Ta92  1  0.59970769  0.39844184  0.74642802  1
  Ta  Ta93  1  0.50774419  0.50103401  0.63120678  1
  Ta  Ta94  1  0.39989388  0.79757214  0.26779908  1
  Ta  Ta95  1  -0.00522315  0.81223905  0.75428021  1
  Ta  Ta96  1  0.08839669  0.69506165  0.63118121  1
  Ta  Ta97  1  0.49181159  0.89965929  0.13751513  1
  Ta  Ta98  1  0.19794344  0.79564014  0.51688522  1
  Ta  Ta99  1  0.31206780  0.51466567  0.13099647  1
  Ta  Ta100  1  0.10151105  0.90026015  0.10232757  1
  Ta  Ta101  1  0.89750558  0.70103512  0.64745747  1
  Ta  Ta102  1  0.50166118  0.10195036  0.38152586  1
  Ta  Ta103  1  0.49742934  0.89926179  0.62281312  1
  Ta  Ta104  1  0.90104680  0.30035504  0.12578651  1
  Ta  Ta105  1  -0.00639861  0.59875981  0.00122272  1
  Ta  Ta106  1  0.79745565  0.00162669  -0.01224994  1
  Ta  Ta107  1  0.39411528  0.79770890  0.50090671  1
  Ta  Ta108  1  0.49911405  0.69222591  0.85656177  1
  Ta  Ta109  1  0.38561357  0.19540347  0.48344803  1
  Ta  Ta110  1  0.82013037  0.60774361  0.51014422  1
  Ta  Ta111  1  0.80806291  0.20100305  -0.00854947  1
  Ta  Ta112  1  0.08384552  0.68432910  0.37980865  1
  Ta  Ta113  1  0.89647879  0.69743719  0.87406680  1
  Ta  Ta114  1  0.59849365  0.40325507  0.49162634  1
  Ta  Ta115  1  0.58732606  -0.00662622  -0.00265993  1
  Ta  Ta116  1  0.61351744  0.20135457  0.27657905  1
  Ta  Ta117  1  0.20371440  0.60473614  0.73987172  1
  Ta  Ta118  1  0.09414152  0.90224967  0.62433690  1
  Ta  Ta119  1  0.90410717  0.10471709  0.37291724  1
  Ti  Ti120  1  0.58832935  0.60148966  0.00731343  1
  Ti  Ti121  1  0.30133842  0.70189168  0.12721837  1
  Ti  Ti122  1  0.79674793  0.20100299  0.26282328  1
  Ti  Ti123  1  0.60452673  -0.00500082  0.48832602  1
  Ti  Ti124  1  0.60265445  0.39837928  0.27461432  1
  Ti  Ti125  1  0.00931924  0.00071462  0.74716683  1
  Ti  Ti126  1  0.79024972  0.60279649  0.00763114  1
  Ti  Ti127  1  0.79041558  0.60559868  0.75206756  1
  Ti  Ti128  1  0.39900166  -0.00452193  0.26865622  1
  Ti  Ti129  1  0.40416902  0.79770846  0.00852635  1
  Ti  Ti130  1  0.48860045  0.69336647  0.14283358  1
  Ti  Ti131  1  0.09953390  0.90556526  0.89095284  1
  Ti  Ti132  1  0.39638714  0.60491818  0.73395434  1
  Ti  Ti133  1  0.49912906  0.50419251  0.13699917  1
  Ti  Ti134  1  0.01508695  0.79643118  0.24331610  1
  Ti  Ti135  1  0.30751192  0.51322536  0.87947150  1
  Ti  Ti136  1  0.69774676  0.69458841  0.61826389  1
  Ti  Ti137  1  0.80129563  0.80249436  0.50936940  1
  Ti  Ti138  1  0.50342104  0.29789668  0.61428830  1
  Ti  Ti139  1  -0.00125941  0.19395816  0.00385875  1
  Ti  Ti140  1  0.10416225  0.09266476  0.11927607  1
  Ti  Ti141  1  -0.00351324  0.40230421  0.00799692  1
  Ti  Ti142  1  0.50453594  0.29311100  0.38217486  1
  Ti  Ti143  1  0.91321585  0.09091397  0.88553119  1
  Ti  Ti144  1  0.20020981  0.18858909  0.75680900  1
  Ti  Ti145  1  0.50495151  0.30593880  0.87401534  1
  Ti  Ti146  1  0.40777283  0.60641765  0.00336540  1
  Ti  Ti147  1  0.59699352  0.79047429  0.73490415  1
  Ti  Ti148  1  0.00558536  0.60605547  0.76351836  1
  Ti  Ti149  1  0.21487960  0.20684134  0.27092482  1
  Ti  Ti150  1  -0.00459723  0.39158239  0.76875794  1
  Ti  Ti151  1  0.68475118  0.69764563  0.87135545  1
  Ti  Ti152  1  0.59081608  0.60106699  0.25876853  1
  Ti  Ti153  1  0.90660310  0.90088617  0.88590062  1
  Ti  Ti154  1  0.19630095  -0.01196471  0.25143311  1
  Ti  Ti155  1  0.79737996  0.20323077  0.47753167  1
  Ti  Ti156  1  0.01344863  0.41488124  0.23652007  1
  Ti  Ti157  1  0.90014771  0.89483846  0.37300502  1
  Ti  Ti158  1  0.70011191  0.89768689  0.61250762  1
  Ti  Ti159  1  0.59295402  0.59889781  0.50099427  1
  Mo  Mo160  1  0.10268892  0.10464039  0.62946676  1
  Mo  Mo161  1  0.70133317  0.30387595  0.38321911  1
  Mo  Mo162  1  0.59480930  0.20577098  0.49373219  1
  Mo  Mo163  1  0.19464978  0.80035544  0.25323332  1
  Mo  Mo164  1  0.00078861  0.60301795  0.22259641  1
  Mo  Mo165  1  -0.00680904  0.60358423  0.51202949  1
  Mo  Mo166  1  0.39865023  0.60348507  0.25458376  1
  Mo  Mo167  1  0.70249562  0.10292624  0.39132582  1
  Mo  Mo168  1  0.20563411  0.00036930  0.00814081  1
  Mo  Mo169  1  0.80345886  0.40237910  0.76125236  1
  Mo  Mo170  1  0.09714753  0.50296858  0.10407402  1
  Mo  Mo171  1  0.49229194  0.69391259  0.36659819  1
  Mo  Mo172  1  0.40827315  0.19729918  0.27131452  1
  Mo  Mo173  1  0.21292235  0.59873514  0.01096750  1
  Mo  Mo174  1  0.70288195  0.89652097  0.39613097  1
  Mo  Mo175  1  0.29811552  0.89978326  0.61400605  1
  Mo  Mo176  1  0.20816009  0.80385082  -0.00789205  1
  Mo  Mo177  1  0.89989089  0.90090659  0.62897315  1
  Mo  Mo178  1  0.00081468  0.00331917  0.00045808  1
  Mo  Mo179  1  0.49331570  0.89707319  0.37978147  1
  Mo  Mo180  1  0.59694445  0.41055723  -0.01622303  1
  Mo  Mo181  1  0.49986671  0.69659472  0.63519628  1
  Mo  Mo182  1  0.29605684  0.09180313  0.88778090  1
  Mo  Mo183  1  0.60013596  0.60487489  0.73697402  1
  Mo  Mo184  1  0.09197621  0.50431093  0.65765750  1
  Mo  Mo185  1  0.20346837  0.19831324  0.48201077  1
  Mo  Mo186  1  0.20253377  0.19376353  0.00090179  1
  Mo  Mo187  1  0.50792824  0.50285860  0.37300119  1
  Mo  Mo188  1  -0.00376473  0.80132543  -0.01937011  1
  Mo  Mo189  1  0.09442993  0.50671808  0.36162701  1
  Mo  Mo190  1  0.39585654  -0.01052613  0.72656875  1
  Mo  Mo191  1  0.30862291  0.29863526  0.37080433  1
  Mo  Mo192  1  0.10175326  0.30232358  0.35003037  1
  Mo  Mo193  1  0.29329443  0.69800007  0.61609153  1
  Mo  Mo194  1  0.90531673  0.30056437  0.89907213  1
  Mo  Mo195  1  0.69058049  0.68961481  0.12885021  1
  Mo  Mo196  1  0.00114541  0.19456122  0.23800664  1
  Mo  Mo197  1  0.30025566  0.09401311  0.35922382  1
  Mo  Mo198  1  0.29857966  0.10583448  0.61785206  1
  Mo  Mo199  1  0.79152002  0.60061007  0.22989318  1
