# generated using pymatgen
data_HfZrTaTiMo
_symmetry_space_group_name_H-M   'P 1'
_cell_length_a   15.92198986
_cell_length_b   15.92828364
_cell_length_c   15.22725433
_cell_angle_alpha   89.98707982
_cell_angle_beta   89.97380295
_cell_angle_gamma   90.10562909
_symmetry_Int_Tables_number   1
_chemical_formula_structural   HfZrTaTiMo
_chemical_formula_sum   'Hf40 Zr40 Ta40 Ti40 Mo40'
_cell_volume   3861.77645702
_cell_formula_units_Z   40
loop_
 _symmetry_equiv_pos_site_id
 _symmetry_equiv_pos_as_xyz
  1  'x, y, z'
loop_
 _atom_site_type_symbol
 _atom_site_label
 _atom_site_symmetry_multiplicity
 _atom_site_fract_x
 _atom_site_fract_y
 _atom_site_fract_z
 _atom_site_occupancy
  Hf  Hf0  1  0.70919717  0.51349558  0.87914883  1
  Hf  Hf1  1  0.10859045  0.28298731  0.85957145  1
  Hf  Hf2  1  0.20871428  0.38822190  0.01097738  1
  Hf  Hf3  1  0.90333607  0.91721519  0.87756901  1
  Hf  Hf4  1  0.40456975  0.58991001  0.25606864  1
  Hf  Hf5  1  0.01358293  0.59908647  0.00859800  1
  Hf  Hf6  1  0.79915127  0.19624101  0.24551748  1
  Hf  Hf7  1  0.51053291  0.11063884  0.39078731  1
  Hf  Hf8  1  0.10326604  0.90038735  0.87472273  1
  Hf  Hf9  1  0.61227603  0.80462255  0.50294905  1
  Hf  Hf10  1  0.50638371  0.91791253  0.11004455  1
  Hf  Hf11  1  0.19141540  0.38279319  0.50710744  1
  Hf  Hf12  1  0.69262553  0.09417975  0.10802509  1
  Hf  Hf13  1  0.18807418  0.19938074  0.02134666  1
  Hf  Hf14  1  0.90679769  0.70469680  0.13686796  1
  Hf  Hf15  1  0.20278228  0.77957093  0.01292504  1
  Hf  Hf16  1  0.40219687  0.58417681  0.01658863  1
  Hf  Hf17  1  0.19859165  0.00007909  0.00659648  1
  Hf  Hf18  1  0.48297751  0.31315989  0.13038393  1
  Hf  Hf19  1  0.40685715  0.59411061  0.49020405  1
  Hf  Hf20  1  0.00544980  0.40006898  0.75778968  1
  Hf  Hf21  1  0.18708006  0.38705023  0.25756140  1
  Hf  Hf22  1  0.20698629  0.58948258  0.24032067  1
  Hf  Hf23  1  0.79861479  0.20456603  0.50094937  1
  Hf  Hf24  1  0.41238378  0.79064434  0.75638046  1
  Hf  Hf25  1  0.19122233  0.59380023  0.49883564  1
  Hf  Hf26  1  0.39761936  0.00464910  0.75062543  1
  Hf  Hf27  1  0.49818735  0.70515887  0.13042530  1
  Hf  Hf28  1  0.28260166  0.11413223  0.86529656  1
  Hf  Hf29  1  0.30116521  0.90352328  0.61729431  1
  Hf  Hf30  1  0.69735092  0.30349778  0.86697923  1
  Hf  Hf31  1  0.40823037  0.79732655  0.48995520  1
  Hf  Hf32  1  0.89594881  0.30378193  0.62882621  1
  Hf  Hf33  1  0.20153826  0.58247986  0.72974376  1
  Hf  Hf34  1  0.40323087  -0.00314005  0.26711926  1
  Hf  Hf35  1  0.11405567  0.71414074  0.36797842  1
  Hf  Hf36  1  0.70494672  0.91761919  0.88452510  1
  Hf  Hf37  1  0.58350902  0.41137131  -0.00842747  1
  Hf  Hf38  1  0.89600566  0.69724833  0.63051351  1
  Hf  Hf39  1  0.61992839  0.81251361  0.22995844  1
  Zr  Zr40  1  0.49911254  0.10105928  0.61591892  1
  Zr  Zr41  1  0.70208322  0.50839920  0.62935687  1
  Zr  Zr42  1  -0.00051219  0.40161618  0.48020967  1
  Zr  Zr43  1  0.50892016  0.49364988  0.62455869  1
  Zr  Zr44  1  0.59912921  0.19825101  0.74393568  1
  Zr  Zr45  1  0.29620165  0.89892923  0.86913569  1
  Zr  Zr46  1  0.68650759  0.30245059  0.13386742  1
  Zr  Zr47  1  0.00103293  0.58934657  0.75265640  1
  Zr  Zr48  1  0.10912399  0.68958624  0.87355249  1
  Zr  Zr49  1  0.48338044  0.49946789  0.85990989  1
  Zr  Zr50  1  0.88779518  0.69179406  0.87411764  1
  Zr  Zr51  1  0.27901065  0.88856290  0.38587743  1
  Zr  Zr52  1  0.60284693  0.01048349  0.25264155  1
  Zr  Zr53  1  0.40180084  0.39500250  0.28621866  1
  Zr  Zr54  1  0.30344743  0.70038827  0.61616739  1
  Zr  Zr55  1  0.70674734  0.71543085  0.36607104  1
  Zr  Zr56  1  0.80028689  0.40577245  0.25950318  1
  Zr  Zr57  1  0.60008276  0.59085336  0.25266718  1
  Zr  Zr58  1  0.80701603  0.41143270  0.75827245  1
  Zr  Zr59  1  0.40074300  0.19976818  0.26835031  1
  Zr  Zr60  1  0.31015547  0.10067508  0.12913985  1
  Zr  Zr61  1  -0.00422699  0.80417966  0.49005709  1
  Zr  Zr62  1  0.30186483  0.67605258  0.86713767  1
  Zr  Zr63  1  0.19408187  -0.00193332  0.24850705  1
  Zr  Zr64  1  0.00241036  0.58239608  0.26576537  1
  Zr  Zr65  1  0.49521441  0.10983809  0.86794297  1
  Zr  Zr66  1  0.11120847  0.10715243  0.38665641  1
  Zr  Zr67  1  -0.00245743  -0.00246186  0.25347672  1
  Zr  Zr68  1  0.58639061  0.20976224  -0.00898532  1
  Zr  Zr69  1  0.59826681  0.61431076  0.76661467  1
  Zr  Zr70  1  0.79718956  0.80136894  0.01118073  1
  Zr  Zr71  1  0.79884488  0.59979273  0.25031405  1
  Zr  Zr72  1  0.30710154  0.88914486  0.13033512  1
  Zr  Zr73  1  0.00292456  0.80171644  0.75160940  1
  Zr  Zr74  1  0.50938418  0.90176990  0.62593459  1
  Zr  Zr75  1  0.90905681  0.91797122  0.62973571  1
  Zr  Zr76  1  0.79010361  0.40161200  0.48247337  1
  Zr  Zr77  1  0.89818272  0.27934778  0.87233730  1
  Zr  Zr78  1  0.40393863  0.79203359  -0.00985890  1
  Zr  Zr79  1  0.90230164  0.09779605  0.37882678  1
  Ta  Ta80  1  0.60683476  0.60212414  0.48816201  1
  Ta  Ta81  1  0.69496889  0.49839397  0.11678348  1
  Ta  Ta82  1  0.00532863  0.38883618  -0.00585671  1
  Ta  Ta83  1  0.80088357  0.39729266  0.00385945  1
  Ta  Ta84  1  0.38440837  0.21992304  -0.00389212  1
  Ta  Ta85  1  0.80003500  0.60861915  0.48866462  1
  Ta  Ta86  1  0.20914472  0.58507794  0.02798175  1
  Ta  Ta87  1  0.51277841  0.69841187  0.62041971  1
  Ta  Ta88  1  -0.01480952  0.17533797  0.73373714  1
  Ta  Ta89  1  0.00843675  0.20732733  0.51063954  1
  Ta  Ta90  1  0.71805865  0.10834643  0.88133297  1
  Ta  Ta91  1  0.61599538  0.00104345  0.49943123  1
  Ta  Ta92  1  0.19148533  0.00642914  0.73444640  1
  Ta  Ta93  1  0.89919076  0.10188708  0.12090702  1
  Ta  Ta94  1  0.81639678  0.02774318  0.74863796  1
  Ta  Ta95  1  0.09504736  0.89020459  0.12296139  1
  Ta  Ta96  1  0.60434275  0.79782164  -0.00694637  1
  Ta  Ta97  1  0.90153672  0.49307346  0.11425066  1
  Ta  Ta98  1  -0.00478292  0.60225701  0.48475218  1
  Ta  Ta99  1  0.59955227  0.61026643  0.00106955  1
  Ta  Ta100  1  0.00295792  0.00387829  0.00994103  1
  Ta  Ta101  1  0.08571331  0.09653488  0.86916743  1
  Ta  Ta102  1  0.80068017  0.80835064  0.51118817  1
  Ta  Ta103  1  0.79347355  0.80835873  0.75247671  1
  Ta  Ta104  1  0.19935701  0.79883110  0.73538941  1
  Ta  Ta105  1  0.29063381  0.49347184  0.38562785  1
  Ta  Ta106  1  0.70301997  0.70522354  0.63291378  1
  Ta  Ta107  1  0.70277766  0.10181118  0.37577049  1
  Ta  Ta108  1  0.10317803  0.90386711  0.60953590  1
  Ta  Ta109  1  0.89765018  0.50629734  0.61110207  1
  Ta  Ta110  1  0.00268816  0.79932308  0.00020061  1
  Ta  Ta111  1  0.01413536  0.20285280  0.23787383  1
  Ta  Ta112  1  0.20084881  0.39452793  0.72787983  1
  Ta  Ta113  1  0.69215313  0.31085311  0.63545926  1
  Ta  Ta114  1  0.60500665  0.80424015  0.76618313  1
  Ta  Ta115  1  0.79738709  -0.00973806  0.23788452  1
  Ta  Ta116  1  0.90355040  0.49993106  0.89745478  1
  Ta  Ta117  1  0.51415403  0.89956387  0.37746335  1
  Ta  Ta118  1  0.40028905  0.01326386  -0.01146930  1
  Ta  Ta119  1  0.39481972  0.39051377  0.49974747  1
  Ti  Ti120  1  0.90816681  0.30789708  0.12986482  1
  Ti  Ti121  1  0.70940201  0.10162082  0.62506764  1
  Ti  Ti122  1  0.59688758  0.39988618  0.48604649  1
  Ti  Ti123  1  0.09191032  0.09135212  0.61548339  1
  Ti  Ti124  1  0.27794069  0.27818830  0.38433464  1
  Ti  Ti125  1  0.08672004  0.49416181  0.61443077  1
  Ti  Ti126  1  0.11340333  0.49237546  0.88381796  1
  Ti  Ti127  1  0.91016330  0.29376344  0.36462490  1
  Ti  Ti128  1  0.39060363  0.20555465  0.50708631  1
  Ti  Ti129  1  0.39727368  0.59459582  0.72982978  1
  Ti  Ti130  1  0.70641217  0.90883245  0.63712500  1
  Ti  Ti131  1  0.49904737  0.11147800  0.11924113  1
  Ti  Ti132  1  0.29652995  0.48613676  0.87435610  1
  Ti  Ti133  1  0.80370388  -0.00117197  0.50115776  1
  Ti  Ti134  1  0.10001896  0.70199392  0.14248079  1
  Ti  Ti135  1  0.40334438  -0.00138436  0.49352949  1
  Ti  Ti136  1  0.80407742  0.20741665  0.01339512  1
  Ti  Ti137  1  0.40051828  0.79955515  0.25852809  1
  Ti  Ti138  1  0.29785648  0.69814602  0.36939483  1
  Ti  Ti139  1  0.09622985  0.70271610  0.61773667  1
  Ti  Ti140  1  0.29453285  0.09731936  0.39523208  1
  Ti  Ti141  1  0.71459793  0.90600994  0.37374783  1
  Ti  Ti142  1  0.59057137  0.40574271  0.26676960  1
  Ti  Ti143  1  0.50164493  0.30420716  0.62371526  1
  Ti  Ti144  1  0.50858122  0.70648434  0.36695982  1
  Ti  Ti145  1  0.89500144  0.71322295  0.36577643  1
  Ti  Ti146  1  0.60924915  0.00538712  0.75468364  1
  Ti  Ti147  1  0.38390064  0.20339212  0.72813689  1
  Ti  Ti148  1  0.50491523  0.90883921  0.88107956  1
  Ti  Ti149  1  0.00084747  0.81405152  0.26092512  1
  Ti  Ti150  1  0.60857432  0.20733211  0.51142626  1
  Ti  Ti151  1  0.90141620  0.90295896  0.12094073  1
  Ti  Ti152  1  0.79521322  0.60463154  0.01754754  1
  Ti  Ti153  1  0.38444389  0.40230731  0.72221584  1
  Ti  Ti154  1  0.29669018  0.30267218  0.85247564  1
  Ti  Ti155  1  0.68265210  0.28869480  0.36345138  1
  Ti  Ti156  1  0.00205353  0.19793126  0.01224794  1
  Ti  Ti157  1  0.08918308  0.48124584  0.12873520  1
  Ti  Ti158  1  0.32050159  0.46965121  0.13360933  1
  Ti  Ti159  1  0.48259873  0.30946971  0.85263240  1
  Mo  Mo160  1  0.00524162  0.00426816  0.75235620  1
  Mo  Mo161  1  0.90018051  0.10468963  0.89550940  1
  Mo  Mo162  1  0.89559476  0.50686654  0.38656227  1
  Mo  Mo163  1  0.20006282  0.00129163  0.51091125  1
  Mo  Mo164  1  0.09501823  0.09493548  0.12506082  1
  Mo  Mo165  1  0.09255190  0.29253667  0.64102904  1
  Mo  Mo166  1  0.59802792  0.20481648  0.24880359  1
  Mo  Mo167  1  0.29793378  0.29407589  0.14083114  1
  Mo  Mo168  1  0.09551075  0.90292068  0.38937306  1
  Mo  Mo169  1  0.29610226  0.09711702  0.61476780  1
  Mo  Mo170  1  0.50520522  0.29458445  0.39868200  1
  Mo  Mo171  1  0.59556919  0.00687111  -0.01566209  1
  Mo  Mo172  1  0.50079441  0.49669914  0.39264894  1
  Mo  Mo173  1  0.19090314  0.19334680  0.72934610  1
  Mo  Mo174  1  0.81011717  0.81293893  0.23580392  1
  Mo  Mo175  1  0.09138810  0.30124744  0.12854755  1
  Mo  Mo176  1  0.80355783  0.60652078  0.74703351  1
  Mo  Mo177  1  0.69582130  0.50131169  0.38085518  1
  Mo  Mo178  1  0.19903593  0.19737298  0.52209445  1
  Mo  Mo179  1  0.19820986  0.79334318  0.51616961  1
  Mo  Mo180  1  0.09557815  0.28970306  0.36800890  1
  Mo  Mo181  1  0.88801894  0.89706589  0.37313539  1
  Mo  Mo182  1  0.29982652  0.29335933  0.62331513  1
  Mo  Mo183  1  0.50071177  0.70152373  0.88434882  1
  Mo  Mo184  1  0.50504017  0.49448023  0.12556439  1
  Mo  Mo185  1  0.70192773  0.90715372  0.10534268  1
  Mo  Mo186  1  0.10253623  0.49883533  0.37677293  1
  Mo  Mo187  1  -0.00776381  0.39456145  0.25715911  1
  Mo  Mo188  1  0.39121656  0.39146173  -0.01092533  1
  Mo  Mo189  1  0.30191447  0.69089087  0.14186405  1
  Mo  Mo190  1  0.90249078  0.10127792  0.60139154  1
  Mo  Mo191  1  0.29976846  0.49329322  0.60689813  1
  Mo  Mo192  1  0.59422482  0.39846064  0.75902852  1
  Mo  Mo193  1  0.00181860  0.00140460  0.48454525  1
  Mo  Mo194  1  0.79772846  0.19782594  0.73425174  1
  Mo  Mo195  1  0.80596709  0.00761527  0.01104539  1
  Mo  Mo196  1  0.70196795  0.70795120  0.87647808  1
  Mo  Mo197  1  0.69947570  0.69784456  0.12061811  1
  Mo  Mo198  1  0.19890573  0.79516290  0.23722768  1
  Mo  Mo199  1  0.20046580  0.19778333  0.23939405  1
