# generated using pymatgen
data_HfZrTaTiMo
_symmetry_space_group_name_H-M   'P 1'
_cell_length_a   15.92912432
_cell_length_b   15.92826622
_cell_length_c   15.19161568
_cell_angle_alpha   89.92926915
_cell_angle_beta   90.03345182
_cell_angle_gamma   90.01262651
_symmetry_Int_Tables_number   1
_chemical_formula_structural   HfZrTaTiMo
_chemical_formula_sum   'Hf40 Zr40 Ta40 Ti40 Mo40'
_cell_volume   3854.46367211
_cell_formula_units_Z   40
loop_
 _symmetry_equiv_pos_site_id
 _symmetry_equiv_pos_as_xyz
  1  'x, y, z'
loop_
 _atom_site_type_symbol
 _atom_site_label
 _atom_site_symmetry_multiplicity
 _atom_site_fract_x
 _atom_site_fract_y
 _atom_site_fract_z
 _atom_site_occupancy
  Hf  Hf0  1  0.02474684  0.18035083  0.24155168  1
  Hf  Hf1  1  0.09987744  0.30457949  0.63662981  1
  Hf  Hf2  1  0.49679576  0.30131475  0.86353889  1
  Hf  Hf3  1  0.91209766  0.48941749  0.14036688  1
  Hf  Hf4  1  0.80068064  0.80211172  0.73764450  1
  Hf  Hf5  1  0.50346681  0.90711150  0.61951696  1
  Hf  Hf6  1  0.10116104  0.31137828  0.12540149  1
  Hf  Hf7  1  0.90108089  0.70424682  0.11852667  1
  Hf  Hf8  1  0.38712428  0.19547894  0.24304702  1
  Hf  Hf9  1  0.90817240  0.29682701  0.35357046  1
  Hf  Hf10  1  0.00772291  0.60068736  -0.00401295  1
  Hf  Hf11  1  0.39993261  0.40380201  -0.00218561  1
  Hf  Hf12  1  0.89089018  0.10361621  0.62449592  1
  Hf  Hf13  1  0.20301192  0.19516770  0.01337335  1
  Hf  Hf14  1  0.50276483  0.90494922  0.13480060  1
  Hf  Hf15  1  0.81141100  0.38611835  0.50673063  1
  Hf  Hf16  1  0.80073383  0.38983636  0.74164325  1
  Hf  Hf17  1  0.60367532  0.80785711  0.00314864  1
  Hf  Hf18  1  0.70244590  0.68946464  0.39275327  1
  Hf  Hf19  1  0.19708764  0.02526710  0.23669586  1
  Hf  Hf20  1  0.50170141  0.69301194  0.38183367  1
  Hf  Hf21  1  0.31461217  0.69713560  0.87231284  1
  Hf  Hf22  1  0.00532158  0.00131812  0.48844024  1
  Hf  Hf23  1  0.59871331  0.61422508  0.74492523  1
  Hf  Hf24  1  0.40027020  0.40802574  0.26136876  1
  Hf  Hf25  1  0.19986981  0.41060058  0.49840597  1
  Hf  Hf26  1  0.29031608  0.89222017  0.64018260  1
  Hf  Hf27  1  0.90526404  0.90330209  0.89054983  1
  Hf  Hf28  1  0.79501051  -0.00736161  0.74328144  1
  Hf  Hf29  1  0.48628731  0.50904436  0.85136853  1
  Hf  Hf30  1  0.01804717  0.59941291  0.49265640  1
  Hf  Hf31  1  0.38711968  0.40701909  0.51088580  1
  Hf  Hf32  1  0.79518876  0.39757878  -0.00653613  1
  Hf  Hf33  1  0.89230749  0.27981026  0.87379010  1
  Hf  Hf34  1  0.58854298  0.41011065  0.26490086  1
  Hf  Hf35  1  0.39125265  -0.00035272  0.48835428  1
  Hf  Hf36  1  0.80135328  0.59872345  0.75081511  1
  Hf  Hf37  1  0.59700009  0.19263647  0.73917354  1
  Hf  Hf38  1  0.10130291  0.29243783  0.87668862  1
  Hf  Hf39  1  0.80380404  -0.00917382  0.47947042  1
  Zr  Zr40  1  -0.00287254  0.20017212  0.50440019  1
  Zr  Zr41  1  0.20625122  0.80496661  0.00108241  1
  Zr  Zr42  1  0.80100259  0.80372517  0.25456131  1
  Zr  Zr43  1  0.69965920  0.50279264  0.60719975  1
  Zr  Zr44  1  0.40171628  0.19091480  -0.00925324  1
  Zr  Zr45  1  0.78872132  0.60184912  0.24763897  1
  Zr  Zr46  1  0.90634879  0.69927733  0.61434692  1
  Zr  Zr47  1  0.21024172  0.60628032  0.74492682  1
  Zr  Zr48  1  0.30372941  0.29498311  0.38405547  1
  Zr  Zr49  1  0.22460534  0.60751948  0.50477522  1
  Zr  Zr50  1  0.59768885  0.39356456  0.73215638  1
  Zr  Zr51  1  0.78633795  0.39972520  0.25368502  1
  Zr  Zr52  1  0.80389638  0.59190601  -0.00590231  1
  Zr  Zr53  1  0.00392676  0.81165597  0.48493701  1
  Zr  Zr54  1  0.00932892  0.60352870  0.25383243  1
  Zr  Zr55  1  0.60302568  0.80496826  0.74766793  1
  Zr  Zr56  1  0.68612906  0.29121893  0.12518115  1
  Zr  Zr57  1  0.69031781  0.08258422  0.60627771  1
  Zr  Zr58  1  0.89642777  0.50418692  0.37941591  1
  Zr  Zr59  1  0.11132281  0.28619921  0.37196769  1
  Zr  Zr60  1  0.08993501  0.09362377  0.88610055  1
  Zr  Zr61  1  0.10415291  0.50039738  0.63760380  1
  Zr  Zr62  1  -0.00618974  0.40430438  -0.01648669  1
  Zr  Zr63  1  0.68445595  0.49978071  0.11664168  1
  Zr  Zr64  1  0.30239586  0.50023377  0.12193967  1
  Zr  Zr65  1  0.39474654  0.00197640  0.26781551  1
  Zr  Zr66  1  0.40039572  0.00054650  0.76746144  1
  Zr  Zr67  1  0.69177824  0.30062436  0.38566737  1
  Zr  Zr68  1  0.59052550  0.60236024  -0.00858853  1
  Zr  Zr69  1  0.10332631  0.71088862  0.87171287  1
  Zr  Zr70  1  0.70901204  0.10739300  0.87213358  1
  Zr  Zr71  1  0.50080750  0.09805117  0.12914456  1
  Zr  Zr72  1  0.89966181  0.71285973  0.88402588  1
  Zr  Zr73  1  0.90116150  0.09596925  0.89071395  1
  Zr  Zr74  1  0.50099690  0.30435553  0.12433213  1
  Zr  Zr75  1  0.78283040  -0.01339394  0.02358228  1
  Zr  Zr76  1  0.38969577  0.79928263  0.49208970  1
  Zr  Zr77  1  0.58090811  0.00374218  -0.02140150  1
  Zr  Zr78  1  0.11126464  0.72147219  0.63083952  1
  Zr  Zr79  1  0.90309360  0.29257858  0.13066189  1
  Ta  Ta80  1  0.20035400  0.40971983  0.26446253  1
  Ta  Ta81  1  0.49417882  0.50697336  0.61909261  1
  Ta  Ta82  1  0.20432882  0.80913596  0.48247765  1
  Ta  Ta83  1  0.59833463  -0.00407929  0.75884402  1
  Ta  Ta84  1  0.10936060  0.49652435  0.87199675  1
  Ta  Ta85  1  0.60326767  0.80874856  0.49869088  1
  Ta  Ta86  1  0.29846011  0.49660548  0.86880876  1
  Ta  Ta87  1  0.70450175  0.70561845  0.88443629  1
  Ta  Ta88  1  0.79456411  -0.00144745  0.25156917  1
  Ta  Ta89  1  0.30927603  0.70418712  0.12876011  1
  Ta  Ta90  1  0.28369260  0.11054597  0.38781228  1
  Ta  Ta91  1  -0.00259170  0.59834252  0.75942119  1
  Ta  Ta92  1  -0.00550270  0.39893661  0.75841190  1
  Ta  Ta93  1  0.30438295  0.69919148  0.35642088  1
  Ta  Ta94  1  0.20583021  0.59883762  0.00153619  1
  Ta  Ta95  1  0.90887901  0.49661942  0.62293110  1
  Ta  Ta96  1  0.20342397  0.19108126  0.74577094  1
  Ta  Ta97  1  0.10847088  0.49671589  0.12129515  1
  Ta  Ta98  1  0.10713668  0.90484247  0.35472395  1
  Ta  Ta99  1  0.69720666  0.29645944  0.87362862  1
  Ta  Ta100  1  0.00575744  0.40052988  0.49293247  1
  Ta  Ta101  1  0.20029600  0.19471189  0.52525109  1
  Ta  Ta102  1  0.60179353  0.79620430  0.25438500  1
  Ta  Ta103  1  0.58990081  0.19086613  0.49511673  1
  Ta  Ta104  1  0.90472276  0.09616866  0.35700043  1
  Ta  Ta105  1  0.20655488  0.59980921  0.24695986  1
  Ta  Ta106  1  0.89931805  0.09500949  0.12890462  1
  Ta  Ta107  1  -0.00366687  0.19610668  0.74005105  1
  Ta  Ta108  1  0.11308286  0.70610800  0.36442325  1
  Ta  Ta109  1  0.30694101  0.90677071  0.12193864  1
  Ta  Ta110  1  0.70439274  0.70374678  0.60557575  1
  Ta  Ta111  1  0.49977793  0.70028660  0.13120529  1
  Ta  Ta112  1  0.50265760  0.50608791  0.40505284  1
  Ta  Ta113  1  0.78761062  0.18615059  0.25193571  1
  Ta  Ta114  1  0.01355202  0.81590072  0.01711985  1
  Ta  Ta115  1  0.40224674  0.80152888  0.25203178  1
  Ta  Ta116  1  0.40995017  0.80632737  -0.00577417  1
  Ta  Ta117  1  0.39204742  0.19837803  0.74257290  1
  Ta  Ta118  1  0.49198891  0.09680936  0.61693912  1
  Ta  Ta119  1  0.69489067  0.49559928  0.86616092  1
  Ti  Ti120  1  0.19414010  -0.00678861  0.76761033  1
  Ti  Ti121  1  0.59723299  0.19872844  -0.01160272  1
  Ti  Ti122  1  0.29426517  0.09503968  0.88165499  1
  Ti  Ti123  1  0.69995337  0.70757301  0.11867266  1
  Ti  Ti124  1  0.80025592  0.19033467  0.48105821  1
  Ti  Ti125  1  0.80605063  0.80768005  0.49271851  1
  Ti  Ti126  1  0.59087276  0.19352012  0.27299278  1
  Ti  Ti127  1  0.38745084  0.39585157  0.73460384  1
  Ti  Ti128  1  -0.00163195  -0.00137765  0.74584241  1
  Ti  Ti129  1  0.49461985  0.70249406  0.61244406  1
  Ti  Ti130  1  0.90003285  0.89902052  0.12992615  1
  Ti  Ti131  1  0.29328610  0.30299174  0.86777468  1
  Ti  Ti132  1  0.19622263  -0.00466472  0.49253122  1
  Ti  Ti133  1  0.40892878  0.59536450  0.24802833  1
  Ti  Ti134  1  0.90520783  0.90219371  0.62127714  1
  Ti  Ti135  1  0.59270054  0.40376661  -0.01168683  1
  Ti  Ti136  1  0.50190844  0.89793171  0.37573068  1
  Ti  Ti137  1  0.49228647  0.29661185  0.39398516  1
  Ti  Ti138  1  0.10975527  0.70052970  0.13011009  1
  Ti  Ti139  1  0.19226871  -0.01054543  0.00490420  1
  Ti  Ti140  1  0.00575599  0.80354552  0.24658548  1
  Ti  Ti141  1  0.00441638  -0.00536863  0.23994388  1
  Ti  Ti142  1  0.70825015  0.89341711  0.87874901  1
  Ti  Ti143  1  0.68535576  0.09329963  0.13566783  1
  Ti  Ti144  1  0.69528963  0.89771722  0.37380698  1
  Ti  Ti145  1  0.69131569  0.50362598  0.40041494  1
  Ti  Ti146  1  0.49227899  0.29475608  0.61325247  1
  Ti  Ti147  1  0.29665112  0.09091936  0.62621375  1
  Ti  Ti148  1  0.79219299  0.19412251  0.01931443  1
  Ti  Ti149  1  0.00366896  0.81204089  0.75249652  1
  Ti  Ti150  1  0.70437794  0.28219253  0.61340587  1
  Ti  Ti151  1  0.20712162  0.80713775  0.24305258  1
  Ti  Ti152  1  0.29292437  0.30772142  0.12702634  1
  Ti  Ti153  1  0.59545169  0.59848467  0.24868039  1
  Ti  Ti154  1  0.10282334  0.08969758  0.63066211  1
  Ti  Ti155  1  0.60013203  0.00799377  0.27611410  1
  Ti  Ti156  1  0.40496234  0.60348005  0.00512573  1
  Ti  Ti157  1  0.40852844  0.79814024  0.76010317  1
  Ti  Ti158  1  0.90354035  0.70218417  0.37830177  1
  Ti  Ti159  1  0.10438318  0.90447610  0.63294164  1
  Mo  Mo160  1  0.29508656  0.29680453  0.63356870  1
  Mo  Mo161  1  -0.00012158  -0.00700906  0.02405513  1
  Mo  Mo162  1  0.79591221  0.19991546  0.73739653  1
  Mo  Mo163  1  0.30797701  0.51119642  0.36526835  1
  Mo  Mo164  1  0.10498498  0.89620377  0.14170610  1
  Mo  Mo165  1  0.39192363  0.19717366  0.52115197  1
  Mo  Mo166  1  0.69769328  0.09807107  0.37582867  1
  Mo  Mo167  1  -0.00500477  0.19773840  0.01899575  1
  Mo  Mo168  1  0.79774196  0.80136665  0.01728488  1
  Mo  Mo169  1  0.29127214  0.90059478  0.35865706  1
  Mo  Mo170  1  0.20967513  0.20341786  0.23101292  1
  Mo  Mo171  1  0.29783535  0.89971600  0.87941404  1
  Mo  Mo172  1  0.90241538  0.29855402  0.63043800  1
  Mo  Mo173  1  0.81024712  0.59978297  0.50396097  1
  Mo  Mo174  1  0.50087648  0.89492622  0.87016826  1
  Mo  Mo175  1  0.20504420  0.81245719  0.76780463  1
  Mo  Mo176  1  0.39652152  0.60398177  0.51249183  1
  Mo  Mo177  1  0.30473548  0.50053157  0.64741954  1
  Mo  Mo178  1  0.90680156  0.90159138  0.35170623  1
  Mo  Mo179  1  0.09499390  0.90502024  0.86909077  1
  Mo  Mo180  1  0.31062408  0.71030139  0.63923993  1
  Mo  Mo181  1  0.89914328  0.49780162  0.85691644  1
  Mo  Mo182  1  0.49786654  0.50778848  0.12563987  1
  Mo  Mo183  1  0.70356982  0.89525206  0.60628651  1
  Mo  Mo184  1  0.09547631  0.09543186  0.10437699  1
  Mo  Mo185  1  0.40401565  0.60760139  0.73298610  1
  Mo  Mo186  1  0.01609962  0.40378205  0.26749564  1
  Mo  Mo187  1  0.10694402  0.09704574  0.38722312  1
  Mo  Mo188  1  0.68712310  0.90578958  0.14871061  1
  Mo  Mo189  1  0.20458168  0.40177987  -0.01408818  1
  Mo  Mo190  1  0.20181927  0.39387658  0.76313491  1
  Mo  Mo191  1  0.49067209  0.10958199  0.38610439  1
  Mo  Mo192  1  0.59716382  0.60641136  0.51588594  1
  Mo  Mo193  1  0.59209045  0.39326857  0.50749679  1
  Mo  Mo194  1  0.50114983  0.70354467  0.88309743  1
  Mo  Mo195  1  0.49796319  0.10533091  0.85960262  1
  Mo  Mo196  1  0.38739872  -0.00829806  -0.01288019  1
  Mo  Mo197  1  0.30195876  0.09119592  0.10472964  1
  Mo  Mo198  1  0.59302451  -0.00387702  0.47865310  1
  Mo  Mo199  1  0.10717985  0.50348417  0.37161125  1
