# generated using pymatgen
data_HfZrTaTiMo
_symmetry_space_group_name_H-M   'P 1'
_cell_length_a   15.91655409
_cell_length_b   15.93474551
_cell_length_c   15.18035024
_cell_angle_alpha   89.90724918
_cell_angle_beta   89.97980812
_cell_angle_gamma   90.04212768
_symmetry_Int_Tables_number   1
_chemical_formula_structural   HfZrTaTiMo
_chemical_formula_sum   'Hf40 Zr40 Ta40 Ti40 Mo40'
_cell_volume   3850.12880792
_cell_formula_units_Z   40
loop_
 _symmetry_equiv_pos_site_id
 _symmetry_equiv_pos_as_xyz
  1  'x, y, z'
loop_
 _atom_site_type_symbol
 _atom_site_label
 _atom_site_symmetry_multiplicity
 _atom_site_fract_x
 _atom_site_fract_y
 _atom_site_fract_z
 _atom_site_occupancy
  Hf  Hf0  1  0.71102794  0.30832407  0.12044751  1
  Hf  Hf1  1  0.78674479  0.60189933  0.50912393  1
  Hf  Hf2  1  -0.00939352  0.20969708  0.74729577  1
  Hf  Hf3  1  0.40419905  0.60482864  0.49074756  1
  Hf  Hf4  1  0.90348099  0.28613037  0.36445141  1
  Hf  Hf5  1  0.10713231  0.91307165  0.87641283  1
  Hf  Hf6  1  0.50564318  0.90339319  0.36810022  1
  Hf  Hf7  1  0.09922930  0.49307017  0.11658923  1
  Hf  Hf8  1  0.60108304  0.81356484  0.00140845  1
  Hf  Hf9  1  0.09680340  0.70708248  0.11378332  1
  Hf  Hf10  1  0.70465955  0.90404341  0.36997992  1
  Hf  Hf11  1  0.80292647  0.80701775  -0.01997243  1
  Hf  Hf12  1  0.80615784  0.19687804  -0.00568722  1
  Hf  Hf13  1  0.49665161  0.70408960  0.13415599  1
  Hf  Hf14  1  0.40048931  0.40440460  0.76911391  1
  Hf  Hf15  1  0.60728173  0.78931023  0.49565242  1
  Hf  Hf16  1  0.60829077  0.01492373  0.50333648  1
  Hf  Hf17  1  0.00621633  0.60229490  0.49835315  1
  Hf  Hf18  1  0.60533021  0.40308755  0.24511373  1
  Hf  Hf19  1  0.50076467  0.90837783  0.87345006  1
  Hf  Hf20  1  0.30346612  0.49694515  0.62642004  1
  Hf  Hf21  1  0.19166022  0.79559385  0.49220896  1
  Hf  Hf22  1  0.10700613  0.49268020  0.64921200  1
  Hf  Hf23  1  0.29520935  0.30240896  0.12599513  1
  Hf  Hf24  1  0.79620651  0.59346679  0.74264153  1
  Hf  Hf25  1  0.60660884  0.39801386  0.75003868  1
  Hf  Hf26  1  0.18683784  -0.00545480  0.24541878  1
  Hf  Hf27  1  0.29041100  0.30788793  0.62972938  1
  Hf  Hf28  1  -0.00079266  0.60467708  0.26097245  1
  Hf  Hf29  1  0.68641424  0.08393982  0.89082462  1
  Hf  Hf30  1  0.19208464  0.60093558  0.48847988  1
  Hf  Hf31  1  0.29481559  0.29704024  0.88357491  1
  Hf  Hf32  1  0.49251796  0.09547134  0.88641985  1
  Hf  Hf33  1  0.00118830  0.60009516  -0.01768804  1
  Hf  Hf34  1  0.39975677  0.19568949  0.75380971  1
  Hf  Hf35  1  0.70370536  0.49333536  0.88448940  1
  Hf  Hf36  1  0.49413678  0.50016419  0.61760130  1
  Hf  Hf37  1  0.79375769  0.59806812  0.26043491  1
  Hf  Hf38  1  0.00623948  0.00240851  0.73780543  1
  Hf  Hf39  1  0.59789236  0.60362365  0.73829782  1
  Zr  Zr40  1  0.39579913  -0.00759494  0.02067790  1
  Zr  Zr41  1  0.60511473  0.40392500  0.49180860  1
  Zr  Zr42  1  0.88943080  0.48901109  0.37783708  1
  Zr  Zr43  1  0.81346288  0.18291529  0.23776195  1
  Zr  Zr44  1  0.10357656  0.29723380  0.12304024  1
  Zr  Zr45  1  0.80535422  0.60415888  -0.00717396  1
  Zr  Zr46  1  0.49381586  0.30369042  0.61694106  1
  Zr  Zr47  1  0.89587557  0.49047777  0.12023922  1
  Zr  Zr48  1  0.79577038  -0.00434093  0.75392262  1
  Zr  Zr49  1  0.69137556  0.70274479  0.86867144  1
  Zr  Zr50  1  0.50329617  0.50701602  0.88922808  1
  Zr  Zr51  1  0.90947786  0.08875203  0.88300699  1
  Zr  Zr52  1  0.91005728  0.49613871  0.64070304  1
  Zr  Zr53  1  -0.00292710  0.20173392  0.52083350  1
  Zr  Zr54  1  0.69249135  0.27704479  0.62765405  1
  Zr  Zr55  1  0.70322665  0.29476208  0.36605396  1
  Zr  Zr56  1  0.39709228  0.01245984  0.50171699  1
  Zr  Zr57  1  0.00594477  0.39207902  0.50530623  1
  Zr  Zr58  1  0.39577305  0.20416490  0.49034977  1
  Zr  Zr59  1  0.70234396  0.89368530  0.62439159  1
  Zr  Zr60  1  0.70290830  0.70857799  0.13412425  1
  Zr  Zr61  1  0.90586277  0.71298161  0.12872025  1
  Zr  Zr62  1  0.29400766  0.90516363  0.37435041  1
  Zr  Zr63  1  0.40291873  0.80463262  0.75010454  1
  Zr  Zr64  1  0.29785563  0.69806120  0.62510142  1
  Zr  Zr65  1  0.20693047  0.81591060  0.74694684  1
  Zr  Zr66  1  0.39300714  0.00905759  0.24785407  1
  Zr  Zr67  1  0.08678542  0.09124026  0.38307263  1
  Zr  Zr68  1  0.19615690  0.39606600  0.48654814  1
  Zr  Zr69  1  0.30316847  0.49435508  0.35774331  1
  Zr  Zr70  1  0.20156283  0.60734537  0.76409710  1
  Zr  Zr71  1  0.91146488  0.30071061  0.11841021  1
  Zr  Zr72  1  0.49931134  0.50344087  0.36445276  1
  Zr  Zr73  1  0.19001929  0.19989133  0.75041809  1
  Zr  Zr74  1  0.29447434  0.70386041  0.12157815  1
  Zr  Zr75  1  0.79942659  0.39263047  0.51953406  1
  Zr  Zr76  1  0.19043388  0.59640891  0.25393868  1
  Zr  Zr77  1  0.70034573  0.09104298  0.11887955  1
  Zr  Zr78  1  0.40087648  0.80247451  0.49818200  1
  Zr  Zr79  1  0.20034162  -0.00317693  0.01900259  1
  Ta  Ta80  1  0.00766765  0.40209547  0.25943227  1
  Ta  Ta81  1  0.20249304  0.19670733  0.49532318  1
  Ta  Ta82  1  0.40906299  0.39198686  0.23716940  1
  Ta  Ta83  1  0.59361544  0.00344083  0.73996075  1
  Ta  Ta84  1  0.40134485  0.40011175  0.00865562  1
  Ta  Ta85  1  -0.00645490  0.80904787  -0.02404463  1
  Ta  Ta86  1  0.18588688  0.80168732  0.26107116  1
  Ta  Ta87  1  0.50253105  0.29875236  0.89131761  1
  Ta  Ta88  1  0.70793913  0.89867425  0.14048437  1
  Ta  Ta89  1  0.50832991  0.11111747  0.62566640  1
  Ta  Ta90  1  0.80948150  0.80382149  0.27029083  1
  Ta  Ta91  1  0.49842933  0.50469504  0.12615121  1
  Ta  Ta92  1  0.00179346  0.79734784  0.50090273  1
  Ta  Ta93  1  -0.00615521  0.00571430  0.23307431  1
  Ta  Ta94  1  0.59852867  0.19669514  0.76828180  1
  Ta  Ta95  1  0.10023164  0.90216575  0.61353849  1
  Ta  Ta96  1  0.50837616  0.11338881  0.36532034  1
  Ta  Ta97  1  0.08910433  0.89059754  0.11479340  1
  Ta  Ta98  1  0.30063217  0.49916487  0.12520188  1
  Ta  Ta99  1  0.00513391  0.80034411  0.74665649  1
  Ta  Ta100  1  0.90302424  0.89607175  0.62102421  1
  Ta  Ta101  1  0.80841276  0.38076738  0.75634190  1
  Ta  Ta102  1  0.30641950  0.69963546  0.35730086  1
  Ta  Ta103  1  0.59962515  0.60421754  0.01254289  1
  Ta  Ta104  1  0.80448097  0.79619357  0.49561450  1
  Ta  Ta105  1  0.10136001  0.29134041  0.35971081  1
  Ta  Ta106  1  0.50356941  0.70342580  0.35235745  1
  Ta  Ta107  1  0.49981430  0.90430961  0.62196700  1
  Ta  Ta108  1  0.30208819  0.71016130  0.89050259  1
  Ta  Ta109  1  0.39482813  0.19795001  0.00578357  1
  Ta  Ta110  1  0.90374855  0.70367959  0.63003881  1
  Ta  Ta111  1  0.30160445  0.29799300  0.35917096  1
  Ta  Ta112  1  0.60783020  0.60367066  0.49676766  1
  Ta  Ta113  1  0.50222077  0.10625546  0.12542776  1
  Ta  Ta114  1  0.20035754  0.18835249  0.25400723  1
  Ta  Ta115  1  0.80338076  0.00272029  0.50361496  1
  Ta  Ta116  1  0.29293449  0.08283819  0.87002425  1
  Ta  Ta117  1  0.20410632  0.00693427  0.50808373  1
  Ta  Ta118  1  0.79167042  0.18577736  0.50191612  1
  Ta  Ta119  1  0.40160132  0.60683992  0.76181785  1
  Ti  Ti120  1  0.10428979  0.70841058  0.87693195  1
  Ti  Ti121  1  0.00614356  0.18904203  0.00391075  1
  Ti  Ti122  1  0.90043966  0.89763440  0.12472533  1
  Ti  Ti123  1  0.59514198  0.20295458  0.00625733  1
  Ti  Ti124  1  0.29633510  0.10687735  0.13011712  1
  Ti  Ti125  1  0.60185873  0.00575482  0.24538338  1
  Ti  Ti126  1  0.50779161  0.90114751  0.13734836  1
  Ti  Ti127  1  0.38948436  0.81313512  0.00614241  1
  Ti  Ti128  1  0.29974293  0.50491695  0.88427893  1
  Ti  Ti129  1  0.80015612  0.79941952  0.74989910  1
  Ti  Ti130  1  0.88590341  0.10112208  0.62899360  1
  Ti  Ti131  1  0.10268637  0.09765280  0.87931432  1
  Ti  Ti132  1  0.91290894  0.91276874  0.39164651  1
  Ti  Ti133  1  0.49555397  0.70468562  0.88633977  1
  Ti  Ti134  1  0.90842114  0.48506468  0.86773346  1
  Ti  Ti135  1  0.59988627  0.80408750  0.74731222  1
  Ti  Ti136  1  0.00391180  0.81443316  0.27126545  1
  Ti  Ti137  1  0.59717286  0.39970661  0.01065438  1
  Ti  Ti138  1  0.81328611  -0.00411226  0.25176944  1
  Ti  Ti139  1  0.39887616  0.60229391  0.00383436  1
  Ti  Ti140  1  0.70272316  0.10125580  0.36356960  1
  Ti  Ti141  1  0.10728293  0.10151852  0.62125565  1
  Ti  Ti142  1  0.69946761  0.29920572  0.88660273  1
  Ti  Ti143  1  0.80335107  -0.01729417  -0.00664518  1
  Ti  Ti144  1  0.19825535  0.19075618  -0.00045210  1
  Ti  Ti145  1  0.09883905  0.49399481  0.86620795  1
  Ti  Ti146  1  0.20053455  0.60082195  -0.00605692  1
  Ti  Ti147  1  0.38752891  -0.00179812  0.73261910  1
  Ti  Ti148  1  0.39255058  0.80858422  0.24425391  1
  Ti  Ti149  1  0.70701960  0.49843380  0.11698910  1
  Ti  Ti150  1  0.59345813  0.20896794  0.24101744  1
  Ti  Ti151  1  0.60569087  0.60066787  0.24926275  1
  Ti  Ti152  1  0.09127077  0.30418197  0.88195300  1
  Ti  Ti153  1  0.90172235  0.09451224  0.38285181  1
  Ti  Ti154  1  0.19846447  0.40527854  -0.00989562  1
  Ti  Ti155  1  0.50125541  0.70350806  0.62427999  1
  Ti  Ti156  1  0.90572392  0.69743432  0.85358269  1
  Ti  Ti157  1  0.40509043  0.20465837  0.24575886  1
  Ti  Ti158  1  0.79440753  0.19648595  0.76379438  1
  Ti  Ti159  1  0.89971187  0.70359678  0.38351284  1
  Mo  Mo160  1  0.28938286  0.88980833  0.14064314  1
  Mo  Mo161  1  -0.00371076  -0.00680614  0.01030485  1
  Mo  Mo162  1  0.10158911  0.30328964  0.63758523  1
  Mo  Mo163  1  0.69971782  0.70204899  0.36590885  1
  Mo  Mo164  1  0.09666703  0.49462600  0.36812115  1
  Mo  Mo165  1  0.00604626  0.18884962  0.24100161  1
  Mo  Mo166  1  0.49613033  0.29995067  0.37148801  1
  Mo  Mo167  1  0.19906937  0.80289231  -0.01047403  1
  Mo  Mo168  1  0.70095748  0.70192604  0.63246412  1
  Mo  Mo169  1  0.69805211  0.50363210  0.36914352  1
  Mo  Mo170  1  0.89204148  0.29068855  0.63546368  1
  Mo  Mo171  1  0.29943584  0.90692063  0.60868615  1
  Mo  Mo172  1  0.50216356  0.29944424  0.11069512  1
  Mo  Mo173  1  0.60309053  0.80561837  0.25179240  1
  Mo  Mo174  1  0.69540683  0.90104549  0.86176089  1
  Mo  Mo175  1  0.39910455  0.39735948  0.47717336  1
  Mo  Mo176  1  0.59863442  -0.00625594  0.02158632  1
  Mo  Mo177  1  0.00359469  0.39943227  -0.01834618  1
  Mo  Mo178  1  0.09347048  0.70466588  0.36713909  1
  Mo  Mo179  1  0.20064758  0.39349494  0.25155190  1
  Mo  Mo180  1  0.20532584  0.00417103  0.73063139  1
  Mo  Mo181  1  -0.00562296  0.00130821  0.52130782  1
  Mo  Mo182  1  0.69812684  0.10073781  0.63699808  1
  Mo  Mo183  1  0.30449905  0.90710975  0.87515717  1
  Mo  Mo184  1  0.20187207  0.40035453  0.77369513  1
  Mo  Mo185  1  0.00309301  0.39352414  0.76168076  1
  Mo  Mo186  1  0.09574833  0.10151971  0.12342909  1
  Mo  Mo187  1  0.90321651  0.08500580  0.10825595  1
  Mo  Mo188  1  0.29725226  0.10735904  0.36288312  1
  Mo  Mo189  1  0.90277260  0.29790297  0.88629933  1
  Mo  Mo190  1  0.08960237  0.70047389  0.63651508  1
  Mo  Mo191  1  0.90417368  0.89441654  0.85684995  1
  Mo  Mo192  1  0.00249413  0.60524638  0.76136229  1
  Mo  Mo193  1  0.69753713  0.49464407  0.63874289  1
  Mo  Mo194  1  0.29944217  0.10399110  0.63475699  1
  Mo  Mo195  1  0.80303887  0.40217928  0.25091496  1
  Mo  Mo196  1  0.60089703  0.19454395  0.48363231  1
  Mo  Mo197  1  0.08841224  0.90409362  0.38925581  1
  Mo  Mo198  1  0.40157429  0.60153563  0.23714218  1
  Mo  Mo199  1  0.80161213  0.39558136  -0.01935466  1
