# generated using pymatgen
data_HfZrTaTiMo
_symmetry_space_group_name_H-M   'P 1'
_cell_length_a   15.93688738
_cell_length_b   15.92736856
_cell_length_c   15.19496208
_cell_angle_alpha   89.97002725
_cell_angle_beta   89.96366119
_cell_angle_gamma   89.92537866
_symmetry_Int_Tables_number   1
_chemical_formula_structural   HfZrTaTiMo
_chemical_formula_sum   'Hf40 Zr40 Ta40 Ti40 Mo40'
_cell_volume   3856.97336053
_cell_formula_units_Z   40
loop_
 _symmetry_equiv_pos_site_id
 _symmetry_equiv_pos_as_xyz
  1  'x, y, z'
loop_
 _atom_site_type_symbol
 _atom_site_label
 _atom_site_symmetry_multiplicity
 _atom_site_fract_x
 _atom_site_fract_y
 _atom_site_fract_z
 _atom_site_occupancy
  Hf  Hf0  1  0.00790873  0.40637993  0.51614267  1
  Hf  Hf1  1  0.20593367  -0.00018466  -0.01163897  1
  Hf  Hf2  1  0.60152296  0.40815395  0.23829436  1
  Hf  Hf3  1  0.29717243  0.50318962  0.86962625  1
  Hf  Hf4  1  0.40095813  0.40249101  0.24440406  1
  Hf  Hf5  1  0.70310664  0.49412476  0.63530820  1
  Hf  Hf6  1  0.19181999  0.40156892  -0.01570675  1
  Hf  Hf7  1  0.89414291  0.68702378  0.37044637  1
  Hf  Hf8  1  0.59959484  -0.00622989  0.01875448  1
  Hf  Hf9  1  0.20214622  0.79600207  -0.02019773  1
  Hf  Hf10  1  0.60807833  0.39267824  0.49120315  1
  Hf  Hf11  1  0.41486522  0.20416137  0.73887464  1
  Hf  Hf12  1  0.90616325  0.89771536  0.88094269  1
  Hf  Hf13  1  0.00443300  0.01160415  0.00283215  1
  Hf  Hf14  1  0.20372066  0.20381558  0.49962701  1
  Hf  Hf15  1  0.51002434  0.09337456  0.36752840  1
  Hf  Hf16  1  0.69479607  0.09769251  0.62814267  1
  Hf  Hf17  1  0.39170174  0.20771723  0.49750545  1
  Hf  Hf18  1  0.79508106  0.79489789  0.76094740  1
  Hf  Hf19  1  -0.00277851  0.79807518  0.24419860  1
  Hf  Hf20  1  -0.01222920  0.01299056  0.75165153  1
  Hf  Hf21  1  -0.00310944  0.00558353  0.23585393  1
  Hf  Hf22  1  0.49586400  0.50704231  0.38142442  1
  Hf  Hf23  1  0.58307353  0.39395193  0.76048962  1
  Hf  Hf24  1  0.29524473  0.90052356  0.64232728  1
  Hf  Hf25  1  0.30259481  0.69324949  0.36717216  1
  Hf  Hf26  1  0.40548877  0.79617965  0.76332519  1
  Hf  Hf27  1  0.20822708  0.39763052  0.49674296  1
  Hf  Hf28  1  0.10612135  0.89775648  0.12367605  1
  Hf  Hf29  1  0.10286779  0.69232839  0.36394339  1
  Hf  Hf30  1  0.50039945  0.49882790  0.61737054  1
  Hf  Hf31  1  0.30197260  0.48807318  0.63445876  1
  Hf  Hf32  1  0.69656576  0.49523013  0.88662729  1
  Hf  Hf33  1  0.09554713  0.10592421  0.36821126  1
  Hf  Hf34  1  0.79696953  0.79621722  -0.00267581  1
  Hf  Hf35  1  0.19773703  0.20802735  -0.01323792  1
  Hf  Hf36  1  0.29486862  0.29389166  0.12828555  1
  Hf  Hf37  1  0.79614130  0.59672098  0.23329810  1
  Hf  Hf38  1  0.31040711  0.89120066  0.11579327  1
  Hf  Hf39  1  0.09617104  0.11106361  0.85978529  1
  Zr  Zr40  1  0.19679572  0.79403169  0.50370989  1
  Zr  Zr41  1  0.40383519  0.40214096  0.00858163  1
  Zr  Zr42  1  0.69283723  0.69899431  0.62498505  1
  Zr  Zr43  1  0.20349999  0.00362493  0.49514561  1
  Zr  Zr44  1  0.00021348  0.59957133  0.52037365  1
  Zr  Zr45  1  0.50398701  0.29372653  0.36563250  1
  Zr  Zr46  1  0.21143124  0.23358150  0.75221134  1
  Zr  Zr47  1  0.10161568  0.89673235  0.65195983  1
  Zr  Zr48  1  0.79438910  0.80007418  0.23423809  1
  Zr  Zr49  1  0.40434880  0.60308208  0.75584325  1
  Zr  Zr50  1  0.10502507  0.69242378  0.12632394  1
  Zr  Zr51  1  0.69372117  0.10449156  0.88171188  1
  Zr  Zr52  1  0.89106922  0.30877462  0.62949127  1
  Zr  Zr53  1  0.69608948  0.10292550  0.36610096  1
  Zr  Zr54  1  0.81290975  0.18598441  0.75849893  1
  Zr  Zr55  1  0.89506010  0.30209419  0.37881502  1
  Zr  Zr56  1  0.31200068  0.10277369  0.87495283  1
  Zr  Zr57  1  0.79630946  -0.00471228  0.75762300  1
  Zr  Zr58  1  0.50468074  0.10635887  0.88872001  1
  Zr  Zr59  1  0.49707261  0.70449686  0.37446057  1
  Zr  Zr60  1  0.69633651  0.29840076  0.64184132  1
  Zr  Zr61  1  0.10211856  0.31015798  0.13993438  1
  Zr  Zr62  1  0.69207426  0.90470611  0.36907624  1
  Zr  Zr63  1  0.79799675  0.60489679  0.75805676  1
  Zr  Zr64  1  0.51035132  0.89386629  0.39058298  1
  Zr  Zr65  1  0.70890910  0.50636879  0.37208034  1
  Zr  Zr66  1  0.40141947  0.00901201  0.51430013  1
  Zr  Zr67  1  0.09282647  0.30782737  0.36518905  1
  Zr  Zr68  1  0.41749696  -0.01128887  0.23583546  1
  Zr  Zr69  1  0.90838733  0.49852518  0.86848289  1
  Zr  Zr70  1  0.90174151  0.90427096  0.36985303  1
  Zr  Zr71  1  0.90174660  0.30176078  0.87121473  1
  Zr  Zr72  1  -0.01333694  0.20250440  0.23120640  1
  Zr  Zr73  1  0.00285960  0.79267846  0.51131905  1
  Zr  Zr74  1  0.00597511  -0.00174154  0.50681952  1
  Zr  Zr75  1  0.79956503  -0.00112934  0.50353244  1
  Zr  Zr76  1  0.21732937  0.01402809  0.24870923  1
  Zr  Zr77  1  0.80024158  0.79038234  0.50184634  1
  Zr  Zr78  1  0.69129156  0.29496581  0.88626540  1
  Zr  Zr79  1  0.31140572  0.89158260  0.37029643  1
  Ta  Ta80  1  0.39269330  0.38492746  0.76626273  1
  Ta  Ta81  1  0.09383595  0.69123607  0.85827670  1
  Ta  Ta82  1  0.59223529  0.60447858  0.76286063  1
  Ta  Ta83  1  0.50330944  0.70144279  0.61925910  1
  Ta  Ta84  1  0.90284928  0.89744051  0.11170408  1
  Ta  Ta85  1  0.59347758  0.79718563  -0.00115477  1
  Ta  Ta86  1  0.79933167  0.00223089  0.00593471  1
  Ta  Ta87  1  0.19459812  0.59968779  -0.01340186  1
  Ta  Ta88  1  0.50643701  0.89393485  0.62403372  1
  Ta  Ta89  1  0.29955433  0.50524987  0.37364925  1
  Ta  Ta90  1  0.29895846  0.69707297  0.11958628  1
  Ta  Ta91  1  0.38855675  0.18661222  0.24780749  1
  Ta  Ta92  1  0.68869514  0.70332082  0.36676130  1
  Ta  Ta93  1  0.00253514  0.40131519  0.00831002  1
  Ta  Ta94  1  0.90904379  0.49546618  0.36596628  1
  Ta  Ta95  1  0.39526214  0.79406884  0.51919238  1
  Ta  Ta96  1  0.59407844  0.60608481  0.23371804  1
  Ta  Ta97  1  0.19490349  0.59576231  0.51143814  1
  Ta  Ta98  1  0.38907890  0.60198255  0.51026526  1
  Ta  Ta99  1  0.69575584  0.50006206  0.10922931  1
  Ta  Ta100  1  0.10788562  0.10545541  0.63824493  1
  Ta  Ta101  1  0.59033056  -0.00260336  0.74782466  1
  Ta  Ta102  1  0.69245960  0.69567888  0.11271390  1
  Ta  Ta103  1  0.89630330  0.89051664  0.63622984  1
  Ta  Ta104  1  0.00541513  0.20261874  0.51313613  1
  Ta  Ta105  1  0.69657102  0.29898778  0.11929991  1
  Ta  Ta106  1  0.28851631  0.50706408  0.12417089  1
  Ta  Ta107  1  0.40172539  0.59823161  0.23285544  1
  Ta  Ta108  1  0.00026283  0.20588665  0.00608414  1
  Ta  Ta109  1  0.59319406  0.19469712  0.51148337  1
  Ta  Ta110  1  0.89543902  0.10700799  0.37896019  1
  Ta  Ta111  1  0.40482354  -0.00153068  0.74843261  1
  Ta  Ta112  1  0.79923019  0.20023687  0.23531154  1
  Ta  Ta113  1  0.68973327  0.89958191  0.88066254  1
  Ta  Ta114  1  0.09956246  0.50543947  0.36359344  1
  Ta  Ta115  1  0.59016966  0.81022078  0.22219449  1
  Ta  Ta116  1  0.80630525  0.39636817  0.23299262  1
  Ta  Ta117  1  0.68858940  0.89438011  0.62769231  1
  Ta  Ta118  1  0.80439746  0.39871576  0.00798925  1
  Ta  Ta119  1  0.80124253  0.00461954  0.22773644  1
  Ti  Ti120  1  0.50499538  0.29101862  0.12581106  1
  Ti  Ti121  1  0.00756038  0.59418449  0.00015284  1
  Ti  Ti122  1  0.00667070  0.21386038  0.73498352  1
  Ti  Ti123  1  0.80662537  0.19589976  0.01267898  1
  Ti  Ti124  1  0.49088325  0.31047925  0.61216334  1
  Ti  Ti125  1  0.29127340  0.69382248  0.63552271  1
  Ti  Ti126  1  0.10378230  0.89892825  0.36449888  1
  Ti  Ti127  1  0.79225453  0.20632347  0.49656344  1
  Ti  Ti128  1  0.69217549  0.10525858  0.13053839  1
  Ti  Ti129  1  0.29501073  0.10179746  0.64176945  1
  Ti  Ti130  1  0.50041341  0.49963316  0.88748823  1
  Ti  Ti131  1  0.90394339  0.49817300  0.12089589  1
  Ti  Ti132  1  0.58524316  0.59796565  0.00804101  1
  Ti  Ti133  1  0.10358164  0.50187309  0.13528766  1
  Ti  Ti134  1  0.49547818  0.10312996  0.12130025  1
  Ti  Ti135  1  0.49989836  0.28889022  0.89889034  1
  Ti  Ti136  1  0.20722554  0.79831028  0.24738336  1
  Ti  Ti137  1  0.00794812  0.79350082  -0.00462284  1
  Ti  Ti138  1  0.09974250  0.90003437  0.86094735  1
  Ti  Ti139  1  0.68855971  0.69324042  0.88936681  1
  Ti  Ti140  1  -0.00287483  0.59445746  0.24034915  1
  Ti  Ti141  1  0.49449032  0.90822817  0.88510793  1
  Ti  Ti142  1  0.59264109  0.79647092  0.76970221  1
  Ti  Ti143  1  0.09383090  0.49868274  0.85391011  1
  Ti  Ti144  1  0.20496983  0.40601204  0.25971701  1
  Ti  Ti145  1  0.80221489  0.40716267  0.49543259  1
  Ti  Ti146  1  0.80625260  0.59871994  -0.00006961  1
  Ti  Ti147  1  0.91290249  0.69565609  0.87289562  1
  Ti  Ti148  1  0.11016109  0.49882518  0.64997582  1
  Ti  Ti149  1  0.69934106  0.29256810  0.35638620  1
  Ti  Ti150  1  0.90017333  0.10403986  0.61099764  1
  Ti  Ti151  1  0.60493462  0.60446636  0.49777751  1
  Ti  Ti152  1  0.80721692  0.59521879  0.50980530  1
  Ti  Ti153  1  0.89817615  0.49762599  0.64829741  1
  Ti  Ti154  1  0.39483671  0.60354815  0.00067560  1
  Ti  Ti155  1  0.90439829  0.69621734  0.11292830  1
  Ti  Ti156  1  0.48778009  0.70720544  0.11656907  1
  Ti  Ti157  1  0.39782634  0.79630249  -0.02141557  1
  Ti  Ti158  1  0.20763696  0.79125384  0.76819818  1
  Ti  Ti159  1  0.11911772  0.11313877  0.12932168  1
  Mo  Mo160  1  0.10449565  0.30631631  0.62166697  1
  Mo  Mo161  1  0.70158566  0.89791500  0.11641997  1
  Mo  Mo162  1  0.30511926  0.90194245  0.86618158  1
  Mo  Mo163  1  0.59726556  0.39888893  0.00902438  1
  Mo  Mo164  1  0.20068763  0.40158757  0.76232301  1
  Mo  Mo165  1  0.31673629  0.30140610  0.89438270  1
  Mo  Mo166  1  0.59935572  0.19895965  0.02265066  1
  Mo  Mo167  1  0.50063318  0.09941577  0.62594857  1
  Mo  Mo168  1  0.00038692  0.60243243  0.73721426  1
  Mo  Mo169  1  0.20844959  0.20198790  0.26428659  1
  Mo  Mo170  1  0.49629392  0.50818809  0.11932944  1
  Mo  Mo171  1  0.89392566  0.10083365  0.11437505  1
  Mo  Mo172  1  0.90212573  0.10308240  0.89708572  1
  Mo  Mo173  1  0.40165442  -0.00336801  0.00376169  1
  Mo  Mo174  1  0.90153417  0.69824670  0.63641666  1
  Mo  Mo175  1  0.50241036  0.69457666  0.89232428  1
  Mo  Mo176  1  0.39989113  0.19711399  0.02080689  1
  Mo  Mo177  1  0.79620473  0.40246751  0.76798749  1
  Mo  Mo178  1  0.30300118  0.10004782  0.11011459  1
  Mo  Mo179  1  0.00815202  0.39746694  0.73706234  1
  Mo  Mo180  1  0.59952313  0.79592394  0.50248244  1
  Mo  Mo181  1  0.49491459  0.89076682  0.10348151  1
  Mo  Mo182  1  0.58951864  0.20052614  0.73462289  1
  Mo  Mo183  1  0.60511291  -0.00312296  0.22648389  1
  Mo  Mo184  1  0.30606630  0.10186890  0.37534294  1
  Mo  Mo185  1  0.08661163  0.31202507  0.87232399  1
  Mo  Mo186  1  0.20425431  0.59421458  0.24685413  1
  Mo  Mo187  1  0.20025613  0.60258210  0.75205514  1
  Mo  Mo188  1  0.29989662  0.30278131  0.35557930  1
  Mo  Mo189  1  0.20123162  0.00375388  0.76227920  1
  Mo  Mo190  1  0.29929710  0.69655586  0.88423472  1
  Mo  Mo191  1  0.39938689  0.40545762  0.48236099  1
  Mo  Mo192  1  0.59919381  -0.00022652  0.51903401  1
  Mo  Mo193  1  0.59708252  0.19882680  0.23393057  1
  Mo  Mo194  1  0.30859246  0.30844863  0.62090015  1
  Mo  Mo195  1  -0.00413706  0.79779756  0.75345559  1
  Mo  Mo196  1  0.40373717  0.78868777  0.23822066  1
  Mo  Mo197  1  0.89513732  0.30338801  0.11201761  1
  Mo  Mo198  1  0.10796948  0.69435216  0.64721088  1
  Mo  Mo199  1  -0.00513546  0.41301367  0.23665688  1
