# generated using pymatgen
data_HfZrTaTiMo
_symmetry_space_group_name_H-M   'P 1'
_cell_length_a   15.93027288
_cell_length_b   15.92922803
_cell_length_c   15.21024167
_cell_angle_alpha   89.99998180
_cell_angle_beta   90.02427864
_cell_angle_gamma   90.09763811
_symmetry_Int_Tables_number   1
_chemical_formula_structural   HfZrTaTiMo
_chemical_formula_sum   'Hf40 Zr40 Ta40 Ti40 Mo40'
_cell_volume   3859.69857414
_cell_formula_units_Z   40
loop_
 _symmetry_equiv_pos_site_id
 _symmetry_equiv_pos_as_xyz
  1  'x, y, z'
loop_
 _atom_site_type_symbol
 _atom_site_label
 _atom_site_symmetry_multiplicity
 _atom_site_fract_x
 _atom_site_fract_y
 _atom_site_fract_z
 _atom_site_occupancy
  Hf  Hf0  1  0.29719781  0.89829310  0.37501722  1
  Hf  Hf1  1  0.29204466  0.07300451  0.12617337  1
  Hf  Hf2  1  0.40778368  0.18354049  0.72743220  1
  Hf  Hf3  1  -0.01219951  -0.01772304  0.50803402  1
  Hf  Hf4  1  0.39582160  0.79319970  0.51145304  1
  Hf  Hf5  1  0.09762592  0.30636645  0.61646296  1
  Hf  Hf6  1  0.40098924  0.59972641  0.49062898  1
  Hf  Hf7  1  0.09672906  0.31043244  0.89393152  1
  Hf  Hf8  1  0.08601989  0.89649635  0.65638067  1
  Hf  Hf9  1  0.19122350  0.18796180  0.01111087  1
  Hf  Hf10  1  0.10025475  0.69710528  0.88092243  1
  Hf  Hf11  1  0.60875104  0.81566645  0.75512082  1
  Hf  Hf12  1  0.10563864  0.70184059  0.10156708  1
  Hf  Hf13  1  0.80624686  0.81041033  -0.02072983  1
  Hf  Hf14  1  0.61151307  0.59300536  0.75553632  1
  Hf  Hf15  1  0.78850652  0.60900710  0.25954860  1
  Hf  Hf16  1  0.39895128  0.40016195  0.48410253  1
  Hf  Hf17  1  0.50420589  0.30188950  0.61001500  1
  Hf  Hf18  1  0.09175591  0.08970520  0.36329015  1
  Hf  Hf19  1  0.70671397  0.30308906  0.13881537  1
  Hf  Hf20  1  0.89441014  0.30070795  0.88973985  1
  Hf  Hf21  1  0.30266868  0.29253007  0.89424362  1
  Hf  Hf22  1  0.90573640  0.51563046  0.61993282  1
  Hf  Hf23  1  0.50055681  0.50262838  0.62745201  1
  Hf  Hf24  1  0.59939931  0.40005324  0.00490103  1
  Hf  Hf25  1  0.30013859  0.69615711  0.65812150  1
  Hf  Hf26  1  0.09291496  0.09366585  0.64616383  1
  Hf  Hf27  1  0.59338453  0.00949405  0.74220241  1
  Hf  Hf28  1  0.08352647  0.69914415  0.65393135  1
  Hf  Hf29  1  0.20547923  0.60592100  0.50337827  1
  Hf  Hf30  1  0.88858385  0.49659391  0.11835413  1
  Hf  Hf31  1  0.69588811  0.10799651  0.87798636  1
  Hf  Hf32  1  0.09940918  0.50588951  0.61865629  1
  Hf  Hf33  1  0.49870784  0.69670545  0.64687282  1
  Hf  Hf34  1  -0.00461926  0.39923513  0.24863116  1
  Hf  Hf35  1  0.00016153  0.80502999  0.22419395  1
  Hf  Hf36  1  0.83550498  0.80751977  0.51304555  1
  Hf  Hf37  1  0.20988469  0.59855891  0.21921287  1
  Hf  Hf38  1  0.79994269  0.60996725  0.49114512  1
  Hf  Hf39  1  -0.01218682  0.18726879  0.50293551  1
  Zr  Zr40  1  0.21925906  0.80619393  0.22100440  1
  Zr  Zr41  1  0.70016208  0.70100143  0.87683586  1
  Zr  Zr42  1  0.30183360  0.69934874  0.36625559  1
  Zr  Zr43  1  0.39558009  0.00400023  0.51474517  1
  Zr  Zr44  1  -0.00737321  0.39798851  0.48457175  1
  Zr  Zr45  1  -0.00040893  0.81189187  -0.00642431  1
  Zr  Zr46  1  0.20723563  0.40806882  0.24571754  1
  Zr  Zr47  1  -0.00527088  0.00980710  -0.00631867  1
  Zr  Zr48  1  0.20773741  0.21186235  0.74088277  1
  Zr  Zr49  1  0.50589286  0.49896224  0.13756903  1
  Zr  Zr50  1  -0.00968031  0.63834671  0.48723985  1
  Zr  Zr51  1  0.69213763  0.90393851  0.10475365  1
  Zr  Zr52  1  0.59975985  0.80658500  0.24690320  1
  Zr  Zr53  1  0.18817697  0.80181093  0.51611026  1
  Zr  Zr54  1  0.70493412  0.29799902  0.88260728  1
  Zr  Zr55  1  -0.00219658  0.60153713  0.23620992  1
  Zr  Zr56  1  0.20656203  0.19442511  0.50708186  1
  Zr  Zr57  1  0.69267014  0.73169981  0.39600642  1
  Zr  Zr58  1  0.29628489  0.09084520  0.87177377  1
  Zr  Zr59  1  0.30158311  0.49712363  0.63928678  1
  Zr  Zr60  1  0.79880593  0.40071196  0.73321574  1
  Zr  Zr61  1  0.61334681  0.00430857  0.50545905  1
  Zr  Zr62  1  0.10273751  0.71526022  0.35769863  1
  Zr  Zr63  1  0.40637228  0.18750853  0.24604308  1
  Zr  Zr64  1  0.41018188  -0.02291596  0.25070899  1
  Zr  Zr65  1  0.79240197  -0.00783365  0.75474239  1
  Zr  Zr66  1  0.49466000  0.49415704  0.86771030  1
  Zr  Zr67  1  0.60867060  0.38856878  0.74452305  1
  Zr  Zr68  1  0.59448316  0.20224846  0.01422909  1
  Zr  Zr69  1  0.30457270  0.29907819  0.12933114  1
  Zr  Zr70  1  0.19558651  -0.00288143  0.51211819  1
  Zr  Zr71  1  0.38896090  0.38089399  0.75094807  1
  Zr  Zr72  1  0.90009746  0.89985273  0.35648950  1
  Zr  Zr73  1  0.09818675  0.29140256  0.36981341  1
  Zr  Zr74  1  0.00352740  0.40604152  0.75078704  1
  Zr  Zr75  1  0.50493363  0.70453105  0.11086655  1
  Zr  Zr76  1  0.50518568  0.10112837  0.38074022  1
  Zr  Zr77  1  0.79603119  0.39501436  0.48664415  1
  Zr  Zr78  1  0.10399053  0.51022299  0.37625951  1
  Zr  Zr79  1  0.90427734  0.49404681  0.88821367  1
  Ta  Ta80  1  0.60554120  -0.00649662  0.26435239  1
  Ta  Ta81  1  0.61009535  0.40604382  0.26862560  1
  Ta  Ta82  1  -0.00773301  0.19736951  0.01204264  1
  Ta  Ta83  1  0.09342209  0.10849927  0.86469920  1
  Ta  Ta84  1  0.80687180  0.60342003  0.75062958  1
  Ta  Ta85  1  0.79596204  0.40545829  0.26584209  1
  Ta  Ta86  1  0.51041239  0.08230708  0.11954332  1
  Ta  Ta87  1  0.09428052  0.29870801  0.12498151  1
  Ta  Ta88  1  0.29031809  0.48979997  0.89246263  1
  Ta  Ta89  1  0.89238998  0.91078747  0.12520947  1
  Ta  Ta90  1  0.49857891  0.89579194  0.62643861  1
  Ta  Ta91  1  0.11587140  0.92057324  0.11741664  1
  Ta  Ta92  1  0.21050549  0.40200505  0.48838401  1
  Ta  Ta93  1  0.71042900  0.49494959  0.88826107  1
  Ta  Ta94  1  0.51347814  0.88126293  0.39712678  1
  Ta  Ta95  1  0.39848100  0.59446700  0.00048451  1
  Ta  Ta96  1  0.70522040  0.70296013  0.62468767  1
  Ta  Ta97  1  0.49795817  0.09905495  0.88413704  1
  Ta  Ta98  1  0.40746884  0.39214854  0.00635972  1
  Ta  Ta99  1  0.39844391  -0.01098418  -0.00841843  1
  Ta  Ta100  1  0.21507385  0.81337318  -0.00793092  1
  Ta  Ta101  1  0.49890299  0.50810323  0.36263686  1
  Ta  Ta102  1  0.30422832  0.29382664  0.36631285  1
  Ta  Ta103  1  0.49640541  0.70230348  0.87118199  1
  Ta  Ta104  1  0.30405540  0.69397538  0.87770163  1
  Ta  Ta105  1  0.50437073  0.30172830  0.14842445  1
  Ta  Ta106  1  0.69877516  0.70046975  0.10850048  1
  Ta  Ta107  1  0.09957936  0.90421218  0.35664035  1
  Ta  Ta108  1  0.19179410  0.58573313  0.77356162  1
  Ta  Ta109  1  0.69676067  0.50692617  0.60637347  1
  Ta  Ta110  1  0.39623218  0.19736099  0.50368988  1
  Ta  Ta111  1  0.70102781  0.09412338  0.12875242  1
  Ta  Ta112  1  0.60030102  0.59858286  -0.00793364  1
  Ta  Ta113  1  -0.01229085  0.20654453  0.74821625  1
  Ta  Ta114  1  0.19677718  0.19456189  0.24350056  1
  Ta  Ta115  1  0.39523906  0.59889250  0.23926376  1
  Ta  Ta116  1  0.29440257  0.09649720  0.36374223  1
  Ta  Ta117  1  0.88740056  0.70437875  0.11802806  1
  Ta  Ta118  1  0.60160587  0.40573513  0.48218692  1
  Ta  Ta119  1  0.89110447  0.09850876  0.13850897  1
  Ti  Ti120  1  0.40388332  -0.00774161  0.75267130  1
  Ti  Ti121  1  0.89906512  0.51023989  0.37010954  1
  Ti  Ti122  1  0.60053079  0.61274244  0.26119266  1
  Ti  Ti123  1  0.50316519  0.29786488  0.36663939  1
  Ti  Ti124  1  0.89593678  0.10979572  0.86773662  1
  Ti  Ti125  1  0.60696731  0.19017123  0.24875791  1
  Ti  Ti126  1  0.60790040  0.20048461  0.50603881  1
  Ti  Ti127  1  0.71289822  0.09995750  0.37180608  1
  Ti  Ti128  1  0.79212131  0.80272559  0.24441266  1
  Ti  Ti129  1  0.79986727  0.00633609  -0.01026295  1
  Ti  Ti130  1  0.29676002  0.90121046  0.65045141  1
  Ti  Ti131  1  0.89487734  0.29945605  0.12886957  1
  Ti  Ti132  1  0.50329548  0.89882989  0.10402039  1
  Ti  Ti133  1  0.89262491  0.08774074  0.63532556  1
  Ti  Ti134  1  0.80230251  0.19488444  0.01478502  1
  Ti  Ti135  1  0.20457173  0.80387324  0.77174397  1
  Ti  Ti136  1  0.19629000  0.39941568  0.75548673  1
  Ti  Ti137  1  0.79526042  0.18755279  0.50907077  1
  Ti  Ti138  1  0.69988740  0.50655455  0.12409330  1
  Ti  Ti139  1  -0.00541663  0.60146069  -0.00318293  1
  Ti  Ti140  1  0.10595833  0.91621923  0.87014012  1
  Ti  Ti141  1  -0.01869527  0.80323337  0.77949512  1
  Ti  Ti142  1  0.09301858  0.09546247  0.13683512  1
  Ti  Ti143  1  0.10259679  0.49276825  0.09609233  1
  Ti  Ti144  1  0.40245460  0.80213295  -0.01449401  1
  Ti  Ti145  1  0.89621208  0.29756863  0.61831373  1
  Ti  Ti146  1  0.80413616  0.80150444  0.75352518  1
  Ti  Ti147  1  0.59375351  0.60956342  0.49248679  1
  Ti  Ti148  1  0.40854603  0.79110080  0.24274060  1
  Ti  Ti149  1  0.88746048  0.28025855  0.36488916  1
  Ti  Ti150  1  0.69989787  0.28779471  0.37250913  1
  Ti  Ti151  1  0.79176407  0.20495961  0.73236011  1
  Ti  Ti152  1  -0.00730354  0.19737795  0.24277286  1
  Ti  Ti153  1  0.50059231  0.28577143  0.87257791  1
  Ti  Ti154  1  0.89403858  0.09362383  0.36244137  1
  Ti  Ti155  1  0.79958397  0.60355306  -0.00383217  1
  Ti  Ti156  1  0.78832164  -0.00490662  0.25182316  1
  Ti  Ti157  1  0.40603765  0.19269247  0.01573089  1
  Ti  Ti158  1  0.71126059  0.89900610  0.61064465  1
  Ti  Ti159  1  0.60478363  0.19679146  0.72954093  1
  Mo  Mo160  1  0.59658091  0.80257219  -0.01826438  1
  Mo  Mo161  1  0.00946662  0.80773043  0.49990470  1
  Mo  Mo162  1  0.49854997  0.70157020  0.36870620  1
  Mo  Mo163  1  0.79895193  0.19649148  0.24999945  1
  Mo  Mo164  1  0.69312362  0.51010390  0.38406085  1
  Mo  Mo165  1  0.79475823  0.39908099  0.01756654  1
  Mo  Mo166  1  0.30404585  0.49820252  0.36453808  1
  Mo  Mo167  1  0.30509392  0.89480056  0.86435428  1
  Mo  Mo168  1  0.59717711  0.79963880  0.52613566  1
  Mo  Mo169  1  0.89774964  0.91098210  0.86935345  1
  Mo  Mo170  1  0.70590870  0.10673710  0.62813695  1
  Mo  Mo171  1  0.70580489  0.91042054  0.39041945  1
  Mo  Mo172  1  0.29937920  0.29984970  0.60539952  1
  Mo  Mo173  1  0.20091545  -0.00177682  0.25270577  1
  Mo  Mo174  1  0.31441655  0.89418857  0.11041350  1
  Mo  Mo175  1  0.19707925  -0.00289770  -0.01797980  1
  Mo  Mo176  1  0.20057159  -0.00053120  0.75712173  1
  Mo  Mo177  1  -0.00255233  0.39292557  0.01948031  1
  Mo  Mo178  1  0.30818516  0.49691169  0.10826655  1
  Mo  Mo179  1  0.40309410  0.80401369  0.75984413  1
  Mo  Mo180  1  -0.00300195  0.60071902  0.76951046  1
  Mo  Mo181  1  0.89984829  0.70671367  0.65069830  1
  Mo  Mo182  1  0.20442553  0.39582384  0.01484147  1
  Mo  Mo183  1  -0.00787716  0.00787616  0.76847472  1
  Mo  Mo184  1  0.40645851  0.40020092  0.26233296  1
  Mo  Mo185  1  0.50299014  0.09911738  0.61251611  1
  Mo  Mo186  1  0.10314369  0.49784073  0.89561780  1
  Mo  Mo187  1  0.29909930  0.08977496  0.63896739  1
  Mo  Mo188  1  0.89940174  0.69513272  0.87249940  1
  Mo  Mo189  1  0.90253093  0.89876741  0.64880633  1
  Mo  Mo190  1  0.69511732  0.90869145  0.88415532  1
  Mo  Mo191  1  0.20399624  0.59837347  -0.00446443  1
  Mo  Mo192  1  -0.00323687  0.00129566  0.23421828  1
  Mo  Mo193  1  0.70044129  0.30064189  0.60221293  1
  Mo  Mo194  1  0.39435225  0.59498594  0.77586797  1
  Mo  Mo195  1  0.80691807  0.00770953  0.50188947  1
  Mo  Mo196  1  0.59602845  0.00118572  -0.01521415  1
  Mo  Mo197  1  0.31059493  0.69940241  0.09949046  1
  Mo  Mo198  1  0.49948157  0.90272198  0.87502768  1
  Mo  Mo199  1  0.89688338  0.70935853  0.34613790  1
