# generated using pymatgen
data_HfZrTaTiMo
_symmetry_space_group_name_H-M   'P 1'
_cell_length_a   15.92898977
_cell_length_b   15.93150070
_cell_length_c   15.21073067
_cell_angle_alpha   89.99669491
_cell_angle_beta   90.02702110
_cell_angle_gamma   90.08724548
_symmetry_Int_Tables_number   1
_chemical_formula_structural   HfZrTaTiMo
_chemical_formula_sum   'Hf40 Zr40 Ta40 Ti40 Mo40'
_cell_volume   3860.06345623
_cell_formula_units_Z   40
loop_
 _symmetry_equiv_pos_site_id
 _symmetry_equiv_pos_as_xyz
  1  'x, y, z'
loop_
 _atom_site_type_symbol
 _atom_site_label
 _atom_site_symmetry_multiplicity
 _atom_site_fract_x
 _atom_site_fract_y
 _atom_site_fract_z
 _atom_site_occupancy
  Hf  Hf0  1  0.00692247  0.00147266  0.50138868  1
  Hf  Hf1  1  0.18809677  0.60891917  0.24120725  1
  Hf  Hf2  1  0.29317616  0.71488020  0.87213439  1
  Hf  Hf3  1  0.38962635  0.61259273  0.51494957  1
  Hf  Hf4  1  0.80236934  0.59192059  0.25249339  1
  Hf  Hf5  1  -0.00122660  0.39866832  0.75140552  1
  Hf  Hf6  1  0.68550601  0.09845398  0.13628392  1
  Hf  Hf7  1  0.69971997  0.49005371  0.38819198  1
  Hf  Hf8  1  0.48960217  0.49123524  0.38568431  1
  Hf  Hf9  1  0.41132349  0.39778638  -0.01493036  1
  Hf  Hf10  1  0.29617104  0.50560483  0.38143943  1
  Hf  Hf11  1  0.79456784  0.19645953  0.01201888  1
  Hf  Hf12  1  0.30414639  0.91822785  0.87057252  1
  Hf  Hf13  1  0.09306192  0.50633208  0.10375850  1
  Hf  Hf14  1  0.19107540  0.19690157  0.23822030  1
  Hf  Hf15  1  0.61300933  0.60477822  0.75367158  1
  Hf  Hf16  1  0.51016908  0.29342802  0.14671255  1
  Hf  Hf17  1  0.90571294  0.90340582  0.12253139  1
  Hf  Hf18  1  0.60154869  0.58900495  0.25484169  1
  Hf  Hf19  1  0.29739729  0.30390919  0.37047603  1
  Hf  Hf20  1  0.79847785  0.79396279  -0.01050203  1
  Hf  Hf21  1  0.39741635  0.20679299  0.49820288  1
  Hf  Hf22  1  0.60346200  0.79753914  0.00002210  1
  Hf  Hf23  1  0.30301168  0.30370339  0.12765152  1
  Hf  Hf24  1  -0.00224306  0.59682397  0.25993830  1
  Hf  Hf25  1  0.11820603  0.90424322  0.36357093  1
  Hf  Hf26  1  0.29325807  0.91353355  0.12903852  1
  Hf  Hf27  1  0.29620594  0.50655360  0.87640061  1
  Hf  Hf28  1  0.90165690  0.69388670  0.12101712  1
  Hf  Hf29  1  0.09575556  0.50295333  0.62623661  1
  Hf  Hf30  1  0.69532823  0.29154072  0.36950332  1
  Hf  Hf31  1  0.52157968  0.71343443  0.62547903  1
  Hf  Hf32  1  0.40069743  0.80589362  0.00546814  1
  Hf  Hf33  1  0.00123835  0.19460767  0.51685609  1
  Hf  Hf34  1  0.69156677  0.49005943  0.87827399  1
  Hf  Hf35  1  0.09930921  0.29885781  0.38165455  1
  Hf  Hf36  1  0.39583560  0.80989499  0.25438266  1
  Hf  Hf37  1  0.59080339  0.20063232  -0.00268151  1
  Hf  Hf38  1  0.70405530  0.09805210  0.37736532  1
  Hf  Hf39  1  0.08890283  0.70770335  0.63679933  1
  Zr  Zr40  1  0.50385249  0.90349036  0.86498507  1
  Zr  Zr41  1  0.30160736  0.50872609  0.12027961  1
  Zr  Zr42  1  0.89886589  0.29388436  0.38096609  1
  Zr  Zr43  1  0.88252812  0.50489255  0.87264304  1
  Zr  Zr44  1  0.10349732  0.90653925  0.64090847  1
  Zr  Zr45  1  0.40120798  0.80031626  0.73876683  1
  Zr  Zr46  1  0.00189175  0.40208704  0.24291976  1
  Zr  Zr47  1  -0.00044430  0.19357857  0.22938516  1
  Zr  Zr48  1  0.49259516  0.69425230  0.36837183  1
  Zr  Zr49  1  0.60503474  0.20359089  0.73260487  1
  Zr  Zr50  1  0.39810836  0.19886822  -0.00831913  1
  Zr  Zr51  1  0.40214376  0.59955091  0.75015206  1
  Zr  Zr52  1  0.70543070  0.29853104  0.86465921  1
  Zr  Zr53  1  0.10782198  0.90508119  0.11374298  1
  Zr  Zr54  1  -0.00087217  0.79873853  -0.01261582  1
  Zr  Zr55  1  0.11420297  0.90178482  0.88061816  1
  Zr  Zr56  1  0.01397860  0.79151157  0.24767632  1
  Zr  Zr57  1  0.49992824  0.49445002  0.62564807  1
  Zr  Zr58  1  0.89985659  0.10042333  0.87201768  1
  Zr  Zr59  1  0.79809248  0.63110148  0.48856432  1
  Zr  Zr60  1  0.00162927  0.39966336  -0.01797145  1
  Zr  Zr61  1  0.70397750  0.09103287  0.86085494  1
  Zr  Zr62  1  0.49842113  0.49275230  0.12990887  1
  Zr  Zr63  1  0.89762425  0.89520904  0.64473922  1
  Zr  Zr64  1  0.80496098  -0.00744845  0.50403809  1
  Zr  Zr65  1  0.39781865  0.80802394  0.49871739  1
  Zr  Zr66  1  0.59768957  -0.00658844  0.26149714  1
  Zr  Zr67  1  0.10420144  0.49807264  0.39379466  1
  Zr  Zr68  1  -0.01508183  0.79812335  0.49086858  1
  Zr  Zr69  1  0.80640212  0.19486098  0.23755828  1
  Zr  Zr70  1  0.20738912  0.80388528  0.51058135  1
  Zr  Zr71  1  0.59436663  0.38043760  0.50890974  1
  Zr  Zr72  1  0.60191943  -0.00094406  0.00135151  1
  Zr  Zr73  1  0.70122503  0.87393714  0.63320241  1
  Zr  Zr74  1  0.49405518  0.09908317  0.62331642  1
  Zr  Zr75  1  0.49322097  0.69520723  0.13135156  1
  Zr  Zr76  1  0.19554744  0.39380462  0.75330939  1
  Zr  Zr77  1  0.69861397  0.47435215  0.11169510  1
  Zr  Zr78  1  0.90095265  0.48807597  0.39780785  1
  Zr  Zr79  1  0.89314057  0.31513292  0.11049163  1
  Ta  Ta80  1  0.20008464  0.60476530  0.74173312  1
  Ta  Ta81  1  0.50193917  0.90661631  0.13170134  1
  Ta  Ta82  1  0.59645913  0.59488871  -0.00498099  1
  Ta  Ta83  1  -0.00458328  0.60838675  0.50380302  1
  Ta  Ta84  1  0.60424117  0.60722517  0.49698693  1
  Ta  Ta85  1  0.70037617  0.69269345  0.12536586  1
  Ta  Ta86  1  0.00304266  0.19380869  -0.00008650  1
  Ta  Ta87  1  0.88495151  0.70479253  0.64438372  1
  Ta  Ta88  1  0.60023711  -0.00556522  0.49704743  1
  Ta  Ta89  1  0.11944474  0.10614065  0.88056126  1
  Ta  Ta90  1  0.80357728  0.79401157  0.25584285  1
  Ta  Ta91  1  0.49843024  0.10789085  0.37483585  1
  Ta  Ta92  1  0.19893241  0.19676407  0.51440400  1
  Ta  Ta93  1  0.30006256  0.49368701  0.62560897  1
  Ta  Ta94  1  0.39753173  0.00747935  0.25746383  1
  Ta  Ta95  1  0.90351915  0.09590077  0.64570324  1
  Ta  Ta96  1  0.39321432  0.00170255  0.49035339  1
  Ta  Ta97  1  0.50519653  0.90329140  0.61785134  1
  Ta  Ta98  1  0.61870076  0.79521847  0.47833767  1
  Ta  Ta99  1  0.00593160  0.00403314  0.76670819  1
  Ta  Ta100  1  0.90499089  0.90425785  0.36109955  1
  Ta  Ta101  1  0.40728878  0.01302597  0.01061890  1
  Ta  Ta102  1  0.79375099  0.40020651  0.73308941  1
  Ta  Ta103  1  0.79932584  0.19606036  0.51956695  1
  Ta  Ta104  1  0.29205582  0.10211430  0.37008204  1
  Ta  Ta105  1  0.10264745  0.51182480  0.87353671  1
  Ta  Ta106  1  0.70267832  0.50451136  0.61636670  1
  Ta  Ta107  1  0.30258074  0.29726693  0.63488287  1
  Ta  Ta108  1  0.49439846  0.09658418  0.85657785  1
  Ta  Ta109  1  0.30163398  0.91553231  0.63923033  1
  Ta  Ta110  1  0.70464310  0.89146792  0.13608748  1
  Ta  Ta111  1  0.20206583  0.39044361  0.51647832  1
  Ta  Ta112  1  0.89489760  0.50788592  0.62263556  1
  Ta  Ta113  1  0.29697643  0.10073298  0.63888479  1
  Ta  Ta114  1  0.10469690  0.70071663  0.86793464  1
  Ta  Ta115  1  0.80985706  0.00029960  0.24260405  1
  Ta  Ta116  1  0.89447184  0.29468138  0.86712107  1
  Ta  Ta117  1  0.00452228  0.01072833  0.24802933  1
  Ta  Ta118  1  0.50548294  0.69867085  0.87548216  1
  Ta  Ta119  1  0.28931556  0.70521072  0.36272855  1
  Ti  Ti120  1  0.28596599  0.28503632  0.87427224  1
  Ti  Ti121  1  0.30087123  0.10357523  0.13127472  1
  Ti  Ti122  1  0.10398977  0.29054760  0.88392364  1
  Ti  Ti123  1  0.70382667  0.89597507  0.86122646  1
  Ti  Ti124  1  0.19803859  0.61485855  -0.00101925  1
  Ti  Ti125  1  0.89157244  0.90795824  0.86992196  1
  Ti  Ti126  1  0.20333186  0.39899297  -0.00818118  1
  Ti  Ti127  1  0.79949033  0.38621432  0.51791192  1
  Ti  Ti128  1  -0.00748325  0.60896373  -0.01926444  1
  Ti  Ti129  1  0.39626522  0.40518800  0.25268537  1
  Ti  Ti130  1  0.39477138  0.20398672  0.75977397  1
  Ti  Ti131  1  0.60181959  -0.00646327  0.73833230  1
  Ti  Ti132  1  0.10210495  0.10209587  0.37649443  1
  Ti  Ti133  1  0.60347332  0.79779184  0.25334493  1
  Ti  Ti134  1  0.49727747  0.29743100  0.36318871  1
  Ti  Ti135  1  0.00015953  0.39091544  0.52134590  1
  Ti  Ti136  1  0.90244412  0.09834549  0.37945766  1
  Ti  Ti137  1  0.89143405  0.50333291  0.10263269  1
  Ti  Ti138  1  -0.00806063  0.60182845  0.75539139  1
  Ti  Ti139  1  0.10496972  0.30138404  0.10741890  1
  Ti  Ti140  1  0.10469124  0.70057029  0.38652879  1
  Ti  Ti141  1  0.10738405  0.09892840  0.64337227  1
  Ti  Ti142  1  0.49983910  0.90282367  0.38133084  1
  Ti  Ti143  1  0.71119567  0.89702625  0.36795735  1
  Ti  Ti144  1  0.70784147  0.08984595  0.62921630  1
  Ti  Ti145  1  0.39887816  0.39986838  0.76312522  1
  Ti  Ti146  1  0.01078433  0.20287308  0.75349222  1
  Ti  Ti147  1  0.20038120  0.60819771  0.51569518  1
  Ti  Ti148  1  0.79662359  0.39700224  0.25005290  1
  Ti  Ti149  1  0.89877844  0.29345751  0.63916071  1
  Ti  Ti150  1  0.10773624  0.08806820  0.10128487  1
  Ti  Ti151  1  0.20718051  0.00572067  0.49942536  1
  Ti  Ti152  1  0.60337590  0.19329085  0.50884180  1
  Ti  Ti153  1  0.19217779  0.40626934  0.24285246  1
  Ti  Ti154  1  -0.00692968  0.79849735  0.77051995  1
  Ti  Ti155  1  0.79943354  -0.00304838  0.00896697  1
  Ti  Ti156  1  0.40452124  0.60321516  -0.01016974  1
  Ti  Ti157  1  0.29350065  0.70752884  0.12907676  1
  Ti  Ti158  1  0.48969314  0.30400996  0.63567520  1
  Ti  Ti159  1  0.51469853  0.31173961  0.85822483  1
  Mo  Mo160  1  0.20027810  0.20319335  0.01358006  1
  Mo  Mo161  1  0.20533222  0.79630701  0.01265442  1
  Mo  Mo162  1  0.38965074  0.39368304  0.50627637  1
  Mo  Mo163  1  0.60374943  0.79720631  0.76885622  1
  Mo  Mo164  1  0.29309765  0.70391028  0.63770725  1
  Mo  Mo165  1  0.19620923  0.20304837  0.73984169  1
  Mo  Mo166  1  0.79634744  0.59732799  0.73764513  1
  Mo  Mo167  1  0.79574759  0.78803529  0.77534258  1
  Mo  Mo168  1  0.80044477  0.80317758  0.47636206  1
  Mo  Mo169  1  0.40624609  0.00541689  0.73800980  1
  Mo  Mo170  1  0.69436235  0.29736791  0.13856716  1
  Mo  Mo171  1  0.80063866  -0.00586067  0.74510931  1
  Mo  Mo172  1  0.80692636  0.19880775  0.73470765  1
  Mo  Mo173  1  0.39443907  0.19838189  0.26077275  1
  Mo  Mo174  1  0.09766240  0.29616649  0.62226337  1
  Mo  Mo175  1  0.30429189  0.10673245  0.86334428  1
  Mo  Mo176  1  0.70426849  0.70096362  0.62429979  1
  Mo  Mo177  1  0.59931155  0.39576896  0.27033190  1
  Mo  Mo178  1  0.20364843  0.00944403  0.75974797  1
  Mo  Mo179  1  0.79355772  0.59988819  0.01005009  1
  Mo  Mo180  1  0.59557503  0.19513808  0.26002975  1
  Mo  Mo181  1  0.79652792  0.39277830  -0.00928432  1
  Mo  Mo182  1  0.10077748  0.69756624  0.10096830  1
  Mo  Mo183  1  0.69716116  0.70017822  0.34952945  1
  Mo  Mo184  1  0.59873828  0.40358442  0.73327509  1
  Mo  Mo185  1  0.20176990  0.79744475  0.23969975  1
  Mo  Mo186  1  0.19809584  0.80217460  0.74010134  1
  Mo  Mo187  1  0.21702109  0.01573056  -0.01061752  1
  Mo  Mo188  1  0.70372628  0.29791359  0.62493298  1
  Mo  Mo189  1  0.70439952  0.68827746  0.89196474  1
  Mo  Mo190  1  0.48832535  0.09855829  0.14341699  1
  Mo  Mo191  1  0.00183637  0.00558271  -0.01727408  1
  Mo  Mo192  1  0.50035211  0.49759188  0.87342745  1
  Mo  Mo193  1  0.90841471  0.08733504  0.10390437  1
  Mo  Mo194  1  0.19534130  0.01155417  0.25281502  1
  Mo  Mo195  1  0.59347311  0.38861955  -0.00649087  1
  Mo  Mo196  1  0.90634148  0.70127714  0.36160335  1
  Mo  Mo197  1  0.38697825  0.60153585  0.25430532  1
  Mo  Mo198  1  0.29948391  0.90940986  0.36551037  1
  Mo  Mo199  1  0.89793062  0.69620836  0.86356215  1
