# generated using pymatgen
data_HfZrTaTiMo
_symmetry_space_group_name_H-M   'P 1'
_cell_length_a   15.92666254
_cell_length_b   15.92865097
_cell_length_c   15.19494761
_cell_angle_alpha   89.98571513
_cell_angle_beta   90.00687102
_cell_angle_gamma   89.98869121
_symmetry_Int_Tables_number   1
_chemical_formula_structural   HfZrTaTiMo
_chemical_formula_sum   'Hf40 Zr40 Ta40 Ti40 Mo40'
_cell_volume   3854.80981591
_cell_formula_units_Z   40
loop_
 _symmetry_equiv_pos_site_id
 _symmetry_equiv_pos_as_xyz
  1  'x, y, z'
loop_
 _atom_site_type_symbol
 _atom_site_label
 _atom_site_symmetry_multiplicity
 _atom_site_fract_x
 _atom_site_fract_y
 _atom_site_fract_z
 _atom_site_occupancy
  Hf  Hf0  1  0.09564640  0.50174442  0.13290168  1
  Hf  Hf1  1  0.30352888  0.89480126  0.61210090  1
  Hf  Hf2  1  0.09829360  0.69809358  0.37795457  1
  Hf  Hf3  1  0.80194804  0.39963911  -0.00191036  1
  Hf  Hf4  1  0.60349425  0.00625812  0.48737044  1
  Hf  Hf5  1  0.80909764  0.40889301  0.49414597  1
  Hf  Hf6  1  0.68536245  0.47740409  0.62782736  1
  Hf  Hf7  1  0.50102771  0.91074123  0.12831765  1
  Hf  Hf8  1  0.11015803  0.28637546  0.36242866  1
  Hf  Hf9  1  0.80074793  0.79345897  -0.00648976  1
  Hf  Hf10  1  0.81197289  0.00436760  0.25836773  1
  Hf  Hf11  1  0.88545134  0.88588928  0.62295025  1
  Hf  Hf12  1  0.40305384  0.59949246  0.00469515  1
  Hf  Hf13  1  0.60317581  0.80717432  0.75453782  1
  Hf  Hf14  1  0.79961870  0.81194171  0.26182866  1
  Hf  Hf15  1  0.40392515  0.80352910  -0.00408446  1
  Hf  Hf16  1  0.08853705  0.30644020  0.87800945  1
  Hf  Hf17  1  0.40233417  0.21076663  0.00158090  1
  Hf  Hf18  1  0.29982015  0.32428539  0.35662578  1
  Hf  Hf19  1  0.49240559  0.10681654  0.62310684  1
  Hf  Hf20  1  0.39507294  0.40186636  0.00266491  1
  Hf  Hf21  1  0.31241588  0.51693046  0.65064279  1
  Hf  Hf22  1  0.49473128  0.90635707  0.61295093  1
  Hf  Hf23  1  -0.00733716  -0.00384998  0.50010518  1
  Hf  Hf24  1  0.60268111  0.60711474  0.73648295  1
  Hf  Hf25  1  0.19669979  -0.00958535  0.26668727  1
  Hf  Hf26  1  0.69938257  0.90280983  0.12332197  1
  Hf  Hf27  1  0.70450086  0.28544159  0.62351542  1
  Hf  Hf28  1  0.49657478  0.50474990  0.85282955  1
  Hf  Hf29  1  0.79749715  0.00181123  0.75815846  1
  Hf  Hf30  1  0.20092907  0.40168652  -0.00042486  1
  Hf  Hf31  1  -0.00598886  0.18735456  0.24289227  1
  Hf  Hf32  1  0.19837638  0.39867730  0.75528091  1
  Hf  Hf33  1  0.29511856  0.70443657  0.86867320  1
  Hf  Hf34  1  0.59640213  -0.00034066  0.76108413  1
  Hf  Hf35  1  0.19746521  0.19721139  0.75584377  1
  Hf  Hf36  1  0.60045350  0.60521760  -0.00036782  1
  Hf  Hf37  1  0.79750398  0.38934131  0.25151929  1
  Hf  Hf38  1  0.21044629  0.59564351  0.49329336  1
  Hf  Hf39  1  0.38912492  0.80905984  0.25289946  1
  Zr  Zr40  1  0.89582140  0.28765674  0.62121262  1
  Zr  Zr41  1  0.21672037  0.39836921  0.51599938  1
  Zr  Zr42  1  0.48224136  0.70496466  0.62377237  1
  Zr  Zr43  1  0.30366794  0.09943271  0.62613471  1
  Zr  Zr44  1  -0.00055547  -0.00363680  0.74685403  1
  Zr  Zr45  1  0.91057129  0.69088369  0.86987554  1
  Zr  Zr46  1  0.10207122  0.51050374  0.63360419  1
  Zr  Zr47  1  0.20339026  0.20485151  0.00164499  1
  Zr  Zr48  1  0.50333319  0.09284640  0.12286583  1
  Zr  Zr49  1  0.89069900  0.69517575  0.37436737  1
  Zr  Zr50  1  0.49836147  0.49225389  0.36393562  1
  Zr  Zr51  1  0.89961932  0.29376423  0.87238378  1
  Zr  Zr52  1  0.09686455  0.70161938  0.13409922  1
  Zr  Zr53  1  0.01263083  0.79114610  0.75006360  1
  Zr  Zr54  1  0.59159601  0.40168958  -0.00797379  1
  Zr  Zr55  1  0.00086123  0.19468149  0.00723240  1
  Zr  Zr56  1  0.61014520  0.20862582  0.24699816  1
  Zr  Zr57  1  0.59308681  0.20439136  0.48564236  1
  Zr  Zr58  1  0.79813865  0.59770083  -0.00327918  1
  Zr  Zr59  1  0.09861698  0.08025194  0.12656420  1
  Zr  Zr60  1  0.11165996  0.48638565  0.36351300  1
  Zr  Zr61  1  0.51184718  0.31726598  0.63716987  1
  Zr  Zr62  1  0.28611458  0.11944216  0.36433078  1
  Zr  Zr63  1  0.78782119  0.60525152  0.50949672  1
  Zr  Zr64  1  0.61561068  0.79586307  0.50105528  1
  Zr  Zr65  1  0.69335990  0.49152123  0.13254850  1
  Zr  Zr66  1  0.60130070  0.79640899  -0.00994073  1
  Zr  Zr67  1  0.90245049  0.69742470  0.13391985  1
  Zr  Zr68  1  0.01165736  0.38806402  0.50458382  1
  Zr  Zr69  1  0.49963022  0.89662603  0.37085877  1
  Zr  Zr70  1  0.39749153  0.21648461  0.48605567  1
  Zr  Zr71  1  0.29340782  0.70242961  0.12710343  1
  Zr  Zr72  1  0.80685331  0.59568755  0.74184378  1
  Zr  Zr73  1  -0.01447047  0.58274237  0.49901013  1
  Zr  Zr74  1  0.19972103  -0.00734296  0.75278712  1
  Zr  Zr75  1  0.50070878  0.69783458  0.37443352  1
  Zr  Zr76  1  0.29301997  0.90685459  0.11622132  1
  Zr  Zr77  1  0.80384476  0.19884244  0.23759946  1
  Zr  Zr78  1  0.59985793  0.19041962  0.76042793  1
  Zr  Zr79  1  0.30416912  0.09471579  0.12920607  1
  Ta  Ta80  1  0.29712823  0.50715978  0.86729633  1
  Ta  Ta81  1  0.91192008  0.90151141  0.11672844  1
  Ta  Ta82  1  0.69880862  0.70323943  0.14163011  1
  Ta  Ta83  1  0.10788022  0.89091047  0.61235926  1
  Ta  Ta84  1  0.90329395  0.28443841  0.38562313  1
  Ta  Ta85  1  0.69981748  0.49776158  0.86384691  1
  Ta  Ta86  1  0.59647708  0.59792208  0.24192227  1
  Ta  Ta87  1  0.79929831  0.19787851  0.00892925  1
  Ta  Ta88  1  0.39809007  0.81419057  0.76066103  1
  Ta  Ta89  1  0.80031219  0.39436175  0.75202665  1
  Ta  Ta90  1  0.30608701  0.10198443  0.87940392  1
  Ta  Ta91  1  0.80631589  -0.00409034  -0.00631972  1
  Ta  Ta92  1  0.40604211  0.00271028  0.76774559  1
  Ta  Ta93  1  0.09636193  0.09833765  0.61462852  1
  Ta  Ta94  1  0.19567136  0.59754563  -0.00766745  1
  Ta  Ta95  1  0.69418800  0.50288016  0.37273239  1
  Ta  Ta96  1  0.29258040  0.50406839  0.13230724  1
  Ta  Ta97  1  0.40964276  0.41152147  0.50864594  1
  Ta  Ta98  1  0.40390015  0.40532992  0.22804304  1
  Ta  Ta99  1  0.09235090  0.10457264  0.38672427  1
  Ta  Ta100  1  0.10442574  0.70508207  0.61010080  1
  Ta  Ta101  1  0.59253182  0.58991868  0.51103067  1
  Ta  Ta102  1  0.69878415  0.09057739  0.11127874  1
  Ta  Ta103  1  0.39672516  0.59602677  0.49748711  1
  Ta  Ta104  1  0.31238621  0.29664380  0.64192258  1
  Ta  Ta105  1  0.88752206  0.10003505  0.61452343  1
  Ta  Ta106  1  0.39406277  0.00527799  0.47660877  1
  Ta  Ta107  1  0.10275102  0.89204716  0.88436474  1
  Ta  Ta108  1  0.61288527  0.00190585  0.26420669  1
  Ta  Ta109  1  -0.00704902  0.79648746  0.49727737  1
  Ta  Ta110  1  -0.00748075  0.39100843  0.25318280  1
  Ta  Ta111  1  0.60108176  0.20341506  0.00029846  1
  Ta  Ta112  1  0.00086597  0.19326471  0.73991025  1
  Ta  Ta113  1  0.70269144  0.29528940  0.87317651  1
  Ta  Ta114  1  0.19940377  0.00276322  0.49430619  1
  Ta  Ta115  1  0.40200803  0.21276409  0.23951026  1
  Ta  Ta116  1  0.70298720  0.09995037  0.89041960  1
  Ta  Ta117  1  -0.00362029  0.40053667  0.73618403  1
  Ta  Ta118  1  0.29025612  0.71045541  0.63126023  1
  Ta  Ta119  1  0.00002580  0.81511729  0.26327755  1
  Ti  Ti120  1  0.90348919  0.08208651  0.11180721  1
  Ti  Ti121  1  0.19453004  0.79473198  -0.00277630  1
  Ti  Ti122  1  0.50541374  0.70818960  0.13749622  1
  Ti  Ti123  1  0.90710189  0.69688660  0.62809186  1
  Ti  Ti124  1  0.39762395  0.60197626  0.24724509  1
  Ti  Ti125  1  0.70724766  0.09883256  0.61843386  1
  Ti  Ti126  1  0.19751220  -0.00019242  -0.00991664  1
  Ti  Ti127  1  0.18180854  0.61885800  0.76157670  1
  Ti  Ti128  1  0.91046439  0.49149110  0.86987337  1
  Ti  Ti129  1  0.69202446  0.69883456  0.36477686  1
  Ti  Ti130  1  0.70270534  0.90079893  0.88105934  1
  Ti  Ti131  1  0.30265604  0.70998633  0.38432717  1
  Ti  Ti132  1  0.69679824  0.30839995  0.38676037  1
  Ti  Ti133  1  0.09407306  0.89782434  0.11722617  1
  Ti  Ti134  1  0.51395913  0.31079617  0.13056988  1
  Ti  Ti135  1  0.10179222  0.89472460  0.39287036  1
  Ti  Ti136  1  0.08953437  0.50605679  0.87237559  1
  Ti  Ti137  1  0.49783404  0.70177558  0.86404374  1
  Ti  Ti138  1  0.90355063  0.49601223  0.12996000  1
  Ti  Ti139  1  0.09340888  0.09338337  0.87845973  1
  Ti  Ti140  1  0.49667980  0.29625293  0.86620843  1
  Ti  Ti141  1  0.90772247  0.30652463  0.11507411  1
  Ti  Ti142  1  0.90642344  0.89839471  0.87908204  1
  Ti  Ti143  1  0.20995638  0.60111678  0.26230111  1
  Ti  Ti144  1  0.19461314  0.80449088  0.26174834  1
  Ti  Ti145  1  0.00167489  0.59292246  0.00105761  1
  Ti  Ti146  1  0.90050259  0.10044160  0.87656373  1
  Ti  Ti147  1  -0.00440193  -0.00824960  0.27173425  1
  Ti  Ti148  1  0.70397607  0.90523283  0.62404693  1
  Ti  Ti149  1  0.00374891  0.79442684  -0.00272971  1
  Ti  Ti150  1  0.79657094  -0.00851159  0.48426682  1
  Ti  Ti151  1  0.19258209  0.21089484  0.51828705  1
  Ti  Ti152  1  0.49329609  0.10560119  0.35648247  1
  Ti  Ti153  1  -0.00814867  0.59129392  0.26255906  1
  Ti  Ti154  1  0.29754248  0.90249753  0.87996495  1
  Ti  Ti155  1  0.10249375  0.30322792  0.13246060  1
  Ti  Ti156  1  0.71988428  0.72223242  0.63412795  1
  Ti  Ti157  1  0.71211702  0.10879735  0.37803071  1
  Ti  Ti158  1  0.39979866  0.39725181  0.75609681  1
  Ti  Ti159  1  0.79808500  0.59185526  0.25346353  1
  Mo  Mo160  1  0.79926271  0.80329884  0.76885559  1
  Mo  Mo161  1  0.40244931  0.00639520  0.26682747  1
  Mo  Mo162  1  0.70023509  0.29540685  0.10602127  1
  Mo  Mo163  1  0.29606803  0.90007133  0.38664395  1
  Mo  Mo164  1  0.79828796  0.19472987  0.48762291  1
  Mo  Mo165  1  0.90091328  0.10243027  0.38954230  1
  Mo  Mo166  1  0.19937762  0.40032674  0.23086077  1
  Mo  Mo167  1  0.39341172  0.79793151  0.49319423  1
  Mo  Mo168  1  0.39705926  0.61350841  0.75859455  1
  Mo  Mo169  1  0.49608680  0.50231612  0.63007679  1
  Mo  Mo170  1  0.60176328  0.39715699  0.25671558  1
  Mo  Mo171  1  0.70022325  0.90296370  0.36933676  1
  Mo  Mo172  1  0.49778903  0.30484649  0.35736294  1
  Mo  Mo173  1  0.10108458  0.69696424  0.89164474  1
  Mo  Mo174  1  0.30907355  0.50865879  0.35843736  1
  Mo  Mo175  1  0.19564082  0.19985970  0.23533831  1
  Mo  Mo176  1  0.10544457  0.29288126  0.63851384  1
  Mo  Mo177  1  0.59902024  0.40282786  0.48339533  1
  Mo  Mo178  1  0.19764778  0.79833576  0.49089317  1
  Mo  Mo179  1  0.60286960  0.39529396  0.76844469  1
  Mo  Mo180  1  0.30479849  0.30297132  0.86229622  1
  Mo  Mo181  1  0.70293726  0.70072532  0.85804936  1
  Mo  Mo182  1  0.00413668  0.59464372  0.74574277  1
  Mo  Mo183  1  0.29736421  0.30334976  0.13475780  1
  Mo  Mo184  1  0.79803476  0.80252796  0.48783365  1
  Mo  Mo185  1  0.40073880  0.00110838  -0.01943734  1
  Mo  Mo186  1  0.80233613  0.18803144  0.76065034  1
  Mo  Mo187  1  0.50052016  0.09967754  0.89142211  1
  Mo  Mo188  1  0.89529244  0.48928427  0.35592461  1
  Mo  Mo189  1  -0.00041362  -0.00959562  -0.01612990  1
  Mo  Mo190  1  0.00424643  0.19483918  0.51056825  1
  Mo  Mo191  1  0.60098825  0.79859786  0.24494355  1
  Mo  Mo192  1  0.89571004  0.49328118  0.63773571  1
  Mo  Mo193  1  0.20006689  0.80344104  0.75221224  1
  Mo  Mo194  1  0.60283286  0.00046421  -0.01423084  1
  Mo  Mo195  1  0.49763374  0.90182535  0.88042316  1
  Mo  Mo196  1  0.39921322  0.20113858  0.76655457  1
  Mo  Mo197  1  0.49575638  0.50850240  0.13358136  1
  Mo  Mo198  1  -0.00062472  0.40859200  0.01278803  1
  Mo  Mo199  1  0.90107904  0.89930136  0.38877041  1
