# generated using pymatgen
data_HfZrTaTiMo
_symmetry_space_group_name_H-M   'P 1'
_cell_length_a   15.93355479
_cell_length_b   15.92832258
_cell_length_c   15.21717435
_cell_angle_alpha   89.98430620
_cell_angle_beta   90.01587682
_cell_angle_gamma   90.09856019
_symmetry_Int_Tables_number   1
_chemical_formula_structural   HfZrTaTiMo
_chemical_formula_sum   'Hf40 Zr40 Ta40 Ti40 Mo40'
_cell_volume   3862.03372138
_cell_formula_units_Z   40
loop_
 _symmetry_equiv_pos_site_id
 _symmetry_equiv_pos_as_xyz
  1  'x, y, z'
loop_
 _atom_site_type_symbol
 _atom_site_label
 _atom_site_symmetry_multiplicity
 _atom_site_fract_x
 _atom_site_fract_y
 _atom_site_fract_z
 _atom_site_occupancy
  Hf  Hf0  1  0.59055295  0.60818514  -0.00566572  1
  Hf  Hf1  1  0.89477031  0.48107889  0.37410210  1
  Hf  Hf2  1  0.58906051  0.58549955  0.25490368  1
  Hf  Hf3  1  0.19764553  0.20147407  0.25238698  1
  Hf  Hf4  1  0.60038365  0.22583215  0.23332508  1
  Hf  Hf5  1  -0.00360964  0.79231041  0.00344882  1
  Hf  Hf6  1  0.88916320  0.50877920  0.62507558  1
  Hf  Hf7  1  0.60895257  0.79394685  0.75565426  1
  Hf  Hf8  1  0.50151443  0.90309568  0.61832325  1
  Hf  Hf9  1  0.70348813  0.09971402  0.63577608  1
  Hf  Hf10  1  0.21090791  0.40881794  0.50365480  1
  Hf  Hf11  1  0.20722509  0.39985276  0.75683459  1
  Hf  Hf12  1  0.58754984  0.58622527  0.75517627  1
  Hf  Hf13  1  0.08747002  0.08344804  0.36421020  1
  Hf  Hf14  1  0.10700818  0.09287701  0.62828512  1
  Hf  Hf15  1  0.79817265  0.81255759  0.25979519  1
  Hf  Hf16  1  0.39456016  0.80418347  0.23941223  1
  Hf  Hf17  1  0.89850465  0.90223545  0.61468963  1
  Hf  Hf18  1  0.19846794  0.39944406  0.24532276  1
  Hf  Hf19  1  0.59525573  0.20784782  0.51721508  1
  Hf  Hf20  1  0.10500625  0.90752899  0.87823620  1
  Hf  Hf21  1  0.29369227  0.50232528  0.11718744  1
  Hf  Hf22  1  0.09349887  0.69706240  0.63264646  1
  Hf  Hf23  1  0.91466868  0.71183796  0.36890002  1
  Hf  Hf24  1  0.00186060  0.20252757  0.75030133  1
  Hf  Hf25  1  0.70731922  0.89682113  0.61682147  1
  Hf  Hf26  1  0.60972548  0.78692327  0.49276482  1
  Hf  Hf27  1  0.00725821  0.60149098  -0.00371542  1
  Hf  Hf28  1  0.59693658  0.18784881  -0.00870955  1
  Hf  Hf29  1  0.21029127  -0.01999287  0.25164734  1
  Hf  Hf30  1  0.78816135  0.60587944  0.47960199  1
  Hf  Hf31  1  0.80591591  0.21254494  0.24847961  1
  Hf  Hf32  1  0.00348967  0.59932418  0.49099145  1
  Hf  Hf33  1  0.89352201  0.89864474  0.88414983  1
  Hf  Hf34  1  0.49968616  0.68842900  0.62262342  1
  Hf  Hf35  1  0.48840579  0.69202635  0.38047339  1
  Hf  Hf36  1  0.19562175  0.59988767  0.26259504  1
  Hf  Hf37  1  0.80805317  0.61426468  -0.02057598  1
  Hf  Hf38  1  0.89135550  0.70807576  0.62428915  1
  Hf  Hf39  1  0.19584685  0.80405955  0.74690139  1
  Zr  Zr40  1  0.60551320  0.57756480  0.49399540  1
  Zr  Zr41  1  0.31137814  0.30233652  0.37008043  1
  Zr  Zr42  1  0.49708970  0.89679367  0.88247535  1
  Zr  Zr43  1  0.30666491  0.28991994  0.88326135  1
  Zr  Zr44  1  0.19629174  0.40198947  -0.00393174  1
  Zr  Zr45  1  -0.00113806  -0.00254215  0.74687494  1
  Zr  Zr46  1  0.89723976  0.70268128  0.13540488  1
  Zr  Zr47  1  0.69690287  0.32279910  0.38051613  1
  Zr  Zr48  1  0.27918381  0.70907821  0.12542226  1
  Zr  Zr49  1  0.69423937  0.70812057  0.13025932  1
  Zr  Zr50  1  0.39574811  0.60752126  0.00329133  1
  Zr  Zr51  1  0.80138152  0.20109479  0.00946200  1
  Zr  Zr52  1  0.21215882  0.19627473  0.49846166  1
  Zr  Zr53  1  0.60362905  -0.00487564  0.76170310  1
  Zr  Zr54  1  0.31920063  0.09952279  0.36198487  1
  Zr  Zr55  1  0.30145329  0.09976737  0.12421157  1
  Zr  Zr56  1  0.00783534  0.00358267  0.00959282  1
  Zr  Zr57  1  0.89483802  0.31031958  0.62305183  1
  Zr  Zr58  1  0.19868192  0.59465792  0.49749565  1
  Zr  Zr59  1  -0.00481382  0.19606818  0.49586597  1
  Zr  Zr60  1  0.90775411  0.30115050  0.88053447  1
  Zr  Zr61  1  0.10483232  0.30354173  0.62280028  1
  Zr  Zr62  1  0.42317814  0.40846259  0.22966257  1
  Zr  Zr63  1  0.30342983  0.89481447  0.39484696  1
  Zr  Zr64  1  0.40074030  0.80033473  0.74013570  1
  Zr  Zr65  1  0.68808877  0.10578669  0.36516467  1
  Zr  Zr66  1  0.50093199  0.31205754  0.38156462  1
  Zr  Zr67  1  0.40676289  0.00854837  0.00369904  1
  Zr  Zr68  1  0.91285014  0.91363978  0.39184629  1
  Zr  Zr69  1  0.30061141  0.90544432  0.87682419  1
  Zr  Zr70  1  -0.01943512  0.59928783  0.76773647  1
  Zr  Zr71  1  0.11672053  0.88066459  0.12568176  1
  Zr  Zr72  1  0.70036917  0.50533117  0.11654975  1
  Zr  Zr73  1  0.79553628  0.39516283  0.23005272  1
  Zr  Zr74  1  0.79816777  0.20732234  0.49898671  1
  Zr  Zr75  1  0.80039021  0.00070453  0.01381118  1
  Zr  Zr76  1  0.92025395  0.11024011  0.14223260  1
  Zr  Zr77  1  0.49450816  0.91008629  0.38489008  1
  Zr  Zr78  1  0.69478518  0.49566600  0.87567183  1
  Zr  Zr79  1  0.79820442  -0.00008002  0.24601851  1
  Ta  Ta80  1  0.29950028  0.69503055  0.86676633  1
  Ta  Ta81  1  0.50029699  0.10182608  0.64373224  1
  Ta  Ta82  1  0.09614152  0.50027319  0.63865008  1
  Ta  Ta83  1  0.59544311  0.01296542  0.50133377  1
  Ta  Ta84  1  0.29357510  0.90685644  0.62051238  1
  Ta  Ta85  1  0.90218985  0.09974295  0.87155622  1
  Ta  Ta86  1  0.79657553  0.59756352  0.26404179  1
  Ta  Ta87  1  0.40724646  0.20269397  0.52085468  1
  Ta  Ta88  1  0.50215866  0.10101339  0.13527415  1
  Ta  Ta89  1  0.09570778  0.29109282  0.12119791  1
  Ta  Ta90  1  0.30173280  0.69717613  0.37892687  1
  Ta  Ta91  1  0.59491006  0.80185324  0.25831611  1
  Ta  Ta92  1  0.68988684  0.09894575  0.13247535  1
  Ta  Ta93  1  0.09671695  0.89639364  0.60674996  1
  Ta  Ta94  1  0.19958261  0.78867425  -0.01504098  1
  Ta  Ta95  1  0.80110442  0.40914464  0.76050414  1
  Ta  Ta96  1  0.70743097  0.09918785  0.87005623  1
  Ta  Ta97  1  0.49232716  0.29573265  0.09680825  1
  Ta  Ta98  1  0.50357978  0.30384386  0.87352593  1
  Ta  Ta99  1  0.09487598  0.88255715  0.38200211  1
  Ta  Ta100  1  0.39142635  0.58490564  0.51410185  1
  Ta  Ta101  1  0.80036042  0.20381541  0.75442000  1
  Ta  Ta102  1  0.39737169  0.01942547  0.51751742  1
  Ta  Ta103  1  0.00238744  0.59408672  0.25221679  1
  Ta  Ta104  1  0.09203527  0.30322477  0.37683683  1
  Ta  Ta105  1  0.10210134  0.50048034  0.87046754  1
  Ta  Ta106  1  0.31885634  0.31299436  0.63185306  1
  Ta  Ta107  1  0.69884754  0.29952298  0.87466415  1
  Ta  Ta108  1  0.29626943  0.69425770  0.62884760  1
  Ta  Ta109  1  0.49444321  0.47824318  0.62310023  1
  Ta  Ta110  1  0.80477076  0.40242331  -0.00120270  1
  Ta  Ta111  1  0.19986836  0.00085472  0.49754810  1
  Ta  Ta112  1  0.29730071  0.09311704  0.86173786  1
  Ta  Ta113  1  0.50678016  0.89149404  0.11342263  1
  Ta  Ta114  1  0.11464705  0.09849351  0.86912333  1
  Ta  Ta115  1  0.90544234  0.50166717  0.12223050  1
  Ta  Ta116  1  0.79515085  0.79663643  0.48447140  1
  Ta  Ta117  1  0.30492757  0.29365980  0.11471925  1
  Ta  Ta118  1  0.32124938  0.50109640  0.36718672  1
  Ta  Ta119  1  0.40315226  0.60368726  0.23486372  1
  Ti  Ti120  1  0.10459623  0.29436364  0.87825454  1
  Ti  Ti121  1  0.10163666  0.69819301  0.86401130  1
  Ti  Ti122  1  -0.00558393  0.80285676  0.75415686  1
  Ti  Ti123  1  0.40626972  0.41575701  0.76811962  1
  Ti  Ti124  1  0.90392972  0.10430851  0.36599180  1
  Ti  Ti125  1  0.60279487  0.79572654  -0.01116627  1
  Ti  Ti126  1  0.79898867  -0.00492656  0.75849870  1
  Ti  Ti127  1  0.79673919  0.79259190  0.76961219  1
  Ti  Ti128  1  0.89604649  0.09741027  0.62775187  1
  Ti  Ti129  1  0.69386700  0.90783774  0.38349074  1
  Ti  Ti130  1  0.48831689  0.69850250  0.86733373  1
  Ti  Ti131  1  0.20601534  0.59329592  0.75325310  1
  Ti  Ti132  1  0.40058128  0.20264067  0.74684350  1
  Ti  Ti133  1  0.19468593  0.78976144  0.49936620  1
  Ti  Ti134  1  0.09820188  0.49112794  0.37339786  1
  Ti  Ti135  1  0.40099571  0.40780221  -0.00889331  1
  Ti  Ti136  1  0.40597272  -0.00813944  0.23481750  1
  Ti  Ti137  1  0.10484764  0.09764291  0.13437474  1
  Ti  Ti138  1  -0.00337116  -0.02773907  0.23272566  1
  Ti  Ti139  1  0.59546049  -0.00802757  0.24751543  1
  Ti  Ti140  1  0.09746734  0.50337141  0.12211241  1
  Ti  Ti141  1  0.79669461  0.01150365  0.49329051  1
  Ti  Ti142  1  0.39432394  0.79246316  0.51232918  1
  Ti  Ti143  1  0.00214321  0.40256324  0.50352416  1
  Ti  Ti144  1  0.59767337  0.39938418  0.00361174  1
  Ti  Ti145  1  0.49093580  0.10137832  0.86162687  1
  Ti  Ti146  1  0.77712003  0.41626039  0.51132194  1
  Ti  Ti147  1  0.70792174  0.68440725  0.63802349  1
  Ti  Ti148  1  0.60154997  0.20455146  0.75652183  1
  Ti  Ti149  1  0.00330689  0.40427554  -0.00319098  1
  Ti  Ti150  1  0.00008864  0.39380739  0.24598810  1
  Ti  Ti151  1  -0.00044671  0.40365856  0.75721460  1
  Ti  Ti152  1  0.69523467  0.89689621  0.11733954  1
  Ti  Ti153  1  0.69294358  0.31564439  0.64309570  1
  Ti  Ti154  1  0.20749979  0.20049564  0.74399812  1
  Ti  Ti155  1  0.60501606  -0.00022274  -0.00526513  1
  Ti  Ti156  1  0.91378216  0.30378066  0.11484225  1
  Ti  Ti157  1  0.19902776  0.18757802  0.00081022  1
  Ti  Ti158  1  0.01068326  0.19507979  -0.00701270  1
  Ti  Ti159  1  0.49739151  0.10966965  0.36271740  1
  Mo  Mo160  1  0.69456991  0.70091723  0.86809153  1
  Mo  Mo161  1  0.20229014  -0.00053137  0.73420816  1
  Mo  Mo162  1  0.40062724  0.79779844  0.00711817  1
  Mo  Mo163  1  0.29972906  0.50649585  0.87363620  1
  Mo  Mo164  1  0.39684745  0.00598186  0.73806219  1
  Mo  Mo165  1  0.40254159  0.19759936  -0.01082648  1
  Mo  Mo166  1  0.69624428  0.29999835  0.09809255  1
  Mo  Mo167  1  0.70222873  0.89893329  0.88908032  1
  Mo  Mo168  1  0.78945664  0.80277979  -0.00615056  1
  Mo  Mo169  1  0.20185291  0.00244138  0.00608891  1
  Mo  Mo170  1  0.69380129  0.49356423  0.36058333  1
  Mo  Mo171  1  0.49947532  0.29812638  0.65132962  1
  Mo  Mo172  1  0.89971736  0.70821984  0.87099392  1
  Mo  Mo173  1  0.09684343  0.68995896  0.13619835  1
  Mo  Mo174  1  0.90306438  0.49472693  0.88577278  1
  Mo  Mo175  1  0.49860443  0.50096510  0.10341559  1
  Mo  Mo176  1  0.00527432  0.79671550  0.23658247  1
  Mo  Mo177  1  0.70133658  0.49946833  0.64452815  1
  Mo  Mo178  1  0.40080780  0.39941175  0.50694123  1
  Mo  Mo179  1  0.79104783  0.60632904  0.76237671  1
  Mo  Mo180  1  0.49554247  0.49364940  0.39095877  1
  Mo  Mo181  1  0.60067636  0.39610799  0.52399094  1
  Mo  Mo182  1  0.30433846  0.89588943  0.10415038  1
  Mo  Mo183  1  0.30147694  0.50066881  0.64377825  1
  Mo  Mo184  1  0.10095496  0.70125616  0.36802012  1
  Mo  Mo185  1  0.50110838  0.70772164  0.13217607  1
  Mo  Mo186  1  0.90467362  0.30742299  0.38527292  1
  Mo  Mo187  1  0.19259505  0.60342918  -0.01871007  1
  Mo  Mo188  1  0.00240671  0.79536152  0.51016662  1
  Mo  Mo189  1  0.40653822  0.20421040  0.23195648  1
  Mo  Mo190  1  0.00160357  0.00430549  0.50664950  1
  Mo  Mo191  1  0.30211367  0.10569404  0.63886912  1
  Mo  Mo192  1  0.89653494  0.89561205  0.11684804  1
  Mo  Mo193  1  0.00329499  0.21610406  0.26064831  1
  Mo  Mo194  1  0.69785078  0.70243363  0.35659973  1
  Mo  Mo195  1  0.20011412  0.79425961  0.27119271  1
  Mo  Mo196  1  0.39491739  0.59451221  0.74490809  1
  Mo  Mo197  1  0.59626343  0.39336667  0.75398617  1
  Mo  Mo198  1  0.49408042  0.49450737  0.88610173  1
  Mo  Mo199  1  0.59731643  0.40364417  0.22186321  1
