# generated using pymatgen
data_HfZrTaTiMo
_symmetry_space_group_name_H-M   'P 1'
_cell_length_a   15.92398582
_cell_length_b   15.92932988
_cell_length_c   15.20523856
_cell_angle_alpha   89.97376549
_cell_angle_beta   89.98717596
_cell_angle_gamma   89.92274571
_symmetry_Int_Tables_number   1
_chemical_formula_structural   HfZrTaTiMo
_chemical_formula_sum   'Hf40 Zr40 Ta40 Ti40 Mo40'
_cell_volume   3856.93283023
_cell_formula_units_Z   40
loop_
 _symmetry_equiv_pos_site_id
 _symmetry_equiv_pos_as_xyz
  1  'x, y, z'
loop_
 _atom_site_type_symbol
 _atom_site_label
 _atom_site_symmetry_multiplicity
 _atom_site_fract_x
 _atom_site_fract_y
 _atom_site_fract_z
 _atom_site_occupancy
  Hf  Hf0  1  0.90100534  0.90404174  0.62762504  1
  Hf  Hf1  1  -0.00315234  0.00282166  -0.00579008  1
  Hf  Hf2  1  0.68963821  0.09720765  0.63571397  1
  Hf  Hf3  1  0.11044353  0.48710395  0.14311202  1
  Hf  Hf4  1  0.79055326  0.60415246  0.25692505  1
  Hf  Hf5  1  0.40103870  0.00360513  0.49681729  1
  Hf  Hf6  1  0.20392098  0.59741302  0.49404305  1
  Hf  Hf7  1  0.10278076  0.49207776  0.62315249  1
  Hf  Hf8  1  0.30241090  0.10990819  0.88060294  1
  Hf  Hf9  1  0.49890584  0.50634881  0.61908786  1
  Hf  Hf10  1  0.69369029  0.70217748  0.61574908  1
  Hf  Hf11  1  0.31146970  0.69756338  0.61852401  1
  Hf  Hf12  1  0.01281049  0.78759041  0.73342411  1
  Hf  Hf13  1  0.20468703  0.39991735  0.48795321  1
  Hf  Hf14  1  0.67407006  0.30260945  0.88003165  1
  Hf  Hf15  1  0.20181961  0.80239251  0.49981120  1
  Hf  Hf16  1  0.00714124  0.37724491  0.26221960  1
  Hf  Hf17  1  0.40320709  0.80177188  0.00681152  1
  Hf  Hf18  1  0.59154819  0.40136682  0.49488483  1
  Hf  Hf19  1  0.70202164  0.89641274  0.38610272  1
  Hf  Hf20  1  0.69445769  0.28880054  0.39215709  1
  Hf  Hf21  1  0.39147832  0.40585071  0.00196328  1
  Hf  Hf22  1  0.40887906  0.40114566  0.25362176  1
  Hf  Hf23  1  0.88879143  0.69629510  0.61487421  1
  Hf  Hf24  1  0.51453878  0.90559052  0.11860163  1
  Hf  Hf25  1  0.80377395  0.00735554  0.50854028  1
  Hf  Hf26  1  0.70500652  0.10115036  0.11032331  1
  Hf  Hf27  1  0.50745757  0.30231692  0.10059070  1
  Hf  Hf28  1  0.79617040  0.19555239  0.25843578  1
  Hf  Hf29  1  0.29526065  0.50853977  0.87193755  1
  Hf  Hf30  1  0.50967469  0.89793777  0.63455519  1
  Hf  Hf31  1  0.19498388  0.00051251  0.00317596  1
  Hf  Hf32  1  0.20733623  0.00496418  0.74508049  1
  Hf  Hf33  1  0.09215367  0.50476009  0.86284727  1
  Hf  Hf34  1  0.79625939  0.79493159  0.76428655  1
  Hf  Hf35  1  0.80429579  0.80888585  -0.01874462  1
  Hf  Hf36  1  0.40213534  0.00215127  0.24241585  1
  Hf  Hf37  1  0.69676024  0.89623005  0.62873755  1
  Hf  Hf38  1  0.40586472  0.38690156  0.75761093  1
  Hf  Hf39  1  0.18552274  0.20566231  0.00262894  1
  Zr  Zr40  1  0.40539238  0.80495843  0.77183676  1
  Zr  Zr41  1  0.28693456  0.31055842  0.13049624  1
  Zr  Zr42  1  0.40567234  -0.00208702  0.76585727  1
  Zr  Zr43  1  0.40479534  0.79894917  0.48882118  1
  Zr  Zr44  1  0.51001012  0.49205803  0.88938996  1
  Zr  Zr45  1  0.30690949  0.29375153  0.37442378  1
  Zr  Zr46  1  -0.00395734  0.39338736  0.50023733  1
  Zr  Zr47  1  0.89688604  0.49904270  0.13470064  1
  Zr  Zr48  1  0.20251839  0.01779046  0.50741481  1
  Zr  Zr49  1  0.79798426  0.40059911  -0.01103441  1
  Zr  Zr50  1  0.18260425  0.20758564  0.24510015  1
  Zr  Zr51  1  0.29560930  0.90056926  0.36196186  1
  Zr  Zr52  1  0.10165228  0.89833447  0.86741041  1
  Zr  Zr53  1  0.00145230  0.79876991  0.49516418  1
  Zr  Zr54  1  0.29597347  0.69603618  0.89353026  1
  Zr  Zr55  1  0.50429299  0.12099518  0.88826037  1
  Zr  Zr56  1  0.10600046  0.69347837  0.88728805  1
  Zr  Zr57  1  0.91534112  0.69244270  0.87569565  1
  Zr  Zr58  1  0.40543701  0.60238541  0.74855411  1
  Zr  Zr59  1  0.49850007  0.11452589  0.37222442  1
  Zr  Zr60  1  0.70133020  0.50896966  0.62984486  1
  Zr  Zr61  1  0.71138377  0.90123540  0.12309462  1
  Zr  Zr62  1  0.40993692  0.79506810  0.24059824  1
  Zr  Zr63  1  0.89712639  0.28153338  0.11551895  1
  Zr  Zr64  1  0.80809711  0.40113890  0.50059449  1
  Zr  Zr65  1  0.79631576  0.39071615  0.25686150  1
  Zr  Zr66  1  0.90102980  0.71027975  0.11666531  1
  Zr  Zr67  1  -0.00040194  0.61172139  0.25338936  1
  Zr  Zr68  1  0.60127400  0.39922584  0.25016948  1
  Zr  Zr69  1  0.51001431  0.68303713  0.89389185  1
  Zr  Zr70  1  0.80982124  0.79680606  0.26344256  1
  Zr  Zr71  1  0.69621244  0.30533397  0.62917960  1
  Zr  Zr72  1  -0.01438344  0.18411759  0.26813720  1
  Zr  Zr73  1  0.81426759  0.00908169  0.26263175  1
  Zr  Zr74  1  0.60877391  0.00734694  0.25799042  1
  Zr  Zr75  1  0.09710511  0.27370290  0.62619587  1
  Zr  Zr76  1  0.00392094  0.39543330  0.00151852  1
  Zr  Zr77  1  0.79515369  0.20827985  0.75179357  1
  Zr  Zr78  1  0.21071961  0.80072590  0.74259777  1
  Zr  Zr79  1  0.29494059  0.29003020  0.62295695  1
  Ta  Ta80  1  0.19521332  0.40155610  -0.01271868  1
  Ta  Ta81  1  0.90172258  0.30175432  0.86416658  1
  Ta  Ta82  1  0.10412446  0.70122704  0.37302234  1
  Ta  Ta83  1  0.18972644  0.00229582  0.23828776  1
  Ta  Ta84  1  0.79873054  0.19298756  -0.02071167  1
  Ta  Ta85  1  0.59310570  0.00188148  0.49913464  1
  Ta  Ta86  1  0.20121036  0.39731855  0.75447728  1
  Ta  Ta87  1  0.80466555  0.59856651  0.48480778  1
  Ta  Ta88  1  0.09944835  0.90832852  0.62411393  1
  Ta  Ta89  1  0.29426346  0.90072988  0.12496734  1
  Ta  Ta90  1  0.79533782  0.59902898  0.76298654  1
  Ta  Ta91  1  -0.01154746  0.39631561  0.73415601  1
  Ta  Ta92  1  0.60247610  0.20765961  0.23758023  1
  Ta  Ta93  1  0.30236223  0.49377198  0.63012470  1
  Ta  Ta94  1  0.58831128  0.19552177  0.51384527  1
  Ta  Ta95  1  0.91424116  0.11421035  0.62993787  1
  Ta  Ta96  1  0.30103619  0.68949308  0.35672325  1
  Ta  Ta97  1  0.80333025  0.00292469  -0.02507606  1
  Ta  Ta98  1  0.29944711  0.10237941  0.12462088  1
  Ta  Ta99  1  0.90576683  0.10091532  0.85897056  1
  Ta  Ta100  1  0.70033161  0.69821811  0.11188819  1
  Ta  Ta101  1  0.29632905  0.50450799  0.14090953  1
  Ta  Ta102  1  0.00286979  0.59410853  0.01338720  1
  Ta  Ta103  1  0.90383363  0.49999902  0.36715618  1
  Ta  Ta104  1  0.40847182  0.20312539  0.23571799  1
  Ta  Ta105  1  0.69508593  0.49816837  0.11541393  1
  Ta  Ta106  1  -0.00057613  0.59473299  0.49664345  1
  Ta  Ta107  1  0.50242775  0.10278378  0.11153095  1
  Ta  Ta108  1  0.79991338  0.00367640  0.75415351  1
  Ta  Ta109  1  0.90641405  0.91014335  0.12418900  1
  Ta  Ta110  1  0.50678175  0.69191458  0.37206048  1
  Ta  Ta111  1  0.29492876  0.69642038  0.13122907  1
  Ta  Ta112  1  0.50025944  0.50882264  0.37517460  1
  Ta  Ta113  1  0.19403749  0.60530669  0.73108721  1
  Ta  Ta114  1  0.79792360  0.59899594  -0.01130246  1
  Ta  Ta115  1  0.08231961  0.10036272  0.12821799  1
  Ta  Ta116  1  0.60686990  0.80079281  -0.00752290  1
  Ta  Ta117  1  0.09796310  0.29967062  0.86209200  1
  Ta  Ta118  1  0.60709276  0.78788076  0.24786425  1
  Ta  Ta119  1  0.29256105  0.10380936  0.35503345  1
  Ti  Ti120  1  -0.00019466  0.80657580  0.26127520  1
  Ti  Ti121  1  0.09269680  0.89825322  0.13112639  1
  Ti  Ti122  1  0.50644842  0.89789236  0.36708067  1
  Ti  Ti123  1  0.91293903  0.90470953  0.85554645  1
  Ti  Ti124  1  0.10168278  0.90664917  0.37541874  1
  Ti  Ti125  1  0.30468238  0.29274160  0.87692831  1
  Ti  Ti126  1  0.00870737  0.01378139  0.50043710  1
  Ti  Ti127  1  0.10180866  0.70247676  0.12880991  1
  Ti  Ti128  1  0.19272882  0.80059044  0.24814038  1
  Ti  Ti129  1  0.00485320  0.80454530  0.00109457  1
  Ti  Ti130  1  0.60724087  0.00204184  -0.01816942  1
  Ti  Ti131  1  0.39873288  -0.00277295  -0.00139904  1
  Ti  Ti132  1  0.10083954  0.27973378  0.39603906  1
  Ti  Ti133  1  -0.00219402  0.59700020  0.72594679  1
  Ti  Ti134  1  0.49059397  0.09832316  0.63484042  1
  Ti  Ti135  1  0.57899528  0.20884513  0.74384739  1
  Ti  Ti136  1  0.59566394  0.60033982  0.23545499  1
  Ti  Ti137  1  0.69493350  0.69749199  0.38749566  1
  Ti  Ti138  1  0.59812390  0.78927183  0.76827509  1
  Ti  Ti139  1  0.09568351  0.10518226  0.85559032  1
  Ti  Ti140  1  0.39744728  0.40491105  0.48808755  1
  Ti  Ti141  1  0.69962874  0.10482195  0.39423442  1
  Ti  Ti142  1  0.59555734  0.40436168  0.74637699  1
  Ti  Ti143  1  0.50884368  0.69728339  0.61913656  1
  Ti  Ti144  1  -0.00240155  -0.00147510  0.25878042  1
  Ti  Ti145  1  0.90146185  0.49844471  0.86265513  1
  Ti  Ti146  1  0.68957908  0.51021261  0.87557062  1
  Ti  Ti147  1  0.59457374  0.80005210  0.49177578  1
  Ti  Ti148  1  0.10511507  0.50243652  0.36489125  1
  Ti  Ti149  1  0.38972821  0.18949478  0.50510528  1
  Ti  Ti150  1  0.69047238  0.90790164  0.86007307  1
  Ti  Ti151  1  0.40930751  0.59900230  0.23869531  1
  Ti  Ti152  1  0.30981638  0.90388910  0.62156578  1
  Ti  Ti153  1  0.39752940  0.59432408  0.48920406  1
  Ti  Ti154  1  0.19827056  0.80461001  0.01084492  1
  Ti  Ti155  1  -0.00339548  0.19539601  -0.01143908  1
  Ti  Ti156  1  0.19756349  0.59204463  0.01683831  1
  Ti  Ti157  1  0.48903955  0.29895122  0.61357391  1
  Ti  Ti158  1  0.90317029  0.90278701  0.38854444  1
  Ti  Ti159  1  0.69236648  0.50786732  0.37874400  1
  Mo  Mo160  1  0.39994233  0.20076862  0.73944561  1
  Mo  Mo161  1  0.80158709  0.19944095  0.51301157  1
  Mo  Mo162  1  0.39719870  0.59783598  0.02881775  1
  Mo  Mo163  1  0.60487337  0.60445187  0.74420188  1
  Mo  Mo164  1  0.69877935  0.10087171  0.86505629  1
  Mo  Mo165  1  0.00278896  0.00068003  0.74062004  1
  Mo  Mo166  1  0.19879826  0.40257434  0.27223704  1
  Mo  Mo167  1  0.79758638  0.80012154  0.49011950  1
  Mo  Mo168  1  0.60411355  0.40410116  0.00585507  1
  Mo  Mo169  1  0.89842462  0.09880328  0.40153421  1
  Mo  Mo170  1  0.09215598  0.29793714  0.11244098  1
  Mo  Mo171  1  0.20103702  0.60589286  0.25105340  1
  Mo  Mo172  1  0.89798129  0.09192018  0.10515304  1
  Mo  Mo173  1  0.69999780  0.69522727  0.88604765  1
  Mo  Mo174  1  0.60247994  0.59870128  0.01967609  1
  Mo  Mo175  1  0.20280879  0.20175944  0.76713262  1
  Mo  Mo176  1  0.09918278  0.09833050  0.63882508  1
  Mo  Mo177  1  0.30050629  0.90418010  0.90317588  1
  Mo  Mo178  1  0.39085768  0.19973966  0.01747263  1
  Mo  Mo179  1  0.60789697  0.19887161  0.00922341  1
  Mo  Mo180  1  0.50929467  0.90246681  0.88854841  1
  Mo  Mo181  1  0.59761465  0.60269155  0.49420922  1
  Mo  Mo182  1  0.50740939  0.70045432  0.12341200  1
  Mo  Mo183  1  0.90120516  0.69861722  0.38612533  1
  Mo  Mo184  1  -0.00044583  0.20131970  0.75918252  1
  Mo  Mo185  1  0.30539329  0.50456840  0.35841779  1
  Mo  Mo186  1  0.70125736  0.29658743  0.11036397  1
  Mo  Mo187  1  0.09971634  0.08930168  0.36416461  1
  Mo  Mo188  1  0.30503905  0.10595859  0.63913766  1
  Mo  Mo189  1  -0.00317710  0.19085692  0.49202421  1
  Mo  Mo190  1  0.49836093  0.29701297  0.38870003  1
  Mo  Mo191  1  0.89629407  0.29472750  0.38976382  1
  Mo  Mo192  1  0.89555234  0.50423484  0.63524916  1
  Mo  Mo193  1  0.10140126  0.69538225  0.60503895  1
  Mo  Mo194  1  0.79905197  0.40941094  0.76456143  1
  Mo  Mo195  1  0.20059834  0.18801048  0.48759539  1
  Mo  Mo196  1  0.49908711  0.50521502  0.12277810  1
  Mo  Mo197  1  0.49043895  0.29717962  0.88545987  1
  Mo  Mo198  1  0.89625211  0.29872850  0.63518045  1
  Mo  Mo199  1  0.59974959  0.00459180  0.75876225  1
