# generated using pymatgen
data_HfZrTaTiMo
_symmetry_space_group_name_H-M   'P 1'
_cell_length_a   15.92399842
_cell_length_b   15.93684304
_cell_length_c   15.19523300
_cell_angle_alpha   90.00746423
_cell_angle_beta   90.03096346
_cell_angle_gamma   89.99257914
_symmetry_Int_Tables_number   1
_chemical_formula_structural   HfZrTaTiMo
_chemical_formula_sum   'Hf40 Zr40 Ta40 Ti40 Mo40'
_cell_volume   3856.21921289
_cell_formula_units_Z   40
loop_
 _symmetry_equiv_pos_site_id
 _symmetry_equiv_pos_as_xyz
  1  'x, y, z'
loop_
 _atom_site_type_symbol
 _atom_site_label
 _atom_site_symmetry_multiplicity
 _atom_site_fract_x
 _atom_site_fract_y
 _atom_site_fract_z
 _atom_site_occupancy
  Hf  Hf0  1  0.50118902  0.51245822  0.37362684  1
  Hf  Hf1  1  0.71150363  0.28858971  0.36150841  1
  Hf  Hf2  1  0.19842638  -0.00170124  0.76691734  1
  Hf  Hf3  1  0.49540723  0.11097087  0.89349105  1
  Hf  Hf4  1  0.80973206  0.00939387  0.75822189  1
  Hf  Hf5  1  0.11370272  0.09495006  0.36472514  1
  Hf  Hf6  1  0.71223638  0.90033717  0.36259634  1
  Hf  Hf7  1  0.20128330  0.39825198  0.74806171  1
  Hf  Hf8  1  -0.00239598  0.80100394  0.73689391  1
  Hf  Hf9  1  0.89710207  0.90398660  0.88709399  1
  Hf  Hf10  1  0.88936496  0.29508743  0.87057905  1
  Hf  Hf11  1  0.89497469  0.70842936  0.37914680  1
  Hf  Hf12  1  0.70665745  0.50365683  0.13416225  1
  Hf  Hf13  1  0.20264379  0.79902391  0.75658091  1
  Hf  Hf14  1  0.20069982  0.41171925  0.26024913  1
  Hf  Hf15  1  0.80607056  0.40325328  0.50159226  1
  Hf  Hf16  1  0.00806589  0.19977857  0.51516560  1
  Hf  Hf17  1  0.70002601  0.29855776  0.62958625  1
  Hf  Hf18  1  0.19905772  0.40304716  0.00030685  1
  Hf  Hf19  1  0.30016280  0.08822578  0.62308076  1
  Hf  Hf20  1  0.59348125  -0.00198049  0.76714736  1
  Hf  Hf21  1  0.10883435  0.71233865  0.11968168  1
  Hf  Hf22  1  0.89367795  0.09893468  0.38690866  1
  Hf  Hf23  1  0.50493794  0.09155891  0.62739225  1
  Hf  Hf24  1  0.10629086  0.70327054  0.38312245  1
  Hf  Hf25  1  0.59614934  0.80308352  0.49858916  1
  Hf  Hf26  1  0.40254763  0.40522322  0.01178318  1
  Hf  Hf27  1  0.50286170  0.29044420  0.13790817  1
  Hf  Hf28  1  0.39807679  0.19168353  0.48633329  1
  Hf  Hf29  1  0.09056069  0.89325029  0.88752193  1
  Hf  Hf30  1  0.19462980  0.18949378  -0.01462144  1
  Hf  Hf31  1  0.19651688  0.19880192  0.50738334  1
  Hf  Hf32  1  0.39764543  -0.00507159  0.76983925  1
  Hf  Hf33  1  -0.00640624  0.40118685  0.00168644  1
  Hf  Hf34  1  0.69932015  0.49931879  0.87430358  1
  Hf  Hf35  1  0.90015854  0.29289568  0.37729744  1
  Hf  Hf36  1  0.91311279  0.30825819  0.63236839  1
  Hf  Hf37  1  0.38061360  0.60632036  0.24317523  1
  Hf  Hf38  1  0.48853825  0.10190729  0.12341077  1
  Hf  Hf39  1  0.50153058  0.29980193  0.62724927  1
  Zr  Zr40  1  0.38956925  0.39151110  0.48458752  1
  Zr  Zr41  1  0.00001739  -0.00009849  0.24155326  1
  Zr  Zr42  1  0.60423440  -0.00726968  0.00339974  1
  Zr  Zr43  1  0.69310100  0.90179670  0.63201655  1
  Zr  Zr44  1  0.60453033  0.18981524  0.49599198  1
  Zr  Zr45  1  0.90209795  0.90376123  0.38574321  1
  Zr  Zr46  1  0.41214713  0.40477846  0.74849030  1
  Zr  Zr47  1  0.89618438  0.91463466  0.61120083  1
  Zr  Zr48  1  0.28751129  0.90384480  0.37377486  1
  Zr  Zr49  1  0.69878690  0.70384845  0.36638754  1
  Zr  Zr50  1  0.00039580  0.40285927  0.25803332  1
  Zr  Zr51  1  0.31510360  0.29059085  0.87689920  1
  Zr  Zr52  1  0.50782830  0.70342890  0.87713872  1
  Zr  Zr53  1  0.08769120  0.30303093  0.86319553  1
  Zr  Zr54  1  0.69773683  0.88441730  0.86705098  1
  Zr  Zr55  1  0.29013714  0.88985169  0.12331893  1
  Zr  Zr56  1  0.60635330  0.39834858  0.01730350  1
  Zr  Zr57  1  0.30648869  0.50497148  0.87472780  1
  Zr  Zr58  1  0.00651431  0.80291735  0.24626010  1
  Zr  Zr59  1  0.39808857  0.60611645  0.74306080  1
  Zr  Zr60  1  0.19485823  0.19095561  0.74852402  1
  Zr  Zr61  1  0.70153899  0.70188597  0.86459979  1
  Zr  Zr62  1  0.29510008  0.09488221  0.13293040  1
  Zr  Zr63  1  0.09995695  0.29052912  0.13271450  1
  Zr  Zr64  1  0.09758502  0.51083904  0.12592199  1
  Zr  Zr65  1  0.19415681  0.60600442  0.74738987  1
  Zr  Zr66  1  0.88995294  0.90422838  0.11528358  1
  Zr  Zr67  1  0.30133352  0.28811972  0.13187171  1
  Zr  Zr68  1  0.80717753  0.60160560  0.00210236  1
  Zr  Zr69  1  0.80854149  0.60423881  0.73287527  1
  Zr  Zr70  1  0.69620711  0.30209474  0.87075410  1
  Zr  Zr71  1  0.20093688  0.60715408  -0.00473166  1
  Zr  Zr72  1  0.40524196  -0.00427838  0.48473625  1
  Zr  Zr73  1  0.39179513  0.40675781  0.25395696  1
  Zr  Zr74  1  0.60458925  0.40165264  0.48628611  1
  Zr  Zr75  1  0.30269869  0.70206493  0.60632810  1
  Zr  Zr76  1  0.50628342  0.29030145  0.35589235  1
  Zr  Zr77  1  0.59277172  0.59549484  0.73357530  1
  Zr  Zr78  1  0.60769129  -0.00406373  0.23177221  1
  Zr  Zr79  1  -0.00484376  0.60200556  0.50631708  1
  Ta  Ta80  1  0.90374046  0.50372377  0.13253427  1
  Ta  Ta81  1  0.80639574  0.39521149  0.01342756  1
  Ta  Ta82  1  0.48620306  0.89816457  0.12659070  1
  Ta  Ta83  1  0.09496347  0.48611690  0.63135800  1
  Ta  Ta84  1  0.19201831  -0.00072631  -0.00246673  1
  Ta  Ta85  1  0.79243904  0.60154111  0.50939843  1
  Ta  Ta86  1  0.01802466  0.40167850  0.48932131  1
  Ta  Ta87  1  0.50696371  0.09519988  0.35071898  1
  Ta  Ta88  1  0.80996140  0.60270244  0.25127068  1
  Ta  Ta89  1  0.40373272  0.80771412  0.76162705  1
  Ta  Ta90  1  0.50927303  0.50187826  0.88898879  1
  Ta  Ta91  1  0.89354727  0.10191608  0.11137292  1
  Ta  Ta92  1  0.29689981  0.49414408  0.60901094  1
  Ta  Ta93  1  0.60386130  0.60599651  0.50302854  1
  Ta  Ta94  1  0.80457437  0.19335317  0.73939523  1
  Ta  Ta95  1  0.50175667  0.50576718  0.13469021  1
  Ta  Ta96  1  0.49537870  0.70582941  0.13794232  1
  Ta  Ta97  1  0.70742161  0.50492888  0.36709956  1
  Ta  Ta98  1  -0.00482009  0.19436375  -0.00407380  1
  Ta  Ta99  1  -0.00561800  0.18354789  0.74728801  1
  Ta  Ta100  1  0.29975330  0.29924959  0.62384637  1
  Ta  Ta101  1  0.60892589  0.40305462  0.24914701  1
  Ta  Ta102  1  0.80027865  0.40553238  0.74276794  1
  Ta  Ta103  1  0.60306354  0.19468451  0.75383282  1
  Ta  Ta104  1  0.59905424  0.60684530  0.01710106  1
  Ta  Ta105  1  0.89883957  0.50479185  0.37644123  1
  Ta  Ta106  1  0.90170588  0.70903324  0.86877723  1
  Ta  Ta107  1  0.40119931  0.60367152  0.01673242  1
  Ta  Ta108  1  0.70488550  0.70443144  0.13782136  1
  Ta  Ta109  1  0.49312658  0.70424924  0.37074681  1
  Ta  Ta110  1  0.50042754  0.89314398  0.35743702  1
  Ta  Ta111  1  0.08847772  0.50647089  0.86623092  1
  Ta  Ta112  1  0.71206635  0.10850336  0.88742552  1
  Ta  Ta113  1  0.49397263  0.50290638  0.60303199  1
  Ta  Ta114  1  0.40114755  0.79580235  0.00065822  1
  Ta  Ta115  1  0.59955128  0.79909697  0.02051935  1
  Ta  Ta116  1  0.30509216  0.89589427  0.61937036  1
  Ta  Ta117  1  0.70874527  0.10081627  0.35956514  1
  Ta  Ta118  1  0.70590019  0.09484251  0.62184991  1
  Ta  Ta119  1  0.30206530  0.70206337  0.39149504  1
  Ti  Ti120  1  -0.00286903  0.60556882  -0.00890501  1
  Ti  Ti121  1  0.49260624  0.89636963  0.62042448  1
  Ti  Ti122  1  0.00130909  0.00829827  0.74756567  1
  Ti  Ti123  1  0.49115038  0.70751861  0.61273323  1
  Ti  Ti124  1  0.71195154  0.28848337  0.13840431  1
  Ti  Ti125  1  0.20051565  0.60369508  0.25153750  1
  Ti  Ti126  1  0.19612650  0.80969269  0.50575654  1
  Ti  Ti127  1  0.10246237  0.90441194  0.38125245  1
  Ti  Ti128  1  0.90646411  0.49882408  0.62313106  1
  Ti  Ti129  1  0.60903104  0.20169533  0.01070457  1
  Ti  Ti130  1  0.80905874  0.39923785  0.24548541  1
  Ti  Ti131  1  0.50791426  0.30356812  0.87665604  1
  Ti  Ti132  1  0.01800097  0.00885134  0.50999112  1
  Ti  Ti133  1  0.40202448  0.19373312  0.75104571  1
  Ti  Ti134  1  0.11083056  0.90988871  0.62480839  1
  Ti  Ti135  1  0.90304906  0.69766982  0.13054340  1
  Ti  Ti136  1  0.60059809  0.60365500  0.24749244  1
  Ti  Ti137  1  0.69507812  0.71039475  0.63637321  1
  Ti  Ti138  1  -0.00675861  0.19692143  0.24299885  1
  Ti  Ti139  1  0.18828625  0.58731565  0.50487801  1
  Ti  Ti140  1  0.28732663  0.28143554  0.36310407  1
  Ti  Ti141  1  0.30209083  0.89825482  0.89519198  1
  Ti  Ti142  1  0.79814056  0.79536004  0.51604008  1
  Ti  Ti143  1  0.00450801  0.60225612  0.26047172  1
  Ti  Ti144  1  0.59945455  0.80193986  0.23954699  1
  Ti  Ti145  1  0.79325451  0.79631271  0.00985572  1
  Ti  Ti146  1  -0.00282243  0.79269579  0.00416824  1
  Ti  Ti147  1  0.10268582  0.29450958  0.36764532  1
  Ti  Ti148  1  0.00392556  0.80468737  0.51092836  1
  Ti  Ti149  1  0.30114735  0.70558549  0.88326942  1
  Ti  Ti150  1  0.29056952  0.50981867  0.39354478  1
  Ti  Ti151  1  0.60263935  -0.00148130  0.48469775  1
  Ti  Ti152  1  0.69191459  0.49373562  0.62511464  1
  Ti  Ti153  1  0.09848212  0.09546428  0.12656580  1
  Ti  Ti154  1  0.39154494  -0.00367236  0.25653737  1
  Ti  Ti155  1  -0.00136769  0.60484084  0.74403011  1
  Ti  Ti156  1  0.89974543  0.50031092  0.86869031  1
  Ti  Ti157  1  0.20743596  0.79413281  0.25336358  1
  Ti  Ti158  1  0.71463992  0.09599488  0.12288819  1
  Ti  Ti159  1  0.10047398  0.69981409  0.61805625  1
  Mo  Mo160  1  0.19232618  0.19546062  0.25305702  1
  Mo  Mo161  1  0.59814250  0.40170877  0.74874462  1
  Mo  Mo162  1  0.29917351  0.70292421  0.12075099  1
  Mo  Mo163  1  0.89646366  0.70579873  0.62040155  1
  Mo  Mo164  1  0.49535203  0.89688298  0.89697693  1
  Mo  Mo165  1  0.58060692  0.80198563  0.73139180  1
  Mo  Mo166  1  0.80863285  0.80170063  0.73783777  1
  Mo  Mo167  1  0.39727684  0.79925369  0.25718026  1
  Mo  Mo168  1  0.89887214  0.29810669  0.12802685  1
  Mo  Mo169  1  0.10315924  0.50585157  0.37774401  1
  Mo  Mo170  1  -0.00727120  0.41156343  0.75801312  1
  Mo  Mo171  1  0.80551277  0.00393463  0.24927553  1
  Mo  Mo172  1  0.18923457  -0.01153042  0.23188943  1
  Mo  Mo173  1  0.79795855  0.20618931  0.01307677  1
  Mo  Mo174  1  0.39637056  0.19063879  0.26534524  1
  Mo  Mo175  1  0.89970568  0.10214254  0.89149232  1
  Mo  Mo176  1  0.19528749  0.39386377  0.49697461  1
  Mo  Mo177  1  0.08880894  0.09291792  0.87472967  1
  Mo  Mo178  1  0.79760584  0.00372793  -0.01202626  1
  Mo  Mo179  1  0.89804009  0.10129309  0.61041045  1
  Mo  Mo180  1  0.00227987  0.00674257  0.00789444  1
  Mo  Mo181  1  0.19983204  0.79774391  -0.01727873  1
  Mo  Mo182  1  0.39473679  -0.00431256  -0.00522356  1
  Mo  Mo183  1  0.80292730  0.19748425  0.51756598  1
  Mo  Mo184  1  0.10190882  0.30377420  0.63462353  1
  Mo  Mo185  1  0.29801869  0.50366606  0.12212531  1
  Mo  Mo186  1  0.08492349  0.69737251  0.87722492  1
  Mo  Mo187  1  0.29821260  0.09808231  0.36140716  1
  Mo  Mo188  1  0.60957973  0.19478561  0.23551106  1
  Mo  Mo189  1  0.40198496  0.20455299  -0.00401305  1
  Mo  Mo190  1  0.81010726  0.19501870  0.23425136  1
  Mo  Mo191  1  0.40059807  0.60047519  0.49700826  1
  Mo  Mo192  1  0.09825489  0.90178153  0.10623734  1
  Mo  Mo193  1  0.30100698  0.09329609  0.88821199  1
  Mo  Mo194  1  0.80421781  0.79960839  0.23596136  1
  Mo  Mo195  1  0.40312183  0.80294604  0.48612242  1
  Mo  Mo196  1  0.78387881  0.00516738  0.49382740  1
  Mo  Mo197  1  0.09846111  0.09288871  0.63567948  1
  Mo  Mo198  1  0.19742564  -0.00180203  0.51169852  1
  Mo  Mo199  1  0.70256935  0.89501972  0.12866149  1
