# generated using pymatgen
data_HfZrTaTiMo
_symmetry_space_group_name_H-M   'P 1'
_cell_length_a   15.92136311
_cell_length_b   15.92943888
_cell_length_c   15.19648106
_cell_angle_alpha   89.98970977
_cell_angle_beta   90.01854279
_cell_angle_gamma   89.97325020
_symmetry_Int_Tables_number   1
_chemical_formula_structural   HfZrTaTiMo
_chemical_formula_sum   'Hf40 Zr40 Ta40 Ti40 Mo40'
_cell_volume   3854.10623053
_cell_formula_units_Z   40
loop_
 _symmetry_equiv_pos_site_id
 _symmetry_equiv_pos_as_xyz
  1  'x, y, z'
loop_
 _atom_site_type_symbol
 _atom_site_label
 _atom_site_symmetry_multiplicity
 _atom_site_fract_x
 _atom_site_fract_y
 _atom_site_fract_z
 _atom_site_occupancy
  Hf  Hf0  1  -0.00419098  0.62133355  0.24076969  1
  Hf  Hf1  1  0.70576670  0.89086845  0.60919090  1
  Hf  Hf2  1  0.48860122  0.29507897  0.38198543  1
  Hf  Hf3  1  0.21192297  0.18551434  0.50261211  1
  Hf  Hf4  1  0.59461750  0.19143675  0.74874367  1
  Hf  Hf5  1  0.10911813  0.30580497  0.62800416  1
  Hf  Hf6  1  0.09889685  0.49879594  0.63899889  1
  Hf  Hf7  1  0.50176017  0.89933699  0.88733808  1
  Hf  Hf8  1  0.39709915  0.80016892  0.23848200  1
  Hf  Hf9  1  0.80923502  0.20396765  0.24451037  1
  Hf  Hf10  1  0.80142934  0.79330456  0.23139035  1
  Hf  Hf11  1  0.10892006  0.30288534  0.38097098  1
  Hf  Hf12  1  0.30417904  0.10215097  0.87269766  1
  Hf  Hf13  1  0.59314393  0.59957267  0.76733459  1
  Hf  Hf14  1  0.60164672  -0.00867947  0.74840454  1
  Hf  Hf15  1  0.70703212  0.49967833  0.13547597  1
  Hf  Hf16  1  0.80772553  0.19443621  -0.00365352  1
  Hf  Hf17  1  0.09057812  0.91399848  0.86696535  1
  Hf  Hf18  1  0.60167818  0.79762707  0.24685175  1
  Hf  Hf19  1  0.79444688  0.80893216  0.76479315  1
  Hf  Hf20  1  0.01220571  -0.00020838  0.49809293  1
  Hf  Hf21  1  0.71413990  0.89740026  0.38354457  1
  Hf  Hf22  1  0.60206814  0.20161219  0.25491265  1
  Hf  Hf23  1  0.69796708  0.09925310  0.11333623  1
  Hf  Hf24  1  0.49504660  0.69695020  0.60853249  1
  Hf  Hf25  1  0.58818301  0.80546449  0.48274676  1
  Hf  Hf26  1  0.89545895  0.50879314  0.36279494  1
  Hf  Hf27  1  0.20579995  -0.01122822  0.48935726  1
  Hf  Hf28  1  0.20075228  0.80578142  0.75422102  1
  Hf  Hf29  1  0.90262176  0.30928318  0.11324814  1
  Hf  Hf30  1  0.39117691  0.60393433  0.23697874  1
  Hf  Hf31  1  0.39341345  0.79733226  0.01191075  1
  Hf  Hf32  1  0.80196188  0.00142036  0.74895946  1
  Hf  Hf33  1  0.50419617  0.29915487  0.11081150  1
  Hf  Hf34  1  -0.00537466  0.20013471  0.73738530  1
  Hf  Hf35  1  -0.00062992  0.39508403  0.25387188  1
  Hf  Hf36  1  0.70822777  0.50991107  0.36832590  1
  Hf  Hf37  1  0.00599810  0.19752776  0.24727488  1
  Hf  Hf38  1  0.29029644  0.47938529  0.11379830  1
  Hf  Hf39  1  0.70896580  0.10219347  0.38096177  1
  Zr  Zr40  1  0.39220471  0.00000250  0.51090506  1
  Zr  Zr41  1  0.30290290  0.70562629  0.61934352  1
  Zr  Zr42  1  0.39971554  0.00315905  0.74051440  1
  Zr  Zr43  1  0.00661692  0.19644536  0.50903520  1
  Zr  Zr44  1  -0.00732585  0.80209905  -0.00357090  1
  Zr  Zr45  1  -0.00730446  0.00997974  0.01687362  1
  Zr  Zr46  1  0.00717869  0.80151504  0.51318603  1
  Zr  Zr47  1  0.50564997  0.49204470  0.12105702  1
  Zr  Zr48  1  0.00689586  0.00391191  0.25541886  1
  Zr  Zr49  1  0.88817899  0.70067807  0.62916688  1
  Zr  Zr50  1  0.90477415  0.88990785  0.37685881  1
  Zr  Zr51  1  0.11259423  0.07919554  0.64587715  1
  Zr  Zr52  1  0.29089098  0.49399925  0.36356527  1
  Zr  Zr53  1  0.59874542  0.19700794  0.50482813  1
  Zr  Zr54  1  0.69552224  0.70879462  0.88517672  1
  Zr  Zr55  1  0.29540362  0.71362233  0.38823638  1
  Zr  Zr56  1  0.90668652  0.09304126  0.87418462  1
  Zr  Zr57  1  0.40343430  0.79897084  0.75730895  1
  Zr  Zr58  1  0.50417785  0.29876946  0.88835319  1
  Zr  Zr59  1  0.09083447  0.69895246  0.38382232  1
  Zr  Zr60  1  0.60220530  -0.00676652  0.25092992  1
  Zr  Zr61  1  0.18900123  0.20555239  0.00204916  1
  Zr  Zr62  1  0.89816482  0.50161781  0.12005429  1
  Zr  Zr63  1  0.19077977  0.59797207  0.50881847  1
  Zr  Zr64  1  0.10398810  0.50476727  0.13523203  1
  Zr  Zr65  1  0.69870921  0.30962137  0.11337769  1
  Zr  Zr66  1  0.60395412  0.40839443  0.49402337  1
  Zr  Zr67  1  0.10382986  0.90375248  0.12233746  1
  Zr  Zr68  1  0.18192420  0.59853876  -0.01767538  1
  Zr  Zr69  1  0.69157188  0.69153218  0.61393288  1
  Zr  Zr70  1  0.81177264  -0.00021159  0.23160190  1
  Zr  Zr71  1  0.50413831  0.50437086  0.62132706  1
  Zr  Zr72  1  0.70062039  0.31609743  0.63390359  1
  Zr  Zr73  1  0.49086141  0.30703641  0.62792322  1
  Zr  Zr74  1  0.19226579  0.78270500  0.23192567  1
  Zr  Zr75  1  0.58746827  0.00478441  0.50258030  1
  Zr  Zr76  1  0.30679792  0.49349957  0.63331311  1
  Zr  Zr77  1  0.30219194  0.30305188  0.88964382  1
  Zr  Zr78  1  0.80127296  0.20470184  0.74463071  1
  Zr  Zr79  1  0.49400834  0.49933777  0.36804091  1
  Ta  Ta80  1  0.30031213  0.69944942  0.88162055  1
  Ta  Ta81  1  0.01566702  0.39831467  -0.01099803  1
  Ta  Ta82  1  0.71288415  0.30704578  0.37865611  1
  Ta  Ta83  1  0.09680033  0.50265962  0.36940097  1
  Ta  Ta84  1  0.50791043  0.69467871  0.11312052  1
  Ta  Ta85  1  0.60048085  0.39429197  0.26075509  1
  Ta  Ta86  1  0.80015781  0.59682296  -0.01344379  1
  Ta  Ta87  1  0.49957082  0.10137829  0.88810475  1
  Ta  Ta88  1  0.39161208  0.38246696  0.23883028  1
  Ta  Ta89  1  0.39960750  0.59494566  0.00007025  1
  Ta  Ta90  1  0.39828974  0.00332603  0.00899981  1
  Ta  Ta91  1  0.89905312  0.30368993  0.38559555  1
  Ta  Ta92  1  -0.00079491  0.40688395  0.50486100  1
  Ta  Ta93  1  0.90293439  0.10566479  0.38640067  1
  Ta  Ta94  1  0.40731955  0.40496898  0.76792969  1
  Ta  Ta95  1  0.60404650  0.58879551  -0.00690879  1
  Ta  Ta96  1  0.70714674  0.69595066  0.38414307  1
  Ta  Ta97  1  0.19979946  0.60369915  0.76155665  1
  Ta  Ta98  1  0.29724356  0.90384132  0.88970061  1
  Ta  Ta99  1  0.30140639  0.49835401  0.88131893  1
  Ta  Ta100  1  0.20954496  0.20397532  0.25155562  1
  Ta  Ta101  1  0.29607931  0.90735536  0.12257660  1
  Ta  Ta102  1  0.90576547  0.30563055  0.87832911  1
  Ta  Ta103  1  0.69474530  0.09458959  0.88440067  1
  Ta  Ta104  1  0.09679344  0.70018059  0.63790625  1
  Ta  Ta105  1  0.49607260  0.69667268  0.37749318  1
  Ta  Ta106  1  0.89884348  0.70020594  0.87515670  1
  Ta  Ta107  1  0.81301480  0.41184549  0.50940893  1
  Ta  Ta108  1  0.49868840  0.70027792  0.89455482  1
  Ta  Ta109  1  0.20657870  0.00388339  0.25940675  1
  Ta  Ta110  1  -0.00283844  0.60166451  0.75660856  1
  Ta  Ta111  1  0.50149530  0.10016216  0.12065850  1
  Ta  Ta112  1  0.19173209  0.79668916  -0.00706569  1
  Ta  Ta113  1  0.79778265  0.59207065  0.76209005  1
  Ta  Ta114  1  0.20805318  0.20343279  0.75017842  1
  Ta  Ta115  1  -0.01317808  0.58966951  0.51549558  1
  Ta  Ta116  1  0.10144573  0.10492129  0.86406300  1
  Ta  Ta117  1  0.50115512  0.90340615  0.12145706  1
  Ta  Ta118  1  0.80678718  0.20599462  0.51429542  1
  Ta  Ta119  1  0.48791242  0.09859589  0.35994900  1
  Ti  Ti120  1  -0.00565972  0.80339688  0.23185414  1
  Ti  Ti121  1  0.39638668  0.59153524  0.49113108  1
  Ti  Ti122  1  0.60148770  0.60741840  0.24980946  1
  Ti  Ti123  1  0.39728053  0.19858355  0.23730602  1
  Ti  Ti124  1  0.90174241  0.49606518  0.86901267  1
  Ti  Ti125  1  0.09519130  0.48955567  0.85978827  1
  Ti  Ti126  1  0.88539397  0.69614846  0.38960788  1
  Ti  Ti127  1  0.29809073  0.09863664  0.12758226  1
  Ti  Ti128  1  -0.00071465  0.59987878  -0.01556370  1
  Ti  Ti129  1  0.30718353  0.30063919  0.63031035  1
  Ti  Ti130  1  0.70655286  0.50589326  0.63086845  1
  Ti  Ti131  1  0.90561538  0.90418579  0.62797844  1
  Ti  Ti132  1  0.60428101  0.41005801  0.76816211  1
  Ti  Ti133  1  0.28386800  0.68554015  0.11082269  1
  Ti  Ti134  1  0.11978749  0.31475864  0.13062385  1
  Ti  Ti135  1  0.47645166  0.90515171  0.36469058  1
  Ti  Ti136  1  0.39542086  0.19651720  0.01446953  1
  Ti  Ti137  1  0.89354539  0.69729337  0.10245484  1
  Ti  Ti138  1  0.40049167  0.18741573  0.51773054  1
  Ti  Ti139  1  0.19890129  0.00641301  -0.00261885  1
  Ti  Ti140  1  0.30680435  0.29655651  0.38318181  1
  Ti  Ti141  1  0.70260407  0.09682918  0.62098218  1
  Ti  Ti142  1  0.11466987  0.88585969  0.36729652  1
  Ti  Ti143  1  0.31176948  0.09765461  0.36340618  1
  Ti  Ti144  1  0.81328935  0.00567872  0.50840347  1
  Ti  Ti145  1  0.70213066  0.30014947  0.87621887  1
  Ti  Ti146  1  0.60230389  -0.00379221  0.00222222  1
  Ti  Ti147  1  0.59643143  0.80092833  0.75254956  1
  Ti  Ti148  1  0.49138927  0.88936778  0.62088319  1
  Ti  Ti149  1  0.40095853  0.59916303  0.76769442  1
  Ti  Ti150  1  0.10838250  0.10435579  0.13187173  1
  Ti  Ti151  1  0.79794682  0.40692728  -0.02095994  1
  Ti  Ti152  1  -0.00503539  0.80433262  0.75368847  1
  Ti  Ti153  1  0.00844734  0.20619131  0.00129451  1
  Ti  Ti154  1  0.60827715  0.80598238  0.01161943  1
  Ti  Ti155  1  0.20639821  0.40091656  0.50109176  1
  Ti  Ti156  1  -0.01498843  0.39591968  0.74246658  1
  Ti  Ti157  1  0.20563972  0.39688054  0.76226346  1
  Ti  Ti158  1  0.70141965  0.69251527  0.11379551  1
  Ti  Ti159  1  0.80154748  -0.02002726  0.00042512  1
  Mo  Mo160  1  0.89907004  0.09549498  0.61550787  1
  Mo  Mo161  1  0.50156381  0.10169717  0.63548442  1
  Mo  Mo162  1  0.60348540  0.19301410  -0.00899799  1
  Mo  Mo163  1  0.19004503  0.39939114  -0.01999667  1
  Mo  Mo164  1  0.79875324  0.80013758  0.00364968  1
  Mo  Mo165  1  0.90324066  0.30649899  0.61396620  1
  Mo  Mo166  1  0.79717499  0.61185352  0.23530988  1
  Mo  Mo167  1  -0.00440521  -0.00675076  0.73867451  1
  Mo  Mo168  1  0.09319777  0.70216381  0.85976140  1
  Mo  Mo169  1  0.39939860  0.20423130  0.74300307  1
  Mo  Mo170  1  0.09175184  0.69779894  0.11274827  1
  Mo  Mo171  1  0.80170807  0.80137637  0.50214596  1
  Mo  Mo172  1  0.80297216  0.40345773  0.75758670  1
  Mo  Mo173  1  0.90271823  0.10735434  0.11596163  1
  Mo  Mo174  1  0.70228204  0.49607897  0.87232821  1
  Mo  Mo175  1  0.89577114  0.49865314  0.64301314  1
  Mo  Mo176  1  0.19443900  0.59728034  0.24679633  1
  Mo  Mo177  1  0.20143736  0.38975557  0.26236600  1
  Mo  Mo178  1  0.39781751  0.00445136  0.23075134  1
  Mo  Mo179  1  0.39943551  0.40070940  0.00171992  1
  Mo  Mo180  1  0.89592401  0.89831261  0.86807792  1
  Mo  Mo181  1  0.49753402  0.49965962  0.88684806  1
  Mo  Mo182  1  0.59796009  0.60334178  0.48483876  1
  Mo  Mo183  1  0.39476426  0.80998640  0.48903269  1
  Mo  Mo184  1  0.60971187  0.40242849  -0.01451239  1
  Mo  Mo185  1  0.80110679  0.39769857  0.26196994  1
  Mo  Mo186  1  0.19966760  0.81120542  0.52125794  1
  Mo  Mo187  1  0.29986040  0.90048459  0.35395296  1
  Mo  Mo188  1  0.69895459  0.89630727  0.11209178  1
  Mo  Mo189  1  0.20489055  -0.00037998  0.76889679  1
  Mo  Mo190  1  0.89827606  0.89720697  0.12940835  1
  Mo  Mo191  1  0.80023282  0.59609490  0.51030072  1
  Mo  Mo192  1  0.38881970  0.39396641  0.49596145  1
  Mo  Mo193  1  0.10095003  0.89458387  0.64001631  1
  Mo  Mo194  1  0.69683474  0.90761928  0.89048139  1
  Mo  Mo195  1  0.10963007  0.10249987  0.36497476  1
  Mo  Mo196  1  0.09301431  0.30078661  0.85636911  1
  Mo  Mo197  1  0.30172062  0.10606260  0.64068858  1
  Mo  Mo198  1  0.29963427  0.29453726  0.11923366  1
  Mo  Mo199  1  0.28966521  0.90355196  0.63264035  1
