# generated using pymatgen
data_HfZrTaTiMo
_symmetry_space_group_name_H-M   'P 1'
_cell_length_a   15.92513901
_cell_length_b   15.93460390
_cell_length_c   15.20129167
_cell_angle_alpha   90.00519618
_cell_angle_beta   90.07393729
_cell_angle_gamma   90.13374005
_symmetry_Int_Tables_number   1
_chemical_formula_structural   HfZrTaTiMo
_chemical_formula_sum   'Hf40 Zr40 Ta40 Ti40 Mo40'
_cell_volume   3857.47792695
_cell_formula_units_Z   40
loop_
 _symmetry_equiv_pos_site_id
 _symmetry_equiv_pos_as_xyz
  1  'x, y, z'
loop_
 _atom_site_type_symbol
 _atom_site_label
 _atom_site_symmetry_multiplicity
 _atom_site_fract_x
 _atom_site_fract_y
 _atom_site_fract_z
 _atom_site_occupancy
  Hf  Hf0  1  -0.00634953  0.38961198  0.76502824  1
  Hf  Hf1  1  0.59907883  0.60818774  0.49338411  1
  Hf  Hf2  1  0.90480376  0.69719630  0.11550039  1
  Hf  Hf3  1  0.59770995  -0.00901600  0.75733278  1
  Hf  Hf4  1  0.30163116  0.90056543  0.36259576  1
  Hf  Hf5  1  0.00060499  0.79463028  0.26426934  1
  Hf  Hf6  1  -0.00179526  -0.00018900  0.74649524  1
  Hf  Hf7  1  0.10778386  0.49492217  0.87859966  1
  Hf  Hf8  1  -0.00072814  -0.00024417  0.24776040  1
  Hf  Hf9  1  0.89650241  0.89427931  0.38822789  1
  Hf  Hf10  1  0.80018048  -0.00476935  0.24294355  1
  Hf  Hf11  1  0.60136726  0.41650581  0.75045217  1
  Hf  Hf12  1  0.10234173  0.49739264  0.62150480  1
  Hf  Hf13  1  0.30202250  0.30247119  0.36332817  1
  Hf  Hf14  1  0.59270800  0.00054504  -0.00224393  1
  Hf  Hf15  1  0.49016057  0.90469610  0.36661982  1
  Hf  Hf16  1  0.90698959  0.09907087  0.38889363  1
  Hf  Hf17  1  0.10832826  0.29469726  0.88405972  1
  Hf  Hf18  1  0.70785039  0.30191740  0.36580829  1
  Hf  Hf19  1  0.41225872  0.62128459  0.01776749  1
  Hf  Hf20  1  0.59690153  0.79213963  0.50071503  1
  Hf  Hf21  1  0.48828265  0.90264488  0.12212859  1
  Hf  Hf22  1  0.81465945  0.20614156  0.73852630  1
  Hf  Hf23  1  0.20795704  0.00033586  0.51446205  1
  Hf  Hf24  1  0.78547556  0.59837262  0.74048156  1
  Hf  Hf25  1  0.70576741  0.11942340  0.87493501  1
  Hf  Hf26  1  0.59815937  0.19955252  0.49374549  1
  Hf  Hf27  1  0.19532422  -0.00402791  0.23524075  1
  Hf  Hf28  1  0.49167216  0.31355689  0.61396424  1
  Hf  Hf29  1  0.71226579  0.49625220  0.35946325  1
  Hf  Hf30  1  0.30546692  0.70316288  0.86740807  1
  Hf  Hf31  1  0.80591773  -0.00693125  0.74796309  1
  Hf  Hf32  1  0.49994965  0.49274291  0.13262851  1
  Hf  Hf33  1  0.39065872  -0.00102541  0.76031095  1
  Hf  Hf34  1  0.58836549  -0.00076674  0.50808923  1
  Hf  Hf35  1  0.32278534  0.69665444  0.64358307  1
  Hf  Hf36  1  0.20441494  0.60359250  0.01464094  1
  Hf  Hf37  1  0.30493079  0.48907156  0.60878409  1
  Hf  Hf38  1  0.10944856  0.71608191  0.64464838  1
  Hf  Hf39  1  0.69238404  0.51199448  0.89753977  1
  Zr  Zr40  1  0.59959246  0.80242956  0.25024960  1
  Zr  Zr41  1  0.30645886  0.49861877  0.88832883  1
  Zr  Zr42  1  0.69246965  0.88338129  0.87528563  1
  Zr  Zr43  1  0.40174279  0.40612354  0.76041989  1
  Zr  Zr44  1  0.00765432  0.40616056  0.25167225  1
  Zr  Zr45  1  0.48802680  0.49698864  0.36908457  1
  Zr  Zr46  1  0.89913895  0.89616489  0.10943355  1
  Zr  Zr47  1  0.80763254  -0.00509105  0.52667539  1
  Zr  Zr48  1  0.60631201  0.21141518  0.00947451  1
  Zr  Zr49  1  0.79653683  0.39871026  0.77107723  1
  Zr  Zr50  1  0.90780792  0.10481809  0.88722653  1
  Zr  Zr51  1  0.49491137  0.10271276  0.63983334  1
  Zr  Zr52  1  0.70972526  0.31821362  0.61203948  1
  Zr  Zr53  1  0.48827805  0.51425968  0.60691790  1
  Zr  Zr54  1  -0.00644735  0.59782002  0.75313206  1
  Zr  Zr55  1  0.69743842  0.10366305  0.63480665  1
  Zr  Zr56  1  0.20950070  0.42324293  0.23526421  1
  Zr  Zr57  1  0.79815318  0.59660555  0.51178989  1
  Zr  Zr58  1  0.79534791  -0.00235908  -0.00878291  1
  Zr  Zr59  1  0.70192673  0.89838003  0.38070519  1
  Zr  Zr60  1  0.39771443  0.18887907  0.50221079  1
  Zr  Zr61  1  0.59505590  0.60760087  0.24978940  1
  Zr  Zr62  1  0.90060325  0.50346510  0.12129617  1
  Zr  Zr63  1  0.30919683  0.30116550  0.12845813  1
  Zr  Zr64  1  0.60468469  0.19018506  0.24574674  1
  Zr  Zr65  1  0.19376580  0.00046133  0.75237490  1
  Zr  Zr66  1  0.09911878  0.30523422  0.61893582  1
  Zr  Zr67  1  0.21353452  0.20193392  0.51201959  1
  Zr  Zr68  1  0.11330431  0.51362362  0.38323282  1
  Zr  Zr69  1  0.70435240  0.49837714  0.12967752  1
  Zr  Zr70  1  0.89554005  0.47847024  0.61834835  1
  Zr  Zr71  1  0.10705358  0.10378645  0.38206875  1
  Zr  Zr72  1  -0.00398865  0.61851701  0.50164170  1
  Zr  Zr73  1  0.89999436  0.30579035  0.37563805  1
  Zr  Zr74  1  0.70314042  0.09225501  0.37389648  1
  Zr  Zr75  1  0.49663699  0.10826788  0.87605639  1
  Zr  Zr76  1  0.00739240  0.20267878  0.24402409  1
  Zr  Zr77  1  0.08912720  0.89289683  0.10499810  1
  Zr  Zr78  1  0.48151514  0.88523406  0.62694287  1
  Zr  Zr79  1  0.19710142  0.80034165  0.49339039  1
  Ta  Ta80  1  0.28962381  0.88361778  0.64381333  1
  Ta  Ta81  1  0.58456835  0.77970437  0.01232833  1
  Ta  Ta82  1  0.09816934  0.10031007  0.10689951  1
  Ta  Ta83  1  0.49708775  0.29844056  0.36210866  1
  Ta  Ta84  1  0.80645413  0.19861277  0.50778460  1
  Ta  Ta85  1  0.80794243  0.78337938  0.51786873  1
  Ta  Ta86  1  0.10219584  0.30756277  0.11092271  1
  Ta  Ta87  1  0.38839920  0.21234973  0.75090897  1
  Ta  Ta88  1  0.09282325  0.10665040  0.62223085  1
  Ta  Ta89  1  0.70411306  0.09614974  0.12259757  1
  Ta  Ta90  1  0.60342298  0.40629730  0.48691254  1
  Ta  Ta91  1  0.00034557  0.80251996  0.76272585  1
  Ta  Ta92  1  0.79370954  0.38939522  0.00112102  1
  Ta  Ta93  1  0.49102984  0.09054339  0.35596432  1
  Ta  Ta94  1  0.69336692  0.89446544  0.11937340  1
  Ta  Ta95  1  0.20657683  0.61188834  0.51260911  1
  Ta  Ta96  1  0.20907353  0.38990320  0.74699155  1
  Ta  Ta97  1  0.50153072  0.30468516  0.14420230  1
  Ta  Ta98  1  0.20649352  0.20004441  0.00857784  1
  Ta  Ta99  1  0.37564020  0.59197906  0.23543704  1
  Ta  Ta100  1  0.09808840  0.89740289  0.88523815  1
  Ta  Ta101  1  0.30751043  0.09366132  0.11939915  1
  Ta  Ta102  1  0.20756237  0.59178170  0.74723715  1
  Ta  Ta103  1  0.79147582  0.79111198  -0.00274232  1
  Ta  Ta104  1  0.20271655  -0.00001579  -0.00328760  1
  Ta  Ta105  1  0.19341655  0.78837846  -0.00239528  1
  Ta  Ta106  1  0.70583510  0.69360921  0.12276115  1
  Ta  Ta107  1  0.00883201  0.61295913  -0.01513604  1
  Ta  Ta108  1  0.19144520  0.79221395  0.23844389  1
  Ta  Ta109  1  0.10301990  0.10290370  0.88555698  1
  Ta  Ta110  1  0.30688878  0.09755945  0.35107993  1
  Ta  Ta111  1  0.59702462  0.78740561  0.74127701  1
  Ta  Ta112  1  0.29803905  0.10856427  0.88334066  1
  Ta  Ta113  1  0.28591134  0.69012548  0.35924146  1
  Ta  Ta114  1  0.89039783  0.70063035  0.87415214  1
  Ta  Ta115  1  0.71871443  0.70042387  0.36792182  1
  Ta  Ta116  1  0.29925787  0.89483526  0.10848012  1
  Ta  Ta117  1  0.90207551  0.10216022  0.11140522  1
  Ta  Ta118  1  0.49919935  0.30758757  0.88076125  1
  Ta  Ta119  1  0.59915759  0.22324120  0.75386565  1
  Ti  Ti120  1  0.49017240  0.88586420  0.88557077  1
  Ti  Ti121  1  0.50180177  0.69677049  0.86373589  1
  Ti  Ti122  1  0.00088468  0.20553658  0.00669265  1
  Ti  Ti123  1  0.30113572  0.50144922  0.39018535  1
  Ti  Ti124  1  0.89909762  0.30237613  0.12240137  1
  Ti  Ti125  1  0.70465266  0.30606685  0.14225197  1
  Ti  Ti126  1  0.00287349  0.40421323  0.48498915  1
  Ti  Ti127  1  0.91376924  0.29328758  0.60497242  1
  Ti  Ti128  1  0.19766804  0.19863046  0.23479932  1
  Ti  Ti129  1  0.38891067  0.79186700  0.23530425  1
  Ti  Ti130  1  0.29951641  0.30042895  0.88978306  1
  Ti  Ti131  1  0.30012898  0.89740139  0.88801687  1
  Ti  Ti132  1  0.90117241  0.89289665  0.88218954  1
  Ti  Ti133  1  0.89339748  0.50635529  0.89245676  1
  Ti  Ti134  1  0.38841027  0.00092542  0.51105350  1
  Ti  Ti135  1  0.40650272  0.20232151  0.00513111  1
  Ti  Ti136  1  0.09374232  0.50484315  0.11347366  1
  Ti  Ti137  1  0.50495551  0.51284384  0.88839425  1
  Ti  Ti138  1  0.89093699  0.29058069  0.89376183  1
  Ti  Ti139  1  0.89695983  0.50795084  0.36545008  1
  Ti  Ti140  1  0.69715846  0.89002896  0.62800404  1
  Ti  Ti141  1  0.59645742  0.60371753  0.73173514  1
  Ti  Ti142  1  0.20512419  0.20004898  0.74474868  1
  Ti  Ti143  1  -0.00277952  0.40036863  -0.00448890  1
  Ti  Ti144  1  0.68987985  0.69372673  0.88296898  1
  Ti  Ti145  1  0.11006078  0.30323083  0.38211259  1
  Ti  Ti146  1  0.39144733  0.78902314  0.49238251  1
  Ti  Ti147  1  0.00946591  0.60873573  0.25517318  1
  Ti  Ti148  1  0.00404352  0.19890839  0.75106339  1
  Ti  Ti149  1  0.47961207  0.69887964  0.36314080  1
  Ti  Ti150  1  0.81055676  0.19533916  0.23986005  1
  Ti  Ti151  1  0.91246998  0.88393427  0.62694542  1
  Ti  Ti152  1  0.00851284  -0.00727791  0.51594932  1
  Ti  Ti153  1  0.49428883  0.09655271  0.13303244  1
  Ti  Ti154  1  0.80349226  0.79543055  0.24282761  1
  Ti  Ti155  1  0.00316590  0.79598548  0.49899296  1
  Ti  Ti156  1  0.79833110  0.79202175  0.74314431  1
  Ti  Ti157  1  0.10038662  0.90296888  0.37850406  1
  Ti  Ti158  1  0.40524553  0.39900159  0.00287002  1
  Ti  Ti159  1  0.59822693  0.39591045  0.00198984  1
  Mo  Mo160  1  0.19140310  0.60545809  0.23036474  1
  Mo  Mo161  1  0.09192462  0.69704504  0.12684273  1
  Mo  Mo162  1  0.29664401  0.09592159  0.64873519  1
  Mo  Mo163  1  0.59852454  -0.00040487  0.23253514  1
  Mo  Mo164  1  0.39863160  0.40212297  0.25684735  1
  Mo  Mo165  1  0.39471122  0.00393431  -0.00731923  1
  Mo  Mo166  1  0.39099659  0.61372793  0.47971427  1
  Mo  Mo167  1  0.10274305  0.70303495  0.37306303  1
  Mo  Mo168  1  0.69062713  0.50041424  0.61069828  1
  Mo  Mo169  1  0.00208494  0.00236191  -0.01050139  1
  Mo  Mo170  1  0.89807215  0.69894278  0.36870464  1
  Mo  Mo171  1  0.69654623  0.70277815  0.62617981  1
  Mo  Mo172  1  0.41276372  0.59625698  0.76380203  1
  Mo  Mo173  1  0.49543517  0.70256010  0.14494596  1
  Mo  Mo174  1  0.40033942  0.19471710  0.24349076  1
  Mo  Mo175  1  0.40343317  0.80469558  0.77027071  1
  Mo  Mo176  1  0.80592089  0.40080434  0.49147005  1
  Mo  Mo177  1  0.80179519  0.60280525  -0.00864118  1
  Mo  Mo178  1  0.29372860  0.70680686  0.13090031  1
  Mo  Mo179  1  0.00534899  0.20120210  0.49494291  1
  Mo  Mo180  1  0.59827918  0.60557083  0.01443606  1
  Mo  Mo181  1  0.90268506  0.70521316  0.64956214  1
  Mo  Mo182  1  0.69633610  0.30628156  0.87684436  1
  Mo  Mo183  1  0.39447758  -0.00500125  0.23573257  1
  Mo  Mo184  1  0.10519551  0.69684441  0.86073251  1
  Mo  Mo185  1  -0.00338874  0.79336861  -0.02317881  1
  Mo  Mo186  1  0.09597879  0.89921207  0.62525561  1
  Mo  Mo187  1  0.40013238  0.39355704  0.47978618  1
  Mo  Mo188  1  0.20212874  0.40287829  0.49675648  1
  Mo  Mo189  1  0.81184048  0.60798799  0.25386152  1
  Mo  Mo190  1  0.80120754  0.20825750  0.01990892  1
  Mo  Mo191  1  0.20065268  0.39881417  0.00959085  1
  Mo  Mo192  1  0.60174301  0.39507978  0.25788757  1
  Mo  Mo193  1  0.19957080  0.80219522  0.76918500  1
  Mo  Mo194  1  0.91132888  0.10554822  0.61774354  1
  Mo  Mo195  1  0.30438869  0.49880218  0.10881371  1
  Mo  Mo196  1  0.30135868  0.30108284  0.62555585  1
  Mo  Mo197  1  0.80880717  0.39848324  0.23475153  1
  Mo  Mo198  1  0.49667552  0.70012426  0.63078297  1
  Mo  Mo199  1  0.39666795  0.80218374  -0.00357042  1
