# generated using pymatgen
data_HfZrTaTiMo
_symmetry_space_group_name_H-M   'P 1'
_cell_length_a   15.92730313
_cell_length_b   15.93298806
_cell_length_c   15.20570412
_cell_angle_alpha   90.04858766
_cell_angle_beta   90.01313635
_cell_angle_gamma   89.97361768
_symmetry_Int_Tables_number   1
_chemical_formula_structural   HfZrTaTiMo
_chemical_formula_sum   'Hf40 Zr40 Ta40 Ti40 Mo40'
_cell_volume   3858.74249851
_cell_formula_units_Z   40
loop_
 _symmetry_equiv_pos_site_id
 _symmetry_equiv_pos_as_xyz
  1  'x, y, z'
loop_
 _atom_site_type_symbol
 _atom_site_label
 _atom_site_symmetry_multiplicity
 _atom_site_fract_x
 _atom_site_fract_y
 _atom_site_fract_z
 _atom_site_occupancy
  Hf  Hf0  1  0.59367299  0.79928041  0.24253152  1
  Hf  Hf1  1  0.90838716  0.10310684  0.35357908  1
  Hf  Hf2  1  0.62561178  0.60219643  0.72648226  1
  Hf  Hf3  1  0.81682506  0.41651623  0.02053990  1
  Hf  Hf4  1  0.50275601  0.10705502  0.63893864  1
  Hf  Hf5  1  0.69453341  0.70396105  0.38275612  1
  Hf  Hf6  1  0.28947989  0.08627600  0.37829981  1
  Hf  Hf7  1  0.19311076  0.60483171  0.26924081  1
  Hf  Hf8  1  0.20469134  0.40364608  -0.00406293  1
  Hf  Hf9  1  0.80482060  -0.00969665  -0.00966414  1
  Hf  Hf10  1  0.59519033  -0.00607628  0.00163117  1
  Hf  Hf11  1  0.49259705  0.30508329  0.63696754  1
  Hf  Hf12  1  -0.01036054  -0.00645285  0.50604132  1
  Hf  Hf13  1  0.09153314  0.70880998  0.11244089  1
  Hf  Hf14  1  0.49568689  0.30491409  0.12649688  1
  Hf  Hf15  1  0.19828886  0.39298445  0.25499023  1
  Hf  Hf16  1  0.09794276  0.69505291  0.87044488  1
  Hf  Hf17  1  0.59815909  -0.00138036  0.24630179  1
  Hf  Hf18  1  0.30897959  0.48911327  0.61873978  1
  Hf  Hf19  1  0.20250116  0.00011113  -0.01111081  1
  Hf  Hf20  1  0.19873215  0.80832756  0.74269897  1
  Hf  Hf21  1  0.30155745  0.68606870  0.13482167  1
  Hf  Hf22  1  0.60777181  0.79974972  0.72798641  1
  Hf  Hf23  1  0.81100262  0.81321666  0.50059084  1
  Hf  Hf24  1  0.08753280  0.29943165  0.89002934  1
  Hf  Hf25  1  0.40794689  0.80470822  0.72545310  1
  Hf  Hf26  1  0.79934216  0.60348717  0.51334945  1
  Hf  Hf27  1  0.51629689  0.69795176  0.86945307  1
  Hf  Hf28  1  0.90315693  0.49115383  0.86286044  1
  Hf  Hf29  1  0.49240449  0.30989306  0.87290809  1
  Hf  Hf30  1  0.41159578  0.79210207  0.01771291  1
  Hf  Hf31  1  0.49216846  0.90551574  0.38521084  1
  Hf  Hf32  1  0.00611693  -0.00039056  0.23023799  1
  Hf  Hf33  1  0.10451379  0.50234118  0.12343554  1
  Hf  Hf34  1  0.80200109  0.80410051  0.25186761  1
  Hf  Hf35  1  0.59271907  0.20360660  -0.00501386  1
  Hf  Hf36  1  0.41110401  0.19263034  0.48225370  1
  Hf  Hf37  1  0.70115420  0.30422854  0.12017496  1
  Hf  Hf38  1  0.39773166  0.79796079  0.25049607  1
  Hf  Hf39  1  0.29888233  0.68464927  0.62002635  1
  Zr  Zr40  1  0.60654989  0.20525858  0.49116154  1
  Zr  Zr41  1  0.70835174  0.91732674  0.62209209  1
  Zr  Zr42  1  0.10424536  0.69466728  0.62952743  1
  Zr  Zr43  1  -0.01117064  0.18924831  0.51100355  1
  Zr  Zr44  1  0.90437634  0.11022041  0.87342187  1
  Zr  Zr45  1  0.39190861  0.19732168  0.25695233  1
  Zr  Zr46  1  0.69010998  0.31129841  0.63746247  1
  Zr  Zr47  1  -0.00820847  0.39365733  0.50431420  1
  Zr  Zr48  1  0.21012370  0.59641249  -0.01115624  1
  Zr  Zr49  1  0.80252784  0.01346639  0.48731044  1
  Zr  Zr50  1  0.71012175  0.52969063  0.89117685  1
  Zr  Zr51  1  0.31188729  0.89733435  0.87739095  1
  Zr  Zr52  1  0.19945152  0.39403069  0.49862160  1
  Zr  Zr53  1  0.70612238  0.10352725  0.11723978  1
  Zr  Zr54  1  0.59717302  -0.00440806  0.75524283  1
  Zr  Zr55  1  0.59858995  0.01771330  0.49152443  1
  Zr  Zr56  1  0.42070625  0.58571977  0.74514300  1
  Zr  Zr57  1  0.78995461  0.59293213  0.24389699  1
  Zr  Zr58  1  -0.01398648  0.58666607  0.00586853  1
  Zr  Zr59  1  0.89041057  0.49099857  0.62824141  1
  Zr  Zr60  1  0.39850590  0.40056139  0.26991010  1
  Zr  Zr61  1  0.19475167  0.80351109  0.25583208  1
  Zr  Zr62  1  0.49190374  0.51368478  0.13956159  1
  Zr  Zr63  1  0.19612618  -0.00404630  0.75622619  1
  Zr  Zr64  1  0.88611204  0.68713763  0.86796513  1
  Zr  Zr65  1  0.70122678  0.10737649  0.87543689  1
  Zr  Zr66  1  0.90542842  0.70174947  0.37544424  1
  Zr  Zr67  1  0.91080051  0.88479110  0.11599271  1
  Zr  Zr68  1  0.09329278  0.28297232  0.38162028  1
  Zr  Zr69  1  0.50395216  0.89308730  0.87922493  1
  Zr  Zr70  1  0.09797042  0.90650098  0.38013859  1
  Zr  Zr71  1  0.28909121  0.10181409  0.12493022  1
  Zr  Zr72  1  0.20311315  0.39398955  0.75131583  1
  Zr  Zr73  1  0.00143836  0.39989064  0.24052547  1
  Zr  Zr74  1  0.30318648  0.09893912  0.62004290  1
  Zr  Zr75  1  0.20152072  0.19242912  0.76030985  1
  Zr  Zr76  1  0.88266600  0.28736195  0.64363278  1
  Zr  Zr77  1  0.40455628  0.59313441  -0.01019058  1
  Zr  Zr78  1  0.79414655  0.20414270  0.48703308  1
  Zr  Zr79  1  0.61382095  0.41536158  0.26012522  1
  Ta  Ta80  1  0.89917434  0.49886303  0.37473858  1
  Ta  Ta81  1  0.39592985  -0.00879396  0.24089230  1
  Ta  Ta82  1  0.70690591  0.31472710  0.88502589  1
  Ta  Ta83  1  0.50985874  0.48959144  0.60664118  1
  Ta  Ta84  1  0.29902792  0.70252070  0.39363182  1
  Ta  Ta85  1  0.40366632  0.00181758  0.01434288  1
  Ta  Ta86  1  0.19551118  0.80230044  0.50827176  1
  Ta  Ta87  1  0.50388075  0.69398377  0.60330148  1
  Ta  Ta88  1  0.00243778  -0.00685976  -0.01154087  1
  Ta  Ta89  1  -0.00014420  0.60164206  0.50728375  1
  Ta  Ta90  1  0.30563621  0.69731028  0.85629824  1
  Ta  Ta91  1  0.60051963  0.80669623  0.50566065  1
  Ta  Ta92  1  0.09614608  0.49829034  0.86313192  1
  Ta  Ta93  1  0.08874972  0.09420575  0.63550044  1
  Ta  Ta94  1  -0.00187588  0.80334946  0.75410312  1
  Ta  Ta95  1  0.29500629  0.30004382  0.11360239  1
  Ta  Ta96  1  0.79511442  0.79279344  -0.01003617  1
  Ta  Ta97  1  0.00259642  0.39328478  0.74125905  1
  Ta  Ta98  1  0.30019851  0.50453294  0.38446307  1
  Ta  Ta99  1  -0.00087400  0.80155323  0.51520752  1
  Ta  Ta100  1  0.89458544  0.30030386  0.35596698  1
  Ta  Ta101  1  0.10283742  0.29252201  0.62735062  1
  Ta  Ta102  1  0.39575169  0.19446412  -0.00221681  1
  Ta  Ta103  1  0.49461257  0.69990331  0.38704479  1
  Ta  Ta104  1  0.60330358  0.39944983  0.47635573  1
  Ta  Ta105  1  0.59325151  0.42042516  0.76630975  1
  Ta  Ta106  1  0.00104536  0.60369648  0.25579161  1
  Ta  Ta107  1  0.71267530  0.11488683  0.65070718  1
  Ta  Ta108  1  0.29866016  0.90195106  0.39069482  1
  Ta  Ta109  1  0.59693816  0.41639849  -0.00128161  1
  Ta  Ta110  1  0.49834864  0.10467128  0.13281371  1
  Ta  Ta111  1  0.30936837  0.29258436  0.62539392  1
  Ta  Ta112  1  0.80367138  -0.00245081  0.24349086  1
  Ta  Ta113  1  0.00352577  0.20242610  0.22382517  1
  Ta  Ta114  1  0.10723002  0.50122658  0.62908740  1
  Ta  Ta115  1  0.70132601  0.89412550  0.11626350  1
  Ta  Ta116  1  0.90221156  0.90264400  0.64853880  1
  Ta  Ta117  1  0.30438468  0.29413314  0.88044346  1
  Ta  Ta118  1  -0.00243261  0.59731670  0.73702632  1
  Ta  Ta119  1  0.20552203  0.79582294  -0.01011678  1
  Ti  Ti120  1  0.39967779  0.40632709  0.00031825  1
  Ti  Ti121  1  0.60106725  0.21007920  0.76574022  1
  Ti  Ti122  1  0.51791302  0.28643940  0.35438695  1
  Ti  Ti123  1  0.60575036  0.59283941  0.49779408  1
  Ti  Ti124  1  0.70250057  0.90613344  0.37313031  1
  Ti  Ti125  1  0.39774232  0.80801683  0.51302458  1
  Ti  Ti126  1  0.48373791  0.09990451  0.86727051  1
  Ti  Ti127  1  0.69486644  0.11669177  0.34630934  1
  Ti  Ti128  1  0.59354525  0.60376613  0.26024035  1
  Ti  Ti129  1  0.09893039  0.10803026  0.10280496  1
  Ti  Ti130  1  0.79898574  -0.01516639  0.77456969  1
  Ti  Ti131  1  0.40576017  0.59184123  0.49490561  1
  Ti  Ti132  1  0.30363677  0.49760941  0.14186898  1
  Ti  Ti133  1  0.89953508  0.30213549  0.88631652  1
  Ti  Ti134  1  0.31120595  0.49240319  0.85740456  1
  Ti  Ti135  1  0.00137479  0.20118151  0.74993281  1
  Ti  Ti136  1  0.78310830  0.41266500  0.75490816  1
  Ti  Ti137  1  0.29424983  0.89548745  0.11987459  1
  Ti  Ti138  1  0.18859156  0.20197441  0.24125010  1
  Ti  Ti139  1  0.10100041  0.09788167  0.37195819  1
  Ti  Ti140  1  0.09669095  0.10663737  0.88624115  1
  Ti  Ti141  1  0.09477392  0.50503846  0.38802253  1
  Ti  Ti142  1  0.00653144  -0.00947226  0.76622044  1
  Ti  Ti143  1  0.78839076  0.39776270  0.48355493  1
  Ti  Ti144  1  0.41162687  0.39057793  0.48024301  1
  Ti  Ti145  1  0.80620467  0.20560112  0.23570416  1
  Ti  Ti146  1  0.59800744  0.61133366  0.01396090  1
  Ti  Ti147  1  0.10231162  0.89363610  0.10500491  1
  Ti  Ti148  1  0.79208706  0.78966179  0.75108850  1
  Ti  Ti149  1  0.90021110  0.10586658  0.10753816  1
  Ti  Ti150  1  0.89966269  0.69819282  0.12295682  1
  Ti  Ti151  1  0.19603273  -0.00471724  0.24054383  1
  Ti  Ti152  1  0.89041314  0.09208413  0.65374509  1
  Ti  Ti153  1  0.69697416  0.70014404  0.12077624  1
  Ti  Ti154  1  0.19356549  0.19073928  0.50958382  1
  Ti  Ti155  1  0.80193059  0.40538568  0.24476594  1
  Ti  Ti156  1  0.19251169  -0.00656626  0.51899502  1
  Ti  Ti157  1  0.39551474  -0.00574988  0.73727700  1
  Ti  Ti158  1  0.00569035  0.79785499  0.26133641  1
  Ti  Ti159  1  0.29071391  0.29076578  0.38356930  1
  Mo  Mo160  1  -0.00147651  0.79905246  -0.02114118  1
  Mo  Mo161  1  0.80225368  0.21156024  -0.00541422  1
  Mo  Mo162  1  0.70108407  0.88625764  0.88308896  1
  Mo  Mo163  1  0.49739247  0.90344667  0.12628034  1
  Mo  Mo164  1  0.69521714  0.70749606  0.88435336  1
  Mo  Mo165  1  0.50068643  0.50732008  0.38568333  1
  Mo  Mo166  1  0.60281721  0.79502299  0.01798125  1
  Mo  Mo167  1  0.50263641  0.69735448  0.14081365  1
  Mo  Mo168  1  0.79738341  0.60671805  0.02412938  1
  Mo  Mo169  1  0.00256830  0.39719556  0.01282676  1
  Mo  Mo170  1  0.70173788  0.70742798  0.60330673  1
  Mo  Mo171  1  0.19675753  0.59757642  0.48907869  1
  Mo  Mo172  1  0.20117931  0.20021099  -0.00789270  1
  Mo  Mo173  1  0.70649124  0.50346512  0.38722621  1
  Mo  Mo174  1  0.90075201  0.90376984  0.35748398  1
  Mo  Mo175  1  0.69499369  0.50922974  0.11545170  1
  Mo  Mo176  1  0.80076483  0.60675640  0.72998423  1
  Mo  Mo177  1  0.49742310  0.90627132  0.60780622  1
  Mo  Mo178  1  0.20321128  0.59356027  0.76170415  1
  Mo  Mo179  1  0.69353700  0.49162244  0.60958911  1
  Mo  Mo180  1  0.40152231  0.39636386  0.75090903  1
  Mo  Mo181  1  0.50823296  0.50416427  0.88374466  1
  Mo  Mo182  1  0.39624251  0.60508395  0.27843877  1
  Mo  Mo183  1  0.39819083  -0.00133596  0.50415696  1
  Mo  Mo184  1  0.90285640  0.50495521  0.14818585  1
  Mo  Mo185  1  0.09659737  0.69887496  0.39556802  1
  Mo  Mo186  1  0.09773892  0.89397118  0.88673031  1
  Mo  Mo187  1  0.31027486  0.09739194  0.87906379  1
  Mo  Mo188  1  0.29773839  0.90000695  0.61097784  1
  Mo  Mo189  1  0.10378690  0.29604659  0.10824649  1
  Mo  Mo190  1  -0.00376400  0.20089473  0.01135828  1
  Mo  Mo191  1  0.90050892  0.89206857  0.86651701  1
  Mo  Mo192  1  0.39728524  0.19567251  0.76460667  1
  Mo  Mo193  1  0.09212452  0.90331918  0.62319793  1
  Mo  Mo194  1  0.49593967  0.09802329  0.35112008  1
  Mo  Mo195  1  0.89989532  0.70485261  0.63726303  1
  Mo  Mo196  1  0.90014040  0.29782739  0.12866992  1
  Mo  Mo197  1  0.60259058  0.20099779  0.23699302  1
  Mo  Mo198  1  0.79716464  0.21155673  0.77137301  1
  Mo  Mo199  1  0.70922020  0.30104084  0.35048230  1
