# generated using pymatgen
data_HfZrTaTiMo
_symmetry_space_group_name_H-M   'P 1'
_cell_length_a   15.92047453
_cell_length_b   15.93623091
_cell_length_c   15.19312771
_cell_angle_alpha   89.97945791
_cell_angle_beta   90.02824017
_cell_angle_gamma   90.06071078
_symmetry_Int_Tables_number   1
_chemical_formula_structural   HfZrTaTiMo
_chemical_formula_sum   'Hf40 Zr40 Ta40 Ti40 Mo40'
_cell_volume   3854.68138215
_cell_formula_units_Z   40
loop_
 _symmetry_equiv_pos_site_id
 _symmetry_equiv_pos_as_xyz
  1  'x, y, z'
loop_
 _atom_site_type_symbol
 _atom_site_label
 _atom_site_symmetry_multiplicity
 _atom_site_fract_x
 _atom_site_fract_y
 _atom_site_fract_z
 _atom_site_occupancy
  Hf  Hf0  1  0.29788928  0.29360729  0.63868556  1
  Hf  Hf1  1  0.39242657  0.39507846  -0.01020145  1
  Hf  Hf2  1  0.58561245  0.01218890  0.74087635  1
  Hf  Hf3  1  0.70551277  0.69859036  0.37830289  1
  Hf  Hf4  1  0.90091367  0.71729423  0.61846237  1
  Hf  Hf5  1  0.89552647  0.10617026  0.12824446  1
  Hf  Hf6  1  0.19247374  0.19327173  0.49176149  1
  Hf  Hf7  1  0.80107818  0.60477738  -0.01430477  1
  Hf  Hf8  1  0.01280306  0.01499266  0.48759901  1
  Hf  Hf9  1  -0.00547202  0.78649103  0.26140188  1
  Hf  Hf10  1  0.11048830  0.49492449  0.63779479  1
  Hf  Hf11  1  0.81144926  0.60115349  0.24771444  1
  Hf  Hf12  1  0.80001775  0.21547338  0.51643041  1
  Hf  Hf13  1  0.10920356  0.09777748  0.64313668  1
  Hf  Hf14  1  0.58503852  0.39344291  0.00038938  1
  Hf  Hf15  1  0.68904930  0.29681325  0.86957974  1
  Hf  Hf16  1  0.19859387  0.80043395  0.74772628  1
  Hf  Hf17  1  0.50223858  0.29067738  0.63555291  1
  Hf  Hf18  1  0.10741907  0.08829179  0.86221778  1
  Hf  Hf19  1  0.11068629  0.89969558  0.37207639  1
  Hf  Hf20  1  0.58225724  0.40914960  0.75533283  1
  Hf  Hf21  1  0.70153306  0.29675361  0.11846948  1
  Hf  Hf22  1  0.89692920  0.89635249  0.38485630  1
  Hf  Hf23  1  0.38495077  0.79511849  0.01717982  1
  Hf  Hf24  1  0.50328865  0.69917062  0.61619653  1
  Hf  Hf25  1  0.90130651  0.09389053  0.63042941  1
  Hf  Hf26  1  0.39638218  0.59919208  0.26023627  1
  Hf  Hf27  1  0.30972324  0.90606200  0.37184760  1
  Hf  Hf28  1  0.89473251  0.11528683  0.37001953  1
  Hf  Hf29  1  -0.00447688  0.39939549  0.51990780  1
  Hf  Hf30  1  0.68622562  0.11052560  0.62390190  1
  Hf  Hf31  1  0.90169490  0.50242873  0.38206255  1
  Hf  Hf32  1  0.40959935  0.20872964  0.00554652  1
  Hf  Hf33  1  0.59979225  0.80515190  0.00326349  1
  Hf  Hf34  1  0.40740638  0.58201497  0.74233785  1
  Hf  Hf35  1  0.20619236  0.60662483  -0.00656410  1
  Hf  Hf36  1  0.10035232  0.10451070  0.12027817  1
  Hf  Hf37  1  0.89756198  0.07918304  0.86846693  1
  Hf  Hf38  1  0.69845712  0.30404268  0.36399394  1
  Hf  Hf39  1  0.30127739  0.09119285  0.62588932  1
  Zr  Zr40  1  0.10052108  0.68964597  0.38741987  1
  Zr  Zr41  1  0.71202773  0.72044745  0.87627041  1
  Zr  Zr42  1  0.21369427  0.20570339  -0.01185509  1
  Zr  Zr43  1  -0.00669652  0.20170394  0.75488975  1
  Zr  Zr44  1  0.69651068  0.70300801  0.12807872  1
  Zr  Zr45  1  0.00086229  0.61070235  0.75779156  1
  Zr  Zr46  1  0.19999739  -0.00914848  0.00340165  1
  Zr  Zr47  1  0.88926092  0.87949445  0.86148275  1
  Zr  Zr48  1  0.59278129  0.00902509  0.25166015  1
  Zr  Zr49  1  0.69680920  0.11239193  0.36705665  1
  Zr  Zr50  1  0.70259260  0.89458973  0.61883187  1
  Zr  Zr51  1  0.79155076  0.00280527  0.49444109  1
  Zr  Zr52  1  0.29949121  0.90275744  0.86819923  1
  Zr  Zr53  1  0.48929219  0.90465229  0.88196342  1
  Zr  Zr54  1  0.49891923  0.89399883  0.14396333  1
  Zr  Zr55  1  0.29887324  0.49780135  0.12854266  1
  Zr  Zr56  1  0.10109098  0.70278307  0.61708713  1
  Zr  Zr57  1  0.60278018  0.60387663  0.75555198  1
  Zr  Zr58  1  0.59248847  0.59527699  0.25399155  1
  Zr  Zr59  1  0.29521649  0.89773501  0.15045857  1
  Zr  Zr60  1  0.30142778  0.69517499  0.62236756  1
  Zr  Zr61  1  0.19584077  0.20891317  0.25680645  1
  Zr  Zr62  1  0.39450408  0.18189426  0.23295527  1
  Zr  Zr63  1  0.90895094  0.49666970  0.10363998  1
  Zr  Zr64  1  0.31344076  0.29914787  0.37425631  1
  Zr  Zr65  1  0.80144707  0.19435427  -0.01666598  1
  Zr  Zr66  1  0.09922559  0.90314500  0.61885086  1
  Zr  Zr67  1  -0.00628259  -0.01469851  0.00926710  1
  Zr  Zr68  1  0.58994652  0.80581474  0.74756831  1
  Zr  Zr69  1  0.01192522  0.60822584  -0.01925804  1
  Zr  Zr70  1  0.80045925  0.59330232  0.51141979  1
  Zr  Zr71  1  0.80258398  0.39980094  0.23851662  1
  Zr  Zr72  1  -0.00437919  0.21295515  0.24820553  1
  Zr  Zr73  1  0.09649593  0.88847111  0.14446786  1
  Zr  Zr74  1  0.48365516  0.09647824  0.38587311  1
  Zr  Zr75  1  0.31256761  0.70219645  0.86209843  1
  Zr  Zr76  1  0.90466809  0.71204638  0.10977411  1
  Zr  Zr77  1  0.69810046  0.91369758  0.87333590  1
  Zr  Zr78  1  0.09856396  0.31452802  0.10573438  1
  Zr  Zr79  1  0.00237680  0.40919770  0.25136373  1
  Ta  Ta80  1  0.40225936  0.79439710  0.49067923  1
  Ta  Ta81  1  0.69975737  0.10339065  0.12783113  1
  Ta  Ta82  1  0.18803165  0.78985017  0.00286317  1
  Ta  Ta83  1  0.10490314  0.50161335  0.11349808  1
  Ta  Ta84  1  0.69656848  0.50119177  0.11245297  1
  Ta  Ta85  1  0.59516733  0.59834728  -0.00521736  1
  Ta  Ta86  1  0.80176309  0.60885711  0.75383962  1
  Ta  Ta87  1  0.31159526  0.09569941  0.86609929  1
  Ta  Ta88  1  0.79563398  -0.01096841  0.01677005  1
  Ta  Ta89  1  0.50278181  0.48682192  0.38457731  1
  Ta  Ta90  1  0.20730511  0.02468472  0.26195568  1
  Ta  Ta91  1  0.30158663  0.49395450  0.37963437  1
  Ta  Ta92  1  0.10417604  0.30413139  0.86035194  1
  Ta  Ta93  1  0.00208555  0.20173881  -0.01895259  1
  Ta  Ta94  1  -0.00148368  0.20924873  0.51290428  1
  Ta  Ta95  1  0.49872873  0.89641663  0.37079166  1
  Ta  Ta96  1  0.60394926  0.39729828  0.51032742  1
  Ta  Ta97  1  0.40556427  0.39615250  0.50889296  1
  Ta  Ta98  1  0.10656711  0.30117593  0.64244934  1
  Ta  Ta99  1  0.39714612  0.00999815  0.02182161  1
  Ta  Ta100  1  0.89468473  0.30566720  0.38345132  1
  Ta  Ta101  1  0.60132968  0.80061516  0.48388729  1
  Ta  Ta102  1  0.69752695  0.49259433  0.37768706  1
  Ta  Ta103  1  0.40316484  0.59305661  0.49280976  1
  Ta  Ta104  1  0.49548214  0.70209851  0.88109904  1
  Ta  Ta105  1  0.79919080  0.80281037  0.25711660  1
  Ta  Ta106  1  0.49647469  0.69341985  0.12248321  1
  Ta  Ta107  1  0.79361066  0.19792772  0.75538998  1
  Ta  Ta108  1  0.19622525  0.40614443  0.26285048  1
  Ta  Ta109  1  -0.00019893  0.59430250  0.51211425  1
  Ta  Ta110  1  0.69856127  0.30677526  0.64604191  1
  Ta  Ta111  1  0.00164504  0.00492540  0.25650047  1
  Ta  Ta112  1  0.60063047  0.59177026  0.50102683  1
  Ta  Ta113  1  0.20442913  0.40480282  -0.02256348  1
  Ta  Ta114  1  0.90304286  0.30271011  0.09726348  1
  Ta  Ta115  1  0.70108490  0.49688128  0.63765434  1
  Ta  Ta116  1  0.09040350  0.30684785  0.38769360  1
  Ta  Ta117  1  0.50521600  0.10178125  0.88981097  1
  Ta  Ta118  1  0.20250990  0.39613763  0.49874475  1
  Ta  Ta119  1  0.70088007  0.89950529  0.14123085  1
  Ti  Ti120  1  0.00949708  0.59935824  0.24493555  1
  Ti  Ti121  1  0.10129912  0.49770141  0.38546857  1
  Ti  Ti122  1  0.59442396  -0.00265490  0.49236769  1
  Ti  Ti123  1  0.79812383  0.40315946  -0.01128694  1
  Ti  Ti124  1  0.49474756  0.89949883  0.60785203  1
  Ti  Ti125  1  0.89563565  0.49734993  0.64626420  1
  Ti  Ti126  1  0.21865873  0.40499789  0.76619066  1
  Ti  Ti127  1  0.59554359  0.20807864  0.49723801  1
  Ti  Ti128  1  0.49058884  0.50422352  0.88498736  1
  Ti  Ti129  1  0.10029919  0.49484000  0.86728022  1
  Ti  Ti130  1  0.40397530  -0.00748887  0.73597805  1
  Ti  Ti131  1  0.00627679  0.79782862  -0.01019902  1
  Ti  Ti132  1  0.79431276  -0.00254226  0.73926730  1
  Ti  Ti133  1  0.50365111  0.30248022  0.36983231  1
  Ti  Ti134  1  0.89357300  0.31289493  0.65057394  1
  Ti  Ti135  1  0.90574951  0.89767080  0.62035930  1
  Ti  Ti136  1  0.59904449  0.00609142  0.01577556  1
  Ti  Ti137  1  0.58909311  0.20769572  0.23524285  1
  Ti  Ti138  1  0.69262626  0.09738951  0.87805299  1
  Ti  Ti139  1  0.09194251  0.89872352  0.85962757  1
  Ti  Ti140  1  0.29933119  0.90101512  0.61617737  1
  Ti  Ti141  1  0.89896607  0.49405049  0.86380921  1
  Ti  Ti142  1  0.19875900  0.59619958  0.25139908  1
  Ti  Ti143  1  0.20798742  0.58978835  0.49817844  1
  Ti  Ti144  1  0.80100172  -0.00091753  0.25055959  1
  Ti  Ti145  1  0.40052528  0.19845706  0.50641368  1
  Ti  Ti146  1  0.40960939  0.40166403  0.24214880  1
  Ti  Ti147  1  0.30460191  0.49042266  0.62072113  1
  Ti  Ti148  1  0.20889087  0.79809050  0.49315484  1
  Ti  Ti149  1  0.39926361  0.59821265  0.00686158  1
  Ti  Ti150  1  0.41298763  0.18760072  0.75480907  1
  Ti  Ti151  1  0.40423182  0.77975517  0.26576868  1
  Ti  Ti152  1  0.20990152  0.77254373  0.25384828  1
  Ti  Ti153  1  0.90093338  0.31211302  0.86961159  1
  Ti  Ti154  1  0.70245485  0.70372080  0.61928979  1
  Ti  Ti155  1  0.70040579  0.49877048  0.87149507  1
  Ti  Ti156  1  0.29474131  0.30659187  0.13251521  1
  Ti  Ti157  1  0.79596435  0.40126452  0.51225539  1
  Ti  Ti158  1  0.20581159  0.59622648  0.76123130  1
  Ti  Ti159  1  0.59272226  0.40562015  0.23486328  1
  Mo  Mo160  1  0.59895443  0.19503286  0.00344253  1
  Mo  Mo161  1  0.40313248  0.80448462  0.72372404  1
  Mo  Mo162  1  0.50125406  0.69414869  0.38743314  1
  Mo  Mo163  1  -0.00176800  -0.00966056  0.74279506  1
  Mo  Mo164  1  0.29906658  0.09573982  0.39548591  1
  Mo  Mo165  1  0.39419220  0.00334079  0.23868568  1
  Mo  Mo166  1  0.50123250  0.49551947  0.60820238  1
  Mo  Mo167  1  0.80353552  0.81282518  0.02184600  1
  Mo  Mo168  1  0.59811472  0.79795477  0.26584793  1
  Mo  Mo169  1  0.10535657  0.71118227  0.86320146  1
  Mo  Mo170  1  -0.00013639  0.80264651  0.75496671  1
  Mo  Mo171  1  0.50043078  0.50478268  0.11293764  1
  Mo  Mo172  1  0.20750121  -0.00418413  0.75701792  1
  Mo  Mo173  1  0.49631131  0.09813264  0.60810559  1
  Mo  Mo174  1  0.20928565  0.19966420  0.76038257  1
  Mo  Mo175  1  0.29401554  0.10244230  0.11374109  1
  Mo  Mo176  1  0.49792516  0.30607136  0.13756454  1
  Mo  Mo177  1  0.89559992  0.90384434  0.14868016  1
  Mo  Mo178  1  0.29929238  0.69687309  0.13112631  1
  Mo  Mo179  1  0.20664193  0.00098177  0.48534771  1
  Mo  Mo180  1  0.00356089  0.40044422  -0.02831064  1
  Mo  Mo181  1  0.79497663  0.40624608  0.76232428  1
  Mo  Mo182  1  0.79814746  0.80021713  0.49455966  1
  Mo  Mo183  1  0.30382718  0.50238148  0.87656511  1
  Mo  Mo184  1  0.50576724  0.10306501  0.11231892  1
  Mo  Mo185  1  0.40277656  -0.00820560  0.51167380  1
  Mo  Mo186  1  0.09483610  0.10774432  0.37062527  1
  Mo  Mo187  1  0.39848049  0.39931644  0.75290084  1
  Mo  Mo188  1  0.49545898  0.29220023  0.85821002  1
  Mo  Mo189  1  0.29879012  0.69409622  0.38872489  1
  Mo  Mo190  1  0.90100543  0.69935660  0.39364663  1
  Mo  Mo191  1  0.69428554  0.89891819  0.36410705  1
  Mo  Mo192  1  0.00131468  0.79984009  0.48455073  1
  Mo  Mo193  1  0.30681171  0.29554852  0.85467868  1
  Mo  Mo194  1  0.79792763  0.20642103  0.23907051  1
  Mo  Mo195  1  0.90052698  0.70313254  0.87663593  1
  Mo  Mo196  1  0.10609766  0.69016834  0.13543886  1
  Mo  Mo197  1  0.59630353  0.19696964  0.75914608  1
  Mo  Mo198  1  0.79812697  0.79766025  0.72788195  1
  Mo  Mo199  1  0.00118906  0.40290769  0.75103142  1
