# generated using pymatgen
data_HfZrTaTiMo
_symmetry_space_group_name_H-M   'P 1'
_cell_length_a   15.93420250
_cell_length_b   15.94168572
_cell_length_c   15.21475694
_cell_angle_alpha   89.95707387
_cell_angle_beta   90.01450685
_cell_angle_gamma   89.98579523
_symmetry_Int_Tables_number   1
_chemical_formula_structural   HfZrTaTiMo
_chemical_formula_sum   'Hf40 Zr40 Ta40 Ti40 Mo40'
_cell_volume   3864.82153939
_cell_formula_units_Z   40
loop_
 _symmetry_equiv_pos_site_id
 _symmetry_equiv_pos_as_xyz
  1  'x, y, z'
loop_
 _atom_site_type_symbol
 _atom_site_label
 _atom_site_symmetry_multiplicity
 _atom_site_fract_x
 _atom_site_fract_y
 _atom_site_fract_z
 _atom_site_occupancy
  Hf  Hf0  1  0.40313678  0.20293936  0.48478133  1
  Hf  Hf1  1  0.79692676  0.39544739  0.00549340  1
  Hf  Hf2  1  0.29850456  0.30559706  0.61804573  1
  Hf  Hf3  1  0.40448987  0.20211194  0.76051224  1
  Hf  Hf4  1  0.32243184  0.08548594  0.88000775  1
  Hf  Hf5  1  0.60303379  0.19345354  0.76926752  1
  Hf  Hf6  1  0.59432798  0.39742845  0.75929185  1
  Hf  Hf7  1  0.20726795  0.00125007  0.00482324  1
  Hf  Hf8  1  0.68622630  0.50110971  0.62806800  1
  Hf  Hf9  1  0.61326377  0.20057348  0.48759147  1
  Hf  Hf10  1  0.68164930  0.49053588  0.11982260  1
  Hf  Hf11  1  0.89338166  0.70464528  0.63674836  1
  Hf  Hf12  1  0.69749872  0.49442719  0.38098734  1
  Hf  Hf13  1  0.30433518  0.50590276  0.14099761  1
  Hf  Hf14  1  0.58298742  -0.00450120  0.76474939  1
  Hf  Hf15  1  0.61728538  -0.00885501  0.49816695  1
  Hf  Hf16  1  0.10348337  0.50452206  0.87374160  1
  Hf  Hf17  1  0.59228377  0.80391334  0.24017173  1
  Hf  Hf18  1  0.79665745  0.59121339  0.75120819  1
  Hf  Hf19  1  -0.00617894  0.59551639  0.51302866  1
  Hf  Hf20  1  0.19883791  0.19292475  0.47849636  1
  Hf  Hf21  1  0.90311394  0.89388938  0.11689328  1
  Hf  Hf22  1  0.09688967  0.48747896  0.39031255  1
  Hf  Hf23  1  0.79916792  -0.00009396  0.24344396  1
  Hf  Hf24  1  0.01257803  0.00413657  -0.00879936  1
  Hf  Hf25  1  0.79614060  0.78955611  0.24116817  1
  Hf  Hf26  1  0.70422783  0.09431858  0.64158996  1
  Hf  Hf27  1  0.59860186  0.60982968  0.25701599  1
  Hf  Hf28  1  0.49809201  0.09094520  0.61449935  1
  Hf  Hf29  1  0.78172892  0.81371396  0.51793831  1
  Hf  Hf30  1  0.39282728  0.60425448  0.50094237  1
  Hf  Hf31  1  0.90422136  0.88973141  0.87265998  1
  Hf  Hf32  1  0.89786012  0.89436932  0.37314553  1
  Hf  Hf33  1  0.80027456  0.00611926  -0.00320802  1
  Hf  Hf34  1  0.69950415  0.69672974  0.10305150  1
  Hf  Hf35  1  0.90754009  0.49836556  0.87631936  1
  Hf  Hf36  1  0.57866777  0.59010759  -0.01486303  1
  Hf  Hf37  1  0.39189338  0.60353767  -0.00887934  1
  Hf  Hf38  1  0.20659893  0.19574833  0.00730187  1
  Hf  Hf39  1  0.58145760  0.80411227  -0.00427572  1
  Zr  Zr40  1  0.50070948  0.31263344  0.35905979  1
  Zr  Zr41  1  0.69680996  0.89677177  0.87863609  1
  Zr  Zr42  1  0.67866209  0.71495814  0.64116157  1
  Zr  Zr43  1  0.30550014  0.09830392  0.62011869  1
  Zr  Zr44  1  0.60402598  0.00088017  0.23198879  1
  Zr  Zr45  1  0.29862488  0.89820884  0.14065226  1
  Zr  Zr46  1  -0.00168083  0.78745324  0.25408140  1
  Zr  Zr47  1  0.80951536  0.00104585  0.49932470  1
  Zr  Zr48  1  0.17488010  0.81282479  0.73341451  1
  Zr  Zr49  1  -0.00003348  0.80640583  0.51960600  1
  Zr  Zr50  1  0.80290163  0.19623648  0.49487476  1
  Zr  Zr51  1  0.69829761  0.70094513  0.87358851  1
  Zr  Zr52  1  0.51760496  0.30997945  0.12688438  1
  Zr  Zr53  1  0.40334951  0.40728781  -0.00374503  1
  Zr  Zr54  1  0.29899861  0.49588803  0.36811737  1
  Zr  Zr55  1  0.59037415  0.60288679  0.49715775  1
  Zr  Zr56  1  0.00838918  0.60083417  0.73482413  1
  Zr  Zr57  1  0.38701994  0.83503374  0.74416700  1
  Zr  Zr58  1  0.11480743  0.08335283  0.62107547  1
  Zr  Zr59  1  0.80057373  0.60040561  0.24734188  1
  Zr  Zr60  1  0.20991527  0.39910550  0.00426790  1
  Zr  Zr61  1  0.78230070  0.38007113  0.24108091  1
  Zr  Zr62  1  0.49234376  0.70820968  0.63482546  1
  Zr  Zr63  1  0.51037057  0.09777897  0.36517895  1
  Zr  Zr64  1  0.11465435  0.89345265  0.37801288  1
  Zr  Zr65  1  0.28877961  0.69752980  0.84729557  1
  Zr  Zr66  1  0.09575969  0.29601162  0.89066611  1
  Zr  Zr67  1  0.01411167  0.20093383  0.74372206  1
  Zr  Zr68  1  0.90337929  0.28157014  0.12015373  1
  Zr  Zr69  1  0.18457414  0.60276007  0.25792646  1
  Zr  Zr70  1  0.09186675  0.50933140  0.11449287  1
  Zr  Zr71  1  0.19728807  0.38888965  0.74966305  1
  Zr  Zr72  1  0.91040820  0.09433417  0.63686547  1
  Zr  Zr73  1  0.39142201  0.80160953  -0.00210925  1
  Zr  Zr74  1  0.90644277  0.29981165  0.87518276  1
  Zr  Zr75  1  0.19781816  0.80212444  -0.00747504  1
  Zr  Zr76  1  -0.00056375  0.40167172  0.23819969  1
  Zr  Zr77  1  0.89435175  0.49892945  0.38789520  1
  Zr  Zr78  1  0.50014666  0.29954179  0.62462744  1
  Zr  Zr79  1  0.90271603  0.30601381  0.37967266  1
  Ta  Ta80  1  0.49572868  0.50268219  0.14462300  1
  Ta  Ta81  1  0.59693578  0.01113634  0.00431894  1
  Ta  Ta82  1  0.29378358  0.70040287  0.14236615  1
  Ta  Ta83  1  0.90537230  0.69123768  0.10062562  1
  Ta  Ta84  1  0.59431426  0.39938372  0.50080923  1
  Ta  Ta85  1  0.00459081  0.19267927  0.49065008  1
  Ta  Ta86  1  0.02541950  -0.01644939  0.76141510  1
  Ta  Ta87  1  0.28869186  0.71450684  0.37319759  1
  Ta  Ta88  1  0.89984352  0.70196022  0.87530920  1
  Ta  Ta89  1  0.80048406  0.39401686  0.74151266  1
  Ta  Ta90  1  0.30152909  0.50149823  0.85052158  1
  Ta  Ta91  1  0.09957804  0.89854373  0.13496175  1
  Ta  Ta92  1  -0.00846853  0.60509913  0.25939840  1
  Ta  Ta93  1  0.63132854  0.21457683  0.25518804  1
  Ta  Ta94  1  0.90850842  0.09958251  0.12906541  1
  Ta  Ta95  1  0.19209814  0.38764538  0.23750367  1
  Ta  Ta96  1  0.20156010  0.00371581  0.25373431  1
  Ta  Ta97  1  0.08935106  0.70034585  0.87264106  1
  Ta  Ta98  1  0.20815969  0.19410844  0.76667966  1
  Ta  Ta99  1  0.09966561  0.10212434  0.13530147  1
  Ta  Ta100  1  0.40135149  0.80264583  0.25924613  1
  Ta  Ta101  1  0.69692830  0.89530698  0.36535243  1
  Ta  Ta102  1  0.80319637  0.19034664  -0.01524461  1
  Ta  Ta103  1  0.79623895  0.39788916  0.52154529  1
  Ta  Ta104  1  0.09810475  0.69588555  0.39324626  1
  Ta  Ta105  1  0.20327037  0.60070422  0.50904312  1
  Ta  Ta106  1  0.00404004  0.00019391  0.25372764  1
  Ta  Ta107  1  0.48341054  0.49697457  0.63797784  1
  Ta  Ta108  1  0.09564235  0.70193975  0.11545178  1
  Ta  Ta109  1  0.20290803  0.60541054  -0.00137608  1
  Ta  Ta110  1  0.29906566  0.30521251  0.36317371  1
  Ta  Ta111  1  0.20082610  0.20080354  0.24956897  1
  Ta  Ta112  1  0.70271741  0.30206426  0.88004049  1
  Ta  Ta113  1  0.10882936  0.48727328  0.61295091  1
  Ta  Ta114  1  0.01057924  0.20005525  0.26053145  1
  Ta  Ta115  1  0.40629378  -0.00392450  0.24645034  1
  Ta  Ta116  1  0.39358549  0.80838625  0.49645387  1
  Ta  Ta117  1  0.30720112  0.09325610  0.36581704  1
  Ta  Ta118  1  0.60917244  0.19817851  -0.00384711  1
  Ta  Ta119  1  0.49839263  0.30128795  0.88833669  1
  Ti  Ti120  1  0.89047910  0.69944922  0.39228120  1
  Ti  Ti121  1  0.69596060  0.49279980  0.87670944  1
  Ti  Ti122  1  0.40226506  0.19770342  0.24638054  1
  Ti  Ti123  1  0.21334011  -0.00876254  0.76577159  1
  Ti  Ti124  1  0.30874270  0.29797031  0.13723937  1
  Ti  Ti125  1  0.20233488  0.79928835  0.51268126  1
  Ti  Ti126  1  0.49997678  0.90136775  0.38325172  1
  Ti  Ti127  1  -0.00328267  0.40114371  0.73125295  1
  Ti  Ti128  1  0.00140273  0.39592033  0.01234355  1
  Ti  Ti129  1  0.69931483  0.29558090  0.63064228  1
  Ti  Ti130  1  0.69832874  0.70755082  0.38745918  1
  Ti  Ti131  1  0.70058493  0.89509376  0.10927044  1
  Ti  Ti132  1  0.79244679  0.80993554  0.74531413  1
  Ti  Ti133  1  0.48715604  0.70601271  0.85192734  1
  Ti  Ti134  1  0.40169511  0.19671555  0.00792434  1
  Ti  Ti135  1  0.49549190  0.49712453  0.36314893  1
  Ti  Ti136  1  0.29473904  0.69877728  0.63126167  1
  Ti  Ti137  1  0.48679723  0.69753886  0.12747997  1
  Ti  Ti138  1  0.49860148  0.71307075  0.38350171  1
  Ti  Ti139  1  0.89898739  0.50728856  0.11740346  1
  Ti  Ti140  1  0.79379126  0.60088949  0.51567621  1
  Ti  Ti141  1  0.01021947  0.00509006  0.48678138  1
  Ti  Ti142  1  0.50868604  0.89772661  0.61562367  1
  Ti  Ti143  1  0.90715946  0.90787703  0.64381188  1
  Ti  Ti144  1  0.39618397  0.40761252  0.49782497  1
  Ti  Ti145  1  0.58798231  0.59669749  0.76135104  1
  Ti  Ti146  1  0.79975562  0.59460367  -0.01000871  1
  Ti  Ti147  1  0.80327751  0.20150376  0.76020218  1
  Ti  Ti148  1  0.10342029  0.29527646  0.60860235  1
  Ti  Ti149  1  0.91529698  0.10118855  0.86701042  1
  Ti  Ti150  1  0.29361193  0.92206050  0.60010925  1
  Ti  Ti151  1  0.00472082  0.79932469  -0.00399138  1
  Ti  Ti152  1  0.90324107  0.10010485  0.36143123  1
  Ti  Ti153  1  0.90486683  0.29638035  0.62055163  1
  Ti  Ti154  1  0.71295771  0.11766454  0.12753762  1
  Ti  Ti155  1  0.10180710  0.30649490  0.38460362  1
  Ti  Ti156  1  0.47106867  0.92807351  0.89267470  1
  Ti  Ti157  1  0.50340957  0.10782173  0.12568423  1
  Ti  Ti158  1  0.80159194  0.00208064  0.76395486  1
  Ti  Ti159  1  0.40050347  0.61217873  0.26492032  1
  Mo  Mo160  1  0.48966670  0.50242236  0.85484464  1
  Mo  Mo161  1  0.69404217  0.90495922  0.64922457  1
  Mo  Mo162  1  0.59820284  0.40264257  -0.01886372  1
  Mo  Mo163  1  0.10136531  0.29111539  0.12130096  1
  Mo  Mo164  1  0.20647404  0.39434117  0.50006603  1
  Mo  Mo165  1  0.10536785  0.91027408  0.60718002  1
  Mo  Mo166  1  0.80406785  0.79586093  0.00313268  1
  Mo  Mo167  1  0.30067220  0.49940819  0.62939656  1
  Mo  Mo168  1  0.70449768  0.30523637  0.39297343  1
  Mo  Mo169  1  0.60116407  0.40624294  0.26194754  1
  Mo  Mo170  1  0.29821246  0.90412695  0.88205792  1
  Mo  Mo171  1  0.59428842  0.80633205  0.48763169  1
  Mo  Mo172  1  0.10171771  0.89605376  0.88385772  1
  Mo  Mo173  1  0.30615422  0.29456425  0.87902369  1
  Mo  Mo174  1  0.39617776  0.39491798  0.76222309  1
  Mo  Mo175  1  0.10053271  0.09921937  0.36302154  1
  Mo  Mo176  1  0.39860740  0.00432719  0.73927351  1
  Mo  Mo177  1  0.11238874  0.09629356  0.86617372  1
  Mo  Mo178  1  0.20947106  -0.00222098  0.47449310  1
  Mo  Mo179  1  0.30667438  0.89929656  0.37214825  1
  Mo  Mo180  1  0.10374257  0.69765738  0.61112666  1
  Mo  Mo181  1  -0.00021965  0.38845712  0.51805917  1
  Mo  Mo182  1  0.49916982  0.90193455  0.11672695  1
  Mo  Mo183  1  0.00385383  0.18606089  0.00157349  1
  Mo  Mo184  1  -0.00537559  0.80207895  0.74462222  1
  Mo  Mo185  1  0.50205993  0.10377774  0.89796759  1
  Mo  Mo186  1  0.70163482  0.29231627  0.10473043  1
  Mo  Mo187  1  0.71091170  0.09783933  0.35981662  1
  Mo  Mo188  1  0.58442953  0.81005104  0.77377316  1
  Mo  Mo189  1  0.30654579  0.10545264  0.14494860  1
  Mo  Mo190  1  0.40640121  -0.00560337  0.48404233  1
  Mo  Mo191  1  0.19689016  0.59737067  0.72681789  1
  Mo  Mo192  1  0.40466515  0.00827964  0.03274633  1
  Mo  Mo193  1  0.89578778  0.49160031  0.62814705  1
  Mo  Mo194  1  0.39561537  0.40001808  0.24027103  1
  Mo  Mo195  1  0.00061262  0.60379698  -0.01103782  1
  Mo  Mo196  1  0.39402280  0.59868502  0.73813199  1
  Mo  Mo197  1  0.19585203  0.79532670  0.24729256  1
  Mo  Mo198  1  0.70697094  0.10084804  0.86978707  1
  Mo  Mo199  1  0.80690696  0.19322244  0.25875119  1
