# generated using pymatgen
data_HfZrTaTiMo
_symmetry_space_group_name_H-M   'P 1'
_cell_length_a   16.40789518
_cell_length_b   16.41666489
_cell_length_c   14.24294300
_cell_angle_alpha   90.04557653
_cell_angle_beta   90.04439826
_cell_angle_gamma   89.32700968
_symmetry_Int_Tables_number   1
_chemical_formula_structural   HfZrTaTiMo
_chemical_formula_sum   'Hf40 Zr40 Ta40 Ti40 Mo40'
_cell_volume   3836.25368101
_cell_formula_units_Z   40
loop_
 _symmetry_equiv_pos_site_id
 _symmetry_equiv_pos_as_xyz
  1  'x, y, z'
loop_
 _atom_site_type_symbol
 _atom_site_label
 _atom_site_symmetry_multiplicity
 _atom_site_fract_x
 _atom_site_fract_y
 _atom_site_fract_z
 _atom_site_occupancy
  Hf  Hf0  1  0.59958536  0.59631173  0.00270875  1
  Hf  Hf1  1  0.18913960  0.39772395  0.50397484  1
  Hf  Hf2  1  0.59465405  0.40531524  0.00174697  1
  Hf  Hf3  1  -0.00185226  0.00539477  0.49796820  1
  Hf  Hf4  1  0.40189744  0.00105817  0.51841614  1
  Hf  Hf5  1  0.79715890  0.20552447  0.75058769  1
  Hf  Hf6  1  0.61162318  -0.01092788  -0.00298226  1
  Hf  Hf7  1  0.69927562  0.49587616  0.37182074  1
  Hf  Hf8  1  0.30763360  0.69585889  0.13139557  1
  Hf  Hf9  1  0.50879963  0.28465922  0.11807306  1
  Hf  Hf10  1  0.60541329  0.59078353  0.76052707  1
  Hf  Hf11  1  0.89890341  0.30532880  0.88437900  1
  Hf  Hf12  1  0.19768381  0.00511561  0.23668595  1
  Hf  Hf13  1  0.19949647  0.39187186  0.74440993  1
  Hf  Hf14  1  0.09553323  0.90266219  0.37197875  1
  Hf  Hf15  1  0.09803181  0.11827587  0.64824768  1
  Hf  Hf16  1  0.09727917  0.50712480  0.87832105  1
  Hf  Hf17  1  0.71399931  0.49917442  0.88648257  1
  Hf  Hf18  1  0.80355764  -0.00529374  0.51038252  1
  Hf  Hf19  1  0.81196069  0.79542690  0.75820043  1
  Hf  Hf20  1  0.90256988  0.50282413  0.61292024  1
  Hf  Hf21  1  0.39634259  0.19323088  0.75566610  1
  Hf  Hf22  1  0.71448517  0.90423802  0.36822819  1
  Hf  Hf23  1  0.20108371  0.40294492  0.24465595  1
  Hf  Hf24  1  0.30352517  0.89476474  0.38293666  1
  Hf  Hf25  1  -0.00430489  0.80636028  0.51557191  1
  Hf  Hf26  1  0.60606137  0.80760269  0.49642649  1
  Hf  Hf27  1  0.90267799  0.48952259  0.37458871  1
  Hf  Hf28  1  0.19547575  0.61021758  0.50243146  1
  Hf  Hf29  1  0.39666721  0.79814512  0.74394784  1
  Hf  Hf30  1  0.80434071  0.60780417  0.49475989  1
  Hf  Hf31  1  0.50239767  0.89537637  0.87426304  1
  Hf  Hf32  1  0.19848855  0.00392880  -0.00003385  1
  Hf  Hf33  1  0.20019108  0.80029469  0.25174727  1
  Hf  Hf34  1  -0.00455850  0.60522796  0.24537509  1
  Hf  Hf35  1  0.40254748  0.39446804  0.74817248  1
  Hf  Hf36  1  -0.01375599  0.80292790  -0.00303612  1
  Hf  Hf37  1  0.89443153  0.30122578  0.36274160  1
  Hf  Hf38  1  -0.00715369  0.61608118  0.74299311  1
  Hf  Hf39  1  0.49654301  0.69830387  0.13067230  1
  Zr  Zr40  1  0.19812364  0.19047715  0.23866242  1
  Zr  Zr41  1  0.00255537  0.40442294  0.74908522  1
  Zr  Zr42  1  0.79247888  0.81251658  0.00303596  1
  Zr  Zr43  1  0.50786201  0.50303436  0.37870257  1
  Zr  Zr44  1  0.49467570  0.70105908  0.36767838  1
  Zr  Zr45  1  0.40040812  0.59619423  0.74579218  1
  Zr  Zr46  1  0.40639445  0.19148619  0.24408556  1
  Zr  Zr47  1  0.69855026  0.10834906  0.11968935  1
  Zr  Zr48  1  -0.00467617  0.80477831  0.75515447  1
  Zr  Zr49  1  0.20759855  0.40054718  -0.00082453  1
  Zr  Zr50  1  0.09773157  0.28898588  0.87658039  1
  Zr  Zr51  1  0.70114442  0.69746270  0.62440426  1
  Zr  Zr52  1  0.30089080  0.29224837  0.37763489  1
  Zr  Zr53  1  0.00217020  -0.00320265  0.00195592  1
  Zr  Zr54  1  0.19103483  0.79487758  0.74527016  1
  Zr  Zr55  1  0.50709917  0.70314383  0.61902108  1
  Zr  Zr56  1  0.08734812  0.30775959  0.36623904  1
  Zr  Zr57  1  0.39949172  0.00670798  0.23487549  1
  Zr  Zr58  1  0.49252479  0.89772389  0.37634986  1
  Zr  Zr59  1  0.50177195  0.29186896  0.87946809  1
  Zr  Zr60  1  0.79698549  0.40641590  0.74160921  1
  Zr  Zr61  1  0.59692985  0.00633828  0.24677394  1
  Zr  Zr62  1  0.39761078  0.40038583  -0.00126203  1
  Zr  Zr63  1  0.90629777  0.10173847  0.63697618  1
  Zr  Zr64  1  0.61049724  0.80551957  0.23671846  1
  Zr  Zr65  1  0.70758627  0.29402028  0.37203192  1
  Zr  Zr66  1  0.29986300  0.09696841  0.39224504  1
  Zr  Zr67  1  0.09579372  0.69799358  0.12513576  1
  Zr  Zr68  1  0.09647987  0.29836013  0.11611781  1
  Zr  Zr69  1  0.40941632  0.38581841  0.50292828  1
  Zr  Zr70  1  0.51270199  0.49794499  0.60952041  1
  Zr  Zr71  1  0.87895332  0.10057586  0.35848238  1
  Zr  Zr72  1  0.28674009  0.28049197  0.62148925  1
  Zr  Zr73  1  0.29472178  0.69559195  0.87757438  1
  Zr  Zr74  1  0.30273922  0.50366026  0.37473012  1
  Zr  Zr75  1  0.80223033  0.60613515  0.24483912  1
  Zr  Zr76  1  0.80206401  -0.00770859  0.76089129  1
  Zr  Zr77  1  0.91742401  0.29448313  0.61770537  1
  Zr  Zr78  1  0.19227406  0.80945023  -0.00189924  1
  Zr  Zr79  1  0.40615544  0.58489870  -0.01429208  1
  Ta  Ta80  1  0.70275573  0.10372782  0.87721001  1
  Ta  Ta81  1  0.70135502  0.70287598  0.37065745  1
  Ta  Ta82  1  0.19651897  0.80085356  0.50978877  1
  Ta  Ta83  1  0.59764207  0.38877966  0.25214463  1
  Ta  Ta84  1  0.80372373  0.20044556  0.00436632  1
  Ta  Ta85  1  0.69805738  0.90112477  0.63315219  1
  Ta  Ta86  1  0.50856801  0.70421103  0.87799693  1
  Ta  Ta87  1  0.60259368  0.39486489  0.74825213  1
  Ta  Ta88  1  -0.00597960  0.40792181  0.00855302  1
  Ta  Ta89  1  0.60004297  0.19404227  0.26343399  1
  Ta  Ta90  1  0.29696077  0.50187405  0.62157049  1
  Ta  Ta91  1  0.00385347  0.19396453  0.47898615  1
  Ta  Ta92  1  0.19909257  0.00404278  0.76499258  1
  Ta  Ta93  1  0.60283517  0.19997436  0.75099624  1
  Ta  Ta94  1  0.09432131  0.69131074  0.88748439  1
  Ta  Ta95  1  0.30822664  0.50565879  0.14095753  1
  Ta  Ta96  1  0.39899235  0.00413222  -0.00499399  1
  Ta  Ta97  1  0.70093460  0.29949365  0.88656142  1
  Ta  Ta98  1  0.30250193  0.90200132  0.87150308  1
  Ta  Ta99  1  0.50458806  0.90268131  0.63236765  1
  Ta  Ta100  1  0.50032966  0.50594737  0.15186321  1
  Ta  Ta101  1  0.90061973  0.71628338  0.37019390  1
  Ta  Ta102  1  0.29530914  0.90422531  0.62870465  1
  Ta  Ta103  1  0.49798982  0.89430632  0.11233622  1
  Ta  Ta104  1  -0.00347675  0.18750769  0.23813831  1
  Ta  Ta105  1  0.20264891  0.59377042  0.00781428  1
  Ta  Ta106  1  0.10093977  0.91377127  0.63230577  1
  Ta  Ta107  1  0.40643364  0.39092906  0.25060083  1
  Ta  Ta108  1  0.09394624  0.70652768  0.37432075  1
  Ta  Ta109  1  0.09102297  0.50407178  0.37505059  1
  Ta  Ta110  1  0.90182553  0.10502859  0.88109809  1
  Ta  Ta111  1  0.70306377  0.69917763  0.88475080  1
  Ta  Ta112  1  0.39257168  0.60979956  0.50496275  1
  Ta  Ta113  1  0.50495153  0.10184484  0.39489097  1
  Ta  Ta114  1  0.50727474  0.10040181  0.62949855  1
  Ta  Ta115  1  0.60174640  0.00261731  0.75431689  1
  Ta  Ta116  1  0.69791840  0.49667098  0.13519588  1
  Ta  Ta117  1  0.69456237  0.10130041  0.62454477  1
  Ta  Ta118  1  0.39977166  0.00359422  0.75410336  1
  Ta  Ta119  1  0.79865758  0.39410600  0.50823007  1
  Ti  Ti120  1  0.10027616  0.50491514  0.12250995  1
  Ti  Ti121  1  0.40035278  0.79905831  -0.00460570  1
  Ti  Ti122  1  0.59760897  0.20619598  0.50082452  1
  Ti  Ti123  1  0.80828007  0.80282589  0.22983009  1
  Ti  Ti124  1  0.89318837  0.29690262  0.13126320  1
  Ti  Ti125  1  0.80683898  0.60577877  0.75006299  1
  Ti  Ti126  1  0.80857867  0.80620524  0.51126817  1
  Ti  Ti127  1  0.60647408  0.00223550  0.50256379  1
  Ti  Ti128  1  0.80243628  0.40010162  0.01508733  1
  Ti  Ti129  1  0.69960444  0.69655586  0.11937324  1
  Ti  Ti130  1  0.19015386  0.00544162  0.50470808  1
  Ti  Ti131  1  -0.00484322  0.40586395  0.23006075  1
  Ti  Ti132  1  0.29183993  0.50045441  0.86106154  1
  Ti  Ti133  1  0.30603339  0.70922039  0.37629721  1
  Ti  Ti134  1  -0.00232352  0.19070167  0.00976834  1
  Ti  Ti135  1  0.18046982  0.19279798  0.48858484  1
  Ti  Ti136  1  0.69556574  0.50058510  0.60800902  1
  Ti  Ti137  1  0.30787538  0.89546647  0.12063553  1
  Ti  Ti138  1  0.19807254  0.60161768  0.25656531  1
  Ti  Ti139  1  0.61156798  0.80328986  0.75933299  1
  Ti  Ti140  1  0.29018136  0.09769597  0.63185088  1
  Ti  Ti141  1  0.90289330  0.89959182  0.35570936  1
  Ti  Ti142  1  -0.00001334  0.61105679  0.49706559  1
  Ti  Ti143  1  0.50701152  0.09894936  0.88017980  1
  Ti  Ti144  1  0.69289675  0.30058327  0.61858275  1
  Ti  Ti145  1  0.70091275  0.29890617  0.12652988  1
  Ti  Ti146  1  0.19247688  0.60493612  0.73456635  1
  Ti  Ti147  1  0.79910751  -0.00095812  0.22717848  1
  Ti  Ti148  1  0.89327803  0.50751680  0.11647331  1
  Ti  Ti149  1  -0.00387834  0.00710322  0.23696402  1
  Ti  Ti150  1  0.79696959  0.19445373  0.50624738  1
  Ti  Ti151  1  0.20811307  0.18940857  -0.00588723  1
  Ti  Ti152  1  0.80657898  -0.00405959  0.00052460  1
  Ti  Ti153  1  0.39340860  0.18869499  -0.00324794  1
  Ti  Ti154  1  0.30456873  0.29550713  0.12049714  1
  Ti  Ti155  1  0.90117698  0.51327521  0.88984984  1
  Ti  Ti156  1  0.08904509  0.89619040  0.13686121  1
  Ti  Ti157  1  0.41104035  0.19883770  0.51155058  1
  Ti  Ti158  1  0.00387236  -0.00296930  0.76976579  1
  Ti  Ti159  1  0.09414093  0.50216237  0.61640339  1
  Mo  Mo160  1  0.69881081  0.89904694  0.86750250  1
  Mo  Mo161  1  0.60750536  0.60560599  0.48486283  1
  Mo  Mo162  1  0.79725577  0.20015985  0.23306181  1
  Mo  Mo163  1  0.89529124  0.68745368  0.89617965  1
  Mo  Mo164  1  0.89964510  0.90695504  0.87965326  1
  Mo  Mo165  1  0.70225086  0.90411988  0.12930985  1
  Mo  Mo166  1  0.60675062  0.19746303  -0.01268066  1
  Mo  Mo167  1  0.60939328  0.39204648  0.50235769  1
  Mo  Mo168  1  0.60524285  0.60059111  0.24776383  1
  Mo  Mo169  1  0.09776672  0.70056049  0.61395289  1
  Mo  Mo170  1  0.39242415  0.80170584  0.52047300  1
  Mo  Mo171  1  0.80016199  0.60375203  0.01145423  1
  Mo  Mo172  1  0.50122116  0.09831634  0.10147212  1
  Mo  Mo173  1  0.51100171  0.29051522  0.62904410  1
  Mo  Mo174  1  -0.00338666  0.59863067  0.00620100  1
  Mo  Mo175  1  0.09787110  0.10119633  0.11909484  1
  Mo  Mo176  1  0.30113705  0.10065631  0.10713064  1
  Mo  Mo177  1  0.39543646  0.80371465  0.23323226  1
  Mo  Mo178  1  0.89546978  0.70258459  0.12723807  1
  Mo  Mo179  1  -0.00166700  0.19698176  0.77420369  1
  Mo  Mo180  1  0.00112735  0.39924282  0.50098450  1
  Mo  Mo181  1  0.69505396  0.10005488  0.38706959  1
  Mo  Mo182  1  0.09756921  0.10107457  0.87964532  1
  Mo  Mo183  1  0.29844733  0.29341353  0.87864304  1
  Mo  Mo184  1  0.20356835  0.19415907  0.77219421  1
  Mo  Mo185  1  0.60009650  0.79489967  -0.00085374  1
  Mo  Mo186  1  0.79929724  0.39807504  0.22926708  1
  Mo  Mo187  1  0.50549520  0.29258208  0.37536889  1
  Mo  Mo188  1  0.39572426  0.60116908  0.26647174  1
  Mo  Mo189  1  0.30131583  0.09756108  0.87581288  1
  Mo  Mo190  1  0.89950540  0.90507969  0.13275138  1
  Mo  Mo191  1  0.89703425  0.10168368  0.11850412  1
  Mo  Mo192  1  0.89769426  0.70181792  0.60667378  1
  Mo  Mo193  1  0.50788611  0.49684545  0.85969621  1
  Mo  Mo194  1  0.09661854  0.29241485  0.62024165  1
  Mo  Mo195  1  -0.00576051  0.80446864  0.24868470  1
  Mo  Mo196  1  0.10251650  0.89915447  0.86541831  1
  Mo  Mo197  1  0.90247271  0.90433000  0.63896775  1
  Mo  Mo198  1  0.09353159  0.09682763  0.36389508  1
  Mo  Mo199  1  0.29722744  0.70185186  0.61975856  1
