# generated using pymatgen
data_HfZrTaTiMo
_symmetry_space_group_name_H-M   'P 1'
_cell_length_a   15.92893505
_cell_length_b   15.93050699
_cell_length_c   15.21199543
_cell_angle_alpha   90.03583847
_cell_angle_beta   90.02808559
_cell_angle_gamma   89.99010045
_symmetry_Int_Tables_number   1
_chemical_formula_structural   HfZrTaTiMo
_chemical_formula_sum   'Hf40 Zr40 Ta40 Ti40 Mo40'
_cell_volume   3860.13400604
_cell_formula_units_Z   40
loop_
 _symmetry_equiv_pos_site_id
 _symmetry_equiv_pos_as_xyz
  1  'x, y, z'
loop_
 _atom_site_type_symbol
 _atom_site_label
 _atom_site_symmetry_multiplicity
 _atom_site_fract_x
 _atom_site_fract_y
 _atom_site_fract_z
 _atom_site_occupancy
  Hf  Hf0  1  0.59868877  0.00437227  0.25985863  1
  Hf  Hf1  1  0.80450830  0.79400217  0.26775169  1
  Hf  Hf2  1  0.09467202  0.10045004  0.61091347  1
  Hf  Hf3  1  0.59080075  0.40592033  0.24452959  1
  Hf  Hf4  1  0.69545710  0.49280550  0.88403454  1
  Hf  Hf5  1  0.00078979  0.39383817  0.25449942  1
  Hf  Hf6  1  0.39910784  0.79956919  0.49666316  1
  Hf  Hf7  1  0.20130609  0.00564384  0.74349272  1
  Hf  Hf8  1  0.10245654  0.70331300  0.89184482  1
  Hf  Hf9  1  0.19714492  0.41190878  0.50150737  1
  Hf  Hf10  1  0.11344855  0.89235796  0.36468789  1
  Hf  Hf11  1  0.22215241  0.20569308  0.49829323  1
  Hf  Hf12  1  0.21274553  0.59002446  0.00487053  1
  Hf  Hf13  1  0.49521007  0.10332841  0.12428760  1
  Hf  Hf14  1  0.39949863  -0.00409652  0.74159710  1
  Hf  Hf15  1  0.80050982  0.19885945  0.26554778  1
  Hf  Hf16  1  0.78956543  0.39890069  0.23714381  1
  Hf  Hf17  1  0.90570764  0.09940276  0.12186558  1
  Hf  Hf18  1  0.81094740  -0.01759525  -0.01610209  1
  Hf  Hf19  1  0.10235921  0.70250260  0.62608032  1
  Hf  Hf20  1  0.28950225  0.31276483  0.86913470  1
  Hf  Hf21  1  0.50266450  0.09473739  0.87352766  1
  Hf  Hf22  1  -0.00064686  0.38205450  -0.00073241  1
  Hf  Hf23  1  0.40061588  0.19273535  0.73501966  1
  Hf  Hf24  1  0.30218256  0.89871530  0.88622183  1
  Hf  Hf25  1  0.79434489  0.60762423  0.24560835  1
  Hf  Hf26  1  0.49725317  0.30947829  0.85705908  1
  Hf  Hf27  1  0.88717196  0.49578925  0.36900610  1
  Hf  Hf28  1  0.60943124  0.80190781  0.24944611  1
  Hf  Hf29  1  0.49496784  0.51356736  0.88676244  1
  Hf  Hf30  1  0.10528566  0.10346121  0.12608388  1
  Hf  Hf31  1  0.60048243  -0.00587106  -0.00115975  1
  Hf  Hf32  1  0.40743791  0.62262488  0.74828372  1
  Hf  Hf33  1  0.60168064  0.60276162  0.74695182  1
  Hf  Hf34  1  0.89985432  0.49455942  0.87999074  1
  Hf  Hf35  1  0.00038158  0.80841730  0.75799471  1
  Hf  Hf36  1  0.68823167  0.89805570  0.86229121  1
  Hf  Hf37  1  0.79026307  0.00326515  0.26506657  1
  Hf  Hf38  1  0.79427864  0.79790763  0.75396774  1
  Hf  Hf39  1  0.10345659  0.90001848  0.13005530  1
  Zr  Zr40  1  0.10002187  0.49532504  0.12379605  1
  Zr  Zr41  1  0.90174029  0.69556085  0.62625547  1
  Zr  Zr42  1  0.39025491  0.40917267  0.01626995  1
  Zr  Zr43  1  0.09679954  0.30050795  0.62421813  1
  Zr  Zr44  1  0.29401818  0.70192238  0.35774199  1
  Zr  Zr45  1  0.70549703  0.09825102  0.11186947  1
  Zr  Zr46  1  0.31204040  0.70362636  0.89050755  1
  Zr  Zr47  1  0.40629533  0.21164859  0.00090105  1
  Zr  Zr48  1  0.90150603  0.50389824  0.11541916  1
  Zr  Zr49  1  0.89273537  0.29426549  0.63784268  1
  Zr  Zr50  1  -0.01970693  0.81793722  -0.00897142  1
  Zr  Zr51  1  0.91249610  0.90606503  0.38373869  1
  Zr  Zr52  1  0.69371193  0.89947231  0.40163044  1
  Zr  Zr53  1  0.70647266  0.71550303  0.10533664  1
  Zr  Zr54  1  0.70081191  0.70102995  0.62491665  1
  Zr  Zr55  1  0.90257167  0.90515528  0.61933545  1
  Zr  Zr56  1  0.59013949  0.38604576  0.01538415  1
  Zr  Zr57  1  0.39993820  0.39230630  0.25037849  1
  Zr  Zr58  1  0.48829654  0.48910022  0.63843730  1
  Zr  Zr59  1  0.20368883  0.80600089  0.75055064  1
  Zr  Zr60  1  0.10976398  0.48862299  0.88047674  1
  Zr  Zr61  1  0.58465618  0.40008520  0.49952464  1
  Zr  Zr62  1  0.80344797  0.20619924  0.48267717  1
  Zr  Zr63  1  0.88990325  0.89331036  0.13629579  1
  Zr  Zr64  1  0.00422057  0.59157626  0.49968079  1
  Zr  Zr65  1  0.92421609  0.08804476  0.85861720  1
  Zr  Zr66  1  0.50861125  0.69217251  0.36537280  1
  Zr  Zr67  1  0.70389750  0.10085482  0.62300464  1
  Zr  Zr68  1  0.09645741  0.70241190  0.11457794  1
  Zr  Zr69  1  0.59973040  0.20013967  0.25993619  1
  Zr  Zr70  1  0.30189593  0.90510127  0.12891417  1
  Zr  Zr71  1  0.10038052  0.08589210  0.38476088  1
  Zr  Zr72  1  0.20467921  0.19972665  0.26893791  1
  Zr  Zr73  1  0.09019414  0.92712987  0.88631923  1
  Zr  Zr74  1  0.39810329  0.59138195  0.49359650  1
  Zr  Zr75  1  0.80694423  0.20607845  -0.01642894  1
  Zr  Zr76  1  -0.01529253  0.40145285  0.50324552  1
  Zr  Zr77  1  0.69654761  0.30097406  0.62119123  1
  Zr  Zr78  1  0.20604855  0.19592475  0.74088428  1
  Zr  Zr79  1  0.38763781  0.39205817  0.48534162  1
  Ta  Ta80  1  0.59384989  0.79398728  0.51057717  1
  Ta  Ta81  1  0.69230913  0.69740885  0.87868721  1
  Ta  Ta82  1  0.59670715  0.59655957  0.50851961  1
  Ta  Ta83  1  0.59336454  -0.00340595  0.73654359  1
  Ta  Ta84  1  0.00628411  0.79347966  0.48779179  1
  Ta  Ta85  1  0.68819584  0.50633867  0.37627330  1
  Ta  Ta86  1  0.30289987  0.10391582  0.11869906  1
  Ta  Ta87  1  0.50741138  0.69247162  0.11884724  1
  Ta  Ta88  1  -0.01022300  0.19863610  0.48021706  1
  Ta  Ta89  1  0.57419048  0.79628337  0.74744444  1
  Ta  Ta90  1  0.90599382  0.10425686  0.63284124  1
  Ta  Ta91  1  0.90381993  0.29132025  0.13069465  1
  Ta  Ta92  1  -0.00078821  0.78634030  0.25963597  1
  Ta  Ta93  1  0.09674657  0.29537232  0.86095243  1
  Ta  Ta94  1  -0.00190355  0.20022281  0.26621229  1
  Ta  Ta95  1  0.00160118  0.59694494  0.75595894  1
  Ta  Ta96  1  0.40340055  0.00309625  0.49957088  1
  Ta  Ta97  1  0.89457264  0.69581411  0.87720050  1
  Ta  Ta98  1  0.30100283  0.70233743  0.62414075  1
  Ta  Ta99  1  0.80047027  0.59059445  0.50196703  1
  Ta  Ta100  1  0.59618397  0.19645698  0.74024051  1
  Ta  Ta101  1  -0.00661737  0.60745488  0.26008927  1
  Ta  Ta102  1  0.29143099  0.29341997  0.13256901  1
  Ta  Ta103  1  0.40901512  0.59222482  0.23788576  1
  Ta  Ta104  1  0.19796012  0.60345142  0.75175879  1
  Ta  Ta105  1  0.80487913  0.01134053  0.49673572  1
  Ta  Ta106  1  0.69788980  0.31205307  0.38448839  1
  Ta  Ta107  1  0.21360386  -0.00644093  0.50082556  1
  Ta  Ta108  1  0.50494820  0.89991564  0.13188705  1
  Ta  Ta109  1  0.20139561  0.59918878  0.50606807  1
  Ta  Ta110  1  0.29352737  0.50389734  0.64135483  1
  Ta  Ta111  1  0.30261587  0.50062986  0.86226166  1
  Ta  Ta112  1  0.40760326  0.80264437  0.24525167  1
  Ta  Ta113  1  0.00022948  0.40716803  0.74293665  1
  Ta  Ta114  1  0.79756669  0.59996498  -0.00512140  1
  Ta  Ta115  1  0.68570554  0.51421926  0.11354596  1
  Ta  Ta116  1  0.30280167  0.70514357  0.12662282  1
  Ta  Ta117  1  0.20275167  0.79734005  0.49943747  1
  Ta  Ta118  1  0.29945192  0.10065904  0.88916045  1
  Ta  Ta119  1  0.70141581  0.10021960  0.86035415  1
  Ti  Ti120  1  0.80544467  0.79397934  0.49810984  1
  Ti  Ti121  1  0.70056542  0.29479669  0.86177616  1
  Ti  Ti122  1  0.09949369  0.30341506  0.38533356  1
  Ti  Ti123  1  0.49933679  0.89830808  0.61852256  1
  Ti  Ti124  1  0.19376269  0.60463332  0.24177778  1
  Ti  Ti125  1  0.40597504  -0.00380080  -0.00093010  1
  Ti  Ti126  1  0.80118801  -0.00199367  0.74649753  1
  Ti  Ti127  1  0.29440969  0.49831732  0.13873806  1
  Ti  Ti128  1  0.20101221  0.00904058  0.00239817  1
  Ti  Ti129  1  0.19807740  0.20763408  -0.00457124  1
  Ti  Ti130  1  0.39693308  0.19206836  0.26475069  1
  Ti  Ti131  1  0.10372589  0.50514564  0.36582065  1
  Ti  Ti132  1  0.40953264  0.19750830  0.50855433  1
  Ti  Ti133  1  0.69667597  0.90100561  0.62004139  1
  Ti  Ti134  1  0.21692182  0.00802788  0.25756518  1
  Ti  Ti135  1  0.49844209  0.29066698  0.37746767  1
  Ti  Ti136  1  0.40459626  0.00809705  0.26636020  1
  Ti  Ti137  1  0.79601085  0.39221416  0.00742881  1
  Ti  Ti138  1  0.30465300  0.89819025  0.36701239  1
  Ti  Ti139  1  0.90372395  0.69748439  0.10558802  1
  Ti  Ti140  1  0.79817245  0.40276314  0.75065841  1
  Ti  Ti141  1  0.69911657  0.29067207  0.12301768  1
  Ti  Ti142  1  0.10181887  0.29447006  0.12774946  1
  Ti  Ti143  1  0.90286442  0.29461734  0.85582958  1
  Ti  Ti144  1  0.10479384  0.69602041  0.37274709  1
  Ti  Ti145  1  0.00008230  0.00148404  0.24827774  1
  Ti  Ti146  1  0.60155559  0.39950750  0.74381726  1
  Ti  Ti147  1  0.30122730  0.89579447  0.62223860  1
  Ti  Ti148  1  0.70097527  0.69309276  0.38932885  1
  Ti  Ti149  1  0.60230166  0.20116895  -0.00778165  1
  Ti  Ti150  1  0.31250510  0.31700806  0.63812436  1
  Ti  Ti151  1  0.00854087  0.19373532  -0.01052418  1
  Ti  Ti152  1  0.19955640  0.39290012  0.25904810  1
  Ti  Ti153  1  0.09886691  0.90230336  0.61001318  1
  Ti  Ti154  1  0.70695521  0.49472442  0.61870146  1
  Ti  Ti155  1  0.29328824  0.50521470  0.36016034  1
  Ti  Ti156  1  0.59373481  0.80599218  -0.00571691  1
  Ti  Ti157  1  0.50095774  0.90207992  0.38045021  1
  Ti  Ti158  1  0.41037541  0.80353305  0.01194448  1
  Ti  Ti159  1  0.80057406  0.59180062  0.75228330  1
  Mo  Mo160  1  0.11230010  0.10945659  0.88378919  1
  Mo  Mo161  1  0.89799131  0.30468001  0.36086187  1
  Mo  Mo162  1  0.20235560  0.79653498  0.24777677  1
  Mo  Mo163  1  0.89403576  0.90104537  0.85057594  1
  Mo  Mo164  1  0.69369672  0.89967891  0.11856403  1
  Mo  Mo165  1  -0.00441042  0.59887134  -0.01706942  1
  Mo  Mo166  1  0.40195480  0.80619669  0.73883052  1
  Mo  Mo167  1  0.59601667  -0.00409696  0.51415702  1
  Mo  Mo168  1  0.49671446  0.70061051  0.61114379  1
  Mo  Mo169  1  0.39905806  0.60129752  0.02167405  1
  Mo  Mo170  1  0.00437543  0.00870839  0.01864276  1
  Mo  Mo171  1  0.90353978  0.09608761  0.37054482  1
  Mo  Mo172  1  0.79748867  0.19877908  0.76255100  1
  Mo  Mo173  1  0.49957512  0.50692647  0.12217455  1
  Mo  Mo174  1  0.31146197  0.09531618  0.38655763  1
  Mo  Mo175  1  0.79335858  0.79854596  -0.02123326  1
  Mo  Mo176  1  0.89094810  0.50033634  0.64288317  1
  Mo  Mo177  1  0.89894235  0.69671144  0.38839634  1
  Mo  Mo178  1  0.09929498  0.50610925  0.63753227  1
  Mo  Mo179  1  0.49304580  0.89468701  0.87176901  1
  Mo  Mo180  1  0.50238306  0.70930618  0.89528939  1
  Mo  Mo181  1  0.20092567  0.38890649  0.01533406  1
  Mo  Mo182  1  0.50419405  0.09669572  0.61378342  1
  Mo  Mo183  1  0.19724908  0.40543429  0.73541362  1
  Mo  Mo184  1  0.79111947  0.40865001  0.49884527  1
  Mo  Mo185  1  0.00426243  0.20136593  0.75593860  1
  Mo  Mo186  1  0.50144938  0.50337270  0.36561410  1
  Mo  Mo187  1  0.39857433  0.40538329  0.75792325  1
  Mo  Mo188  1  0.50220643  0.10011171  0.39206608  1
  Mo  Mo189  1  0.49779572  0.29517574  0.63374899  1
  Mo  Mo190  1  0.20716794  0.80497127  0.01234229  1
  Mo  Mo191  1  0.30081640  0.29956783  0.36929787  1
  Mo  Mo192  1  0.59741448  0.60483620  -0.00923004  1
  Mo  Mo193  1  0.00979832  0.00248783  0.72770127  1
  Mo  Mo194  1  0.60509783  0.60157111  0.25063507  1
  Mo  Mo195  1  0.59294266  0.19756096  0.49645160  1
  Mo  Mo196  1  0.30358725  0.09294871  0.60809798  1
  Mo  Mo197  1  0.00356765  -0.00211496  0.50778399  1
  Mo  Mo198  1  0.49416138  0.28978316  0.13932215  1
  Mo  Mo199  1  0.69324490  0.10324801  0.39735096  1
