# generated using pymatgen
data_HfZrTaTiMo
_symmetry_space_group_name_H-M   'P 1'
_cell_length_a   15.93821424
_cell_length_b   15.91567798
_cell_length_c   15.20367648
_cell_angle_alpha   90.02112360
_cell_angle_beta   90.03084017
_cell_angle_gamma   90.02843389
_symmetry_Int_Tables_number   1
_chemical_formula_structural   HfZrTaTiMo
_chemical_formula_sum   'Hf40 Zr40 Ta40 Ti40 Mo40'
_cell_volume   3856.67708659
_cell_formula_units_Z   40
loop_
 _symmetry_equiv_pos_site_id
 _symmetry_equiv_pos_as_xyz
  1  'x, y, z'
loop_
 _atom_site_type_symbol
 _atom_site_label
 _atom_site_symmetry_multiplicity
 _atom_site_fract_x
 _atom_site_fract_y
 _atom_site_fract_z
 _atom_site_occupancy
  Hf  Hf0  1  0.70623154  0.69425982  0.86679459  1
  Hf  Hf1  1  0.69817718  0.89472000  0.87960243  1
  Hf  Hf2  1  0.49125083  0.90621135  0.88605683  1
  Hf  Hf3  1  0.58911800  0.58085074  0.75643589  1
  Hf  Hf4  1  0.30366083  0.09943977  0.85031215  1
  Hf  Hf5  1  0.09733448  0.71065931  0.87633009  1
  Hf  Hf6  1  0.20391399  0.80262202  0.25812530  1
  Hf  Hf7  1  0.90250064  0.68433160  0.61282262  1
  Hf  Hf8  1  0.81362389  0.80127066  0.73437845  1
  Hf  Hf9  1  0.49632741  0.70729552  0.88756358  1
  Hf  Hf10  1  0.21486316  0.78447385  0.48877353  1
  Hf  Hf11  1  0.39130962  0.60059417  0.24536935  1
  Hf  Hf12  1  0.60048618  0.39988562  0.75231955  1
  Hf  Hf13  1  0.09882163  0.49188676  0.88738375  1
  Hf  Hf14  1  -0.00265226  0.39151395  0.01089128  1
  Hf  Hf15  1  0.49325065  0.49271559  0.37072005  1
  Hf  Hf16  1  0.59027135  0.78268842  0.48960663  1
  Hf  Hf17  1  0.20787970  0.00317715  -0.00291056  1
  Hf  Hf18  1  0.69881631  0.68798639  0.63047980  1
  Hf  Hf19  1  0.59197671  0.00498495  0.74715478  1
  Hf  Hf20  1  0.80021444  0.59313624  0.02236594  1
  Hf  Hf21  1  0.10985391  0.69201033  0.62152369  1
  Hf  Hf22  1  0.49638269  0.90719653  0.39356552  1
  Hf  Hf23  1  0.50877329  0.10661928  0.11953079  1
  Hf  Hf24  1  0.80257344  -0.00335314  0.50441899  1
  Hf  Hf25  1  0.59925846  0.21093960  0.75301159  1
  Hf  Hf26  1  0.80024375  0.00036850  0.73360997  1
  Hf  Hf27  1  0.39329515  0.40838559  0.50682128  1
  Hf  Hf28  1  0.38908373  0.62143597  0.47584138  1
  Hf  Hf29  1  0.20750792  0.60012085  0.76576924  1
  Hf  Hf30  1  0.60855841  0.60166088  0.25101790  1
  Hf  Hf31  1  0.79486614  0.78141465  0.02200055  1
  Hf  Hf32  1  0.59875432  0.19398191  0.27122224  1
  Hf  Hf33  1  0.59870109  0.20950741  -0.01928759  1
  Hf  Hf34  1  0.00290681  0.19946800  -0.00241110  1
  Hf  Hf35  1  0.00404422  0.79160708  0.49658774  1
  Hf  Hf36  1  0.30719017  0.48006911  0.88866995  1
  Hf  Hf37  1  0.20453301  0.39780869  0.73866860  1
  Hf  Hf38  1  -0.00344560  0.59626534  0.75414659  1
  Hf  Hf39  1  0.79853325  0.19882673  0.49693660  1
  Zr  Zr40  1  0.20934715  -0.00076821  0.25464149  1
  Zr  Zr41  1  0.91364933  0.10205252  0.38369697  1
  Zr  Zr42  1  0.88559144  0.29857641  0.86865698  1
  Zr  Zr43  1  -0.00550037  0.40541181  0.74477584  1
  Zr  Zr44  1  0.12013150  0.30646976  0.38814486  1
  Zr  Zr45  1  0.79389226  0.00948259  -0.00175857  1
  Zr  Zr46  1  -0.00539205  0.59821766  0.01905216  1
  Zr  Zr47  1  0.01695161  0.40219774  0.24834643  1
  Zr  Zr48  1  0.89834898  0.69478381  0.37139671  1
  Zr  Zr49  1  0.10090118  0.50291555  0.60655064  1
  Zr  Zr50  1  0.41263764  0.41357472  0.73369562  1
  Zr  Zr51  1  0.01076423  -0.00470248  0.24845353  1
  Zr  Zr52  1  0.20730153  0.60655343  -0.00077838  1
  Zr  Zr53  1  -0.00023083  0.79045516  0.01648862  1
  Zr  Zr54  1  0.48131120  0.69312067  0.63398514  1
  Zr  Zr55  1  0.89181720  0.30619677  0.61629106  1
  Zr  Zr56  1  0.21134617  0.20778271  -0.01482543  1
  Zr  Zr57  1  0.59266483  0.80098922  0.74671278  1
  Zr  Zr58  1  0.90050983  0.09822874  0.86702073  1
  Zr  Zr59  1  0.88411343  0.30130716  0.14116487  1
  Zr  Zr60  1  0.59357277  0.39048786  0.24768869  1
  Zr  Zr61  1  0.50015635  0.90694291  0.11747275  1
  Zr  Zr62  1  0.59251884  0.59431520  0.49031483  1
  Zr  Zr63  1  0.89854848  0.90530742  0.12605963  1
  Zr  Zr64  1  0.40427176  0.00816362  0.25792506  1
  Zr  Zr65  1  0.68203073  0.89953929  0.12859339  1
  Zr  Zr66  1  0.10990385  0.10380453  0.39242564  1
  Zr  Zr67  1  0.50362163  0.71989200  0.12187580  1
  Zr  Zr68  1  0.89564308  0.49420459  0.36917684  1
  Zr  Zr69  1  0.79141469  0.00748319  0.26307076  1
  Zr  Zr70  1  0.61024621  0.60037288  0.00764221  1
  Zr  Zr71  1  0.00440906  0.79900451  0.24984992  1
  Zr  Zr72  1  0.00150317  0.20178181  0.74070861  1
  Zr  Zr73  1  0.90684621  0.89085132  0.88427306  1
  Zr  Zr74  1  0.49901795  0.49685575  0.11838899  1
  Zr  Zr75  1  0.68763882  0.89867838  0.60945674  1
  Zr  Zr76  1  0.89499757  0.10564675  0.13084977  1
  Zr  Zr77  1  0.11558527  0.10758981  0.12671611  1
  Zr  Zr78  1  -0.00176970  -0.01659459  0.73360459  1
  Zr  Zr79  1  0.01623111  0.20713798  0.24705695  1
  Ta  Ta80  1  0.29998441  0.89969782  0.87247540  1
  Ta  Ta81  1  0.78847282  0.20655367  0.00087317  1
  Ta  Ta82  1  0.10474865  0.10015575  0.62203281  1
  Ta  Ta83  1  0.00203720  0.40000036  0.49230464  1
  Ta  Ta84  1  0.49831029  0.10332258  0.61641977  1
  Ta  Ta85  1  0.11146859  0.29912481  0.86887262  1
  Ta  Ta86  1  0.30124413  0.52108067  0.61650547  1
  Ta  Ta87  1  0.11489001  0.69511449  0.13601841  1
  Ta  Ta88  1  0.69672164  0.30631365  0.39038489  1
  Ta  Ta89  1  0.70440102  0.49133219  0.61455715  1
  Ta  Ta90  1  0.30990392  0.10845206  0.13267320  1
  Ta  Ta91  1  0.39566845  0.38575999  0.01612170  1
  Ta  Ta92  1  0.79132551  0.79530361  0.25256434  1
  Ta  Ta93  1  0.29111201  0.29457276  0.13905364  1
  Ta  Ta94  1  0.78790620  0.59533487  0.48534231  1
  Ta  Ta95  1  0.10670615  0.90137042  0.88038497  1
  Ta  Ta96  1  0.40210703  0.20626358  0.73840749  1
  Ta  Ta97  1  0.21721438  0.19876902  0.51592699  1
  Ta  Ta98  1  0.49080043  0.29173093  0.39320446  1
  Ta  Ta99  1  0.69680845  0.89612004  0.38116948  1
  Ta  Ta100  1  0.69127539  0.10818960  0.61870396  1
  Ta  Ta101  1  0.80089265  0.58091576  0.74704874  1
  Ta  Ta102  1  0.90047931  0.30008320  0.37756476  1
  Ta  Ta103  1  0.59941846  0.00785004  0.27531036  1
  Ta  Ta104  1  0.20148439  -0.00729093  0.73829289  1
  Ta  Ta105  1  0.39405254  0.01107766  0.00177129  1
  Ta  Ta106  1  0.88976156  0.49790232  0.88392488  1
  Ta  Ta107  1  0.10523928  0.09677015  0.85645676  1
  Ta  Ta108  1  0.39115282  0.60914856  0.00295318  1
  Ta  Ta109  1  0.01202221  0.59676167  0.25052091  1
  Ta  Ta110  1  0.39306969  0.39489832  0.24690172  1
  Ta  Ta111  1  0.48703042  0.90268241  0.61115542  1
  Ta  Ta112  1  0.10766523  0.89629973  0.61066399  1
  Ta  Ta113  1  0.89628811  0.69227745  0.86958668  1
  Ta  Ta114  1  0.39879763  0.80204580  0.26546160  1
  Ta  Ta115  1  0.90065407  0.89883122  0.38361951  1
  Ta  Ta116  1  0.10164223  0.90494997  0.39571533  1
  Ta  Ta117  1  0.38902180  0.01563224  0.50621208  1
  Ta  Ta118  1  0.11281564  0.89597178  0.10843646  1
  Ta  Ta119  1  0.39984083  0.20410712  -0.00521264  1
  Ti  Ti120  1  0.40944768  0.20880139  0.24770993  1
  Ti  Ti121  1  0.10224060  0.29696794  0.61332323  1
  Ti  Ti122  1  0.30175945  0.29952873  0.62787373  1
  Ti  Ti123  1  0.39871754  0.59687256  0.77182660  1
  Ti  Ti124  1  0.90678405  0.10422064  0.61635849  1
  Ti  Ti125  1  0.30433866  0.89762993  0.62305279  1
  Ti  Ti126  1  0.30916377  0.89349199  0.11866451  1
  Ti  Ti127  1  0.89509947  0.49392531  0.14027933  1
  Ti  Ti128  1  0.59689234  0.39639798  -0.00198787  1
  Ti  Ti129  1  0.70282255  0.49069419  0.88280399  1
  Ti  Ti130  1  0.30176126  0.70395631  0.63820028  1
  Ti  Ti131  1  0.78139539  0.40308510  0.25631881  1
  Ti  Ti132  1  0.00326523  0.79913195  0.73672319  1
  Ti  Ti133  1  0.11451474  0.49133274  0.12004964  1
  Ti  Ti134  1  0.59831091  0.40382033  0.50173658  1
  Ti  Ti135  1  0.49044574  0.10227150  0.86462535  1
  Ti  Ti136  1  0.20047027  0.58910665  0.25996236  1
  Ti  Ti137  1  0.79237962  0.59797602  0.24395317  1
  Ti  Ti138  1  0.19882884  0.80558527  0.74954519  1
  Ti  Ti139  1  0.69756864  0.30206002  0.61385653  1
  Ti  Ti140  1  0.79541577  0.79235006  0.49493419  1
  Ti  Ti141  1  0.89487000  0.49934415  0.60367969  1
  Ti  Ti142  1  0.79016132  0.39649600  0.75046293  1
  Ti  Ti143  1  0.69578412  0.10419281  0.12725411  1
  Ti  Ti144  1  0.78803094  0.39621244  0.00883712  1
  Ti  Ti145  1  0.50479315  0.29691064  0.60961784  1
  Ti  Ti146  1  0.20729824  0.00359133  0.51082051  1
  Ti  Ti147  1  0.29440796  0.49526787  0.12050447  1
  Ti  Ti148  1  0.00848165  0.00369885  -0.00046908  1
  Ti  Ti149  1  0.39351953  0.80842110  0.75563412  1
  Ti  Ti150  1  0.71021916  0.11408592  0.85748456  1
  Ti  Ti151  1  0.48393784  0.31328205  0.87561582  1
  Ti  Ti152  1  0.30281238  0.30681928  0.37640243  1
  Ti  Ti153  1  0.60191871  0.01528715  -0.01641769  1
  Ti  Ti154  1  0.78651150  0.20104387  0.26771526  1
  Ti  Ti155  1  0.68897362  0.29408510  0.12717263  1
  Ti  Ti156  1  0.30250813  0.90555533  0.38902194  1
  Ti  Ti157  1  0.30956335  0.12070093  0.37423527  1
  Ti  Ti158  1  0.19973074  0.59444491  0.47096449  1
  Ti  Ti159  1  0.21718595  0.79261027  0.00236633  1
  Mo  Mo160  1  0.00704742  0.20391310  0.51144214  1
  Mo  Mo161  1  0.39638196  0.20636305  0.51581260  1
  Mo  Mo162  1  0.79603227  0.40149786  0.49196403  1
  Mo  Mo163  1  0.20737852  0.40068351  0.51780340  1
  Mo  Mo164  1  0.30325231  0.70996970  0.86087660  1
  Mo  Mo165  1  0.10183269  0.49872033  0.38215412  1
  Mo  Mo166  1  0.49502538  0.49834039  0.90117311  1
  Mo  Mo167  1  0.11151170  0.30370827  0.11839895  1
  Mo  Mo168  1  0.69793392  0.49476919  0.37800549  1
  Mo  Mo169  1  0.00399004  -0.00504444  0.51203468  1
  Mo  Mo170  1  0.30549243  0.29747901  0.85599654  1
  Mo  Mo171  1  0.60283456  0.80360594  -0.01153831  1
  Mo  Mo172  1  0.90114184  0.69031650  0.15215301  1
  Mo  Mo173  1  0.90401569  0.89095827  0.60369857  1
  Mo  Mo174  1  0.30030400  0.09812047  0.63742196  1
  Mo  Mo175  1  0.29653609  0.69714137  0.35470583  1
  Mo  Mo176  1  0.29935837  0.70212335  0.13885364  1
  Mo  Mo177  1  0.70155556  0.70062368  0.36513836  1
  Mo  Mo178  1  0.21742501  0.20433618  0.26279154  1
  Mo  Mo179  1  0.39258486  0.80613107  0.49182002  1
  Mo  Mo180  1  0.29119599  0.48989689  0.37359861  1
  Mo  Mo181  1  0.69863131  0.70133186  0.14322233  1
  Mo  Mo182  1  0.70590923  0.48457387  0.12630936  1
  Mo  Mo183  1  0.38813700  0.80460107  -0.00245959  1
  Mo  Mo184  1  0.20835357  0.40498755  0.24313350  1
  Mo  Mo185  1  0.69874991  0.30562075  0.87763833  1
  Mo  Mo186  1  0.49870572  0.50304129  0.61157057  1
  Mo  Mo187  1  0.59706661  0.20534103  0.49983054  1
  Mo  Mo188  1  0.79025345  0.19968005  0.72749178  1
  Mo  Mo189  1  0.00077126  0.59420717  0.47923019  1
  Mo  Mo190  1  0.20166407  0.39288294  0.00905079  1
  Mo  Mo191  1  0.19949918  0.20129086  0.73721115  1
  Mo  Mo192  1  0.69443884  0.09976602  0.39568440  1
  Mo  Mo193  1  0.59797933  0.80516348  0.27117373  1
  Mo  Mo194  1  0.49403719  0.29278751  0.11991167  1
  Mo  Mo195  1  0.40000075  -0.00315381  0.73147867  1
  Mo  Mo196  1  0.49369521  0.10732911  0.39653819  1
  Mo  Mo197  1  0.49866899  0.70533773  0.35756076  1
  Mo  Mo198  1  0.59579594  0.00658378  0.49765346  1
  Mo  Mo199  1  0.10251086  0.69489190  0.36528935  1
