# generated using pymatgen
data_HfZrTaTiMo
_symmetry_space_group_name_H-M   'P 1'
_cell_length_a   15.93586015
_cell_length_b   15.93485059
_cell_length_c   15.16982056
_cell_angle_alpha   89.97870567
_cell_angle_beta   90.07924645
_cell_angle_gamma   90.02219404
_symmetry_Int_Tables_number   1
_chemical_formula_structural   HfZrTaTiMo
_chemical_formula_sum   'Hf40 Zr40 Ta40 Ti40 Mo40'
_cell_volume   3852.15249546
_cell_formula_units_Z   40
loop_
 _symmetry_equiv_pos_site_id
 _symmetry_equiv_pos_as_xyz
  1  'x, y, z'
loop_
 _atom_site_type_symbol
 _atom_site_label
 _atom_site_symmetry_multiplicity
 _atom_site_fract_x
 _atom_site_fract_y
 _atom_site_fract_z
 _atom_site_occupancy
  Hf  Hf0  1  0.30726036  0.50824036  0.35448699  1
  Hf  Hf1  1  0.20117645  0.59831958  0.49919216  1
  Hf  Hf2  1  -0.00217946  0.59602108  0.00160322  1
  Hf  Hf3  1  0.08999487  0.29921481  0.13103690  1
  Hf  Hf4  1  0.79856495  0.18933203  -0.00100601  1
  Hf  Hf5  1  0.10528089  0.91008225  0.63134463  1
  Hf  Hf6  1  0.11499091  0.89957221  0.39672618  1
  Hf  Hf7  1  0.29411173  0.10909468  0.11093373  1
  Hf  Hf8  1  0.90831057  0.69082036  0.37642818  1
  Hf  Hf9  1  0.41050365  0.40002234  0.75714084  1
  Hf  Hf10  1  0.80005385  0.60284256  0.01391168  1
  Hf  Hf11  1  0.50989922  0.90216548  0.36184751  1
  Hf  Hf12  1  0.70932593  0.31193179  0.11387434  1
  Hf  Hf13  1  0.50493751  0.51071880  0.35690972  1
  Hf  Hf14  1  0.19251204  0.60491358  0.00942612  1
  Hf  Hf15  1  0.30499902  0.50455975  0.13541530  1
  Hf  Hf16  1  0.59630383  0.80944101  0.50768281  1
  Hf  Hf17  1  0.78665194  0.40443166  0.75495862  1
  Hf  Hf18  1  0.49580121  0.70146501  0.87043355  1
  Hf  Hf19  1  0.89460903  0.46963565  0.11123248  1
  Hf  Hf20  1  0.00757200  0.39105570  -0.02222458  1
  Hf  Hf21  1  0.60258857  0.81089423  0.74324308  1
  Hf  Hf22  1  0.40366617  0.00253799  0.00774607  1
  Hf  Hf23  1  0.91266779  0.90251464  0.11315573  1
  Hf  Hf24  1  0.49976685  0.90004908  0.87420632  1
  Hf  Hf25  1  0.40029904  0.79991692  0.49772355  1
  Hf  Hf26  1  0.40538456  -0.00558496  0.50694553  1
  Hf  Hf27  1  0.00259934  0.19266361  0.50949471  1
  Hf  Hf28  1  0.00065699  0.19862206  0.75423060  1
  Hf  Hf29  1  0.19040303  0.40426112  0.25241800  1
  Hf  Hf30  1  -0.00927879  0.40857266  0.49817300  1
  Hf  Hf31  1  0.09945496  0.70230874  0.37363294  1
  Hf  Hf32  1  0.60289083  0.60225090  0.01936115  1
  Hf  Hf33  1  0.30148072  0.29791034  0.63001847  1
  Hf  Hf34  1  -0.00699597  0.18193258  0.24646869  1
  Hf  Hf35  1  0.39939708  0.40015423  0.49187615  1
  Hf  Hf36  1  0.50283980  0.09821071  0.37591080  1
  Hf  Hf37  1  -0.00597711  0.79345033  0.74265460  1
  Hf  Hf38  1  0.79944717  0.19729284  0.25066819  1
  Hf  Hf39  1  0.79071480  0.20664687  0.50000530  1
  Zr  Zr40  1  0.88810188  0.29687048  0.87329906  1
  Zr  Zr41  1  0.40167821  0.60463414  0.49983961  1
  Zr  Zr42  1  0.79111813  0.59124636  0.24800133  1
  Zr  Zr43  1  0.18479579  0.20361317  -0.02084804  1
  Zr  Zr44  1  0.30491007  0.30459372  0.12398566  1
  Zr  Zr45  1  0.51090350  0.30645806  0.62165971  1
  Zr  Zr46  1  0.60315466  0.00558716  0.00377144  1
  Zr  Zr47  1  0.70546768  0.70207389  0.62288355  1
  Zr  Zr48  1  0.20270900  0.40132072  0.48856364  1
  Zr  Zr49  1  0.19789426  0.00096896  0.24457999  1
  Zr  Zr50  1  0.80843308  0.59597049  0.74508465  1
  Zr  Zr51  1  -0.00710706  0.60493359  0.74102456  1
  Zr  Zr52  1  0.40855140  0.60849962  0.00874137  1
  Zr  Zr53  1  0.81236336  0.00275412  0.25503992  1
  Zr  Zr54  1  0.19870212  0.19223863  0.49430232  1
  Zr  Zr55  1  0.80700512  0.40015394  0.27176356  1
  Zr  Zr56  1  -0.00500079  0.79918925  0.51482613  1
  Zr  Zr57  1  0.50282496  0.30059941  0.36494006  1
  Zr  Zr58  1  0.71163074  0.89447647  0.12558560  1
  Zr  Zr59  1  0.38966226  -0.00244964  0.24328448  1
  Zr  Zr60  1  0.80855936  0.81967860  0.75054234  1
  Zr  Zr61  1  0.09985441  0.89836609  0.86960561  1
  Zr  Zr62  1  0.31110169  0.51135746  0.88024028  1
  Zr  Zr63  1  0.50062227  0.11528276  0.87200686  1
  Zr  Zr64  1  0.60513748  0.58799748  0.74902378  1
  Zr  Zr65  1  0.09036836  0.29727447  0.36833713  1
  Zr  Zr66  1  0.10273092  0.30105762  0.63299128  1
  Zr  Zr67  1  0.20180239  0.60206717  0.75042076  1
  Zr  Zr68  1  0.19583901  0.40698660  -0.00369988  1
  Zr  Zr69  1  0.19644798  0.39358468  0.76996220  1
  Zr  Zr70  1  0.88924423  0.30636776  0.62764567  1
  Zr  Zr71  1  0.60090639  0.59939090  0.50013767  1
  Zr  Zr72  1  0.08620602  0.72092575  0.12511184  1
  Zr  Zr73  1  0.89297731  0.08476002  0.62989855  1
  Zr  Zr74  1  0.70115740  0.70795720  0.87946383  1
  Zr  Zr75  1  0.32143120  0.28316729  0.88392411  1
  Zr  Zr76  1  0.20083929  0.81582534  0.24195166  1
  Zr  Zr77  1  -0.00587939  0.58513033  0.23066168  1
  Zr  Zr78  1  0.68959267  0.09386149  0.38087305  1
  Zr  Zr79  1  0.49601654  0.49621166  0.14696567  1
  Ta  Ta80  1  0.20323722  0.79979116  0.74775240  1
  Ta  Ta81  1  0.60369929  0.20044782  0.23684262  1
  Ta  Ta82  1  0.89375956  0.08747714  0.86813598  1
  Ta  Ta83  1  0.00493464  -0.01091008  0.26243181  1
  Ta  Ta84  1  0.69611027  0.09905797  0.62292482  1
  Ta  Ta85  1  0.90559470  0.09641584  0.38847615  1
  Ta  Ta86  1  0.68587549  0.29404324  0.88191145  1
  Ta  Ta87  1  0.09697613  0.49980823  0.62651936  1
  Ta  Ta88  1  0.19405446  0.60679205  0.24043355  1
  Ta  Ta89  1  0.29695971  0.09511118  0.62803360  1
  Ta  Ta90  1  -0.00446911  0.18762697  -0.00955559  1
  Ta  Ta91  1  0.08804787  0.08983179  0.11387865  1
  Ta  Ta92  1  0.30086309  0.70302833  0.62945855  1
  Ta  Ta93  1  0.39630383  0.19598804  0.25100164  1
  Ta  Ta94  1  0.60307519  0.00168462  0.74467592  1
  Ta  Ta95  1  0.80120832  -0.00934295  0.48985524  1
  Ta  Ta96  1  0.79894826  0.80002804  0.49034347  1
  Ta  Ta97  1  0.40344914  -0.00096884  0.74166444  1
  Ta  Ta98  1  0.59816580  0.79990506  0.01011097  1
  Ta  Ta99  1  0.39304526  0.80634521  0.25075678  1
  Ta  Ta100  1  0.39695878  0.19878231  0.49656652  1
  Ta  Ta101  1  0.59907603  0.40454775  0.00234790  1
  Ta  Ta102  1  0.50348015  0.49650535  0.62801120  1
  Ta  Ta103  1  0.61707101  0.40421324  0.25076390  1
  Ta  Ta104  1  0.29972483  0.71019445  0.12385676  1
  Ta  Ta105  1  0.50473245  0.09970318  0.61931422  1
  Ta  Ta106  1  0.20013794  -0.00135396  -0.00923750  1
  Ta  Ta107  1  0.30288644  0.89840758  0.87353441  1
  Ta  Ta108  1  0.80443375  0.59187270  0.49784490  1
  Ta  Ta109  1  0.50261268  0.89518163  0.13316727  1
  Ta  Ta110  1  0.81068472  0.80468888  0.26940452  1
  Ta  Ta111  1  0.69341280  0.70134300  0.36774538  1
  Ta  Ta112  1  0.29696362  0.09201982  0.38403744  1
  Ta  Ta113  1  0.29509872  0.90217423  0.62682920  1
  Ta  Ta114  1  0.69658419  0.10023884  0.86798184  1
  Ta  Ta115  1  0.78774112  0.19711140  0.74672811  1
  Ta  Ta116  1  0.50178039  0.29828706  0.12561072  1
  Ta  Ta117  1  -0.01156387  0.41313404  0.75413993  1
  Ta  Ta118  1  0.19953499  0.19249095  0.25843025  1
  Ta  Ta119  1  0.30024643  0.71417664  0.87968093  1
  Ti  Ti120  1  0.60240696  0.20671607  0.50197543  1
  Ti  Ti121  1  0.39877417  0.80362579  0.74018855  1
  Ti  Ti122  1  0.69969848  0.70975915  0.14197077  1
  Ti  Ti123  1  0.30222801  0.49884413  0.62955494  1
  Ti  Ti124  1  0.90114712  0.29419644  0.37940312  1
  Ti  Ti125  1  0.40564210  0.19466109  0.73621197  1
  Ti  Ti126  1  0.09320684  0.50838438  0.86377868  1
  Ti  Ti127  1  0.10482358  0.70373103  0.87688098  1
  Ti  Ti128  1  0.20365076  0.19181256  0.75902936  1
  Ti  Ti129  1  0.50877631  0.29569185  0.89009594  1
  Ti  Ti130  1  0.60282307  0.20828024  0.73991842  1
  Ti  Ti131  1  0.90297194  0.28963294  0.11834744  1
  Ti  Ti132  1  -0.02283024  -0.01812454  0.75339518  1
  Ti  Ti133  1  0.08472674  0.50914723  0.37151669  1
  Ti  Ti134  1  0.61157459  0.39683689  0.48297900  1
  Ti  Ti135  1  0.69430501  0.48386600  0.61796454  1
  Ti  Ti136  1  0.30660104  0.09396800  0.87051496  1
  Ti  Ti137  1  0.10638291  0.69889319  0.61813794  1
  Ti  Ti138  1  0.09886021  0.90434438  0.10434222  1
  Ti  Ti139  1  0.09543731  0.08831891  0.86384924  1
  Ti  Ti140  1  0.70429525  0.09978770  0.12060133  1
  Ti  Ti141  1  0.80195975  -0.00768262  -0.01323600  1
  Ti  Ti142  1  0.89394585  0.71820668  0.13007044  1
  Ti  Ti143  1  0.49790825  0.69776226  0.63400655  1
  Ti  Ti144  1  0.79097708  0.40076454  0.48875513  1
  Ti  Ti145  1  0.89584116  0.70102621  0.88319047  1
  Ti  Ti146  1  0.29214338  0.71221365  0.37130285  1
  Ti  Ti147  1  0.69581454  0.89854217  0.36991799  1
  Ti  Ti148  1  0.60169592  0.00530356  0.23321128  1
  Ti  Ti149  1  0.50998430  0.49912426  0.87526687  1
  Ti  Ti150  1  0.00417572  0.00180206  0.49937674  1
  Ti  Ti151  1  0.50451299  0.70425299  0.35454850  1
  Ti  Ti152  1  0.40203041  0.80430650  0.01244971  1
  Ti  Ti153  1  0.70774398  0.91292279  0.61870958  1
  Ti  Ti154  1  0.10857284  0.08919585  0.64165698  1
  Ti  Ti155  1  -0.00582623  0.80103054  -0.01683708  1
  Ti  Ti156  1  0.40904652  0.40231396  -0.00207953  1
  Ti  Ti157  1  0.40108474  0.60096837  0.74606612  1
  Ti  Ti158  1  0.70355325  0.49713573  0.89107579  1
  Ti  Ti159  1  0.50271163  0.70561833  0.14907687  1
  Mo  Mo160  1  0.69371202  0.30157204  0.62975806  1
  Mo  Mo161  1  0.30250243  0.29207591  0.36443190  1
  Mo  Mo162  1  0.20665019  0.79552029  0.51828865  1
  Mo  Mo163  1  0.60142545  0.20176148  0.01657073  1
  Mo  Mo164  1  0.39414137  0.62338349  0.25030662  1
  Mo  Mo165  1  0.60346650  -0.00265889  0.51612102  1
  Mo  Mo166  1  0.89489241  0.90227711  0.60915605  1
  Mo  Mo167  1  0.60417061  0.60434007  0.24594515  1
  Mo  Mo168  1  0.30376650  0.89722006  0.39460874  1
  Mo  Mo169  1  0.90396829  0.09124969  0.10694944  1
  Mo  Mo170  1  0.60465191  0.80367165  0.24555308  1
  Mo  Mo171  1  0.90194937  0.49976563  0.38599379  1
  Mo  Mo172  1  0.09735419  0.09336703  0.37179013  1
  Mo  Mo173  1  0.40046912  0.38793447  0.25737631  1
  Mo  Mo174  1  -0.00572445  0.39261657  0.26076293  1
  Mo  Mo175  1  0.69612230  0.90550736  0.88782177  1
  Mo  Mo176  1  0.60017304  0.39985488  0.77177626  1
  Mo  Mo177  1  0.69627717  0.29641858  0.36762607  1
  Mo  Mo178  1  0.90724797  0.89877737  0.38481336  1
  Mo  Mo179  1  0.00156975  0.59739988  0.51464435  1
  Mo  Mo180  1  0.89591366  0.50340622  0.88796870  1
  Mo  Mo181  1  0.20298670  0.80281028  -0.00569340  1
  Mo  Mo182  1  0.89548527  0.89516032  0.88929785  1
  Mo  Mo183  1  0.29846331  0.89914864  0.09974536  1
  Mo  Mo184  1  0.79949438  0.79900081  -0.00341823  1
  Mo  Mo185  1  0.89446106  0.49840450  0.61066110  1
  Mo  Mo186  1  0.69863631  0.49722803  0.11533326  1
  Mo  Mo187  1  0.50227857  0.10245325  0.13812536  1
  Mo  Mo188  1  0.79840812  0.39851316  -0.01780345  1
  Mo  Mo189  1  0.69789161  0.50176600  0.38755112  1
  Mo  Mo190  1  0.78903928  -0.00050622  0.75972729  1
  Mo  Mo191  1  0.89615680  0.69833679  0.60769401  1
  Mo  Mo192  1  0.09338331  0.29506930  0.85836659  1
  Mo  Mo193  1  0.00099743  0.00230924  -0.01653371  1
  Mo  Mo194  1  0.09666662  0.49624121  0.13067186  1
  Mo  Mo195  1  0.41141022  0.19841313  0.01650469  1
  Mo  Mo196  1  0.21189249  0.00310904  0.76428858  1
  Mo  Mo197  1  -0.00563648  0.81121898  0.25772739  1
  Mo  Mo198  1  0.20379985  0.00238754  0.50491351  1
  Mo  Mo199  1  0.49923066  0.90094519  0.63930198  1
