# generated using pymatgen
data_HfZrTaTiMo
_symmetry_space_group_name_H-M   'P 1'
_cell_length_a   15.92737300
_cell_length_b   15.93051293
_cell_length_c   15.22906629
_cell_angle_alpha   90.04728998
_cell_angle_beta   89.95402518
_cell_angle_gamma   90.00819319
_symmetry_Int_Tables_number   1
_chemical_formula_structural   HfZrTaTiMo
_chemical_formula_sum   'Hf40 Zr40 Ta40 Ti40 Mo40'
_cell_volume   3864.08699377
_cell_formula_units_Z   40
loop_
 _symmetry_equiv_pos_site_id
 _symmetry_equiv_pos_as_xyz
  1  'x, y, z'
loop_
 _atom_site_type_symbol
 _atom_site_label
 _atom_site_symmetry_multiplicity
 _atom_site_fract_x
 _atom_site_fract_y
 _atom_site_fract_z
 _atom_site_occupancy
  Hf  Hf0  1  0.39501161  0.40165145  0.74654244  1
  Hf  Hf1  1  0.19138895  0.22182493  0.24232700  1
  Hf  Hf2  1  0.09591562  0.70129483  0.14238011  1
  Hf  Hf3  1  0.38238543  0.59173979  -0.00988835  1
  Hf  Hf4  1  0.90006530  0.48945712  0.89186164  1
  Hf  Hf5  1  0.30352872  0.10017218  0.36484841  1
  Hf  Hf6  1  0.10684239  0.89662137  0.37628961  1
  Hf  Hf7  1  0.00963280  0.18754198  -0.01347009  1
  Hf  Hf8  1  0.48746837  0.29257114  0.13129078  1
  Hf  Hf9  1  0.78994328  0.57666679  0.74013035  1
  Hf  Hf10  1  0.89709871  0.09841220  0.61545602  1
  Hf  Hf11  1  0.00621439  0.78784831  0.49751124  1
  Hf  Hf12  1  0.60138327  0.19869787  0.75846098  1
  Hf  Hf13  1  0.39286656  0.00492721  0.74997272  1
  Hf  Hf14  1  0.90038488  0.88831297  0.37585387  1
  Hf  Hf15  1  0.10097576  0.91504247  0.87805431  1
  Hf  Hf16  1  0.60108482  0.39442265  0.26196187  1
  Hf  Hf17  1  0.12216075  0.29293255  0.88204661  1
  Hf  Hf18  1  0.19969966  0.62145999  0.49275689  1
  Hf  Hf19  1  0.39367929  0.60362220  0.76077257  1
  Hf  Hf20  1  0.08800557  0.10668612  0.13267626  1
  Hf  Hf21  1  0.10229518  0.69856098  0.63348659  1
  Hf  Hf22  1  0.69341526  0.08247939  0.88235057  1
  Hf  Hf23  1  0.60096178  0.39634933  0.00640173  1
  Hf  Hf24  1  0.48933409  0.49858706  0.11833383  1
  Hf  Hf25  1  0.20303398  0.80945944  0.75567763  1
  Hf  Hf26  1  0.40437631  0.19090059  0.49818295  1
  Hf  Hf27  1  0.50462632  0.70374890  0.88298731  1
  Hf  Hf28  1  0.19969911  0.00322137  0.24345335  1
  Hf  Hf29  1  0.01482015  0.38743751  0.24292377  1
  Hf  Hf30  1  0.49485858  0.10445350  0.13706268  1
  Hf  Hf31  1  0.47857430  0.88536329  0.36138275  1
  Hf  Hf32  1  0.58582139  0.79442796  0.49774997  1
  Hf  Hf33  1  0.20374750  0.79899293  -0.01401470  1
  Hf  Hf34  1  0.00044475  0.78241680  -0.02005917  1
  Hf  Hf35  1  -0.00051612  -0.00151150  0.74509366  1
  Hf  Hf36  1  0.79221161  -0.01168125  0.01852737  1
  Hf  Hf37  1  0.10315381  0.50945297  0.11330120  1
  Hf  Hf38  1  0.61042421  0.38418335  0.49542001  1
  Hf  Hf39  1  0.59809381  0.81165090  0.75413821  1
  Zr  Zr40  1  0.00991106  0.19388573  0.75564915  1
  Zr  Zr41  1  0.88417978  0.70256902  0.85819558  1
  Zr  Zr42  1  0.21047266  0.20689754  0.51105809  1
  Zr  Zr43  1  0.70358324  0.70496791  0.64051113  1
  Zr  Zr44  1  0.79859909  0.61288616  0.01026071  1
  Zr  Zr45  1  0.91337906  0.89367085  0.13689295  1
  Zr  Zr46  1  0.70198860  0.50114109  0.89261306  1
  Zr  Zr47  1  0.79660443  0.19384447  0.74969726  1
  Zr  Zr48  1  0.39958148  0.60910338  0.25278711  1
  Zr  Zr49  1  0.79438103  0.78593635  0.49825337  1
  Zr  Zr50  1  0.70086435  0.28853708  0.13440682  1
  Zr  Zr51  1  0.70719804  0.50020182  0.13123004  1
  Zr  Zr52  1  0.90993679  0.69067951  0.14183390  1
  Zr  Zr53  1  0.82039602  0.39044974  0.25084169  1
  Zr  Zr54  1  0.09170812  0.11203760  0.38211863  1
  Zr  Zr55  1  0.59417138  0.19251549  -0.00637092  1
  Zr  Zr56  1  0.49945241  0.30435740  0.86981578  1
  Zr  Zr57  1  0.80362196  0.19154522  0.00372162  1
  Zr  Zr58  1  0.50207334  0.50090322  0.38433460  1
  Zr  Zr59  1  0.23389093  0.39728210  0.00898393  1
  Zr  Zr60  1  0.90482603  0.30555564  0.87667690  1
  Zr  Zr61  1  0.68653166  0.88931859  0.36462758  1
  Zr  Zr62  1  0.79893389  0.00229897  0.25489392  1
  Zr  Zr63  1  0.78497834  0.00761389  0.49006108  1
  Zr  Zr64  1  0.80434491  0.38407862  0.49669960  1
  Zr  Zr65  1  0.29268956  0.50573603  0.38676596  1
  Zr  Zr66  1  0.19258173  0.60922208  -0.02708276  1
  Zr  Zr67  1  0.00808571  0.59629320  0.76092090  1
  Zr  Zr68  1  0.09785716  0.90095438  0.12080393  1
  Zr  Zr69  1  0.29257972  0.69697523  0.13088825  1
  Zr  Zr70  1  0.50047342  0.50336935  0.61745539  1
  Zr  Zr71  1  0.40486747  0.62541134  0.49600150  1
  Zr  Zr72  1  0.21089737  -0.00240745  0.51231702  1
  Zr  Zr73  1  0.50536256  0.29300132  0.62831599  1
  Zr  Zr74  1  0.90915869  0.49386941  0.61895123  1
  Zr  Zr75  1  0.71672449  0.50956095  0.36668205  1
  Zr  Zr76  1  0.61174253  0.60667713  0.50011430  1
  Zr  Zr77  1  0.50472743  0.09592657  0.62591031  1
  Zr  Zr78  1  0.60889559  0.80632842  0.01537213  1
  Zr  Zr79  1  0.39271133  0.39868869  0.25789166  1
  Ta  Ta80  1  0.39247327  0.38737110  0.50616569  1
  Ta  Ta81  1  0.89691547  0.89486801  0.61705542  1
  Ta  Ta82  1  0.09368278  0.30592067  0.61775551  1
  Ta  Ta83  1  0.49744619  0.90082246  0.62339114  1
  Ta  Ta84  1  0.39638243  0.01190849  0.00685433  1
  Ta  Ta85  1  0.30700180  0.72948802  0.36216825  1
  Ta  Ta86  1  -0.00320580  0.00682172  0.26802422  1
  Ta  Ta87  1  0.69975816  0.70523877  0.86895114  1
  Ta  Ta88  1  0.62060391  0.40772975  0.74024826  1
  Ta  Ta89  1  0.89577378  0.68573375  0.36072913  1
  Ta  Ta90  1  0.39964937  0.80362327  -0.00135885  1
  Ta  Ta91  1  0.61310168  0.18938530  0.48285161  1
  Ta  Ta92  1  0.00072402  0.60051819  0.48970805  1
  Ta  Ta93  1  0.49559141  0.70803081  0.64273916  1
  Ta  Ta94  1  0.39933111  0.81105896  0.76480618  1
  Ta  Ta95  1  0.79362368  -0.00980773  0.73957230  1
  Ta  Ta96  1  0.37840559  0.21477124  -0.00997815  1
  Ta  Ta97  1  0.39165597  -0.00616475  0.23820176  1
  Ta  Ta98  1  0.09837567  0.31144078  0.39152461  1
  Ta  Ta99  1  0.70643991  0.89489185  0.87355199  1
  Ta  Ta100  1  0.59646063  0.59606079  0.75185891  1
  Ta  Ta101  1  0.50521426  0.91530199  0.89226730  1
  Ta  Ta102  1  -0.00245043  0.80652397  0.74821062  1
  Ta  Ta103  1  0.09832133  0.48613351  0.88559589  1
  Ta  Ta104  1  0.19860756  0.40118002  0.73965558  1
  Ta  Ta105  1  0.29511765  0.50780620  0.62085018  1
  Ta  Ta106  1  0.30358498  0.91610424  0.88553958  1
  Ta  Ta107  1  0.20016355  0.41172467  0.24154830  1
  Ta  Ta108  1  0.39574333  -0.00662909  0.50258792  1
  Ta  Ta109  1  0.20698163  0.19889154  0.73019677  1
  Ta  Ta110  1  0.91059892  0.49383639  0.11023547  1
  Ta  Ta111  1  0.50148947  0.49887364  0.88038237  1
  Ta  Ta112  1  0.68838229  0.09387885  0.13895627  1
  Ta  Ta113  1  0.71164666  0.31052115  0.87593591  1
  Ta  Ta114  1  0.79841082  0.80246564  0.01427012  1
  Ta  Ta115  1  0.10474960  0.50159445  0.61321478  1
  Ta  Ta116  1  0.90099052  0.29840393  0.63118026  1
  Ta  Ta117  1  0.89536824  0.08244955  0.87185873  1
  Ta  Ta118  1  0.09474633  0.10250286  0.61252896  1
  Ta  Ta119  1  0.59340361  0.60857055  0.24409501  1
  Ti  Ti120  1  0.20844180  0.81131472  0.24605332  1
  Ti  Ti121  1  0.38970277  0.80993833  0.51375611  1
  Ti  Ti122  1  0.91549171  0.29115843  0.11633894  1
  Ti  Ti123  1  0.29558074  0.30294128  0.37386319  1
  Ti  Ti124  1  0.20272453  0.59565604  0.76115118  1
  Ti  Ti125  1  0.88964270  0.89768080  0.87100470  1
  Ti  Ti126  1  0.69796912  0.70299521  0.14120041  1
  Ti  Ti127  1  0.00773553  0.39872452  0.74761532  1
  Ti  Ti128  1  0.30221209  0.70700929  0.63720523  1
  Ti  Ti129  1  0.69423563  0.10097725  0.62118403  1
  Ti  Ti130  1  0.69313670  0.90587350  0.61784517  1
  Ti  Ti131  1  0.59674195  0.60802732  0.01201023  1
  Ti  Ti132  1  0.48838205  0.09855394  0.87951527  1
  Ti  Ti133  1  0.09632958  0.90224735  0.62000983  1
  Ti  Ti134  1  0.79799418  0.79765621  0.24214588  1
  Ti  Ti135  1  0.59082134  -0.00261376  0.25526192  1
  Ti  Ti136  1  0.00469252  0.58405227  0.26385517  1
  Ti  Ti137  1  0.21217628  0.80840384  0.50691166  1
  Ti  Ti138  1  0.49709203  0.28437556  0.37057387  1
  Ti  Ti139  1  0.10326146  0.49742134  0.38666670  1
  Ti  Ti140  1  0.19884753  0.02191945  0.00377630  1
  Ti  Ti141  1  0.29983774  0.90603890  0.10974647  1
  Ti  Ti142  1  0.28603827  0.11213899  0.87440379  1
  Ti  Ti143  1  0.20511847  0.39946437  0.51312323  1
  Ti  Ti144  1  -0.00449782  0.00031214  0.49261442  1
  Ti  Ti145  1  0.58673753  0.00254632  0.48241137  1
  Ti  Ti146  1  -0.01408250  0.21280450  0.49734702  1
  Ti  Ti147  1  0.69944396  0.69783741  0.35383627  1
  Ti  Ti148  1  0.10318821  0.70106344  0.35691923  1
  Ti  Ti149  1  0.90229273  0.69936677  0.63133419  1
  Ti  Ti150  1  0.91049396  0.49154119  0.38194418  1
  Ti  Ti151  1  0.90167196  0.10171352  0.13477742  1
  Ti  Ti152  1  0.50012573  0.90247875  0.12421827  1
  Ti  Ti153  1  0.19914690  0.00946741  0.73908039  1
  Ti  Ti154  1  -0.00787043  0.00064341  -0.00482123  1
  Ti  Ti155  1  0.72117394  0.27320847  0.36120012  1
  Ti  Ti156  1  0.59840986  -0.00208520  0.74997496  1
  Ti  Ti157  1  0.80689474  0.59746057  0.50601104  1
  Ti  Ti158  1  0.88506720  0.12195298  0.37492449  1
  Ti  Ti159  1  0.30269266  0.11837196  0.13030164  1
  Mo  Mo160  1  0.30522202  0.30059376  0.13920638  1
  Mo  Mo161  1  0.59367517  -0.00147936  0.01243422  1
  Mo  Mo162  1  0.19649119  0.59976063  0.26851778  1
  Mo  Mo163  1  0.29549223  0.49454456  0.85504532  1
  Mo  Mo164  1  0.90878142  0.29197073  0.37329189  1
  Mo  Mo165  1  0.00327028  0.79920356  0.27004673  1
  Mo  Mo166  1  0.10237925  0.30093907  0.10806772  1
  Mo  Mo167  1  0.29578966  0.50509189  0.13842909  1
  Mo  Mo168  1  0.10787971  0.09362167  0.87493922  1
  Mo  Mo169  1  0.00248864  0.59613092  -0.01425159  1
  Mo  Mo170  1  0.40257322  0.40023882  -0.01052141  1
  Mo  Mo171  1  0.30064857  0.30288935  0.63155658  1
  Mo  Mo172  1  0.50257899  0.70839374  0.35819106  1
  Mo  Mo173  1  0.69418553  0.09893632  0.36176230  1
  Mo  Mo174  1  0.30374504  0.70994750  0.86605229  1
  Mo  Mo175  1  0.29787950  0.90082412  0.36856997  1
  Mo  Mo176  1  0.79280992  0.20105994  0.51136479  1
  Mo  Mo177  1  0.00576945  0.40026162  0.49809647  1
  Mo  Mo178  1  0.70098658  0.49529137  0.61349817  1
  Mo  Mo179  1  0.59099573  0.79297614  0.23596609  1
  Mo  Mo180  1  0.79960800  0.39291635  0.73802762  1
  Mo  Mo181  1  0.30453903  0.89843659  0.63761932  1
  Mo  Mo182  1  0.59868066  0.19318053  0.26757343  1
  Mo  Mo183  1  0.39246345  0.19703827  0.76189919  1
  Mo  Mo184  1  0.20678909  0.19721592  0.01523297  1
  Mo  Mo185  1  0.79999394  0.81035145  0.73735677  1
  Mo  Mo186  1  0.39687955  0.19764295  0.26599039  1
  Mo  Mo187  1  -0.00686947  0.20540576  0.25805435  1
  Mo  Mo188  1  0.80626399  0.19415691  0.23347423  1
  Mo  Mo189  1  0.09742694  0.70345007  0.85381216  1
  Mo  Mo190  1  0.29912738  0.29588102  0.85356281  1
  Mo  Mo191  1  0.49785792  0.08954909  0.36729477  1
  Mo  Mo192  1  0.80538601  0.59701642  0.24298155  1
  Mo  Mo193  1  0.30234214  0.09936835  0.63016890  1
  Mo  Mo194  1  0.70326950  0.29322794  0.63051594  1
  Mo  Mo195  1  0.69469817  0.89850366  0.14373693  1
  Mo  Mo196  1  0.39670963  0.80892948  0.21838514  1
  Mo  Mo197  1  0.80625167  0.39133838  0.01860642  1
  Mo  Mo198  1  0.01090095  0.39202439  0.01013925  1
  Mo  Mo199  1  0.49760725  0.70040214  0.11274609  1
