# generated using pymatgen
data_HfZrTaTiMo
_symmetry_space_group_name_H-M   'P 1'
_cell_length_a   15.93046084
_cell_length_b   15.93428372
_cell_length_c   15.19330917
_cell_angle_alpha   90.03918168
_cell_angle_beta   89.98628300
_cell_angle_gamma   90.05988027
_symmetry_Int_Tables_number   1
_chemical_formula_structural   HfZrTaTiMo
_chemical_formula_sum   'Hf40 Zr40 Ta40 Ti40 Mo40'
_cell_volume   3856.67381455
_cell_formula_units_Z   40
loop_
 _symmetry_equiv_pos_site_id
 _symmetry_equiv_pos_as_xyz
  1  'x, y, z'
loop_
 _atom_site_type_symbol
 _atom_site_label
 _atom_site_symmetry_multiplicity
 _atom_site_fract_x
 _atom_site_fract_y
 _atom_site_fract_z
 _atom_site_occupancy
  Hf  Hf0  1  0.30527503  0.70522377  0.85842940  1
  Hf  Hf1  1  0.71239119  0.10029120  0.88350499  1
  Hf  Hf2  1  0.60030576  0.61251788  0.76780112  1
  Hf  Hf3  1  0.09485246  0.51609641  0.60781688  1
  Hf  Hf4  1  0.69877780  0.09459092  0.36137933  1
  Hf  Hf5  1  0.89862880  0.09014195  0.36038556  1
  Hf  Hf6  1  0.09100440  0.30834525  0.62259357  1
  Hf  Hf7  1  0.19938842  0.19971992  0.00564884  1
  Hf  Hf8  1  0.80075320  0.39753424  0.50298722  1
  Hf  Hf9  1  0.30339619  0.30118278  0.37787203  1
  Hf  Hf10  1  0.89990844  0.49256177  0.88254250  1
  Hf  Hf11  1  0.30596788  0.90231998  0.62470041  1
  Hf  Hf12  1  0.19368985  0.79860084  0.73770549  1
  Hf  Hf13  1  0.69264395  0.68664514  0.37023214  1
  Hf  Hf14  1  0.00821240  0.19597005  0.01290035  1
  Hf  Hf15  1  0.79947692  0.20264754  0.49282872  1
  Hf  Hf16  1  0.39854792  0.40893324  0.73500364  1
  Hf  Hf17  1  0.29899461  0.28780120  0.61383019  1
  Hf  Hf18  1  0.90711169  0.09746199  0.89123400  1
  Hf  Hf19  1  0.71103655  0.89997615  0.87714856  1
  Hf  Hf20  1  0.80516604  0.79735140  0.50076155  1
  Hf  Hf21  1  0.48737999  0.69361884  0.11705697  1
  Hf  Hf22  1  0.70771766  0.30291667  0.87883907  1
  Hf  Hf23  1  0.71246901  0.50052786  0.89261698  1
  Hf  Hf24  1  0.69337271  0.49506626  0.37493134  1
  Hf  Hf25  1  0.43451891  0.40860909  0.23963791  1
  Hf  Hf26  1  -0.00336533  0.40735939  0.47901726  1
  Hf  Hf27  1  0.68903002  0.10302920  0.62524351  1
  Hf  Hf28  1  0.89391098  0.30750677  0.35309490  1
  Hf  Hf29  1  -0.00439445  -0.00373552  0.50720170  1
  Hf  Hf30  1  0.19715152  -0.00345028  0.50972635  1
  Hf  Hf31  1  0.79783521  -0.00380449  0.50591729  1
  Hf  Hf32  1  0.10142666  0.49836698  0.14293039  1
  Hf  Hf33  1  0.70191480  0.28904694  0.64301105  1
  Hf  Hf34  1  0.29445106  0.70938844  0.13469078  1
  Hf  Hf35  1  0.39340739  0.20069325  0.00798194  1
  Hf  Hf36  1  0.58880059  0.57753790  0.22927149  1
  Hf  Hf37  1  0.00535670  0.60832395  0.75970873  1
  Hf  Hf38  1  0.90363598  0.08896985  0.14217488  1
  Hf  Hf39  1  0.39213055  0.00146178  0.24730757  1
  Zr  Zr40  1  0.29507277  0.30208278  0.85799978  1
  Zr  Zr41  1  0.40458062  0.19378346  0.25224575  1
  Zr  Zr42  1  0.90338195  0.88645879  0.64128224  1
  Zr  Zr43  1  -0.00504068  0.60985155  -0.00497650  1
  Zr  Zr44  1  0.69443061  0.89483717  0.64041529  1
  Zr  Zr45  1  0.59633297  0.79285747  0.24190384  1
  Zr  Zr46  1  0.81605690  0.02293894  0.73513815  1
  Zr  Zr47  1  0.70623650  0.89614169  0.36228042  1
  Zr  Zr48  1  0.10695995  0.09140150  0.14209948  1
  Zr  Zr49  1  0.08994283  0.29992311  0.86095747  1
  Zr  Zr50  1  0.38812975  0.40553884  0.00052483  1
  Zr  Zr51  1  0.10370794  0.30827635  0.15203293  1
  Zr  Zr52  1  0.31502948  0.50778717  0.37442360  1
  Zr  Zr53  1  0.89044075  0.70067571  0.36494177  1
  Zr  Zr54  1  0.29957384  0.51211119  0.14558484  1
  Zr  Zr55  1  0.60359574  0.40532904  0.75383837  1
  Zr  Zr56  1  -0.02738665  0.19681898  0.72923716  1
  Zr  Zr57  1  0.10221309  0.49252724  0.86697656  1
  Zr  Zr58  1  0.20030468  0.40818680  0.49465354  1
  Zr  Zr59  1  0.48686271  0.89091476  0.11616604  1
  Zr  Zr60  1  0.30324395  0.08901923  0.87689575  1
  Zr  Zr61  1  0.49321043  0.50505530  0.87550367  1
  Zr  Zr62  1  0.90318290  0.30634456  0.13368376  1
  Zr  Zr63  1  0.19340721  0.18709640  0.74450202  1
  Zr  Zr64  1  0.59033769  0.20724961  0.24354765  1
  Zr  Zr65  1  0.58683006  -0.00541400  0.76395768  1
  Zr  Zr66  1  0.69990300  0.69401217  0.62975826  1
  Zr  Zr67  1  0.90681713  0.90404888  0.86708244  1
  Zr  Zr68  1  0.59233676  -0.00350002  0.24162639  1
  Zr  Zr69  1  0.59695019  0.19911051  -0.00163804  1
  Zr  Zr70  1  0.81135116  0.78781759  0.00193563  1
  Zr  Zr71  1  0.29230966  0.31049459  0.14582298  1
  Zr  Zr72  1  0.10851948  0.09991407  0.37698626  1
  Zr  Zr73  1  0.59845385  0.80089638  0.49814552  1
  Zr  Zr74  1  0.10117371  0.69919333  0.13289383  1
  Zr  Zr75  1  0.49944850  0.28239875  0.62814576  1
  Zr  Zr76  1  0.89526345  0.30045148  0.88715260  1
  Zr  Zr77  1  0.20201909  0.59790331  -0.01374362  1
  Zr  Zr78  1  0.60636205  0.39800202  0.51336271  1
  Zr  Zr79  1  0.10700291  0.89121824  0.13728244  1
  Ta  Ta80  1  0.58738614  0.18561029  0.76979477  1
  Ta  Ta81  1  0.00583343  0.79631472  0.26817160  1
  Ta  Ta82  1  0.19644838  0.79978390  0.50513068  1
  Ta  Ta83  1  0.10798374  0.91003625  0.86819801  1
  Ta  Ta84  1  0.59931920  -0.00744691  -0.00127109  1
  Ta  Ta85  1  0.90608078  0.69211414  0.62553094  1
  Ta  Ta86  1  0.59253726  0.40082044  0.01187253  1
  Ta  Ta87  1  0.00913738  -0.01154247  0.00798922  1
  Ta  Ta88  1  0.20232514  0.41224607  0.73195576  1
  Ta  Ta89  1  0.19734159  0.60719192  0.27643675  1
  Ta  Ta90  1  0.49291984  0.29564955  0.87201906  1
  Ta  Ta91  1  0.50518491  0.30863255  0.38565113  1
  Ta  Ta92  1  0.30282752  0.70287018  0.39107643  1
  Ta  Ta93  1  0.19841418  0.80404823  -0.01427359  1
  Ta  Ta94  1  0.49279918  0.68907969  0.37860065  1
  Ta  Ta95  1  0.70093531  0.09127785  0.12398786  1
  Ta  Ta96  1  0.20654424  0.60337101  0.73387915  1
  Ta  Ta97  1  0.40676914  0.40597330  0.51236506  1
  Ta  Ta98  1  0.81510665  0.39698131  0.73727672  1
  Ta  Ta99  1  0.59261033  0.79692724  0.77315409  1
  Ta  Ta100  1  0.49600161  0.09764028  0.60727896  1
  Ta  Ta101  1  0.01734973  0.00684621  0.73308855  1
  Ta  Ta102  1  0.39200539  0.60406583  -0.01166467  1
  Ta  Ta103  1  0.80126297  0.59450372  0.50561297  1
  Ta  Ta104  1  0.69851485  0.30339418  0.12402625  1
  Ta  Ta105  1  0.00796347  0.79954361  -0.01586854  1
  Ta  Ta106  1  0.90552177  0.50365072  0.62549317  1
  Ta  Ta107  1  0.39998103  0.60332851  0.51876533  1
  Ta  Ta108  1  0.49426323  0.09240699  0.10754499  1
  Ta  Ta109  1  0.40541163  0.00784611  0.73900713  1
  Ta  Ta110  1  0.41455933  0.80658229  0.74173966  1
  Ta  Ta111  1  0.79286774  0.59925880  0.22752242  1
  Ta  Ta112  1  0.40265198  0.79958526  0.50985028  1
  Ta  Ta113  1  -0.00266947  0.20903160  0.48861574  1
  Ta  Ta114  1  0.00133233  0.80299769  0.49253601  1
  Ta  Ta115  1  0.30098965  0.89914723  0.38821031  1
  Ta  Ta116  1  0.59889532  0.79578613  -0.01399518  1
  Ta  Ta117  1  0.29951323  0.90400204  0.85924914  1
  Ta  Ta118  1  0.78636970  0.41226056  0.23740916  1
  Ta  Ta119  1  0.49030827  0.90154855  0.38269885  1
  Ti  Ti120  1  0.20185437  0.79893799  0.27605019  1
  Ti  Ti121  1  -0.00055245  0.59866341  0.26074101  1
  Ti  Ti122  1  0.39986212  0.60740281  0.73677003  1
  Ti  Ti123  1  0.89830880  0.90138541  0.35605132  1
  Ti  Ti124  1  0.19780538  0.00302268  0.73273251  1
  Ti  Ti125  1  0.09912936  0.90201119  0.37372263  1
  Ti  Ti126  1  0.38354185  0.80580897  -0.00561232  1
  Ti  Ti127  1  0.21183195  -0.00540347  0.25758911  1
  Ti  Ti128  1  0.51198535  0.51337591  0.62412862  1
  Ti  Ti129  1  0.90779699  0.70047552  0.13602396  1
  Ti  Ti130  1  0.79978310  0.77995321  0.76409971  1
  Ti  Ti131  1  0.00733721  0.39965848  0.01027699  1
  Ti  Ti132  1  0.19938965  0.39998924  -0.00596412  1
  Ti  Ti133  1  0.80249962  0.19789925  0.02038734  1
  Ti  Ti134  1  0.00687135  0.79590646  0.75931743  1
  Ti  Ti135  1  0.59458589  -0.00259505  0.49396710  1
  Ti  Ti136  1  0.09732644  0.69186346  0.39491161  1
  Ti  Ti137  1  0.21172667  0.18992530  0.26027937  1
  Ti  Ti138  1  0.80488348  -0.01255174  0.02061224  1
  Ti  Ti139  1  0.79416472  0.80247516  0.22843912  1
  Ti  Ti140  1  0.31037188  0.10823512  0.61244302  1
  Ti  Ti141  1  0.00816423  0.20160748  0.26191662  1
  Ti  Ti142  1  0.21208144  -0.01050268  0.01184180  1
  Ti  Ti143  1  0.31237956  0.09725081  0.39982143  1
  Ti  Ti144  1  0.69756111  0.69543747  0.11103700  1
  Ti  Ti145  1  0.70438061  0.50595619  0.62998103  1
  Ti  Ti146  1  0.09280407  0.70251834  0.60861440  1
  Ti  Ti147  1  0.10158871  0.09022346  0.88068368  1
  Ti  Ti148  1  0.79023700  0.20165699  0.24444501  1
  Ti  Ti149  1  0.59731922  0.60386699  -0.00557973  1
  Ti  Ti150  1  0.89182000  0.50911138  0.36495300  1
  Ti  Ti151  1  0.91147899  0.89311130  0.13687712  1
  Ti  Ti152  1  0.50577832  0.70420795  0.62254940  1
  Ti  Ti153  1  0.50647392  0.50625347  0.39088209  1
  Ti  Ti154  1  0.90010209  0.50262715  0.12297439  1
  Ti  Ti155  1  0.60168583  0.19870858  0.48142611  1
  Ti  Ti156  1  0.80404836  0.59841123  0.75585987  1
  Ti  Ti157  1  0.39432996  0.79997100  0.26374030  1
  Ti  Ti158  1  0.10125079  0.11310035  0.60578747  1
  Ti  Ti159  1  0.48212748  0.90712442  0.88867561  1
  Mo  Mo160  1  0.90277269  0.10525560  0.60089270  1
  Mo  Mo161  1  0.10458962  0.70895349  0.87363915  1
  Mo  Mo162  1  0.40112953  0.60963389  0.25902589  1
  Mo  Mo163  1  0.19957714  0.19902134  0.49528421  1
  Mo  Mo164  1  0.69530284  0.30164167  0.35183796  1
  Mo  Mo165  1  0.50026514  0.09789391  0.39212343  1
  Mo  Mo166  1  0.40680131  0.20175768  0.48485005  1
  Mo  Mo167  1  0.19034207  0.40766040  0.27948033  1
  Mo  Mo168  1  0.29847304  0.50650405  0.84836031  1
  Mo  Mo169  1  0.69927120  0.89387259  0.10861704  1
  Mo  Mo170  1  0.60233937  0.39747105  0.23586229  1
  Mo  Mo171  1  0.40254358  -0.00176921  0.50704684  1
  Mo  Mo172  1  0.49836795  0.29869032  0.10835040  1
  Mo  Mo173  1  0.09557766  0.51008272  0.37318590  1
  Mo  Mo174  1  0.89939653  0.30495392  0.61133201  1
  Mo  Mo175  1  0.29115816  0.89077246  0.14068542  1
  Mo  Mo176  1  0.59755434  0.59833241  0.50598837  1
  Mo  Mo177  1  0.90069579  0.69694949  0.86398591  1
  Mo  Mo178  1  0.10212483  0.30102065  0.36608635  1
  Mo  Mo179  1  0.49447734  0.09246594  0.89064062  1
  Mo  Mo180  1  0.80113686  0.40022484  0.02106900  1
  Mo  Mo181  1  0.30399047  0.70290549  0.62141912  1
  Mo  Mo182  1  0.49604304  0.50715009  0.10134958  1
  Mo  Mo183  1  0.20119823  0.61070829  0.50030394  1
  Mo  Mo184  1  0.79429687  0.20088684  0.74950843  1
  Mo  Mo185  1  0.70212794  0.69557952  0.88298680  1
  Mo  Mo186  1  0.80392493  0.60144746  0.01686245  1
  Mo  Mo187  1  0.70045838  0.50275389  0.10624085  1
  Mo  Mo188  1  0.40545607  0.18967662  0.75511908  1
  Mo  Mo189  1  0.00350697  -0.01197770  0.25925462  1
  Mo  Mo190  1  0.29614078  0.09129192  0.12302468  1
  Mo  Mo191  1  0.30294125  0.50535040  0.62104404  1
  Mo  Mo192  1  0.49228465  0.70891998  0.88663083  1
  Mo  Mo193  1  0.79838950  -0.01054757  0.23074476  1
  Mo  Mo194  1  -0.00334729  0.40575964  0.73625064  1
  Mo  Mo195  1  0.09806180  0.89577688  0.63087375  1
  Mo  Mo196  1  0.50302084  0.90043244  0.61822657  1
  Mo  Mo197  1  -0.01214428  0.60716410  0.49128458  1
  Mo  Mo198  1  0.39036981  -0.00753349  0.01255272  1
  Mo  Mo199  1  -0.00915889  0.41531771  0.26156277  1
