# generated using pymatgen
data_HfZrTaTiMo
_symmetry_space_group_name_H-M   'P 1'
_cell_length_a   15.93349709
_cell_length_b   15.92785177
_cell_length_c   15.19216331
_cell_angle_alpha   89.98355757
_cell_angle_beta   89.95888276
_cell_angle_gamma   90.03040297
_symmetry_Int_Tables_number   1
_chemical_formula_structural   HfZrTaTiMo
_chemical_formula_sum   'Hf40 Zr40 Ta40 Ti40 Mo40'
_cell_volume   3855.56243313
_cell_formula_units_Z   40
loop_
 _symmetry_equiv_pos_site_id
 _symmetry_equiv_pos_as_xyz
  1  'x, y, z'
loop_
 _atom_site_type_symbol
 _atom_site_label
 _atom_site_symmetry_multiplicity
 _atom_site_fract_x
 _atom_site_fract_y
 _atom_site_fract_z
 _atom_site_occupancy
  Hf  Hf0  1  0.49370385  0.89974447  0.37482036  1
  Hf  Hf1  1  0.29730781  0.09274830  0.88814239  1
  Hf  Hf2  1  0.79340786  0.80849969  0.00674667  1
  Hf  Hf3  1  0.10043281  0.09713543  0.37151245  1
  Hf  Hf4  1  0.70888385  0.29653998  0.38679249  1
  Hf  Hf5  1  0.89091415  0.51738484  0.88728407  1
  Hf  Hf6  1  0.40900447  0.60585470  -0.01883841  1
  Hf  Hf7  1  0.29698484  0.90159878  0.37378592  1
  Hf  Hf8  1  0.81313495  0.19679909  -0.01009321  1
  Hf  Hf9  1  0.71163052  0.68692735  0.87226903  1
  Hf  Hf10  1  0.40357884  0.19987797  0.00330956  1
  Hf  Hf11  1  0.49594780  0.69984473  0.36727762  1
  Hf  Hf12  1  0.59945796  0.00018636  0.24597299  1
  Hf  Hf13  1  0.80440505  0.42360174  0.73468161  1
  Hf  Hf14  1  0.48704048  0.49493866  0.61953559  1
  Hf  Hf15  1  0.68499931  0.70066624  0.13099395  1
  Hf  Hf16  1  0.08914973  0.90509823  0.37547696  1
  Hf  Hf17  1  0.29661189  0.90591441  0.60799513  1
  Hf  Hf18  1  0.19379466  0.59744953  -0.00448439  1
  Hf  Hf19  1  0.60087686  0.40964252  0.73982462  1
  Hf  Hf20  1  0.19772521  0.60316135  0.50952735  1
  Hf  Hf21  1  0.18920963  0.21545699  -0.00794415  1
  Hf  Hf22  1  0.49887631  0.89459361  0.61791280  1
  Hf  Hf23  1  0.30106287  0.29883089  0.38908101  1
  Hf  Hf24  1  0.51069015  0.88637313  0.12883851  1
  Hf  Hf25  1  0.08061597  0.48684607  0.88064672  1
  Hf  Hf26  1  0.71243173  0.30005339  0.61879484  1
  Hf  Hf27  1  0.39300784  0.79518635  0.00400159  1
  Hf  Hf28  1  0.91307555  0.49570062  0.11413671  1
  Hf  Hf29  1  0.30080748  0.68615263  0.13669583  1
  Hf  Hf30  1  0.09134438  0.11293098  0.13397612  1
  Hf  Hf31  1  0.81254507  0.38812120  -0.00186615  1
  Hf  Hf32  1  0.19359771  0.79444726  0.50036543  1
  Hf  Hf33  1  0.50320755  0.51158862  0.12915220  1
  Hf  Hf34  1  0.71796039  0.29819401  0.13786400  1
  Hf  Hf35  1  0.01206300  0.41985065  0.27243323  1
  Hf  Hf36  1  0.81490110  -0.00459862  0.49485202  1
  Hf  Hf37  1  0.28995781  0.49470631  0.13012213  1
  Hf  Hf38  1  0.18355320  0.79538581  0.23729771  1
  Hf  Hf39  1  -0.01640778  0.60027967  0.73938767  1
  Zr  Zr40  1  0.59537839  0.78829548  -0.01589933  1
  Zr  Zr41  1  0.08770454  0.90500002  0.89256052  1
  Zr  Zr42  1  0.01997921  0.19957299  0.74737735  1
  Zr  Zr43  1  0.40029375  0.40674863  -0.00700267  1
  Zr  Zr44  1  0.18840238  -0.00078714  0.75074095  1
  Zr  Zr45  1  0.50073056  0.09451253  0.61598102  1
  Zr  Zr46  1  0.70256869  0.69543683  0.62724802  1
  Zr  Zr47  1  0.29001298  0.09760777  0.12250475  1
  Zr  Zr48  1  0.10673689  0.30959856  0.39255764  1
  Zr  Zr49  1  0.60879057  0.40355109  0.26415774  1
  Zr  Zr50  1  0.29816077  0.10249081  0.60950223  1
  Zr  Zr51  1  0.70691118  0.89302662  0.62522927  1
  Zr  Zr52  1  0.39804257  0.59568103  0.75181260  1
  Zr  Zr53  1  0.18832197  0.60087914  0.74226853  1
  Zr  Zr54  1  0.18833789  0.39485378  0.74042525  1
  Zr  Zr55  1  0.18595788  0.80447094  0.74362308  1
  Zr  Zr56  1  0.70350170  0.50440466  0.11249385  1
  Zr  Zr57  1  0.40907130  0.19153928  0.24552590  1
  Zr  Zr58  1  0.51218021  0.30554679  0.12044385  1
  Zr  Zr59  1  0.80534679  0.00026522  0.00632053  1
  Zr  Zr60  1  0.61338150  0.19358395  -0.00040639  1
  Zr  Zr61  1  0.19443764  0.80082324  0.01468412  1
  Zr  Zr62  1  0.39396119  -0.00187505  0.75385940  1
  Zr  Zr63  1  0.29873568  0.09362167  0.37846742  1
  Zr  Zr64  1  0.50108437  0.30427300  0.86751309  1
  Zr  Zr65  1  0.59980273  0.19637324  0.25343056  1
  Zr  Zr66  1  0.00233139  0.60903056  0.25010642  1
  Zr  Zr67  1  0.40207109  0.39772401  0.25817811  1
  Zr  Zr68  1  0.28983813  0.30483952  0.12840228  1
  Zr  Zr69  1  -0.00490807  0.21490155  -0.00633635  1
  Zr  Zr70  1  0.30659754  0.30582601  0.62017502  1
  Zr  Zr71  1  0.10472150  0.09084320  0.60120275  1
  Zr  Zr72  1  0.49022556  0.90125869  0.88168955  1
  Zr  Zr73  1  0.71145520  0.30507507  0.86315888  1
  Zr  Zr74  1  0.60781275  -0.00749224  0.76221095  1
  Zr  Zr75  1  0.71099243  0.09738126  0.62326706  1
  Zr  Zr76  1  0.80562081  0.59866574  0.25678577  1
  Zr  Zr77  1  0.60427068  0.19412090  0.74885113  1
  Zr  Zr78  1  0.49184510  0.50428097  0.38842411  1
  Zr  Zr79  1  0.29886947  0.68925042  0.36004218  1
  Ta  Ta80  1  0.90838194  0.30263390  0.61820441  1
  Ta  Ta81  1  0.60953420  -0.00592142  0.48968094  1
  Ta  Ta82  1  0.70806580  0.09668264  0.37224063  1
  Ta  Ta83  1  0.29473465  0.49335329  0.86736094  1
  Ta  Ta84  1  0.70173348  0.89542062  0.36576774  1
  Ta  Ta85  1  0.69969975  0.70048242  0.37562758  1
  Ta  Ta86  1  0.90730076  0.10019792  0.35849479  1
  Ta  Ta87  1  0.92180431  0.32132067  0.85075203  1
  Ta  Ta88  1  0.50010126  0.70299029  0.62855044  1
  Ta  Ta89  1  0.61408299  -0.00791114  0.00586798  1
  Ta  Ta90  1  0.50347623  0.29631852  0.39574857  1
  Ta  Ta91  1  0.80273399  0.80330343  0.48623157  1
  Ta  Ta92  1  0.80358120  -0.00622468  0.24641574  1
  Ta  Ta93  1  0.28828696  0.49297064  0.38408534  1
  Ta  Ta94  1  0.39998908  0.19765418  0.75570792  1
  Ta  Ta95  1  0.29017630  0.70493805  0.86678410  1
  Ta  Ta96  1  0.50099130  0.09565288  0.38929468  1
  Ta  Ta97  1  -0.00500670  0.19527875  0.49531992  1
  Ta  Ta98  1  0.81802683  0.19686398  0.75346575  1
  Ta  Ta99  1  0.80846294  0.80086085  0.76054338  1
  Ta  Ta100  1  0.89716414  0.71150912  0.61404362  1
  Ta  Ta101  1  0.50098268  0.09517622  0.88852312  1
  Ta  Ta102  1  0.69957037  0.50624303  0.88399556  1
  Ta  Ta103  1  0.29743229  0.30232369  0.86528914  1
  Ta  Ta104  1  0.60297410  0.39994951  0.50956282  1
  Ta  Ta105  1  0.60001150  0.79465444  0.75979445  1
  Ta  Ta106  1  0.91479641  0.09109673  0.86627065  1
  Ta  Ta107  1  0.90324999  0.10702966  0.14574355  1
  Ta  Ta108  1  0.81226099  -0.00749727  0.75647874  1
  Ta  Ta109  1  0.49846313  0.69291357  0.14427506  1
  Ta  Ta110  1  0.71003606  0.10060085  0.13595328  1
  Ta  Ta111  1  0.08787761  0.49510056  0.60887762  1
  Ta  Ta112  1  0.81125920  0.40773766  0.26891715  1
  Ta  Ta113  1  0.08376384  0.69996566  0.88170393  1
  Ta  Ta114  1  0.60150330  0.79667315  0.49193261  1
  Ta  Ta115  1  0.80079015  0.80035808  0.24598206  1
  Ta  Ta116  1  0.90381965  0.30179066  0.38154657  1
  Ta  Ta117  1  -0.00807348  0.80203683  0.23201157  1
  Ta  Ta118  1  0.70647793  0.50128251  0.39791952  1
  Ta  Ta119  1  0.91225752  0.29744874  0.15413007  1
  Ti  Ti120  1  0.39749695  0.79895535  0.75753986  1
  Ti  Ti121  1  0.90109606  0.70909774  0.37800511  1
  Ti  Ti122  1  0.40338319  0.00116024  0.23320687  1
  Ti  Ti123  1  0.19398798  0.21492479  0.25436139  1
  Ti  Ti124  1  0.60214238  0.59635346  0.74888069  1
  Ti  Ti125  1  0.60449650  0.59526345  0.26692207  1
  Ti  Ti126  1  0.90690957  0.90050791  0.88543529  1
  Ti  Ti127  1  0.90763888  0.09530171  0.62951281  1
  Ti  Ti128  1  0.89547146  0.50352199  0.60087364  1
  Ti  Ti129  1  0.08871232  0.91564955  0.11746044  1
  Ti  Ti130  1  -0.00449845  0.60391131  0.48958712  1
  Ti  Ti131  1  0.71129669  0.09247877  0.87103258  1
  Ti  Ti132  1  0.60021775  0.40740201  -0.00976573  1
  Ti  Ti133  1  0.90717658  0.90198212  0.36154533  1
  Ti  Ti134  1  0.89317597  0.69442591  0.11363135  1
  Ti  Ti135  1  0.49647770  0.29906659  0.62321052  1
  Ti  Ti136  1  0.60498892  0.19438485  0.50201390  1
  Ti  Ti137  1  -0.00114313  -0.01164667  0.74000777  1
  Ti  Ti138  1  0.90186649  0.70212965  0.88691253  1
  Ti  Ti139  1  0.81168588  0.19270443  0.49934968  1
  Ti  Ti140  1  0.09932978  0.32527258  0.13224675  1
  Ti  Ti141  1  0.40604561  0.19757007  0.50117878  1
  Ti  Ti142  1  -0.00774216  0.80279893  0.74915363  1
  Ti  Ti143  1  0.07752852  0.89821679  0.59952423  1
  Ti  Ti144  1  0.59797203  0.60331622  0.50507717  1
  Ti  Ti145  1  0.10117355  0.29736778  0.60558538  1
  Ti  Ti146  1  0.38862085  0.60201197  0.51208840  1
  Ti  Ti147  1  0.30222277  0.70515739  0.63553255  1
  Ti  Ti148  1  0.08153767  0.70509958  0.61785957  1
  Ti  Ti149  1  0.09140132  0.70539804  0.37680057  1
  Ti  Ti150  1  0.39298348  0.80479921  0.24123328  1
  Ti  Ti151  1  0.28776628  0.90197421  0.88768861  1
  Ti  Ti152  1  0.39995129  -0.00590010  0.01942862  1
  Ti  Ti153  1  0.80081517  0.60506606  0.49785598  1
  Ti  Ti154  1  0.39771501  0.78986425  0.50001786  1
  Ti  Ti155  1  0.18023176  0.58256801  0.25220183  1
  Ti  Ti156  1  -0.00520788  0.79855445  0.01859999  1
  Ti  Ti157  1  0.20290312  0.19471537  0.75713515  1
  Ti  Ti158  1  0.19982858  -0.00858294  0.23720204  1
  Ti  Ti159  1  0.09805702  0.08925070  0.89342332  1
  Mo  Mo160  1  0.90142430  0.89527776  0.63209709  1
  Mo  Mo161  1  0.20008050  0.20003058  0.49363901  1
  Mo  Mo162  1  0.90133026  0.90047955  0.12798552  1
  Mo  Mo163  1  0.00494913  0.21060996  0.26461829  1
  Mo  Mo164  1  0.10160160  0.30139665  0.86392728  1
  Mo  Mo165  1  0.10150685  0.51147769  0.39789475  1
  Mo  Mo166  1  0.00384355  0.39687973  0.00738565  1
  Mo  Mo167  1  -0.00732693  0.00971108  0.01510243  1
  Mo  Mo168  1  0.30102640  0.89934480  0.13515974  1
  Mo  Mo169  1  0.70138679  0.89775990  0.14301165  1
  Mo  Mo170  1  0.60007313  0.79494466  0.26549274  1
  Mo  Mo171  1  0.49758581  0.69982737  0.85015989  1
  Mo  Mo172  1  0.70742422  0.89768943  0.86562936  1
  Mo  Mo173  1  0.69560133  0.50692220  0.60764431  1
  Mo  Mo174  1  0.39523546  0.59624389  0.25232491  1
  Mo  Mo175  1  0.09172259  0.69516497  0.11849976  1
  Mo  Mo176  1  -0.01176690  0.00000741  0.49905896  1
  Mo  Mo177  1  0.80293084  0.60471827  0.73323113  1
  Mo  Mo178  1  -0.01091638  0.79946502  0.49126995  1
  Mo  Mo179  1  0.19569593  0.39926846  -0.01630217  1
  Mo  Mo180  1  0.50687767  0.50274951  0.86711959  1
  Mo  Mo181  1  0.29519268  0.50136106  0.62003160  1
  Mo  Mo182  1  0.79699329  0.60487682  0.01268270  1
  Mo  Mo183  1  0.00061594  0.60969458  0.00485907  1
  Mo  Mo184  1  -0.00327221  0.40132215  0.50040497  1
  Mo  Mo185  1  0.80392050  0.40239374  0.50040497  1
  Mo  Mo186  1  -0.00329065  0.40462079  0.72143912  1
  Mo  Mo187  1  0.39867871  0.39692690  0.75712855  1
  Mo  Mo188  1  0.19666972  0.00265743  0.01327956  1
  Mo  Mo189  1  0.50844247  0.08813701  0.10423175  1
  Mo  Mo190  1  0.40357268  0.40072096  0.49582060  1
  Mo  Mo191  1  0.40613724  -0.00646840  0.49446218  1
  Mo  Mo192  1  0.10230340  0.49611373  0.11132961  1
  Mo  Mo193  1  0.89936349  0.50535959  0.39493949  1
  Mo  Mo194  1  0.20338363  0.40572521  0.51508738  1
  Mo  Mo195  1  -0.00032605  -0.00200307  0.23618898  1
  Mo  Mo196  1  0.19591835  -0.00798681  0.49279694  1
  Mo  Mo197  1  0.59292392  0.59560614  -0.01467731  1
  Mo  Mo198  1  0.80526751  0.20004769  0.26414918  1
  Mo  Mo199  1  0.19766134  0.40665800  0.26198027  1
