# generated using pymatgen
data_HfZrTaTiMo
_symmetry_space_group_name_H-M   'P 1'
_cell_length_a   15.93684038
_cell_length_b   15.92659545
_cell_length_c   15.18148942
_cell_angle_alpha   90.00400681
_cell_angle_beta   89.93738107
_cell_angle_gamma   90.02989852
_symmetry_Int_Tables_number   1
_chemical_formula_structural   HfZrTaTiMo
_chemical_formula_sum   'Hf40 Zr40 Ta40 Ti40 Mo40'
_cell_volume   3853.35687936
_cell_formula_units_Z   40
loop_
 _symmetry_equiv_pos_site_id
 _symmetry_equiv_pos_as_xyz
  1  'x, y, z'
loop_
 _atom_site_type_symbol
 _atom_site_label
 _atom_site_symmetry_multiplicity
 _atom_site_fract_x
 _atom_site_fract_y
 _atom_site_fract_z
 _atom_site_occupancy
  Hf  Hf0  1  0.29613726  0.90210878  0.12908314  1
  Hf  Hf1  1  0.29232914  0.10324128  0.38392995  1
  Hf  Hf2  1  0.69812526  0.90296943  0.38462467  1
  Hf  Hf3  1  0.88742221  0.29777744  0.87411964  1
  Hf  Hf4  1  0.51006978  0.09076040  0.86396763  1
  Hf  Hf5  1  0.19383680  0.19644208  0.24475379  1
  Hf  Hf6  1  0.70244416  0.90049567  0.87486169  1
  Hf  Hf7  1  0.50655495  0.50855801  0.63047556  1
  Hf  Hf8  1  0.08903875  0.09945352  0.39246923  1
  Hf  Hf9  1  0.69990382  0.50610735  0.61874713  1
  Hf  Hf10  1  0.11016691  0.52611171  0.85921751  1
  Hf  Hf11  1  -0.00105014  0.19382668  -0.01536783  1
  Hf  Hf12  1  0.59445066  0.18685966  0.49041190  1
  Hf  Hf13  1  -0.00560859  0.00413515  0.75199539  1
  Hf  Hf14  1  0.19672092  0.81055988  0.26105957  1
  Hf  Hf15  1  0.30480290  0.29281259  0.11098789  1
  Hf  Hf16  1  0.19624020  0.18746610  -0.01225691  1
  Hf  Hf17  1  0.90000324  0.50669648  0.11800268  1
  Hf  Hf18  1  0.80012834  0.40141645  0.74056928  1
  Hf  Hf19  1  0.51586877  0.30183566  0.85983512  1
  Hf  Hf20  1  0.20345748  0.79617424  0.74615721  1
  Hf  Hf21  1  0.10167525  0.09722789  0.61634365  1
  Hf  Hf22  1  0.79399810  0.80103173  0.73179322  1
  Hf  Hf23  1  0.40153442  -0.01480308  0.73725216  1
  Hf  Hf24  1  0.50244126  0.10140144  0.14637723  1
  Hf  Hf25  1  0.20464070  -0.00436515  0.75023440  1
  Hf  Hf26  1  0.80912275  0.80499501  0.26156102  1
  Hf  Hf27  1  0.29435588  0.48737117  0.38846553  1
  Hf  Hf28  1  0.19908784  0.39743124  0.24075437  1
  Hf  Hf29  1  0.70051022  0.69253302  0.14527748  1
  Hf  Hf30  1  0.30508511  0.70444787  0.60678225  1
  Hf  Hf31  1  0.70170853  0.70068884  0.88226843  1
  Hf  Hf32  1  0.41047870  0.80569205  0.47319882  1
  Hf  Hf33  1  0.40729368  0.00276821  0.48958223  1
  Hf  Hf34  1  0.41322128  0.40147007  -0.00198955  1
  Hf  Hf35  1  0.10145578  0.51227232  0.11692903  1
  Hf  Hf36  1  0.61024887  -0.01119431  0.01490281  1
  Hf  Hf37  1  0.88817944  0.91055711  0.60936877  1
  Hf  Hf38  1  0.59620935  0.79624290  0.74061499  1
  Hf  Hf39  1  0.29582743  0.29164130  0.63126464  1
  Zr  Zr40  1  0.30501280  0.69668449  0.36766195  1
  Zr  Zr41  1  0.69100245  0.30020445  0.13045704  1
  Zr  Zr42  1  0.30295957  0.89227438  0.89166163  1
  Zr  Zr43  1  0.39726357  0.40660506  0.74706804  1
  Zr  Zr44  1  0.70940758  0.29140461  0.37533868  1
  Zr  Zr45  1  0.89191123  0.51418051  0.86869993  1
  Zr  Zr46  1  0.40816378  -0.00090001  0.00740209  1
  Zr  Zr47  1  0.18931818  0.78619792  0.00349159  1
  Zr  Zr48  1  0.49546336  0.68801142  0.13922506  1
  Zr  Zr49  1  -0.00413314  0.19980051  0.75060381  1
  Zr  Zr50  1  0.89796602  0.31201494  0.40035788  1
  Zr  Zr51  1  -0.00991885  0.20579927  0.24238243  1
  Zr  Zr52  1  0.39973100  0.39623558  0.50784973  1
  Zr  Zr53  1  0.08907206  0.70609702  0.38748609  1
  Zr  Zr54  1  0.50789235  0.50667087  0.87214459  1
  Zr  Zr55  1  0.51528403  0.29140283  0.64168444  1
  Zr  Zr56  1  0.39593335  0.18125467  0.74413328  1
  Zr  Zr57  1  0.89132167  0.10890048  0.39277594  1
  Zr  Zr58  1  0.79831369  0.81557724  0.02657140  1
  Zr  Zr59  1  0.09163352  0.29822772  0.11364177  1
  Zr  Zr60  1  0.39313056  0.19943969  0.25921433  1
  Zr  Zr61  1  0.19355817  0.59293094  0.50526839  1
  Zr  Zr62  1  0.09535537  0.90083461  0.60876950  1
  Zr  Zr63  1  0.40226617  0.61677168  0.74853591  1
  Zr  Zr64  1  -0.00697258  0.80610624  0.00767453  1
  Zr  Zr65  1  0.09672212  0.30582496  0.38238182  1
  Zr  Zr66  1  0.89827430  0.09288241  0.11000355  1
  Zr  Zr67  1  0.00711016  0.62177378  -0.01000772  1
  Zr  Zr68  1  0.39640605  0.40019302  0.24769126  1
  Zr  Zr69  1  0.69845581  0.50162485  0.13437833  1
  Zr  Zr70  1  -0.00304783  0.40604317  -0.01461859  1
  Zr  Zr71  1  0.20073272  0.59202972  0.25482069  1
  Zr  Zr72  1  0.40489174  0.80300538  0.74287846  1
  Zr  Zr73  1  0.70140589  0.08111822  0.61917998  1
  Zr  Zr74  1  0.20224919  0.40688434  -0.00876284  1
  Zr  Zr75  1  0.59782982  0.39595890  0.49564199  1
  Zr  Zr76  1  0.70212374  0.09784517  0.13129329  1
  Zr  Zr77  1  0.71275191  0.48960999  0.37321356  1
  Zr  Zr78  1  0.30538161  0.29723451  0.87220263  1
  Zr  Zr79  1  0.59774384  0.20225030  -0.00366837  1
  Ta  Ta80  1  0.80428480  0.20175932  0.24150947  1
  Ta  Ta81  1  -0.00431892  0.40577926  0.24195277  1
  Ta  Ta82  1  0.30050678  0.51447954  0.87689845  1
  Ta  Ta83  1  0.10034103  0.08499410  0.11788764  1
  Ta  Ta84  1  0.69715047  0.49714167  0.87393332  1
  Ta  Ta85  1  0.29980111  0.08798600  0.88219751  1
  Ta  Ta86  1  -0.00288355  0.80983158  0.25857083  1
  Ta  Ta87  1  0.50054094  0.89742556  0.14698185  1
  Ta  Ta88  1  0.00153665  0.40461608  0.73993328  1
  Ta  Ta89  1  0.50131240  0.70501905  0.89275824  1
  Ta  Ta90  1  0.80694324  0.60122647  0.49226326  1
  Ta  Ta91  1  0.09608723  0.70349739  0.14684879  1
  Ta  Ta92  1  0.59677331  0.79847585  0.26198161  1
  Ta  Ta93  1  0.89212905  0.90227601  0.86825500  1
  Ta  Ta94  1  0.69697946  0.70211316  0.59809472  1
  Ta  Ta95  1  0.70317184  0.69958237  0.37725961  1
  Ta  Ta96  1  0.20502848  0.81396308  0.49057258  1
  Ta  Ta97  1  0.19588548  0.40611834  0.74525974  1
  Ta  Ta98  1  0.50820093  0.49858044  0.12427527  1
  Ta  Ta99  1  -0.00458969  0.80110029  0.74284175  1
  Ta  Ta100  1  -0.00208424  0.21615687  0.52753553  1
  Ta  Ta101  1  0.70684314  0.09780048  0.87235671  1
  Ta  Ta102  1  0.40396737  0.79313493  0.01615500  1
  Ta  Ta103  1  0.59450256  0.59988051  0.47717815  1
  Ta  Ta104  1  0.09645355  0.70098212  0.62242411  1
  Ta  Ta105  1  0.89435992  0.71155218  0.86550786  1
  Ta  Ta106  1  0.90488888  0.69831899  0.14434868  1
  Ta  Ta107  1  0.60310101  0.59960323  0.00112943  1
  Ta  Ta108  1  0.19154387  0.00043173  0.26151370  1
  Ta  Ta109  1  -0.00328945  0.59789451  0.26543006  1
  Ta  Ta110  1  0.40388679  0.19678010  0.50092965  1
  Ta  Ta111  1  0.51525439  0.90065615  0.60052307  1
  Ta  Ta112  1  0.79756029  0.19321626  0.74210439  1
  Ta  Ta113  1  0.80748594  -0.00307503  0.25790966  1
  Ta  Ta114  1  0.59969172  0.79994889  0.02411541  1
  Ta  Ta115  1  0.09503403  0.89884187  0.87395404  1
  Ta  Ta116  1  0.19419537  0.19020510  0.75886413  1
  Ta  Ta117  1  0.79060133  0.39709706  0.00138044  1
  Ta  Ta118  1  0.81800875  0.39021422  0.23628647  1
  Ta  Ta119  1  0.18197240  0.39780116  0.52924492  1
  Ti  Ti120  1  0.69778711  0.29921015  0.86760017  1
  Ti  Ti121  1  0.40945824  0.58864702  0.26372381  1
  Ti  Ti122  1  -0.00204644  -0.00397120  0.25679356  1
  Ti  Ti123  1  0.31148596  0.51589439  0.10791307  1
  Ti  Ti124  1  0.49792881  0.29407372  0.36980424  1
  Ti  Ti125  1  0.70378161  0.29298664  0.62378380  1
  Ti  Ti126  1  0.29387648  0.09134609  0.12078468  1
  Ti  Ti127  1  0.91023297  0.90061809  0.39951278  1
  Ti  Ti128  1  0.79968468  0.61134756  0.73663175  1
  Ti  Ti129  1  -0.00196637  0.59628268  0.50153411  1
  Ti  Ti130  1  0.88482006  0.09205088  0.88096452  1
  Ti  Ti131  1  0.40978141  0.59597779  0.48788193  1
  Ti  Ti132  1  0.50604217  0.30106596  0.13041941  1
  Ti  Ti133  1  0.29153054  0.30002353  0.39026834  1
  Ti  Ti134  1  0.89120668  0.09864808  0.61282523  1
  Ti  Ti135  1  0.50957319  0.70313631  0.60274729  1
  Ti  Ti136  1  0.60573366  -0.01316650  0.74609989  1
  Ti  Ti137  1  0.90130231  0.50280702  0.61797601  1
  Ti  Ti138  1  0.39531865  -0.00771013  0.26505193  1
  Ti  Ti139  1  0.60768186  0.61017217  0.75065724  1
  Ti  Ti140  1  0.29623609  0.50755142  0.63027800  1
  Ti  Ti141  1  0.10128290  0.30409112  0.86436275  1
  Ti  Ti142  1  0.51107283  0.09152301  0.62930844  1
  Ti  Ti143  1  0.90640425  0.49162211  0.38816045  1
  Ti  Ti144  1  0.59342880  0.40238953  0.26239012  1
  Ti  Ti145  1  0.69752640  0.09867581  0.36700814  1
  Ti  Ti146  1  0.30018131  0.69472599  0.13249974  1
  Ti  Ti147  1  0.90063126  0.70807995  0.60487668  1
  Ti  Ti148  1  0.29520710  0.09011896  0.61202514  1
  Ti  Ti149  1  0.40629909  0.19263332  -0.00420825  1
  Ti  Ti150  1  0.29404836  0.69056727  0.88440814  1
  Ti  Ti151  1  0.50568218  0.89129595  0.88555339  1
  Ti  Ti152  1  0.69729727  0.89637766  0.59597047  1
  Ti  Ti153  1  0.81273850  0.59585048  0.26736835  1
  Ti  Ti154  1  0.09115450  0.48834771  0.38279476  1
  Ti  Ti155  1  0.09484052  0.90653217  0.12506435  1
  Ti  Ti156  1  -0.00175062  -0.00570634  -0.00912682  1
  Ti  Ti157  1  -0.00530423  0.61220126  0.74001468  1
  Ti  Ti158  1  0.80093988  0.60835455  0.00248562  1
  Ti  Ti159  1  0.19651160  0.20620304  0.51082566  1
  Mo  Mo160  1  0.20422845  -0.00111679  0.49063331  1
  Mo  Mo161  1  0.49883718  0.49427839  0.36910023  1
  Mo  Mo162  1  0.59899525  0.20297708  0.26376601  1
  Mo  Mo163  1  0.10100066  0.29923998  0.64356287  1
  Mo  Mo164  1  0.90083988  0.69590674  0.37733793  1
  Mo  Mo165  1  0.20447471  0.60583587  0.73379367  1
  Mo  Mo166  1  0.00248424  0.41076731  0.52500139  1
  Mo  Mo167  1  0.60203941  -0.00159052  0.25744777  1
  Mo  Mo168  1  0.50183287  0.10087899  0.36134110  1
  Mo  Mo169  1  0.09566814  0.70940112  0.84947627  1
  Mo  Mo170  1  0.59811895  0.79474633  0.48506812  1
  Mo  Mo171  1  0.10018664  0.08763431  0.87871688  1
  Mo  Mo172  1  0.59962986  0.59338724  0.26704073  1
  Mo  Mo173  1  0.89068436  0.30029454  0.10542134  1
  Mo  Mo174  1  0.30448984  0.90318760  0.60234182  1
  Mo  Mo175  1  0.50291285  0.69446085  0.36138154  1
  Mo  Mo176  1  0.09254986  0.50890859  0.64017488  1
  Mo  Mo177  1  -0.00132741  0.79852412  0.50402238  1
  Mo  Mo178  1  0.61223577  0.19219287  0.74954036  1
  Mo  Mo179  1  0.69953499  0.90172072  0.15260541  1
  Mo  Mo180  1  0.19073011  -0.00540919  -0.00076091  1
  Mo  Mo181  1  0.90742538  0.90735545  0.13931301  1
  Mo  Mo182  1  0.39815676  0.80072030  0.24567989  1
  Mo  Mo183  1  -0.00325688  0.00592500  0.50293069  1
  Mo  Mo184  1  0.59414934  0.00022558  0.48276964  1
  Mo  Mo185  1  0.79627817  0.20167840  -0.01023240  1
  Mo  Mo186  1  0.80042868  -0.00009285  0.75622026  1
  Mo  Mo187  1  0.79626463  0.00290534  0.48152774  1
  Mo  Mo188  1  0.61311413  0.40260141  0.74551590  1
  Mo  Mo189  1  0.20518761  0.61029506  0.00891461  1
  Mo  Mo190  1  0.29733345  0.90604468  0.36765034  1
  Mo  Mo191  1  0.80543862  0.40314595  0.52113309  1
  Mo  Mo192  1  0.80216453  0.79494844  0.49320692  1
  Mo  Mo193  1  0.09280241  0.90829868  0.38439661  1
  Mo  Mo194  1  0.50139884  0.90278049  0.36083410  1
  Mo  Mo195  1  0.89442375  0.30232332  0.62914687  1
  Mo  Mo196  1  0.60445748  0.40546163  -0.00124350  1
  Mo  Mo197  1  0.80282183  -0.00160985  -0.00335365  1
  Mo  Mo198  1  0.40030612  0.60441298  -0.00192960  1
  Mo  Mo199  1  0.79637378  0.20184767  0.52095194  1
