# generated using pymatgen
data_HfZrTaTiMo
_symmetry_space_group_name_H-M   'P 1'
_cell_length_a   15.93315637
_cell_length_b   15.93344646
_cell_length_c   15.21986457
_cell_angle_alpha   90.00318636
_cell_angle_beta   90.03604584
_cell_angle_gamma   89.90058011
_symmetry_Int_Tables_number   1
_chemical_formula_structural   HfZrTaTiMo
_chemical_formula_sum   'Hf40 Zr40 Ta40 Ti40 Mo40'
_cell_volume   3863.86186053
_cell_formula_units_Z   40
loop_
 _symmetry_equiv_pos_site_id
 _symmetry_equiv_pos_as_xyz
  1  'x, y, z'
loop_
 _atom_site_type_symbol
 _atom_site_label
 _atom_site_symmetry_multiplicity
 _atom_site_fract_x
 _atom_site_fract_y
 _atom_site_fract_z
 _atom_site_occupancy
  Hf  Hf0  1  0.41036080  0.59564293  0.50077823  1
  Hf  Hf1  1  0.09699286  0.69899373  0.86045502  1
  Hf  Hf2  1  0.79832882  -0.00280148  0.75490847  1
  Hf  Hf3  1  0.59385655  -0.00209195  0.76646338  1
  Hf  Hf4  1  0.59385647  0.20807698  0.23371560  1
  Hf  Hf5  1  0.39285427  0.00625465  -0.01436107  1
  Hf  Hf6  1  0.00405277  -0.01248151  -0.00181101  1
  Hf  Hf7  1  0.40629673  0.79775267  0.23418761  1
  Hf  Hf8  1  0.10412958  0.29824494  0.38153559  1
  Hf  Hf9  1  0.50639706  0.50056799  0.87677207  1
  Hf  Hf10  1  0.40687205  0.39244625  0.23343446  1
  Hf  Hf11  1  0.90313298  0.31157454  0.14318411  1
  Hf  Hf12  1  0.20179793  -0.01124372  0.00125996  1
  Hf  Hf13  1  0.49935404  0.10574178  0.10783954  1
  Hf  Hf14  1  0.29468552  0.29748212  0.88522651  1
  Hf  Hf15  1  0.91532172  0.68521208  0.12270766  1
  Hf  Hf16  1  0.81221203  0.00020157  -0.00718031  1
  Hf  Hf17  1  0.60780162  0.80339990  0.24988604  1
  Hf  Hf18  1  0.10552361  0.90375683  0.62472444  1
  Hf  Hf19  1  0.39921953  -0.00374640  0.49387820  1
  Hf  Hf20  1  0.30374484  0.29409278  0.11418936  1
  Hf  Hf21  1  -0.00008589  0.79754809  0.48996734  1
  Hf  Hf22  1  0.20392507  0.18233687  0.01015375  1
  Hf  Hf23  1  0.00958996  0.79849504  0.00024556  1
  Hf  Hf24  1  0.39093780  0.40691018  0.76120074  1
  Hf  Hf25  1  0.78330628  0.19118103  0.25447573  1
  Hf  Hf26  1  0.11282039  0.48742267  0.61391286  1
  Hf  Hf27  1  0.00828230  0.39535951  0.74558005  1
  Hf  Hf28  1  0.79615866  0.19611413  0.49904099  1
  Hf  Hf29  1  0.68697309  0.11132146  0.89425264  1
  Hf  Hf30  1  0.19092504  0.40847187  0.25709409  1
  Hf  Hf31  1  0.09895996  0.09662942  0.86844781  1
  Hf  Hf32  1  -0.00199734  0.19463762  0.50355015  1
  Hf  Hf33  1  0.30468912  0.70062807  0.63059163  1
  Hf  Hf34  1  0.89170518  0.08501799  0.14131895  1
  Hf  Hf35  1  -0.00112025  -0.00923486  0.26875445  1
  Hf  Hf36  1  0.39769063  0.80997479  -0.00471430  1
  Hf  Hf37  1  0.29511952  0.08859857  0.63876861  1
  Hf  Hf38  1  0.00603072  0.58502351  0.28238492  1
  Hf  Hf39  1  0.39170175  0.59653974  0.23856872  1
  Zr  Zr40  1  0.68522220  0.30404516  0.38291737  1
  Zr  Zr41  1  0.60115939  0.79393585  0.76656301  1
  Zr  Zr42  1  0.28524215  0.50424770  0.11517848  1
  Zr  Zr43  1  0.01049676  0.78376244  0.26488390  1
  Zr  Zr44  1  -0.00390437  0.19751608  0.73273551  1
  Zr  Zr45  1  -0.00575919  0.40102591  0.49676861  1
  Zr  Zr46  1  0.50935766  0.89635276  0.61910763  1
  Zr  Zr47  1  0.68582201  0.29696069  0.62931480  1
  Zr  Zr48  1  0.40883130  0.80827654  0.75857201  1
  Zr  Zr49  1  -0.00516772  0.19299292  0.00951102  1
  Zr  Zr50  1  0.20478563  0.58445375  0.75426886  1
  Zr  Zr51  1  0.39546796  0.20100484  0.51079255  1
  Zr  Zr52  1  0.50349102  0.10088261  0.62564880  1
  Zr  Zr53  1  0.49689859  0.49526583  0.36402430  1
  Zr  Zr54  1  0.71638833  0.70496816  0.10754644  1
  Zr  Zr55  1  0.29898333  0.70374719  0.86585292  1
  Zr  Zr56  1  0.11938885  0.89643252  0.37803488  1
  Zr  Zr57  1  0.00494186  0.19571796  0.25730192  1
  Zr  Zr58  1  0.70413393  0.89669276  0.88952088  1
  Zr  Zr59  1  -0.00925438  0.40724977  -0.00896036  1
  Zr  Zr60  1  0.90058683  0.50749307  0.86273080  1
  Zr  Zr61  1  0.67837144  0.51641536  0.64707030  1
  Zr  Zr62  1  0.18914618  0.20873384  0.74004738  1
  Zr  Zr63  1  0.41031140  0.79885561  0.49678348  1
  Zr  Zr64  1  0.70653985  0.91712211  0.12479796  1
  Zr  Zr65  1  0.69708948  0.70878859  0.61929997  1
  Zr  Zr66  1  0.80586438  0.79802290  0.26867820  1
  Zr  Zr67  1  0.29281593  0.70399845  0.36445543  1
  Zr  Zr68  1  0.79413352  0.19449867  0.74225113  1
  Zr  Zr69  1  0.30587699  0.90366227  0.35658922  1
  Zr  Zr70  1  0.60663776  0.60246221  0.23777375  1
  Zr  Zr71  1  0.90068254  0.90303459  0.61344993  1
  Zr  Zr72  1  0.30459850  0.29777043  0.37572427  1
  Zr  Zr73  1  -0.00758838  0.59845490  0.49897737  1
  Zr  Zr74  1  0.50242192  0.69778551  0.10886514  1
  Zr  Zr75  1  0.79524379  0.40945369  0.50691812  1
  Zr  Zr76  1  0.80006149  0.20516764  0.01045345  1
  Zr  Zr77  1  0.08456529  0.50269371  0.12061748  1
  Zr  Zr78  1  0.20506002  0.79767069  0.01268701  1
  Zr  Zr79  1  0.58249041  0.41651889  0.51524905  1
  Ta  Ta80  1  0.60078471  0.00041163  0.48104973  1
  Ta  Ta81  1  0.09985223  0.09105666  0.13338342  1
  Ta  Ta82  1  0.90350193  0.89286273  0.13965013  1
  Ta  Ta83  1  0.39913559  0.20071149  0.75794291  1
  Ta  Ta84  1  0.50059011  0.10951994  0.37258592  1
  Ta  Ta85  1  0.79480091  0.60345370  0.49104120  1
  Ta  Ta86  1  0.09705940  0.29984705  0.89171886  1
  Ta  Ta87  1  0.10305412  0.30376437  0.12100059  1
  Ta  Ta88  1  0.70839713  0.50138191  0.11744963  1
  Ta  Ta89  1  0.40076197  0.40194328  -0.00301819  1
  Ta  Ta90  1  0.69157804  0.50703454  0.37327551  1
  Ta  Ta91  1  0.50415566  0.29423036  0.88233852  1
  Ta  Ta92  1  0.79571960  -0.00521053  0.47916615  1
  Ta  Ta93  1  0.90167308  0.10095764  0.86955527  1
  Ta  Ta94  1  0.28976704  0.31202441  0.62625929  1
  Ta  Ta95  1  0.80582824  0.80196762  0.75623919  1
  Ta  Ta96  1  -0.00355243  0.79904576  0.74426140  1
  Ta  Ta97  1  0.79760558  0.40208612  -0.00531046  1
  Ta  Ta98  1  0.30441483  0.49894063  0.61755616  1
  Ta  Ta99  1  0.10323613  0.70104712  0.62503355  1
  Ta  Ta100  1  0.79922578  0.79931943  0.48209178  1
  Ta  Ta101  1  0.90335043  0.70133661  0.87241457  1
  Ta  Ta102  1  0.00010644  0.60032093  0.73538482  1
  Ta  Ta103  1  0.69321536  0.30795357  0.87399507  1
  Ta  Ta104  1  0.79052927  0.40771770  0.25492284  1
  Ta  Ta105  1  0.49943579  0.29747629  0.38055616  1
  Ta  Ta106  1  0.89430992  0.29621687  0.86661928  1
  Ta  Ta107  1  0.50672769  0.91463257  0.12195864  1
  Ta  Ta108  1  0.70154824  0.90258133  0.61312000  1
  Ta  Ta109  1  0.49302614  0.30766465  0.64395792  1
  Ta  Ta110  1  0.29980128  0.10089947  0.36425434  1
  Ta  Ta111  1  0.18949645  0.59429589  -0.01690965  1
  Ta  Ta112  1  0.69938099  0.50008480  0.87403405  1
  Ta  Ta113  1  0.70923070  0.69407434  0.88561631  1
  Ta  Ta114  1  0.20253874  0.19686629  0.23949188  1
  Ta  Ta115  1  0.79577755  0.40008381  0.75248432  1
  Ta  Ta116  1  0.69381442  0.08905023  0.61151492  1
  Ta  Ta117  1  0.20003214  0.60112020  0.49393871  1
  Ta  Ta118  1  0.89481564  0.30357403  0.36676725  1
  Ta  Ta119  1  0.60022520  0.40038562  0.23128766  1
  Ti  Ti120  1  0.11027378  0.09706503  0.37958153  1
  Ti  Ti121  1  0.11300320  0.89399664  0.85447825  1
  Ti  Ti122  1  0.89719138  0.08506214  0.61533290  1
  Ti  Ti123  1  0.60226060  0.39811496  0.00632060  1
  Ti  Ti124  1  0.50765547  0.69500525  0.37022450  1
  Ti  Ti125  1  0.20504660  0.00604358  0.24328150  1
  Ti  Ti126  1  0.11561227  0.68435253  0.13631004  1
  Ti  Ti127  1  0.29644898  0.49767564  0.38275209  1
  Ti  Ti128  1  0.21043148  0.80189515  0.51115761  1
  Ti  Ti129  1  0.89562422  0.49937895  0.13764732  1
  Ti  Ti130  1  0.09466239  0.08744071  0.62084476  1
  Ti  Ti131  1  0.19640898  0.40223553  0.76775278  1
  Ti  Ti132  1  0.59307447  0.19773019  0.75411689  1
  Ti  Ti133  1  0.30904712  0.91213884  0.13912813  1
  Ti  Ti134  1  0.19890201  0.19746946  0.51116061  1
  Ti  Ti135  1  0.89499291  0.70172508  0.62410499  1
  Ti  Ti136  1  0.50238628  0.49924082  0.11030460  1
  Ti  Ti137  1  0.89011578  0.50495436  0.63482244  1
  Ti  Ti138  1  0.60663914  0.80375720  0.47659202  1
  Ti  Ti139  1  0.81257511  0.59324933  -0.00394977  1
  Ti  Ti140  1  0.89540382  0.09613373  0.37583995  1
  Ti  Ti141  1  0.61408608  0.01732481  0.25656587  1
  Ti  Ti142  1  0.79731833  0.61045406  0.75168572  1
  Ti  Ti143  1  0.82102272  0.80480790  -0.00629493  1
  Ti  Ti144  1  0.50297207  0.91043257  0.35448992  1
  Ti  Ti145  1  0.80299887  0.60131313  0.26702164  1
  Ti  Ti146  1  0.59598210  0.80489290  -0.00427374  1
  Ti  Ti147  1  0.40182854  -0.00386896  0.76532242  1
  Ti  Ti148  1  0.39838882  0.39971411  0.50917780  1
  Ti  Ti149  1  0.20781952  0.00067194  0.50152785  1
  Ti  Ti150  1  -0.00462867  -0.00683467  0.75587509  1
  Ti  Ti151  1  0.60628318  0.60014384  -0.00489582  1
  Ti  Ti152  1  0.29383547  0.09813814  0.85909309  1
  Ti  Ti153  1  0.39060485  0.60329021  -0.00428510  1
  Ti  Ti154  1  0.89531291  0.30408116  0.62640816  1
  Ti  Ti155  1  0.41137898  0.60289794  0.75521062  1
  Ti  Ti156  1  0.51567382  0.68373165  0.62597094  1
  Ti  Ti157  1  0.10284281  0.89464392  0.14244248  1
  Ti  Ti158  1  0.40093633  0.19526483  0.24388236  1
  Ti  Ti159  1  0.70024570  0.30531666  0.11847881  1
  Mo  Mo160  1  0.50550796  0.69626936  0.89237287  1
  Mo  Mo161  1  0.19704310  -0.00213922  0.75144573  1
  Mo  Mo162  1  0.50005004  0.30427026  0.10304248  1
  Mo  Mo163  1  0.00038605  0.60738238  -0.00593658  1
  Mo  Mo164  1  0.59883620  0.21002070  0.00826433  1
  Mo  Mo165  1  0.59561454  0.00117947  -0.00502308  1
  Mo  Mo166  1  0.41231676  0.00807415  0.25017055  1
  Mo  Mo167  1  0.29954430  0.90235154  0.63520319  1
  Mo  Mo168  1  0.48943704  0.50545037  0.64564620  1
  Mo  Mo169  1  0.91161751  0.89617461  0.86460077  1
  Mo  Mo170  1  -0.00652606  0.39827445  0.26312276  1
  Mo  Mo171  1  0.79544262  0.00005850  0.26831691  1
  Mo  Mo172  1  0.69441145  0.10071276  0.11376946  1
  Mo  Mo173  1  0.19559686  0.59976810  0.27022988  1
  Mo  Mo174  1  0.59805632  0.60691411  0.77446244  1
  Mo  Mo175  1  0.09782965  0.49777875  0.87510054  1
  Mo  Mo176  1  0.29347850  0.69637954  0.12350329  1
  Mo  Mo177  1  0.29333135  0.90681074  0.85670947  1
  Mo  Mo178  1  0.69498621  0.90411771  0.37268762  1
  Mo  Mo179  1  0.69432438  0.69690250  0.38299606  1
  Mo  Mo180  1  0.59436299  0.39741000  0.75879823  1
  Mo  Mo181  1  0.11054425  0.69876821  0.38897427  1
  Mo  Mo182  1  0.19386733  0.39795322  -0.00565746  1
  Mo  Mo183  1  0.89730586  0.69491161  0.38392495  1
  Mo  Mo184  1  0.10661154  0.49496686  0.39157791  1
  Mo  Mo185  1  0.88631510  0.49473754  0.36968763  1
  Mo  Mo186  1  0.39739522  0.19800329  -0.01905693  1
  Mo  Mo187  1  0.10595390  0.29767615  0.60879661  1
  Mo  Mo188  1  0.20531097  0.79637078  0.22777120  1
  Mo  Mo189  1  0.30038049  0.49896728  0.89153612  1
  Mo  Mo190  1  0.19988653  0.80174765  0.73197243  1
  Mo  Mo191  1  0.00198056  0.00668169  0.48555504  1
  Mo  Mo192  1  0.21049172  0.40076608  0.49080558  1
  Mo  Mo193  1  0.49408003  0.10815967  0.87693002  1
  Mo  Mo194  1  0.30335376  0.09506118  0.13986707  1
  Mo  Mo195  1  0.59625264  0.60932456  0.49120546  1
  Mo  Mo196  1  0.90156372  0.90235053  0.37716449  1
  Mo  Mo197  1  0.50061985  0.90478416  0.89438642  1
  Mo  Mo198  1  0.69083196  0.10592619  0.38888713  1
  Mo  Mo199  1  0.59015790  0.20068324  0.50791083  1
