# generated using pymatgen
data_HfZrTaTiMo
_symmetry_space_group_name_H-M   'P 1'
_cell_length_a   15.92473800
_cell_length_b   15.92920204
_cell_length_c   15.19085967
_cell_angle_alpha   90.06923488
_cell_angle_beta   90.00455932
_cell_angle_gamma   89.89710645
_symmetry_Int_Tables_number   1
_chemical_formula_structural   HfZrTaTiMo
_chemical_formula_sum   'Hf40 Zr40 Ta40 Ti40 Mo40'
_cell_volume   3853.43155879
_cell_formula_units_Z   40
loop_
 _symmetry_equiv_pos_site_id
 _symmetry_equiv_pos_as_xyz
  1  'x, y, z'
loop_
 _atom_site_type_symbol
 _atom_site_label
 _atom_site_symmetry_multiplicity
 _atom_site_fract_x
 _atom_site_fract_y
 _atom_site_fract_z
 _atom_site_occupancy
  Hf  Hf0  1  0.30431974  0.10649661  0.13891773  1
  Hf  Hf1  1  0.41090296  0.61649386  0.00961937  1
  Hf  Hf2  1  0.79731738  0.40280911  0.25986334  1
  Hf  Hf3  1  0.30107359  0.50344625  0.87695092  1
  Hf  Hf4  1  0.39846570  0.19088566  0.76390472  1
  Hf  Hf5  1  0.00439491  0.79292828  -0.02658675  1
  Hf  Hf6  1  0.29733698  0.30805926  0.88432538  1
  Hf  Hf7  1  0.30064357  0.90431458  0.37023013  1
  Hf  Hf8  1  0.69448624  0.68992418  0.11014820  1
  Hf  Hf9  1  0.60135640  0.79527875  0.25249814  1
  Hf  Hf10  1  0.59977358  0.58656545  0.75486972  1
  Hf  Hf11  1  0.49990443  0.69094057  0.62104490  1
  Hf  Hf12  1  0.50119603  0.49195624  0.60196681  1
  Hf  Hf13  1  0.60526495  0.18731345  0.75776284  1
  Hf  Hf14  1  0.10976539  0.50645019  0.35744892  1
  Hf  Hf15  1  0.20560376  0.59931096  0.49244881  1
  Hf  Hf16  1  0.89581431  0.11109856  0.11404684  1
  Hf  Hf17  1  0.89876105  0.50418096  0.11852385  1
  Hf  Hf18  1  -0.00737230  0.40015808  0.25800025  1
  Hf  Hf19  1  0.71188517  0.69097111  0.63220003  1
  Hf  Hf20  1  0.19349195  -0.00628440  0.23736062  1
  Hf  Hf21  1  0.20413121  0.20303572  0.75676087  1
  Hf  Hf22  1  0.69370171  0.29577815  0.38249649  1
  Hf  Hf23  1  0.40133764  0.79877999  0.49847049  1
  Hf  Hf24  1  -0.00119617  0.19683471  0.25173342  1
  Hf  Hf25  1  0.40552213  0.79654535  0.24460057  1
  Hf  Hf26  1  0.50776641  0.30463934  0.13643795  1
  Hf  Hf27  1  0.08987287  0.11703379  0.60876504  1
  Hf  Hf28  1  0.40732547  0.19606112  0.00806726  1
  Hf  Hf29  1  0.20962497  0.20458988  0.48676250  1
  Hf  Hf30  1  0.29623434  0.69561643  0.63179918  1
  Hf  Hf31  1  0.89122860  0.89610032  0.38336412  1
  Hf  Hf32  1  0.29965031  0.90149922  0.62859824  1
  Hf  Hf33  1  0.39742380  0.80242549  0.75881896  1
  Hf  Hf34  1  0.09469420  0.70435558  0.63461764  1
  Hf  Hf35  1  0.09945998  0.50041346  0.13626900  1
  Hf  Hf36  1  0.89120216  0.28653790  0.38473055  1
  Hf  Hf37  1  0.00288398  0.40753695  0.49177872  1
  Hf  Hf38  1  0.59312008  0.59638099  0.26335973  1
  Hf  Hf39  1  0.50270453  0.50017870  0.89150513  1
  Zr  Zr40  1  0.39345310  0.00293598  0.00340771  1
  Zr  Zr41  1  0.79591920  -0.00339725  0.24120270  1
  Zr  Zr42  1  0.21060211  0.40568973  0.48534100  1
  Zr  Zr43  1  0.89697524  0.88765570  0.11594362  1
  Zr  Zr44  1  0.89848448  0.10739786  0.88692754  1
  Zr  Zr45  1  0.70844212  0.10108200  0.38164384  1
  Zr  Zr46  1  -0.00550877  -0.01209580  0.52077361  1
  Zr  Zr47  1  0.09250219  0.70126320  0.12768567  1
  Zr  Zr48  1  0.59935026  -0.00377205  0.24829520  1
  Zr  Zr49  1  0.68624975  0.90437719  0.86587667  1
  Zr  Zr50  1  0.19996484  0.40422792  0.01686500  1
  Zr  Zr51  1  0.78968795  0.00413065  -0.00803939  1
  Zr  Zr52  1  0.70380487  0.71093943  0.39827210  1
  Zr  Zr53  1  0.20059782  0.01079129  0.73815307  1
  Zr  Zr54  1  0.79372659  0.01074592  0.74630741  1
  Zr  Zr55  1  0.79831328  0.60394872  0.26644666  1
  Zr  Zr56  1  0.49531635  0.29057353  0.60925142  1
  Zr  Zr57  1  0.40273391  0.00753344  0.49746849  1
  Zr  Zr58  1  0.80116662  0.79291355  -0.02643837  1
  Zr  Zr59  1  -0.00007712  0.60867530  0.49531398  1
  Zr  Zr60  1  0.49986975  0.29955547  0.88439708  1
  Zr  Zr61  1  0.00120154  -0.00207011  0.24055151  1
  Zr  Zr62  1  0.40688548  0.40063041  0.74836779  1
  Zr  Zr63  1  0.79802291  0.39167384  0.75174122  1
  Zr  Zr64  1  0.00221814  0.20053030  0.76711281  1
  Zr  Zr65  1  0.00273496  0.39818042  0.75603814  1
  Zr  Zr66  1  0.89976699  0.09774052  0.39062318  1
  Zr  Zr67  1  0.69118430  0.89003311  0.10615366  1
  Zr  Zr68  1  0.20062371  0.61009238  0.00262620  1
  Zr  Zr69  1  -0.00114139  0.59721074  -0.02183011  1
  Zr  Zr70  1  0.01065605  -0.01209655  -0.00753939  1
  Zr  Zr71  1  0.69543889  0.49536830  0.12203548  1
  Zr  Zr72  1  0.59813638  -0.00110506  0.50669330  1
  Zr  Zr73  1  0.80216656  0.39481911  -0.01367512  1
  Zr  Zr74  1  0.19666610  0.79815853  0.49185864  1
  Zr  Zr75  1  0.80282708  0.40288864  0.50574868  1
  Zr  Zr76  1  -0.00317426  0.80050133  0.25097189  1
  Zr  Zr77  1  0.89709546  0.51479406  0.63516368  1
  Zr  Zr78  1  0.10742040  0.31098872  0.62272250  1
  Zr  Zr79  1  0.00006664  -0.00232833  0.75401330  1
  Ta  Ta80  1  0.57990625  0.77926127  -0.01914559  1
  Ta  Ta81  1  0.90761873  0.28254670  0.61216060  1
  Ta  Ta82  1  0.29249131  0.70825839  0.87294648  1
  Ta  Ta83  1  0.30159127  0.10290015  0.36213907  1
  Ta  Ta84  1  0.00532406  0.60238788  0.75929662  1
  Ta  Ta85  1  0.89231194  0.69180109  0.11758627  1
  Ta  Ta86  1  0.39146118  0.80295798  -0.00487412  1
  Ta  Ta87  1  0.61179583  0.39016030  -0.00890033  1
  Ta  Ta88  1  0.28509338  0.90986836  0.87655351  1
  Ta  Ta89  1  0.49840306  0.89322035  0.11019658  1
  Ta  Ta90  1  0.60498618  0.19573645  -0.00005559  1
  Ta  Ta91  1  0.40737877  0.60305166  0.23991789  1
  Ta  Ta92  1  0.49596024  0.31428210  0.37167697  1
  Ta  Ta93  1  0.20347639  0.19893448  0.00752324  1
  Ta  Ta94  1  0.29927001  0.49749241  0.63325403  1
  Ta  Ta95  1  0.31169402  0.30020678  0.35239602  1
  Ta  Ta96  1  0.68573416  0.49800067  0.39391674  1
  Ta  Ta97  1  0.69354659  0.29437877  0.61558534  1
  Ta  Ta98  1  0.69595448  0.89520002  0.63933196  1
  Ta  Ta99  1  0.30546578  0.30403827  0.62162463  1
  Ta  Ta100  1  0.30154644  0.30508790  0.14369510  1
  Ta  Ta101  1  0.09826159  0.29716024  0.12946656  1
  Ta  Ta102  1  0.89862284  0.29870484  0.11881788  1
  Ta  Ta103  1  0.49539782  0.90386176  0.87680709  1
  Ta  Ta104  1  0.39943211  0.00780903  0.76160767  1
  Ta  Ta105  1  0.40726134  -0.00465500  0.24120637  1
  Ta  Ta106  1  0.31340097  0.49173976  0.34770279  1
  Ta  Ta107  1  -0.01147513  0.60301119  0.26199023  1
  Ta  Ta108  1  0.60056047  0.19858026  0.25194230  1
  Ta  Ta109  1  0.40089758  0.60050425  0.75537539  1
  Ta  Ta110  1  0.79862920  0.20102721  0.74572299  1
  Ta  Ta111  1  0.79845208  -0.00233421  0.53023888  1
  Ta  Ta112  1  0.50527995  0.89580493  0.37753726  1
  Ta  Ta113  1  0.10203324  0.09559829  0.38194524  1
  Ta  Ta114  1  0.59444682  0.79418739  0.75179191  1
  Ta  Ta115  1  0.59922208  0.80303904  0.51570439  1
  Ta  Ta116  1  0.09610756  0.90067206  0.38428260  1
  Ta  Ta117  1  0.20076323  0.00375773  0.50282589  1
  Ta  Ta118  1  0.20022592  0.80416751  0.24445191  1
  Ta  Ta119  1  0.60712795  0.39280853  0.75381347  1
  Ti  Ti120  1  0.89972615  0.71001701  0.38494913  1
  Ti  Ti121  1  0.30033555  0.70971321  0.12313396  1
  Ti  Ti122  1  0.19338798  0.19935784  0.24991737  1
  Ti  Ti123  1  0.49287525  0.10648925  0.36461185  1
  Ti  Ti124  1  0.00000778  0.39680234  -0.00586428  1
  Ti  Ti125  1  0.80607467  0.59952395  0.49666248  1
  Ti  Ti126  1  0.19587048  0.81452148  0.00251630  1
  Ti  Ti127  1  0.10086229  0.89086895  0.62698788  1
  Ti  Ti128  1  0.10960794  0.50340583  0.63228686  1
  Ti  Ti129  1  0.69772838  0.10904231  0.12635798  1
  Ti  Ti130  1  0.81794307  0.80383575  0.53069918  1
  Ti  Ti131  1  0.12204138  0.08984271  0.89128984  1
  Ti  Ti132  1  0.51213024  0.50266806  0.12012276  1
  Ti  Ti133  1  0.89063555  0.69634529  0.84807150  1
  Ti  Ti134  1  0.50262793  0.69428363  0.39125053  1
  Ti  Ti135  1  0.00865172  0.20927260  -0.00498583  1
  Ti  Ti136  1  0.49917028  0.09835806  0.62740962  1
  Ti  Ti137  1  0.10491102  0.29893640  0.36667969  1
  Ti  Ti138  1  0.10968387  0.49453797  0.86981051  1
  Ti  Ti139  1  0.79311221  0.59463531  -0.02319337  1
  Ti  Ti140  1  0.59160486  0.19263832  0.49386157  1
  Ti  Ti141  1  0.89709110  0.49933196  0.86537751  1
  Ti  Ti142  1  0.39856533  0.40764892  0.02217301  1
  Ti  Ti143  1  0.19913443  0.60191994  0.75723394  1
  Ti  Ti144  1  0.49985962  0.90345898  0.63902703  1
  Ti  Ti145  1  0.31072680  0.11360971  0.61140622  1
  Ti  Ti146  1  0.69638944  0.69170661  0.86251784  1
  Ti  Ti147  1  0.10714167  0.30653478  0.88223995  1
  Ti  Ti148  1  0.69264550  0.49744058  0.61347959  1
  Ti  Ti149  1  0.79544245  0.79594603  0.24647837  1
  Ti  Ti150  1  0.10012132  0.10229450  0.11450463  1
  Ti  Ti151  1  0.58844365  0.01330153  0.00183458  1
  Ti  Ti152  1  0.70406508  0.89639962  0.39289316  1
  Ti  Ti153  1  -0.00158739  0.80425151  0.76009739  1
  Ti  Ti154  1  0.70200966  0.29823931  0.13856036  1
  Ti  Ti155  1  0.30226567  0.69670218  0.36552618  1
  Ti  Ti156  1  0.39411550  0.58823607  0.48499266  1
  Ti  Ti157  1  0.78562802  0.21104252  -0.01003304  1
  Ti  Ti158  1  0.10064983  0.70612196  0.36777005  1
  Ti  Ti159  1  0.21012141  0.60739347  0.24202896  1
  Mo  Mo160  1  0.89896906  0.89183040  0.64415047  1
  Mo  Mo161  1  0.79711639  0.20373979  0.23410847  1
  Mo  Mo162  1  0.00594257  0.20189720  0.48400953  1
  Mo  Mo163  1  0.19548370  0.80454586  0.75740689  1
  Mo  Mo164  1  0.20009366  -0.00199536  0.01681874  1
  Mo  Mo165  1  0.70213438  0.29358283  0.86418825  1
  Mo  Mo166  1  0.89907842  0.89636007  0.85879205  1
  Mo  Mo167  1  0.59980937  0.40210384  0.26474411  1
  Mo  Mo168  1  0.90590833  0.29856468  0.88986183  1
  Mo  Mo169  1  0.50363553  0.09069275  0.87571511  1
  Mo  Mo170  1  0.90264186  0.70392570  0.64236034  1
  Mo  Mo171  1  0.49361115  0.69952116  0.86070310  1
  Mo  Mo172  1  0.40912459  0.40965599  0.23406864  1
  Mo  Mo173  1  0.58856925  -0.00159522  0.74258548  1
  Mo  Mo174  1  0.39155748  0.40020486  0.49572228  1
  Mo  Mo175  1  0.30124637  0.89596886  0.12670559  1
  Mo  Mo176  1  0.79788254  0.59345972  0.75959109  1
  Mo  Mo177  1  0.29699100  0.10231369  0.89004118  1
  Mo  Mo178  1  0.69362203  0.10286887  0.88516584  1
  Mo  Mo179  1  0.30730735  0.50685613  0.13618940  1
  Mo  Mo180  1  0.59704093  0.39490141  0.49510657  1
  Mo  Mo181  1  0.50484016  0.70180292  0.12436278  1
  Mo  Mo182  1  0.20384819  0.40598978  0.74963614  1
  Mo  Mo183  1  0.69862156  0.49670418  0.87717667  1
  Mo  Mo184  1  0.50892990  0.09972549  0.13785842  1
  Mo  Mo185  1  0.60034620  0.60255249  0.49753201  1
  Mo  Mo186  1  0.39971994  0.20171520  0.47713194  1
  Mo  Mo187  1  0.89557767  0.50530269  0.37885633  1
  Mo  Mo188  1  0.10801088  0.70119468  0.85939231  1
  Mo  Mo189  1  0.79586421  0.19314440  0.52324025  1
  Mo  Mo190  1  0.10353140  0.89498041  0.11535930  1
  Mo  Mo191  1  0.60476925  0.59615998  -0.01384358  1
  Mo  Mo192  1  0.69170379  0.10317574  0.61668746  1
  Mo  Mo193  1  -0.00121304  0.79855673  0.50090290  1
  Mo  Mo194  1  0.49467668  0.50056590  0.38209907  1
  Mo  Mo195  1  0.89711725  0.10540500  0.62525713  1
  Mo  Mo196  1  0.20080021  0.39524702  0.24610332  1
  Mo  Mo197  1  0.80025523  0.79931428  0.75161068  1
  Mo  Mo198  1  0.10888633  0.89818420  0.86863893  1
  Mo  Mo199  1  0.40702836  0.20015954  0.25426977  1
