# generated using pymatgen
data_HfZrTaTiMo
_symmetry_space_group_name_H-M   'P 1'
_cell_length_a   15.93793362
_cell_length_b   15.92388468
_cell_length_c   15.21217566
_cell_angle_alpha   89.89999772
_cell_angle_beta   89.95986555
_cell_angle_gamma   89.99475368
_symmetry_Int_Tables_number   1
_chemical_formula_structural   HfZrTaTiMo
_chemical_formula_sum   'Hf40 Zr40 Ta40 Ti40 Mo40'
_cell_volume   3860.74928224
_cell_formula_units_Z   40
loop_
 _symmetry_equiv_pos_site_id
 _symmetry_equiv_pos_as_xyz
  1  'x, y, z'
loop_
 _atom_site_type_symbol
 _atom_site_label
 _atom_site_symmetry_multiplicity
 _atom_site_fract_x
 _atom_site_fract_y
 _atom_site_fract_z
 _atom_site_occupancy
  Hf  Hf0  1  0.39325129  0.59937592  0.74919283  1
  Hf  Hf1  1  -0.00213980  0.00106393  0.74928671  1
  Hf  Hf2  1  0.09918753  0.31160757  0.88630658  1
  Hf  Hf3  1  0.11226282  0.90068780  0.62214685  1
  Hf  Hf4  1  0.49044479  0.69856013  0.11755370  1
  Hf  Hf5  1  0.50688009  0.90335442  0.11607983  1
  Hf  Hf6  1  0.00265228  0.60253738  0.50685529  1
  Hf  Hf7  1  0.20807043  0.41958301  0.00692199  1
  Hf  Hf8  1  0.10810142  0.10721195  0.86537713  1
  Hf  Hf9  1  0.00704077  0.00237846  0.00094788  1
  Hf  Hf10  1  0.28712033  0.31516531  0.61519016  1
  Hf  Hf11  1  -0.00014571  0.40612522  0.75032584  1
  Hf  Hf12  1  0.49859092  0.50330919  0.61464229  1
  Hf  Hf13  1  0.80833751  0.79564725  0.73515041  1
  Hf  Hf14  1  0.79619827  0.39050590  0.76718087  1
  Hf  Hf15  1  0.29499751  0.11259259  0.62921402  1
  Hf  Hf16  1  0.70810748  0.10353271  0.62301869  1
  Hf  Hf17  1  0.80395393  -0.00212436  -0.02527024  1
  Hf  Hf18  1  0.88834813  0.11883019  0.37456976  1
  Hf  Hf19  1  0.60556395  -0.01321272  0.26597750  1
  Hf  Hf20  1  0.60805292  0.79934428  -0.01973255  1
  Hf  Hf21  1  0.01151228  0.59626677  0.24563040  1
  Hf  Hf22  1  0.90192292  0.70214583  0.37628119  1
  Hf  Hf23  1  0.40062712  -0.00304063  0.74937512  1
  Hf  Hf24  1  0.80299843  0.79260871  -0.01456370  1
  Hf  Hf25  1  0.59700284  0.20673119  0.74605357  1
  Hf  Hf26  1  0.59917469  0.59045860  0.24627428  1
  Hf  Hf27  1  0.19863697  -0.00056776  0.25223947  1
  Hf  Hf28  1  0.90333720  0.30541602  0.89539820  1
  Hf  Hf29  1  0.19924735  0.60235781  0.74982843  1
  Hf  Hf30  1  0.80050060  0.39957035  0.25051844  1
  Hf  Hf31  1  0.39947926  0.80661085  -0.02355348  1
  Hf  Hf32  1  -0.00193554  0.80049816  0.51061133  1
  Hf  Hf33  1  0.67668996  0.07816999  0.85913937  1
  Hf  Hf34  1  0.90420042  0.49752642  0.37777610  1
  Hf  Hf35  1  0.39910723  0.79477089  0.26088601  1
  Hf  Hf36  1  0.20502292  0.00517117  -0.00461953  1
  Hf  Hf37  1  0.38998735  0.40550557  0.74651287  1
  Hf  Hf38  1  0.89528374  0.48834361  0.61244135  1
  Hf  Hf39  1  0.80095360  0.59607159  0.01286866  1
  Zr  Zr40  1  0.39422444  0.80094614  0.74970139  1
  Zr  Zr41  1  0.60189460  0.19234005  0.25159614  1
  Zr  Zr42  1  0.60235864  0.80080567  0.74368339  1
  Zr  Zr43  1  0.00032357  0.80716328  0.25109319  1
  Zr  Zr44  1  0.49233913  0.49161742  0.88675436  1
  Zr  Zr45  1  0.59824052  0.40108580  0.48302371  1
  Zr  Zr46  1  0.00859871  0.78655703  0.72752097  1
  Zr  Zr47  1  0.70417568  0.08743406  0.40129412  1
  Zr  Zr48  1  0.49767334  0.10237833  0.39141519  1
  Zr  Zr49  1  0.09988362  0.70409350  0.88522872  1
  Zr  Zr50  1  0.78469531  0.20266260  -0.01577583  1
  Zr  Zr51  1  0.61682159  0.78773593  0.51016759  1
  Zr  Zr52  1  0.21088420  0.21171566  0.01512033  1
  Zr  Zr53  1  0.79851863  0.60117154  0.24357853  1
  Zr  Zr54  1  0.80117198  -0.00192326  0.25196942  1
  Zr  Zr55  1  0.57802008  0.18669359  -0.00725980  1
  Zr  Zr56  1  0.70544466  0.89315039  0.11596577  1
  Zr  Zr57  1  0.60748504  0.79307732  0.26322399  1
  Zr  Zr58  1  0.69661257  0.50009500  0.88006575  1
  Zr  Zr59  1  0.91806158  0.88641924  0.87454983  1
  Zr  Zr60  1  0.30577005  0.89468798  0.12151000  1
  Zr  Zr61  1  0.08937247  0.10332429  0.37456543  1
  Zr  Zr62  1  0.11344554  0.49181558  0.60462522  1
  Zr  Zr63  1  0.31104012  0.10939188  0.13067682  1
  Zr  Zr64  1  0.48733056  0.48963680  0.12788301  1
  Zr  Zr65  1  0.69256630  0.08894103  0.11390623  1
  Zr  Zr66  1  0.69677296  0.49241604  0.62579836  1
  Zr  Zr67  1  0.50573348  0.68621867  0.39086631  1
  Zr  Zr68  1  0.59935805  0.37919580  -0.00021897  1
  Zr  Zr69  1  0.91211594  0.68207254  0.87755116  1
  Zr  Zr70  1  -0.00020947  0.00679902  0.23610145  1
  Zr  Zr71  1  0.39320303  0.00203155  0.51400342  1
  Zr  Zr72  1  0.50323095  0.89532851  0.40323106  1
  Zr  Zr73  1  -0.00975768  0.20923279  0.50541293  1
  Zr  Zr74  1  0.59788245  0.21185467  0.50579542  1
  Zr  Zr75  1  0.00813991  0.19368095  0.01669701  1
  Zr  Zr76  1  0.40215005  -0.00262028  0.26243275  1
  Zr  Zr77  1  0.41161409  0.01595354  -0.02081019  1
  Zr  Zr78  1  0.50495664  0.68253644  0.87498173  1
  Zr  Zr79  1  0.10437244  0.10807038  0.63118723  1
  Ta  Ta80  1  0.50017561  0.10292391  0.62758306  1
  Ta  Ta81  1  0.19604062  0.00626676  0.49666052  1
  Ta  Ta82  1  0.09546458  0.30988163  0.36155457  1
  Ta  Ta83  1  0.00176197  0.40771901  0.23835282  1
  Ta  Ta84  1  0.10668537  0.89551716  0.12212728  1
  Ta  Ta85  1  -0.00259433  0.21082371  0.23500873  1
  Ta  Ta86  1  0.00313627  0.59530429  0.73293964  1
  Ta  Ta87  1  0.48286354  0.29145841  0.13961774  1
  Ta  Ta88  1  0.10795501  0.69899082  0.37959736  1
  Ta  Ta89  1  0.80634447  -0.00455976  0.74651552  1
  Ta  Ta90  1  0.09151379  0.51151477  0.89104591  1
  Ta  Ta91  1  0.81194794  0.59168631  0.74591988  1
  Ta  Ta92  1  0.47852252  0.28469464  0.86683631  1
  Ta  Ta93  1  0.29909383  0.30567440  0.87038312  1
  Ta  Ta94  1  0.89393299  0.30833015  0.11728184  1
  Ta  Ta95  1  0.80361775  0.38515429  0.48436819  1
  Ta  Ta96  1  0.29365756  0.10489774  0.37941144  1
  Ta  Ta97  1  0.80286986  0.19485694  0.76338639  1
  Ta  Ta98  1  0.09793359  0.90076835  0.38716485  1
  Ta  Ta99  1  0.39351974  0.39987301  0.47729976  1
  Ta  Ta100  1  0.31166483  0.12283670  0.86169462  1
  Ta  Ta101  1  0.20231726  0.80013921  0.26144558  1
  Ta  Ta102  1  0.39141834  0.59697686  0.26210724  1
  Ta  Ta103  1  0.78972658  0.60414662  0.49780890  1
  Ta  Ta104  1  0.19582419  0.21301333  0.48564232  1
  Ta  Ta105  1  0.09926593  0.30672922  0.62368659  1
  Ta  Ta106  1  0.49667876  0.30286701  0.36099832  1
  Ta  Ta107  1  0.70241446  0.68647165  0.85773246  1
  Ta  Ta108  1  0.11775781  0.69830750  0.13125390  1
  Ta  Ta109  1  0.19698703  0.41368214  0.76289935  1
  Ta  Ta110  1  -0.00630931  0.20700248  0.75144570  1
  Ta  Ta111  1  0.37384737  0.58951655  0.00135021  1
  Ta  Ta112  1  0.71470775  0.28403514  0.36611213  1
  Ta  Ta113  1  0.79794453  0.80655388  0.26930186  1
  Ta  Ta114  1  0.80413814  0.79743967  0.50762630  1
  Ta  Ta115  1  0.19693463  0.21048902  0.24836241  1
  Ta  Ta116  1  0.59193904  0.39488158  0.75480853  1
  Ta  Ta117  1  0.89952585  0.89726810  0.11600386  1
  Ta  Ta118  1  0.29581108  0.89512705  0.39192713  1
  Ta  Ta119  1  0.89767799  0.91398802  0.39520485  1
  Ti  Ti120  1  -0.00779447  0.00700192  0.51725878  1
  Ti  Ti121  1  0.69958204  0.70428274  0.12676518  1
  Ti  Ti122  1  0.39802653  0.58890442  0.48490780  1
  Ti  Ti123  1  0.90685260  0.49639635  0.89464519  1
  Ti  Ti124  1  0.29017869  0.70112109  0.87683907  1
  Ti  Ti125  1  0.88909062  0.10523712  0.12350678  1
  Ti  Ti126  1  0.69727381  0.68066262  0.63728378  1
  Ti  Ti127  1  0.49704996  0.09732351  0.13426289  1
  Ti  Ti128  1  0.30290821  0.69903241  0.60657185  1
  Ti  Ti129  1  0.00360896  0.59612778  0.02836367  1
  Ti  Ti130  1  0.19731320  0.21978081  0.75076062  1
  Ti  Ti131  1  0.00141376  0.39175666  0.48863421  1
  Ti  Ti132  1  0.29718848  0.69737259  0.12879825  1
  Ti  Ti133  1  0.12598829  0.70019551  0.60896404  1
  Ti  Ti134  1  0.20456609  0.80077537  0.00210260  1
  Ti  Ti135  1  0.29485032  0.50462089  0.60142544  1
  Ti  Ti136  1  0.11380446  0.89079942  0.86998784  1
  Ti  Ti137  1  0.29817767  0.70178002  0.39202117  1
  Ti  Ti138  1  0.60007848  0.39595186  0.25319005  1
  Ti  Ti139  1  0.70618261  0.30296848  0.62482937  1
  Ti  Ti140  1  0.00709983  0.79709383  0.01596056  1
  Ti  Ti141  1  0.50273018  0.89864191  0.61848810  1
  Ti  Ti142  1  0.21196557  -0.01025742  0.75812822  1
  Ti  Ti143  1  0.29411782  0.88653971  0.61324737  1
  Ti  Ti144  1  0.89870171  0.70829693  0.13215798  1
  Ti  Ti145  1  0.38771619  0.38792095  0.00786522  1
  Ti  Ti146  1  0.39285595  0.21108262  0.49568177  1
  Ti  Ti147  1  0.28243337  0.50932224  0.14969668  1
  Ti  Ti148  1  0.60160499  0.59713779  0.01345324  1
  Ti  Ti149  1  0.49888018  0.69066819  0.61640207  1
  Ti  Ti150  1  0.38626499  0.40253178  0.26309734  1
  Ti  Ti151  1  0.70562500  0.90963307  0.61793501  1
  Ti  Ti152  1  0.52654410  0.92156239  0.86471207  1
  Ti  Ti153  1  0.48864066  0.30472221  0.62269483  1
  Ti  Ti154  1  0.38987526  0.20494321  0.26409943  1
  Ti  Ti155  1  0.70027977  0.29278752  0.13225749  1
  Ti  Ti156  1  0.70182345  0.48435554  0.11776067  1
  Ti  Ti157  1  0.10733875  0.31762344  0.13180647  1
  Ti  Ti158  1  0.89231312  0.29605753  0.63000729  1
  Ti  Ti159  1  0.69717438  0.50316725  0.37791782  1
  Mo  Mo160  1  0.70792835  0.69379970  0.37365482  1
  Mo  Mo161  1  0.68993352  0.29631886  0.86643118  1
  Mo  Mo162  1  0.81169650  0.00167375  0.51951176  1
  Mo  Mo163  1  0.30266141  0.31440800  0.14823549  1
  Mo  Mo164  1  0.19846115  0.39899267  0.47336941  1
  Mo  Mo165  1  0.20530732  0.60919705  0.26686268  1
  Mo  Mo166  1  0.80272816  0.21020805  0.51355000  1
  Mo  Mo167  1  0.20855954  0.79969945  0.74795063  1
  Mo  Mo168  1  0.29521418  0.50372227  0.37247173  1
  Mo  Mo169  1  0.89927646  0.10583765  0.64032740  1
  Mo  Mo170  1  0.10406616  0.50789592  0.12374694  1
  Mo  Mo171  1  0.59724663  -0.00501421  -0.00145275  1
  Mo  Mo172  1  0.20715648  0.59934434  0.48695078  1
  Mo  Mo173  1  0.71198696  0.89511621  0.39995193  1
  Mo  Mo174  1  0.39981265  0.79280031  0.51282411  1
  Mo  Mo175  1  0.39864386  0.21016706  0.00584892  1
  Mo  Mo176  1  0.29423237  0.50365556  0.87590251  1
  Mo  Mo177  1  0.59876928  -0.00297135  0.72211415  1
  Mo  Mo178  1  0.49117184  0.10204157  0.84895211  1
  Mo  Mo179  1  0.39465094  0.20977728  0.72729457  1
  Mo  Mo180  1  0.79689380  0.39982951  0.00671832  1
  Mo  Mo181  1  0.90366068  0.10175071  0.86231492  1
  Mo  Mo182  1  0.19354670  0.41171541  0.25562830  1
  Mo  Mo183  1  0.60463057  0.59558826  0.49848956  1
  Mo  Mo184  1  0.90175328  0.49764731  0.12098268  1
  Mo  Mo185  1  0.49749581  0.49358187  0.36414507  1
  Mo  Mo186  1  0.20027925  0.80104538  0.49014107  1
  Mo  Mo187  1  0.10062403  0.49954488  0.38086442  1
  Mo  Mo188  1  0.70481745  0.89154035  0.85268059  1
  Mo  Mo189  1  0.90321744  0.30188590  0.35435422  1
  Mo  Mo190  1  0.20110602  0.60844426  0.00201271  1
  Mo  Mo191  1  0.60003011  0.59320258  0.74120214  1
  Mo  Mo192  1  0.80197451  0.20128142  0.23080981  1
  Mo  Mo193  1  0.10252551  0.10188935  0.13599326  1
  Mo  Mo194  1  0.60219050  -0.00375079  0.51692830  1
  Mo  Mo195  1  0.89172927  0.68882927  0.61890750  1
  Mo  Mo196  1  0.29577031  0.29998326  0.36742019  1
  Mo  Mo197  1  0.00383093  0.40930265  0.01912171  1
  Mo  Mo198  1  0.90195798  0.90353392  0.61756356  1
  Mo  Mo199  1  0.29227959  0.90083512  0.87512115  1
