# generated using pymatgen
data_HfZrTaTiMo
_symmetry_space_group_name_H-M   'P 1'
_cell_length_a   15.92853651
_cell_length_b   15.92626863
_cell_length_c   15.21043259
_cell_angle_alpha   90.01657349
_cell_angle_beta   90.06778701
_cell_angle_gamma   90.14943933
_symmetry_Int_Tables_number   1
_chemical_formula_structural   HfZrTaTiMo
_chemical_formula_sum   'Hf40 Zr40 Ta40 Ti40 Mo40'
_cell_volume   3858.59927239
_cell_formula_units_Z   40
loop_
 _symmetry_equiv_pos_site_id
 _symmetry_equiv_pos_as_xyz
  1  'x, y, z'
loop_
 _atom_site_type_symbol
 _atom_site_label
 _atom_site_symmetry_multiplicity
 _atom_site_fract_x
 _atom_site_fract_y
 _atom_site_fract_z
 _atom_site_occupancy
  Hf  Hf0  1  0.58713352  0.19391970  0.50213012  1
  Hf  Hf1  1  0.50812726  0.70254396  0.35804958  1
  Hf  Hf2  1  0.00001429  0.00332448  0.24621662  1
  Hf  Hf3  1  0.71114545  0.10593702  0.13129429  1
  Hf  Hf4  1  0.39451339  0.60572984  0.00986541  1
  Hf  Hf5  1  0.70619657  0.10082363  0.86400285  1
  Hf  Hf6  1  0.39940886  -0.00729223  0.00723389  1
  Hf  Hf7  1  0.58477058  0.40672186  0.74427828  1
  Hf  Hf8  1  0.61097692  0.20604398  -0.01803367  1
  Hf  Hf9  1  0.40728889  0.60388385  0.50456973  1
  Hf  Hf10  1  0.60785561  0.41212315  0.25305494  1
  Hf  Hf11  1  0.79118709  0.38965599  -0.01422235  1
  Hf  Hf12  1  0.78738180  0.58789694  0.23345566  1
  Hf  Hf13  1  0.79717724  0.79197278  0.22295739  1
  Hf  Hf14  1  0.01143362  -0.00135313  0.74936916  1
  Hf  Hf15  1  0.89865170  0.89868189  0.36582216  1
  Hf  Hf16  1  0.48944811  0.10375649  0.64527930  1
  Hf  Hf17  1  0.40526159  0.20958587  -0.00985324  1
  Hf  Hf18  1  0.40077664  0.80312059  0.48780974  1
  Hf  Hf19  1  0.90281194  0.70229528  0.35513456  1
  Hf  Hf20  1  0.29722951  0.08169884  0.86550734  1
  Hf  Hf21  1  0.49076471  0.89465209  0.87018667  1
  Hf  Hf22  1  0.20122547  0.61093517  0.49117069  1
  Hf  Hf23  1  0.59664420  0.40687626  0.51215327  1
  Hf  Hf24  1  0.69897655  0.70256906  0.88265072  1
  Hf  Hf25  1  0.10764250  0.49833351  0.87055218  1
  Hf  Hf26  1  0.50428816  0.90524782  0.64254344  1
  Hf  Hf27  1  0.50154690  0.09445516  0.86181409  1
  Hf  Hf28  1  0.50548892  0.90573485  0.35097559  1
  Hf  Hf29  1  0.00252482  0.59223931  0.24068306  1
  Hf  Hf30  1  0.30674093  0.90064253  0.63739606  1
  Hf  Hf31  1  0.50424436  0.50345037  0.37404175  1
  Hf  Hf32  1  0.40685720  0.00091795  0.49413661  1
  Hf  Hf33  1  0.69864500  0.30022315  0.13097746  1
  Hf  Hf34  1  -0.00033046  0.59427280  0.00894336  1
  Hf  Hf35  1  0.11931076  0.69767490  0.13303019  1
  Hf  Hf36  1  0.79208265  0.19729750  0.50720401  1
  Hf  Hf37  1  0.89992547  0.88624489  0.63051997  1
  Hf  Hf38  1  0.49815598  0.49303990  0.11757949  1
  Hf  Hf39  1  0.09936846  0.71436732  0.63413542  1
  Zr  Zr40  1  -0.00289194  0.79985953  0.01528101  1
  Zr  Zr41  1  -0.00546561  0.19161046  -0.02216256  1
  Zr  Zr42  1  0.20022511  0.80716650  0.48173259  1
  Zr  Zr43  1  0.89698562  0.09566839  0.62434424  1
  Zr  Zr44  1  0.60360511  0.80299548  0.50281702  1
  Zr  Zr45  1  0.30559411  0.49914999  0.37304403  1
  Zr  Zr46  1  0.09608044  0.10582503  0.38944024  1
  Zr  Zr47  1  0.89439004  0.89929551  0.87617556  1
  Zr  Zr48  1  0.90125043  0.47971898  0.12168669  1
  Zr  Zr49  1  0.10010149  0.49888363  0.37796169  1
  Zr  Zr50  1  0.59680579  0.20154054  0.27147161  1
  Zr  Zr51  1  0.10282642  0.10503851  0.12865958  1
  Zr  Zr52  1  0.50061985  0.69411598  0.87953640  1
  Zr  Zr53  1  0.89443797  0.27769682  0.12076985  1
  Zr  Zr54  1  0.39995462  0.57920820  0.74256476  1
  Zr  Zr55  1  0.69972344  0.89666221  0.35220809  1
  Zr  Zr56  1  0.89258081  0.69825255  0.64113504  1
  Zr  Zr57  1  0.30910576  0.10595370  0.38988241  1
  Zr  Zr58  1  0.20418598  0.19741296  -0.01340834  1
  Zr  Zr59  1  0.10643943  0.70488632  0.88505533  1
  Zr  Zr60  1  -0.00056773  0.39560877  0.50787188  1
  Zr  Zr61  1  -0.00668072  0.61046061  0.49438663  1
  Zr  Zr62  1  0.39808236  0.19684551  0.24611764  1
  Zr  Zr63  1  0.70441259  0.31492516  0.39183151  1
  Zr  Zr64  1  -0.00226443  0.59980476  0.76022799  1
  Zr  Zr65  1  0.59122771  0.39154912  -0.01781562  1
  Zr  Zr66  1  0.30089175  0.70455965  0.63443335  1
  Zr  Zr67  1  0.11074531  0.30314932  0.85778679  1
  Zr  Zr68  1  0.09918195  0.50854787  0.62931294  1
  Zr  Zr69  1  0.30078320  0.30692926  0.38990510  1
  Zr  Zr70  1  0.28443175  0.50948275  0.13227048  1
  Zr  Zr71  1  0.79009647  -0.00718132  0.50442076  1
  Zr  Zr72  1  0.51645630  0.09116118  0.12140300  1
  Zr  Zr73  1  0.20719756  -0.00303341  0.26257183  1
  Zr  Zr74  1  0.00481085  0.00651173  0.00387667  1
  Zr  Zr75  1  0.19612087  0.21108209  0.25755167  1
  Zr  Zr76  1  0.89260986  0.29719680  0.85572159  1
  Zr  Zr77  1  0.09212085  0.30415042  0.11634786  1
  Zr  Zr78  1  0.70674647  0.69911663  0.64032521  1
  Zr  Zr79  1  0.80807436  0.01365812  0.00597922  1
  Ta  Ta80  1  0.39864448  0.39711448  0.24072650  1
  Ta  Ta81  1  0.40409579  0.60631009  0.23710315  1
  Ta  Ta82  1  0.20079521  0.81061083  0.76512156  1
  Ta  Ta83  1  0.68327603  0.91224322  0.11457342  1
  Ta  Ta84  1  0.21870839  0.40974721  0.73355205  1
  Ta  Ta85  1  0.88666988  0.49109789  0.37851171  1
  Ta  Ta86  1  0.60278539  0.79948622  0.75698383  1
  Ta  Ta87  1  0.70520664  0.50744888  0.62940668  1
  Ta  Ta88  1  0.88687346  0.50136030  0.62926248  1
  Ta  Ta89  1  0.19018951  0.40153095  0.24555564  1
  Ta  Ta90  1  0.80011871  0.79049664  0.49043428  1
  Ta  Ta91  1  0.11948195  0.91174319  0.89503858  1
  Ta  Ta92  1  0.19940540  -0.00768931  0.50378822  1
  Ta  Ta93  1  0.00769418  0.80785743  0.76572811  1
  Ta  Ta94  1  0.89745182  0.09613522  0.38018372  1
  Ta  Ta95  1  0.70287295  0.89520281  0.64133439  1
  Ta  Ta96  1  0.10646843  0.29640924  0.63156881  1
  Ta  Ta97  1  0.30157847  0.49462937  0.88452448  1
  Ta  Ta98  1  0.49979175  0.29892956  0.12678671  1
  Ta  Ta99  1  0.20334554  0.39900303  0.51627970  1
  Ta  Ta100  1  0.80444131  0.19876485  0.27190290  1
  Ta  Ta101  1  0.79945560  0.59863260  0.00804935  1
  Ta  Ta102  1  0.80183516  0.39569981  0.25435159  1
  Ta  Ta103  1  0.50257514  0.70521771  0.63768670  1
  Ta  Ta104  1  0.90174294  0.29768592  0.38959928  1
  Ta  Ta105  1  0.29398020  0.89247807  0.12527790  1
  Ta  Ta106  1  0.89277937  0.69988713  0.87900713  1
  Ta  Ta107  1  0.20114096  0.40244198  0.00481325  1
  Ta  Ta108  1  0.00075795  0.39994808  -0.01527409  1
  Ta  Ta109  1  0.30888295  0.29118853  0.62967700  1
  Ta  Ta110  1  0.79392772  0.59956847  0.48904025  1
  Ta  Ta111  1  0.79463699  0.79822201  0.01315490  1
  Ta  Ta112  1  0.69163592  0.90115019  0.88474333  1
  Ta  Ta113  1  0.69529320  0.50661427  0.87411564  1
  Ta  Ta114  1  0.00690005  -0.01127185  0.50496970  1
  Ta  Ta115  1  0.69718719  0.69521718  0.36318493  1
  Ta  Ta116  1  0.30067556  0.10149952  0.62680880  1
  Ta  Ta117  1  0.00578338  0.19595028  0.74029969  1
  Ta  Ta118  1  0.19427824  -0.00382889  0.73824467  1
  Ta  Ta119  1  -0.00042475  0.38872862  0.26383268  1
  Ti  Ti120  1  0.20259459  0.19476455  0.74889550  1
  Ti  Ti121  1  0.79034499  0.40446407  0.74924361  1
  Ti  Ti122  1  0.20769949  0.60206693  0.75363839  1
  Ti  Ti123  1  0.60514249  0.60172874  0.22782548  1
  Ti  Ti124  1  0.09138952  0.89163572  0.36641151  1
  Ti  Ti125  1  -0.00204343  0.20473601  0.26654994  1
  Ti  Ti126  1  0.30160045  0.30401466  0.12020202  1
  Ti  Ti127  1  0.39973711  0.80052004  0.23499196  1
  Ti  Ti128  1  0.19906042  0.20488801  0.50728700  1
  Ti  Ti129  1  0.00181289  0.79924352  0.49566384  1
  Ti  Ti130  1  0.89644309  0.90701908  0.13206187  1
  Ti  Ti131  1  0.79705147  -0.00774877  0.74920838  1
  Ti  Ti132  1  0.89299436  0.50132153  0.87085756  1
  Ti  Ti133  1  0.59795247  0.21299397  0.75100293  1
  Ti  Ti134  1  0.20542414  0.60545052  -0.00325736  1
  Ti  Ti135  1  0.11092155  0.89722575  0.12129833  1
  Ti  Ti136  1  0.40021505  0.79584958  0.01692453  1
  Ti  Ti137  1  0.60473515  0.60626382  0.50401077  1
  Ti  Ti138  1  0.30408892  0.70005487  0.35561231  1
  Ti  Ti139  1  0.29746080  0.09864054  0.11978693  1
  Ti  Ti140  1  0.68543622  0.08777927  0.64009424  1
  Ti  Ti141  1  0.59664700  0.79387929  0.21749770  1
  Ti  Ti142  1  0.69809929  0.30501205  0.62833521  1
  Ti  Ti143  1  0.69783636  0.08813687  0.36739310  1
  Ti  Ti144  1  0.40486581  0.40293129  0.52692293  1
  Ti  Ti145  1  0.60294252  0.60161421  0.01270610  1
  Ti  Ti146  1  0.31185579  0.31183729  0.86324677  1
  Ti  Ti147  1  0.48495541  0.49020192  0.88503312  1
  Ti  Ti148  1  0.40172588  0.00028364  0.24262410  1
  Ti  Ti149  1  0.00006869  0.19965725  0.51056316  1
  Ti  Ti150  1  0.59687286  0.59575778  0.75050052  1
  Ti  Ti151  1  0.48691145  0.30332704  0.38221722  1
  Ti  Ti152  1  0.89617351  0.30454349  0.62683364  1
  Ti  Ti153  1  0.30766824  0.70840763  0.87002220  1
  Ti  Ti154  1  0.79387437  0.20190140  0.73515369  1
  Ti  Ti155  1  0.59909913  0.00060923  0.49693506  1
  Ti  Ti156  1  0.89723252  0.10181694  0.85535293  1
  Ti  Ti157  1  0.10596298  0.09858249  0.61860020  1
  Ti  Ti158  1  -0.00096431  0.40035064  0.74474232  1
  Ti  Ti159  1  0.20257653  0.79999299  0.26084362  1
  Mo  Mo160  1  0.20132837  0.60451258  0.26623991  1
  Mo  Mo161  1  0.59246655  0.80443767  0.00972248  1
  Mo  Mo162  1  0.69510493  0.70070594  0.10925909  1
  Mo  Mo163  1  0.29971597  0.70669081  0.13729561  1
  Mo  Mo164  1  0.50656575  0.51013867  0.61306124  1
  Mo  Mo165  1  0.30625998  0.89882232  0.35694075  1
  Mo  Mo166  1  0.40060199  0.79237011  0.75435859  1
  Mo  Mo167  1  0.69770816  0.49629659  0.10370887  1
  Mo  Mo168  1  0.09759148  0.70817124  0.35415380  1
  Mo  Mo169  1  0.89959258  0.10316026  0.14925567  1
  Mo  Mo170  1  0.39239452  0.20428047  0.76008806  1
  Mo  Mo171  1  0.79533290  0.59236554  0.77039088  1
  Mo  Mo172  1  0.49928090  0.69911992  0.12392574  1
  Mo  Mo173  1  0.60096717  -0.00036181  -0.01335336  1
  Mo  Mo174  1  0.49735179  0.89845440  0.12850948  1
  Mo  Mo175  1  0.00480743  0.80345253  0.23361577  1
  Mo  Mo176  1  0.48993397  0.30055544  0.85610302  1
  Mo  Mo177  1  0.30074664  0.89115909  0.87989526  1
  Mo  Mo178  1  0.40254670  0.20439404  0.50917378  1
  Mo  Mo179  1  0.29933632  0.50031108  0.61065177  1
  Mo  Mo180  1  0.70036321  0.51011987  0.38491965  1
  Mo  Mo181  1  0.39133943  -0.00238753  0.75039003  1
  Mo  Mo182  1  0.10013442  0.49370469  0.12192990  1
  Mo  Mo183  1  0.21530482  0.79971322  -0.00519808  1
  Mo  Mo184  1  0.60505279  -0.00294850  0.75766366  1
  Mo  Mo185  1  0.60187743  0.00082436  0.25000319  1
  Mo  Mo186  1  0.80026172  0.40403136  0.51795673  1
  Mo  Mo187  1  0.80224122  0.00347306  0.24231875  1
  Mo  Mo188  1  0.20707944  -0.00277431  0.01354244  1
  Mo  Mo189  1  0.10462127  0.09692599  0.85915203  1
  Mo  Mo190  1  0.39929950  0.39980527  0.73738359  1
  Mo  Mo191  1  0.79889444  0.80274800  0.77220978  1
  Mo  Mo192  1  0.80048380  0.19802657  -0.01461510  1
  Mo  Mo193  1  0.69880272  0.30251711  0.84755254  1
  Mo  Mo194  1  0.90173701  0.69863997  0.12345532  1
  Mo  Mo195  1  0.39094525  0.39570834  0.01006014  1
  Mo  Mo196  1  0.09735861  0.30058185  0.39289138  1
  Mo  Mo197  1  0.49589544  0.29826029  0.63225625  1
  Mo  Mo198  1  0.10160473  0.89678733  0.62050517  1
  Mo  Mo199  1  0.50573845  0.09627697  0.37150580  1
