# generated using pymatgen
data_HfZrTaTiMo
_symmetry_space_group_name_H-M   'P 1'
_cell_length_a   15.92650787
_cell_length_b   15.92740762
_cell_length_c   15.19842997
_cell_angle_alpha   89.97676962
_cell_angle_beta   90.03941767
_cell_angle_gamma   90.08538319
_symmetry_Int_Tables_number   1
_chemical_formula_structural   HfZrTaTiMo
_chemical_formula_sum   'Hf40 Zr40 Ta40 Ti40 Mo40'
_cell_volume   3855.34956212
_cell_formula_units_Z   40
loop_
 _symmetry_equiv_pos_site_id
 _symmetry_equiv_pos_as_xyz
  1  'x, y, z'
loop_
 _atom_site_type_symbol
 _atom_site_label
 _atom_site_symmetry_multiplicity
 _atom_site_fract_x
 _atom_site_fract_y
 _atom_site_fract_z
 _atom_site_occupancy
  Hf  Hf0  1  0.90152711  0.89916473  0.36662064  1
  Hf  Hf1  1  0.09283956  0.30838645  0.36453871  1
  Hf  Hf2  1  0.89686494  0.90436097  0.88815014  1
  Hf  Hf3  1  0.50835863  0.29849767  0.13202785  1
  Hf  Hf4  1  0.19235227  0.79735564  -0.00752041  1
  Hf  Hf5  1  0.41067258  0.60802210  0.74374258  1
  Hf  Hf6  1  0.69534797  0.89093521  0.37725472  1
  Hf  Hf7  1  0.59485029  -0.02763064  0.01719128  1
  Hf  Hf8  1  0.50451052  0.70100379  0.37745752  1
  Hf  Hf9  1  0.19664109  0.79635757  0.24285954  1
  Hf  Hf10  1  0.78977813  0.79853829  0.01282866  1
  Hf  Hf11  1  0.71689041  0.29015910  0.12121424  1
  Hf  Hf12  1  0.49992621  0.08941480  0.12763057  1
  Hf  Hf13  1  0.20877290  0.39520994  0.49756928  1
  Hf  Hf14  1  0.60762654  0.79668673  0.22623654  1
  Hf  Hf15  1  0.29149255  0.30095290  0.87878180  1
  Hf  Hf16  1  0.09732150  0.50454229  0.62023046  1
  Hf  Hf17  1  0.30230094  0.09572476  0.62660396  1
  Hf  Hf18  1  0.90531495  0.69645621  0.13159803  1
  Hf  Hf19  1  0.29119150  0.09159954  0.88411762  1
  Hf  Hf20  1  0.30096473  0.50113326  0.62936332  1
  Hf  Hf21  1  0.89852360  0.11278386  0.61796192  1
  Hf  Hf22  1  0.60233487  0.41393130  0.01388219  1
  Hf  Hf23  1  0.09015192  0.29502724  0.62117892  1
  Hf  Hf24  1  0.09482251  0.10071083  0.87156369  1
  Hf  Hf25  1  0.60692275  0.59712178  0.50501409  1
  Hf  Hf26  1  0.09424668  0.89218202  0.36825663  1
  Hf  Hf27  1  0.80322335  0.39734562  0.50046956  1
  Hf  Hf28  1  0.62024643  0.18607770  0.25319721  1
  Hf  Hf29  1  0.79663885  0.20476546  0.48018321  1
  Hf  Hf30  1  0.28787238  0.30165272  0.12529493  1
  Hf  Hf31  1  0.80050967  0.39137805  0.74597195  1
  Hf  Hf32  1  0.81233731  0.78791410  0.74343125  1
  Hf  Hf33  1  0.69331758  0.49688223  0.86481042  1
  Hf  Hf34  1  0.50751523  0.30459185  0.35935065  1
  Hf  Hf35  1  0.29694140  0.90675918  0.10393682  1
  Hf  Hf36  1  0.90423918  0.30475284  0.89382197  1
  Hf  Hf37  1  0.60700928  0.19879542  0.75185053  1
  Hf  Hf38  1  0.29844592  0.70525419  0.39466876  1
  Hf  Hf39  1  0.00327682  0.60642894  -0.01469085  1
  Zr  Zr40  1  0.40713897  0.20228725  0.76027286  1
  Zr  Zr41  1  0.09910490  0.49612708  0.86667376  1
  Zr  Zr42  1  0.30557777  0.49865133  0.86007190  1
  Zr  Zr43  1  0.39071109  0.79209242  0.24120157  1
  Zr  Zr44  1  0.02399590  0.60414346  0.25367697  1
  Zr  Zr45  1  0.19587665  0.41861781  0.25147028  1
  Zr  Zr46  1  0.09761547  0.10287633  0.62486885  1
  Zr  Zr47  1  0.19961438  0.20085252  0.48440643  1
  Zr  Zr48  1  0.50421541  0.08843985  0.88706825  1
  Zr  Zr49  1  0.51254075  0.70369352  0.88529440  1
  Zr  Zr50  1  0.19793710  -0.00990136  0.50339891  1
  Zr  Zr51  1  0.49683769  0.89744130  0.36477539  1
  Zr  Zr52  1  0.88345333  0.11329778  0.12447902  1
  Zr  Zr53  1  0.39963545  0.20601767  0.48533593  1
  Zr  Zr54  1  0.10082578  0.90608964  0.87801688  1
  Zr  Zr55  1  0.69243097  0.89439049  0.87494641  1
  Zr  Zr56  1  0.40016577  0.41107669  0.01145710  1
  Zr  Zr57  1  -0.00950126  -0.00608151  0.73977073  1
  Zr  Zr58  1  -0.00903595  0.61579268  0.74774776  1
  Zr  Zr59  1  0.60384483  0.59716612  0.73455907  1
  Zr  Zr60  1  0.50659221  0.30668504  0.88985485  1
  Zr  Zr61  1  0.31655293  0.30481049  0.63626667  1
  Zr  Zr62  1  0.39190120  0.19258436  0.01198032  1
  Zr  Zr63  1  0.80071405  0.79526747  0.24571004  1
  Zr  Zr64  1  0.90825892  0.50118294  0.37026503  1
  Zr  Zr65  1  0.38662629  0.19862997  0.25375313  1
  Zr  Zr66  1  0.69902726  0.10076482  0.61819505  1
  Zr  Zr67  1  0.40826687  0.59916701  0.51510391  1
  Zr  Zr68  1  0.60433932  0.78983617  0.74190991  1
  Zr  Zr69  1  0.90569778  0.49842366  0.13223054  1
  Zr  Zr70  1  0.38534158  -0.00134574  0.24550145  1
  Zr  Zr71  1  0.49081650  0.09467713  0.62382657  1
  Zr  Zr72  1  0.49714076  0.68635932  0.11824285  1
  Zr  Zr73  1  0.58601581  -0.00882828  0.50509736  1
  Zr  Zr74  1  0.31111364  0.71224695  0.87699259  1
  Zr  Zr75  1  0.30425575  0.51255002  0.38108751  1
  Zr  Zr76  1  0.90398522  0.30905791  0.13017387  1
  Zr  Zr77  1  0.69462398  0.89120059  0.61852524  1
  Zr  Zr78  1  0.79589876  0.00203691  0.74704306  1
  Zr  Zr79  1  0.09377146  0.30729291  0.12362535  1
  Ta  Ta80  1  0.70057168  0.29522398  0.89147108  1
  Ta  Ta81  1  0.00808696  0.19348253  0.00287088  1
  Ta  Ta82  1  0.70382751  0.49352614  0.62462035  1
  Ta  Ta83  1  0.10425080  0.51301589  0.39994808  1
  Ta  Ta84  1  0.30285168  0.69366277  0.10629682  1
  Ta  Ta85  1  0.09111422  0.89592314  0.12597093  1
  Ta  Ta86  1  0.69925762  0.29725141  0.62074197  1
  Ta  Ta87  1  0.19217786  0.00416301  0.24026827  1
  Ta  Ta88  1  0.91209528  0.70494865  0.37927259  1
  Ta  Ta89  1  0.89577988  0.09554066  0.36298035  1
  Ta  Ta90  1  -0.00886889  0.20185328  0.48033865  1
  Ta  Ta91  1  0.78395982  0.00060911  0.23479573  1
  Ta  Ta92  1  0.80110921  0.20111004  0.76388328  1
  Ta  Ta93  1  0.20317534  -0.00603925  0.74495400  1
  Ta  Ta94  1  0.50196837  0.09204559  0.37048104  1
  Ta  Ta95  1  -0.00784765  -0.00262058  0.23631247  1
  Ta  Ta96  1  0.80349283  0.79069014  0.50158949  1
  Ta  Ta97  1  -0.01093885  0.20538846  0.76009313  1
  Ta  Ta98  1  0.19513174  0.39643674  0.74326317  1
  Ta  Ta99  1  0.70224022  0.09793349  0.89880676  1
  Ta  Ta100  1  0.19469560  0.61600567  0.74628205  1
  Ta  Ta101  1  0.09038746  0.09237412  0.36605297  1
  Ta  Ta102  1  0.10418040  0.70084842  0.39560155  1
  Ta  Ta103  1  0.79972203  0.41152326  -0.00176240  1
  Ta  Ta104  1  0.89540839  0.30317947  0.34832885  1
  Ta  Ta105  1  0.60127352  0.39729917  0.49816112  1
  Ta  Ta106  1  -0.00454804  -0.00064980  0.50025290  1
  Ta  Ta107  1  0.80769533  -0.00634036  0.50002156  1
  Ta  Ta108  1  -0.00281206  0.80422753  0.51746450  1
  Ta  Ta109  1  0.20231917  0.60028836  -0.00920409  1
  Ta  Ta110  1  0.39614253  0.40559986  0.25092060  1
  Ta  Ta111  1  0.89736157  0.50054926  0.86851584  1
  Ta  Ta112  1  0.50550928  0.50193458  0.36353098  1
  Ta  Ta113  1  0.80136342  0.60192405  -0.01213927  1
  Ta  Ta114  1  0.59954059  0.20577480  0.48987258  1
  Ta  Ta115  1  -0.00449002  0.79786227  0.00175778  1
  Ta  Ta116  1  0.09995098  0.30027899  0.88041712  1
  Ta  Ta117  1  -0.00578515  0.39555229  0.74409970  1
  Ta  Ta118  1  0.70243846  0.49663716  0.37390384  1
  Ta  Ta119  1  0.61207782  0.60352605  0.25514255  1
  Ti  Ti120  1  0.40610324  0.81967016  0.50979326  1
  Ti  Ti121  1  0.19827968  0.19078913  0.25067086  1
  Ti  Ti122  1  0.31390349  0.90419530  0.63532546  1
  Ti  Ti123  1  0.19734862  0.40943041  0.00034904  1
  Ti  Ti124  1  0.19483586  0.20136232  0.74958094  1
  Ti  Ti125  1  0.29472962  0.08953025  0.37985907  1
  Ti  Ti126  1  0.79448802  0.60790254  0.26434163  1
  Ti  Ti127  1  0.18300011  0.01971086  0.02072846  1
  Ti  Ti128  1  0.30649290  0.90408962  0.87633534  1
  Ti  Ti129  1  0.50233496  0.71854407  0.61479758  1
  Ti  Ti130  1  0.10517646  0.69683199  0.11854946  1
  Ti  Ti131  1  0.61512786  0.40370265  0.24798536  1
  Ti  Ti132  1  0.59444497  0.38928345  0.74412274  1
  Ti  Ti133  1  0.48882921  0.89593936  0.85825691  1
  Ti  Ti134  1  0.69866683  0.08457389  0.38068365  1
  Ti  Ti135  1  0.40712233  0.39481232  0.48496568  1
  Ti  Ti136  1  0.09898654  0.50276582  0.11485513  1
  Ti  Ti137  1  0.09905590  0.89767397  0.63118094  1
  Ti  Ti138  1  0.00011848  0.79498648  0.74503187  1
  Ti  Ti139  1  0.40879251  0.58929324  -0.01187758  1
  Ti  Ti140  1  0.19636562  0.80068953  0.51640417  1
  Ti  Ti141  1  0.42062169  0.81577159  0.00953715  1
  Ti  Ti142  1  -0.00917757  0.39483795  0.50344804  1
  Ti  Ti143  1  0.30433480  0.51513364  0.12702398  1
  Ti  Ti144  1  0.89464130  0.09816589  0.88931032  1
  Ti  Ti145  1  -0.00673534  0.00125300  0.02003539  1
  Ti  Ti146  1  0.79816475  0.60820323  0.75084102  1
  Ti  Ti147  1  0.50063318  0.50552297  0.14835324  1
  Ti  Ti148  1  0.00110025  0.19439791  0.24929006  1
  Ti  Ti149  1  0.89615045  0.50231048  0.62821927  1
  Ti  Ti150  1  -0.00350598  0.61100617  0.51175195  1
  Ti  Ti151  1  0.80320160  0.60122568  0.49928322  1
  Ti  Ti152  1  0.49725456  0.47568062  0.62900425  1
  Ti  Ti153  1  0.30069944  0.71113688  0.62539302  1
  Ti  Ti154  1  0.29511075  0.89795302  0.37939904  1
  Ti  Ti155  1  0.21144044  0.60997081  0.24758109  1
  Ti  Ti156  1  0.19922046  0.80142942  0.75047656  1
  Ti  Ti157  1  0.61218515  0.60057196  0.00455791  1
  Ti  Ti158  1  0.59397770  -0.00178885  0.74840311  1
  Ti  Ti159  1  0.71223610  0.50724053  0.13613295  1
  Mo  Mo160  1  0.70771129  0.68965438  0.60791885  1
  Mo  Mo161  1  0.29899121  0.30370075  0.35736226  1
  Mo  Mo162  1  0.39145883  -0.00337778  0.48504516  1
  Mo  Mo163  1  0.39325555  -0.00394692  0.76664340  1
  Mo  Mo164  1  0.39743418  0.80307021  0.73916373  1
  Mo  Mo165  1  0.70492279  0.69361902  0.88565369  1
  Mo  Mo166  1  0.09233111  0.10302424  0.13948520  1
  Mo  Mo167  1  0.50461830  0.49837138  0.86291484  1
  Mo  Mo168  1  0.60523741  0.19606100  0.01260328  1
  Mo  Mo169  1  0.69844713  0.09765328  0.10799065  1
  Mo  Mo170  1  0.79725883  0.19448165  0.26617484  1
  Mo  Mo171  1  0.00515359  0.41031308  0.26246174  1
  Mo  Mo172  1  0.79370107  0.40615499  0.25264327  1
  Mo  Mo173  1  0.90014450  0.70570003  0.88234458  1
  Mo  Mo174  1  0.39801692  -0.00821629  -0.00613319  1
  Mo  Mo175  1  0.51067225  0.30248869  0.61533045  1
  Mo  Mo176  1  0.79876985  -0.00098277  0.01277541  1
  Mo  Mo177  1  0.60055967  0.79391188  0.50690294  1
  Mo  Mo178  1  0.10300103  0.70546953  0.86765946  1
  Mo  Mo179  1  0.60233234  -0.00347909  0.24372629  1
  Mo  Mo180  1  0.28842002  0.10197779  0.11477701  1
  Mo  Mo181  1  0.89873471  0.69534563  0.61184928  1
  Mo  Mo182  1  0.80418508  0.20093474  -0.01465968  1
  Mo  Mo183  1  0.39960532  0.59656915  0.24988719  1
  Mo  Mo184  1  0.90063378  0.90207766  0.12248424  1
  Mo  Mo185  1  0.49511234  0.89547161  0.13836382  1
  Mo  Mo186  1  0.69996868  0.30553555  0.37352843  1
  Mo  Mo187  1  0.89998896  0.89950382  0.61705833  1
  Mo  Mo188  1  0.00484097  0.79670838  0.23960076  1
  Mo  Mo189  1  0.18984907  0.20132324  0.00137189  1
  Mo  Mo190  1  0.10398824  0.70879445  0.62208096  1
  Mo  Mo191  1  0.70437987  0.68462967  0.11628947  1
  Mo  Mo192  1  0.19833975  0.61028641  0.52102969  1
  Mo  Mo193  1  0.70067001  0.89904513  0.12846489  1
  Mo  Mo194  1  0.89934581  0.29591267  0.62735192  1
  Mo  Mo195  1  0.40878092  0.40467153  0.75851091  1
  Mo  Mo196  1  0.60054301  0.78950531  0.00907779  1
  Mo  Mo197  1  0.70653737  0.69472754  0.38751652  1
  Mo  Mo198  1  0.48902359  0.89998627  0.63875090  1
  Mo  Mo199  1  0.00336448  0.40808416  -0.01169111  1
