# generated using pymatgen
data_HfZrTaTiMo
_symmetry_space_group_name_H-M   'P 1'
_cell_length_a   15.93477467
_cell_length_b   15.93100509
_cell_length_c   15.19987613
_cell_angle_alpha   90.00371315
_cell_angle_beta   90.06874700
_cell_angle_gamma   89.94409701
_symmetry_Int_Tables_number   1
_chemical_formula_structural   HfZrTaTiMo
_chemical_formula_sum   'Hf40 Zr40 Ta40 Ti40 Mo40'
_cell_volume   3858.58997541
_cell_formula_units_Z   40
loop_
 _symmetry_equiv_pos_site_id
 _symmetry_equiv_pos_as_xyz
  1  'x, y, z'
loop_
 _atom_site_type_symbol
 _atom_site_label
 _atom_site_symmetry_multiplicity
 _atom_site_fract_x
 _atom_site_fract_y
 _atom_site_fract_z
 _atom_site_occupancy
  Hf  Hf0  1  0.89648986  0.49647197  0.12747854  1
  Hf  Hf1  1  0.12311441  0.09908780  0.37117822  1
  Hf  Hf2  1  0.11369980  0.49374302  0.14881280  1
  Hf  Hf3  1  0.30988016  0.51385252  0.86439939  1
  Hf  Hf4  1  0.78574915  0.19437540  0.25588606  1
  Hf  Hf5  1  0.30441044  0.90004253  0.63376542  1
  Hf  Hf6  1  0.69811393  0.28756618  0.40283354  1
  Hf  Hf7  1  0.79089052  0.61691874  0.24658734  1
  Hf  Hf8  1  -0.00318335  0.59905357  0.77128083  1
  Hf  Hf9  1  0.60059531  -0.00236469  0.49602012  1
  Hf  Hf10  1  0.11310856  0.09607310  0.63891053  1
  Hf  Hf11  1  0.08843214  0.69776038  0.61540708  1
  Hf  Hf12  1  0.21250343  0.20638965  0.75962199  1
  Hf  Hf13  1  0.79751732  -0.00253478  0.50384391  1
  Hf  Hf14  1  0.59797811  0.80154043  0.00439315  1
  Hf  Hf15  1  0.20598002  0.40450805  -0.00745801  1
  Hf  Hf16  1  0.49393930  0.90034791  0.61834020  1
  Hf  Hf17  1  0.69159782  0.50040089  0.87412551  1
  Hf  Hf18  1  0.50584641  0.70199175  0.60412930  1
  Hf  Hf19  1  0.59668710  0.79674114  0.76001340  1
  Hf  Hf20  1  0.39807329  0.61099895  0.23498199  1
  Hf  Hf21  1  0.69586615  0.88516815  0.62437358  1
  Hf  Hf22  1  0.29447370  0.90092715  0.87074297  1
  Hf  Hf23  1  0.39116720  0.01798092  0.24191609  1
  Hf  Hf24  1  0.90144653  0.68854451  0.61144073  1
  Hf  Hf25  1  0.09957433  0.89623584  0.13180988  1
  Hf  Hf26  1  0.20832039  0.19468994  -0.00759426  1
  Hf  Hf27  1  0.48944640  0.10173033  0.39475414  1
  Hf  Hf28  1  0.69684614  0.10793409  0.63119058  1
  Hf  Hf29  1  0.31260473  0.68881808  0.62929964  1
  Hf  Hf30  1  0.70172623  0.69639481  0.88411913  1
  Hf  Hf31  1  0.48333753  0.50178817  0.63635723  1
  Hf  Hf32  1  0.00674055  0.00093101  0.00248920  1
  Hf  Hf33  1  0.59996479  0.20109997  -0.02952351  1
  Hf  Hf34  1  0.60055592  -0.00145496  -0.00864213  1
  Hf  Hf35  1  0.11155518  0.08424111  0.86159958  1
  Hf  Hf36  1  0.19043561  0.39786934  0.49989139  1
  Hf  Hf37  1  0.11053741  0.89670362  0.36030255  1
  Hf  Hf38  1  0.89360813  0.70184212  0.89413995  1
  Hf  Hf39  1  0.60850012  0.01424183  0.25984250  1
  Zr  Zr40  1  0.89834806  0.10351956  0.11530275  1
  Zr  Zr41  1  0.78982931  0.40176316  0.26658502  1
  Zr  Zr42  1  0.27158504  0.49846438  0.34188767  1
  Zr  Zr43  1  0.20303282  0.79713371  0.49703540  1
  Zr  Zr44  1  0.81062087  -0.01975673  0.74097694  1
  Zr  Zr45  1  0.89206173  0.30241847  0.11917814  1
  Zr  Zr46  1  0.40101581  0.59261789  0.47028816  1
  Zr  Zr47  1  0.30113849  0.91449806  0.36589102  1
  Zr  Zr48  1  0.50941167  0.11471409  0.12203395  1
  Zr  Zr49  1  -0.01371488  0.40415510  0.77088101  1
  Zr  Zr50  1  0.39964065  0.00507039  0.00284856  1
  Zr  Zr51  1  0.80139865  0.00345000  0.25757907  1
  Zr  Zr52  1  0.90437122  0.09175686  0.86853596  1
  Zr  Zr53  1  0.38755928  0.39921719  0.48206165  1
  Zr  Zr54  1  0.89562326  0.10648941  0.39355187  1
  Zr  Zr55  1  0.00062382  0.19604616  0.25357547  1
  Zr  Zr56  1  0.81296123  0.22205358  0.75153157  1
  Zr  Zr57  1  0.30742027  0.30922257  0.63743339  1
  Zr  Zr58  1  0.07308621  0.49863902  0.61797377  1
  Zr  Zr59  1  0.01172194  -0.00596451  0.49656581  1
  Zr  Zr60  1  0.59605898  0.60223163  0.23942391  1
  Zr  Zr61  1  0.02358672  0.20985067  0.50489915  1
  Zr  Zr62  1  0.49899880  0.89593361  0.14242537  1
  Zr  Zr63  1  0.90905011  0.10506854  0.62520715  1
  Zr  Zr64  1  0.90229013  0.30219371  0.39320950  1
  Zr  Zr65  1  0.29963354  0.70104432  0.88350348  1
  Zr  Zr66  1  0.50670726  0.30390907  0.12015657  1
  Zr  Zr67  1  0.58735960  0.41325227  0.49749327  1
  Zr  Zr68  1  0.19179521  0.78997247  0.74993816  1
  Zr  Zr69  1  0.70208604  0.09663286  0.85326277  1
  Zr  Zr70  1  0.59495906  0.60342588  0.74755347  1
  Zr  Zr71  1  0.00979019  0.59113975  0.00134167  1
  Zr  Zr72  1  0.39437785  0.21083572  0.25419329  1
  Zr  Zr73  1  0.19865878  0.59432636  0.49763562  1
  Zr  Zr74  1  0.89655801  0.89342742  0.12150938  1
  Zr  Zr75  1  0.80155909  0.41959850  0.50346197  1
  Zr  Zr76  1  -0.01078202  0.79337028  0.25928853  1
  Zr  Zr77  1  0.68914553  0.48163831  0.12166060  1
  Zr  Zr78  1  0.10179547  0.29238388  0.12683896  1
  Zr  Zr79  1  0.00259759  0.39881958  -0.01084890  1
  Ta  Ta80  1  0.21355483  0.60011588  0.02047135  1
  Ta  Ta81  1  0.40089079  0.40095774  -0.01158182  1
  Ta  Ta82  1  0.09763953  0.89513053  0.63124276  1
  Ta  Ta83  1  0.40050159  0.80044311  0.48098703  1
  Ta  Ta84  1  0.10598791  0.68691550  0.36161830  1
  Ta  Ta85  1  0.31351130  0.09575885  0.62943003  1
  Ta  Ta86  1  0.49059753  0.49361791  0.12114844  1
  Ta  Ta87  1  0.09996414  0.89319112  0.87926520  1
  Ta  Ta88  1  0.49529804  0.09940044  0.63194293  1
  Ta  Ta89  1  0.40103423  0.20782507  -0.02820608  1
  Ta  Ta90  1  0.11979325  0.30151901  0.36085835  1
  Ta  Ta91  1  0.70758501  0.89298008  0.87088382  1
  Ta  Ta92  1  0.00418939  0.19990602  -0.01813315  1
  Ta  Ta93  1  -0.00609730  0.59710823  0.25272767  1
  Ta  Ta94  1  0.49930403  0.89633384  0.36709779  1
  Ta  Ta95  1  0.00285867  0.00452584  0.25170257  1
  Ta  Ta96  1  0.09991053  0.30588805  0.63999340  1
  Ta  Ta97  1  0.89808815  0.89560795  0.37958953  1
  Ta  Ta98  1  -0.00669576  0.79725157  0.76003654  1
  Ta  Ta99  1  0.69371669  0.28892196  0.11921861  1
  Ta  Ta100  1  0.60940407  0.78794232  0.25019126  1
  Ta  Ta101  1  0.40958648  0.19922430  0.76144490  1
  Ta  Ta102  1  0.48907518  0.69039139  0.89124839  1
  Ta  Ta103  1  0.87202525  0.49467279  0.89038667  1
  Ta  Ta104  1  0.40011487  0.40098234  0.25626070  1
  Ta  Ta105  1  0.91038844  0.31946788  0.61506074  1
  Ta  Ta106  1  0.09948171  0.70225567  0.12903937  1
  Ta  Ta107  1  0.79295888  -0.00344623  -0.00370163  1
  Ta  Ta108  1  0.29764133  0.89381665  0.14104425  1
  Ta  Ta109  1  0.69989065  0.89087092  0.37014311  1
  Ta  Ta110  1  0.69734285  0.31066027  0.63029933  1
  Ta  Ta111  1  0.70440984  0.89559684  0.13442496  1
  Ta  Ta112  1  0.00515460  0.20878664  0.75878154  1
  Ta  Ta113  1  0.70028588  0.69552381  0.60772786  1
  Ta  Ta114  1  0.90994139  0.88008230  0.61191511  1
  Ta  Ta115  1  0.79754799  0.20635540  -0.01623845  1
  Ta  Ta116  1  0.00031845  0.40118243  0.26586432  1
  Ta  Ta117  1  0.89858569  0.70586872  0.11445032  1
  Ta  Ta118  1  0.78831346  0.60027000  0.01827610  1
  Ta  Ta119  1  0.20469681  0.00097852  0.01617156  1
  Ti  Ti120  1  0.00344880  0.79293662  0.48249842  1
  Ti  Ti121  1  0.40858580  0.39307671  0.76993159  1
  Ti  Ti122  1  0.69425776  0.50420729  0.63046289  1
  Ti  Ti123  1  0.29499741  0.71281481  0.35112939  1
  Ti  Ti124  1  0.39769283  0.79445277  0.01532425  1
  Ti  Ti125  1  0.19043516  0.59861067  0.74839443  1
  Ti  Ti126  1  0.50096988  0.30346313  0.63152576  1
  Ti  Ti127  1  0.30809528  0.30510730  0.11483295  1
  Ti  Ti128  1  0.70142726  0.10283820  0.11215958  1
  Ti  Ti129  1  0.40730003  0.79105542  0.75507910  1
  Ti  Ti130  1  0.49949117  0.50493239  0.87804000  1
  Ti  Ti131  1  0.70879641  0.32046134  0.86133760  1
  Ti  Ti132  1  0.49398964  0.29487450  0.38606323  1
  Ti  Ti133  1  0.21377089  0.20831519  0.51250464  1
  Ti  Ti134  1  0.60133721  0.20128520  0.26641358  1
  Ti  Ti135  1  0.49050093  0.89836380  0.87446522  1
  Ti  Ti136  1  0.59555002  0.39442500  -0.01300692  1
  Ti  Ti137  1  0.59052178  0.60169816  0.01410753  1
  Ti  Ti138  1  0.30481473  0.11007723  0.39846842  1
  Ti  Ti139  1  0.30768292  0.08635786  0.86037759  1
  Ti  Ti140  1  0.00112770  -0.01594758  0.74878823  1
  Ti  Ti141  1  0.68482399  0.51530475  0.37693561  1
  Ti  Ti142  1  0.10290125  0.70112265  0.89263957  1
  Ti  Ti143  1  0.10417901  0.30205050  0.87091420  1
  Ti  Ti144  1  0.51265479  0.70018886  0.37882723  1
  Ti  Ti145  1  0.59222767  0.39317485  0.26584816  1
  Ti  Ti146  1  0.90075642  0.89021359  0.88699999  1
  Ti  Ti147  1  0.79666759  0.79594622  0.48947459  1
  Ti  Ti148  1  0.20777000  -0.00124959  0.51213407  1
  Ti  Ti149  1  0.58954483  -0.00443996  0.75589554  1
  Ti  Ti150  1  0.89386328  0.69523529  0.37991832  1
  Ti  Ti151  1  0.59430354  0.21322231  0.75607826  1
  Ti  Ti152  1  0.21573894  0.18868351  0.23490803  1
  Ti  Ti153  1  0.59211772  0.20070812  0.51522209  1
  Ti  Ti154  1  0.80512730  0.78795770  0.74507390  1
  Ti  Ti155  1  0.80310238  0.59537836  0.74247846  1
  Ti  Ti156  1  0.79658020  0.59771139  0.49193020  1
  Ti  Ti157  1  0.20116036  0.80083649  0.01069099  1
  Ti  Ti158  1  0.19275508  0.40995119  0.76018177  1
  Ti  Ti159  1  0.29818615  0.49999701  0.63916180  1
  Mo  Mo160  1  0.89620630  0.30300543  0.88475177  1
  Mo  Mo161  1  0.40233959  0.60487007  0.75053519  1
  Mo  Mo162  1  0.39793466  -0.00063976  0.50351427  1
  Mo  Mo163  1  0.09392166  0.49725606  0.36303274  1
  Mo  Mo164  1  0.29597443  0.28915220  0.37958032  1
  Mo  Mo165  1  0.70076539  0.70871442  0.11152242  1
  Mo  Mo166  1  0.89218045  0.50759861  0.62590508  1
  Mo  Mo167  1  0.69806330  0.69970555  0.39156930  1
  Mo  Mo168  1  0.21079308  0.37514119  0.23848654  1
  Mo  Mo169  1  0.20192368  -0.00506642  0.74135345  1
  Mo  Mo170  1  0.30421612  0.10938815  0.10652249  1
  Mo  Mo171  1  0.49874666  0.50019002  0.35181974  1
  Mo  Mo172  1  0.50718405  0.30762338  0.86978659  1
  Mo  Mo173  1  0.10379322  0.09818398  0.12670304  1
  Mo  Mo174  1  0.79593511  0.79766289  0.26109999  1
  Mo  Mo175  1  0.40222397  0.59629883  0.01642550  1
  Mo  Mo176  1  0.40609654  -0.00353179  0.75643701  1
  Mo  Mo177  1  0.00442797  0.40664048  0.48213418  1
  Mo  Mo178  1  0.59691524  0.39993581  0.74634961  1
  Mo  Mo179  1  0.60066310  0.79945142  0.48305417  1
  Mo  Mo180  1  0.79629509  0.80514685  0.00065187  1
  Mo  Mo181  1  0.20089887  0.79914637  0.24487212  1
  Mo  Mo182  1  0.40360058  0.20195315  0.52038251  1
  Mo  Mo183  1  0.00586756  0.79752967  -0.00688308  1
  Mo  Mo184  1  0.60262752  0.59726166  0.50072501  1
  Mo  Mo185  1  0.19823891  0.61189068  0.23261702  1
  Mo  Mo186  1  0.20123867  0.01131988  0.23039925  1
  Mo  Mo187  1  0.11733726  0.51187464  0.87504975  1
  Mo  Mo188  1  0.79601052  0.20583736  0.52890599  1
  Mo  Mo189  1  0.49984091  0.09628226  0.85829645  1
  Mo  Mo190  1  0.79785956  0.41405354  0.73399568  1
  Mo  Mo191  1  0.69289197  0.10456144  0.39883613  1
  Mo  Mo192  1  0.30619379  0.49295430  0.12545998  1
  Mo  Mo193  1  0.40717622  0.79808900  0.25896775  1
  Mo  Mo194  1  0.49857793  0.70124980  0.11312351  1
  Mo  Mo195  1  0.29960771  0.70911984  0.12324051  1
  Mo  Mo196  1  0.89441387  0.50908769  0.36256503  1
  Mo  Mo197  1  -0.00993790  0.59422050  0.47018851  1
  Mo  Mo198  1  0.78744869  0.39594002  0.00576457  1
  Mo  Mo199  1  0.30336513  0.30740623  0.86803242  1
