# generated using pymatgen
data_HfZrTaTiMo
_symmetry_space_group_name_H-M   'P 1'
_cell_length_a   15.93177854
_cell_length_b   15.92738637
_cell_length_c   15.20186881
_cell_angle_alpha   89.97683037
_cell_angle_beta   90.04611257
_cell_angle_gamma   89.91934376
_symmetry_Int_Tables_number   1
_chemical_formula_structural   HfZrTaTiMo
_chemical_formula_sum   'Hf40 Zr40 Ta40 Ti40 Mo40'
_cell_volume   3857.49303102
_cell_formula_units_Z   40
loop_
 _symmetry_equiv_pos_site_id
 _symmetry_equiv_pos_as_xyz
  1  'x, y, z'
loop_
 _atom_site_type_symbol
 _atom_site_label
 _atom_site_symmetry_multiplicity
 _atom_site_fract_x
 _atom_site_fract_y
 _atom_site_fract_z
 _atom_site_occupancy
  Hf  Hf0  1  0.20720973  0.00899350  0.01200091  1
  Hf  Hf1  1  0.30241559  0.90088001  0.61521774  1
  Hf  Hf2  1  0.20140122  0.80041898  0.00642860  1
  Hf  Hf3  1  0.69032734  0.70837744  0.63776749  1
  Hf  Hf4  1  0.59029860  0.79502061  0.25978441  1
  Hf  Hf5  1  0.49640062  0.90246806  0.11332108  1
  Hf  Hf6  1  0.00367836  0.79667809  0.50510583  1
  Hf  Hf7  1  0.59578699  0.39845975  0.24281335  1
  Hf  Hf8  1  0.90539083  0.08550908  0.13083756  1
  Hf  Hf9  1  0.89817611  0.68900953  0.36395794  1
  Hf  Hf10  1  0.49868520  0.50994332  0.11026451  1
  Hf  Hf11  1  -0.00265448  0.39263291  0.74200226  1
  Hf  Hf12  1  0.89971116  0.50756767  0.13763132  1
  Hf  Hf13  1  0.79588597  -0.00490957  0.26610770  1
  Hf  Hf14  1  0.09317231  0.10784063  0.88217404  1
  Hf  Hf15  1  0.28786590  0.31247540  0.60900308  1
  Hf  Hf16  1  0.89009352  0.70814168  0.87021224  1
  Hf  Hf17  1  0.69455591  0.09731157  0.39156300  1
  Hf  Hf18  1  0.49870791  0.90488572  0.87988470  1
  Hf  Hf19  1  0.69194163  0.30852691  0.37876252  1
  Hf  Hf20  1  0.08628508  0.91481092  0.11383405  1
  Hf  Hf21  1  0.30946079  0.29820317  0.12962121  1
  Hf  Hf22  1  0.10534758  0.91250360  0.62431715  1
  Hf  Hf23  1  0.79753255  0.79312651  0.50528378  1
  Hf  Hf24  1  0.50954950  0.49013394  0.38712693  1
  Hf  Hf25  1  0.38522132  0.40694357  0.75571808  1
  Hf  Hf26  1  0.00065221  0.59541313  0.74428871  1
  Hf  Hf27  1  0.79475906  0.18584427  0.00321801  1
  Hf  Hf28  1  0.61759256  0.00691155  -0.01427090  1
  Hf  Hf29  1  0.19278189  0.18871649  0.24583992  1
  Hf  Hf30  1  0.60549393  0.60815184  -0.02164786  1
  Hf  Hf31  1  0.78699066  0.59190714  0.76062405  1
  Hf  Hf32  1  0.39837426  0.20253390  0.74132638  1
  Hf  Hf33  1  0.49831191  0.50005888  0.62683419  1
  Hf  Hf34  1  0.10301244  0.29933897  0.86657078  1
  Hf  Hf35  1  0.59175219  0.20643411  0.50835309  1
  Hf  Hf36  1  0.11662501  0.48754591  0.62770428  1
  Hf  Hf37  1  0.81204462  -0.00471575  0.75388650  1
  Hf  Hf38  1  0.20313384  0.19320999  0.74508133  1
  Hf  Hf39  1  0.19449709  0.39605860  0.24681559  1
  Zr  Zr40  1  0.20559428  0.00083088  0.25188889  1
  Zr  Zr41  1  0.29881433  0.49307079  0.38212406  1
  Zr  Zr42  1  0.69967562  0.90094199  0.12814133  1
  Zr  Zr43  1  0.50423035  0.11127790  0.87829633  1
  Zr  Zr44  1  0.20884174  0.81374708  0.24212409  1
  Zr  Zr45  1  0.79410474  0.39133986  0.75422851  1
  Zr  Zr46  1  0.19310143  0.40665565  0.01694896  1
  Zr  Zr47  1  0.89363725  0.90062161  0.38488769  1
  Zr  Zr48  1  0.00734658  0.39439780  0.01200992  1
  Zr  Zr49  1  0.39655193  0.80089664  0.75661343  1
  Zr  Zr50  1  0.70670052  0.50327677  0.11010542  1
  Zr  Zr51  1  0.10540702  0.70025271  0.86941819  1
  Zr  Zr52  1  0.19266383  0.59930238  0.49551256  1
  Zr  Zr53  1  0.69213645  0.49174342  0.61590635  1
  Zr  Zr54  1  0.61164746  0.60022498  0.25638424  1
  Zr  Zr55  1  0.89576266  0.30144271  0.14390399  1
  Zr  Zr56  1  0.09619331  0.69808067  0.36650533  1
  Zr  Zr57  1  0.39400630  0.00311888  0.75224703  1
  Zr  Zr58  1  0.80747103  0.20897095  0.50942586  1
  Zr  Zr59  1  0.79423885  0.39248542  -0.00815273  1
  Zr  Zr60  1  0.31003710  0.71045801  0.37962375  1
  Zr  Zr61  1  -0.00980088  0.81615475  0.74645955  1
  Zr  Zr62  1  0.90736569  0.27566861  0.87096613  1
  Zr  Zr63  1  0.29195285  0.09642322  0.60373329  1
  Zr  Zr64  1  0.10979551  0.70221906  0.63792262  1
  Zr  Zr65  1  0.79160574  0.19590993  0.25452947  1
  Zr  Zr66  1  0.69276690  0.90542911  0.61685436  1
  Zr  Zr67  1  0.01026773  0.59727958  0.00105084  1
  Zr  Zr68  1  0.90235730  0.49873682  0.88265299  1
  Zr  Zr69  1  0.41819478  0.60771264  0.25978517  1
  Zr  Zr70  1  0.60349256  0.60658881  0.49432073  1
  Zr  Zr71  1  0.31804609  0.69806658  0.11655419  1
  Zr  Zr72  1  0.29884875  0.29919849  0.88638680  1
  Zr  Zr73  1  -0.00068542  0.39743505  0.49798395  1
  Zr  Zr74  1  0.50977000  0.10626571  0.12659000  1
  Zr  Zr75  1  0.00113026  0.81024351  0.25123815  1
  Zr  Zr76  1  0.60573182  0.79454550  -0.01106126  1
  Zr  Zr77  1  0.50520861  0.08821528  0.61925281  1
  Zr  Zr78  1  0.20159683  0.59774247  0.24275653  1
  Zr  Zr79  1  0.89267424  0.89657129  0.12310064  1
  Ta  Ta80  1  0.39662006  -0.00253620  0.24915936  1
  Ta  Ta81  1  0.00003341  0.00955376  0.75857363  1
  Ta  Ta82  1  -0.00609148  0.80191948  -0.00301708  1
  Ta  Ta83  1  0.19458948  0.20133436  0.02309893  1
  Ta  Ta84  1  0.49632689  0.10237579  0.37361195  1
  Ta  Ta85  1  0.20045572  0.80659386  0.49373419  1
  Ta  Ta86  1  0.40261343  0.60425639  0.50605813  1
  Ta  Ta87  1  0.89084233  0.69629524  0.12655606  1
  Ta  Ta88  1  0.80527808  0.19533141  0.73539259  1
  Ta  Ta89  1  0.90264153  0.30467071  0.36277603  1
  Ta  Ta90  1  0.00378656  0.00831068  0.49035591  1
  Ta  Ta91  1  0.00082612  0.20227784  0.50322579  1
  Ta  Ta92  1  0.40427184  0.39338779  0.49845629  1
  Ta  Ta93  1  0.89440517  0.49787279  0.62171663  1
  Ta  Ta94  1  0.50284159  0.31016312  0.63436102  1
  Ta  Ta95  1  0.30252516  0.29545039  0.37492539  1
  Ta  Ta96  1  0.70388515  0.09313478  0.62112600  1
  Ta  Ta97  1  0.30133417  0.70033496  0.62436874  1
  Ta  Ta98  1  0.12496252  0.50232437  0.85965455  1
  Ta  Ta99  1  0.49822963  0.70775490  0.62725796  1
  Ta  Ta100  1  0.29479027  0.68461763  0.88160336  1
  Ta  Ta101  1  0.68634661  0.28815609  0.12505523  1
  Ta  Ta102  1  0.80553148  -0.00616633  -0.02224323  1
  Ta  Ta103  1  0.19972984  -0.00196797  0.76385989  1
  Ta  Ta104  1  0.59128735  -0.00495973  0.26607579  1
  Ta  Ta105  1  -0.00766101  0.59668817  0.51017622  1
  Ta  Ta106  1  0.09739351  0.90608524  0.88258487  1
  Ta  Ta107  1  0.49274410  0.49837630  0.87902451  1
  Ta  Ta108  1  0.30739272  0.50380993  0.11638941  1
  Ta  Ta109  1  0.89706311  0.50023779  0.36591838  1
  Ta  Ta110  1  0.00472350  0.19683730  0.02312171  1
  Ta  Ta111  1  0.09277842  0.69947125  0.12599036  1
  Ta  Ta112  1  0.01452699  0.01364929  0.27405234  1
  Ta  Ta113  1  0.39500166  0.59940809  0.75388396  1
  Ta  Ta114  1  0.50180610  0.30034181  0.87461845  1
  Ta  Ta115  1  0.59102023  0.60143323  0.76317354  1
  Ta  Ta116  1  0.68930508  0.28649709  0.87106437  1
  Ta  Ta117  1  0.40244452  0.39979833  0.24783681  1
  Ta  Ta118  1  0.10147441  0.29369075  0.62498751  1
  Ta  Ta119  1  0.60600392  -0.00254216  0.75728139  1
  Ti  Ti120  1  0.30937788  0.89964157  0.38493171  1
  Ti  Ti121  1  0.80155030  0.40124261  0.49831546  1
  Ti  Ti122  1  0.40187632  0.19607344  0.24932844  1
  Ti  Ti123  1  0.68947005  0.89929740  0.39332357  1
  Ti  Ti124  1  0.49532209  0.29460189  0.36977645  1
  Ti  Ti125  1  0.40124755  0.20387874  0.50301591  1
  Ti  Ti126  1  0.30659804  0.10461706  0.37989581  1
  Ti  Ti127  1  0.19227681  0.20355249  0.48804929  1
  Ti  Ti128  1  0.30095436  0.90322319  0.89135117  1
  Ti  Ti129  1  0.20674680  0.80726771  0.76021981  1
  Ti  Ti130  1  0.71263251  0.87951294  0.85305900  1
  Ti  Ti131  1  0.30123668  0.10142982  0.88592106  1
  Ti  Ti132  1  0.78765627  0.41031306  0.25538447  1
  Ti  Ti133  1  0.60025461  0.40531112  0.76595923  1
  Ti  Ti134  1  0.70591871  0.69474292  0.12669851  1
  Ti  Ti135  1  0.89184981  0.69549505  0.63225103  1
  Ti  Ti136  1  0.79472315  0.79320265  -0.00357453  1
  Ti  Ti137  1  0.40751756  0.80759018  0.24614814  1
  Ti  Ti138  1  0.90463360  0.10930482  0.37800459  1
  Ti  Ti139  1  0.39882087  0.19340580  0.00609580  1
  Ti  Ti140  1  0.29821537  0.50125126  0.61427192  1
  Ti  Ti141  1  0.69575967  0.30315675  0.62693373  1
  Ti  Ti142  1  0.40200883  0.40052380  -0.00159284  1
  Ti  Ti143  1  0.19433369  0.00193134  0.47785286  1
  Ti  Ti144  1  0.08503328  0.49976152  0.36508204  1
  Ti  Ti145  1  0.41038653  -0.00586954  0.48775771  1
  Ti  Ti146  1  0.78962375  0.79516316  0.25537944  1
  Ti  Ti147  1  0.09155560  0.29487525  0.36589448  1
  Ti  Ti148  1  0.40757090  0.78941535  -0.00839878  1
  Ti  Ti149  1  0.59803513  0.39339340  -0.00645217  1
  Ti  Ti150  1  0.90546790  0.09751589  0.61996377  1
  Ti  Ti151  1  0.50800231  0.89338629  0.61768972  1
  Ti  Ti152  1  0.69465501  0.09635759  0.13487169  1
  Ti  Ti153  1  0.70693643  0.10564878  0.85719733  1
  Ti  Ti154  1  0.09979978  0.09962424  0.62094876  1
  Ti  Ti155  1  0.60280073  0.19950234  0.73915273  1
  Ti  Ti156  1  0.70228752  0.70049886  0.37894999  1
  Ti  Ti157  1  0.50311279  0.29551553  0.11801372  1
  Ti  Ti158  1  0.89732400  0.91111973  0.61108554  1
  Ti  Ti159  1  0.80144485  0.59468676  0.49804427  1
  Mo  Mo160  1  -0.00123537  0.60006832  0.23850742  1
  Mo  Mo161  1  0.70055537  0.70382378  0.85521451  1
  Mo  Mo162  1  0.31023692  0.10192189  0.12794519  1
  Mo  Mo163  1  0.20322319  0.39843212  0.75311692  1
  Mo  Mo164  1  0.90171074  0.10040587  0.87359775  1
  Mo  Mo165  1  0.49194492  0.90069011  0.37608846  1
  Mo  Mo166  1  0.69005113  0.49136861  0.88173688  1
  Mo  Mo167  1  0.79786172  0.61269816  -0.01140922  1
  Mo  Mo168  1  0.79626855  0.60381177  0.25939948  1
  Mo  Mo169  1  0.39723867  0.00402811  0.00553152  1
  Mo  Mo170  1  -0.00150140  0.40097770  0.25883106  1
  Mo  Mo171  1  0.21643512  0.59619663  0.74112471  1
  Mo  Mo172  1  0.19601535  0.39111214  0.47485428  1
  Mo  Mo173  1  0.31460646  0.90156325  0.11223820  1
  Mo  Mo174  1  0.90103547  0.89736132  0.88235021  1
  Mo  Mo175  1  0.00022140  0.19159383  0.72390302  1
  Mo  Mo176  1  0.59152636  0.19820196  0.25765834  1
  Mo  Mo177  1  0.59291365  0.80102682  0.48713706  1
  Mo  Mo178  1  0.80484779  0.00396581  0.49912390  1
  Mo  Mo179  1  0.20117662  0.59956807  0.01607056  1
  Mo  Mo180  1  0.09521741  0.09759313  0.12027524  1
  Mo  Mo181  1  0.71129529  0.49764291  0.38592448  1
  Mo  Mo182  1  0.89927434  0.29950100  0.62404219  1
  Mo  Mo183  1  0.59386519  -0.00127542  0.48809566  1
  Mo  Mo184  1  0.09951683  0.50409690  0.14205784  1
  Mo  Mo185  1  -0.00714102  0.00334204  -0.01799246  1
  Mo  Mo186  1  0.59522448  0.39168898  0.50116017  1
  Mo  Mo187  1  0.40134288  0.80162283  0.51277046  1
  Mo  Mo188  1  0.49470105  0.70134596  0.85724207  1
  Mo  Mo189  1  0.49896965  0.70653531  0.39443478  1
  Mo  Mo190  1  0.09619347  0.29637304  0.14460560  1
  Mo  Mo191  1  0.59560151  0.80467213  0.75731986  1
  Mo  Mo192  1  0.10082109  0.10927410  0.38981431  1
  Mo  Mo193  1  0.80301504  0.80182257  0.73003498  1
  Mo  Mo194  1  0.10309300  0.90297603  0.38770717  1
  Mo  Mo195  1  0.50702672  0.70434061  0.11839752  1
  Mo  Mo196  1  0.40422230  0.60126169  -0.01675887  1
  Mo  Mo197  1  0.30128908  0.50347848  0.89398327  1
  Mo  Mo198  1  -0.00033850  0.19711874  0.25042314  1
  Mo  Mo199  1  0.60562830  0.20543584  -0.00379116  1
