# generated using pymatgen
data_HfZrTaTiMo
_symmetry_space_group_name_H-M   'P 1'
_cell_length_a   15.92202443
_cell_length_b   15.93585962
_cell_length_c   15.18667271
_cell_angle_alpha   89.96045627
_cell_angle_beta   90.00960730
_cell_angle_gamma   90.00503691
_symmetry_Int_Tables_number   1
_chemical_formula_structural   HfZrTaTiMo
_chemical_formula_sum   'Hf40 Zr40 Ta40 Ti40 Mo40'
_cell_volume   3853.33088723
_cell_formula_units_Z   40
loop_
 _symmetry_equiv_pos_site_id
 _symmetry_equiv_pos_as_xyz
  1  'x, y, z'
loop_
 _atom_site_type_symbol
 _atom_site_label
 _atom_site_symmetry_multiplicity
 _atom_site_fract_x
 _atom_site_fract_y
 _atom_site_fract_z
 _atom_site_occupancy
  Hf  Hf0  1  0.59854759  0.38451355  0.26134500  1
  Hf  Hf1  1  0.70062843  0.49447191  0.13623854  1
  Hf  Hf2  1  0.70948421  0.10010107  0.37593575  1
  Hf  Hf3  1  0.29897519  0.50815640  0.14724564  1
  Hf  Hf4  1  0.38832003  0.60686372  -0.00854647  1
  Hf  Hf5  1  0.19558415  0.20267232  0.00556242  1
  Hf  Hf6  1  0.60037033  0.59981379  0.76570381  1
  Hf  Hf7  1  0.18546785  0.61964177  0.26202060  1
  Hf  Hf8  1  0.38694261  0.39038395  0.49850649  1
  Hf  Hf9  1  0.51025379  0.29836998  0.61148911  1
  Hf  Hf10  1  0.09077700  0.28384363  0.37503858  1
  Hf  Hf11  1  0.61095030  0.39807299  0.48048049  1
  Hf  Hf12  1  0.19429214  0.38886545  0.02044177  1
  Hf  Hf13  1  0.11647786  0.90713569  0.10529165  1
  Hf  Hf14  1  0.80502504  0.18758908  0.01230045  1
  Hf  Hf15  1  -0.01417646  0.61924669  0.24604522  1
  Hf  Hf16  1  0.80949922  0.18647696  0.24275748  1
  Hf  Hf17  1  0.89626999  0.69439447  0.63646493  1
  Hf  Hf18  1  0.50341624  0.70083003  0.37941645  1
  Hf  Hf19  1  0.39469281  -0.00700727  -0.01241828  1
  Hf  Hf20  1  0.50891209  0.10277219  0.88014098  1
  Hf  Hf21  1  0.50502432  0.70630327  0.61767101  1
  Hf  Hf22  1  0.79387581  0.00060099  0.00060141  1
  Hf  Hf23  1  0.81976351  0.78923729  0.23707027  1
  Hf  Hf24  1  0.49907289  0.90857956  0.60981794  1
  Hf  Hf25  1  0.68995577  0.27845937  0.13241872  1
  Hf  Hf26  1  0.09187816  0.73244964  0.39020633  1
  Hf  Hf27  1  0.30409474  0.11011617  0.86215798  1
  Hf  Hf28  1  -0.00290274  0.81707924  0.53136920  1
  Hf  Hf29  1  0.29749782  0.10103022  0.37894298  1
  Hf  Hf30  1  0.49200064  0.29466556  0.88147902  1
  Hf  Hf31  1  0.00588240  0.01051775  0.25444401  1
  Hf  Hf32  1  0.39689412  0.80811994  0.75904758  1
  Hf  Hf33  1  0.40157072  0.60349555  0.75421798  1
  Hf  Hf34  1  0.28761968  0.29888548  0.85340868  1
  Hf  Hf35  1  0.51378916  0.51212188  0.60472233  1
  Hf  Hf36  1  0.70800741  0.89828239  0.36585420  1
  Hf  Hf37  1  0.18860544  0.19207451  0.51937933  1
  Hf  Hf38  1  0.60497469  0.60087176  0.00626516  1
  Hf  Hf39  1  0.50042809  0.28875178  0.12641225  1
  Zr  Zr40  1  0.48799510  0.49928915  0.36429669  1
  Zr  Zr41  1  0.01883491  0.01671002  0.51165824  1
  Zr  Zr42  1  0.50695625  0.90387487  0.11198691  1
  Zr  Zr43  1  0.61097515  0.19759467  0.74886149  1
  Zr  Zr44  1  0.01758397  0.80376066  0.22683817  1
  Zr  Zr45  1  0.28838107  0.29254151  0.37028220  1
  Zr  Zr46  1  0.38737245  0.39182939  0.01292025  1
  Zr  Zr47  1  0.49502647  0.70629320  0.12418173  1
  Zr  Zr48  1  0.29065942  0.08623700  0.12844542  1
  Zr  Zr49  1  0.69050501  0.90969114  0.62628599  1
  Zr  Zr50  1  0.91810011  0.89409185  0.37038136  1
  Zr  Zr51  1  -0.00461380  0.60152950  0.48948144  1
  Zr  Zr52  1  0.79506572  0.80622727  0.00408915  1
  Zr  Zr53  1  -0.00212715  0.60222771  0.76074267  1
  Zr  Zr54  1  0.49581868  0.49908577  0.13076285  1
  Zr  Zr55  1  0.19192992  0.60674710  0.49441813  1
  Zr  Zr56  1  0.60377299  0.39966002  0.75655036  1
  Zr  Zr57  1  0.29234586  0.71094983  0.12507320  1
  Zr  Zr58  1  0.09684570  0.48295073  0.87532986  1
  Zr  Zr59  1  0.79601635  0.80191768  0.75393676  1
  Zr  Zr60  1  0.80699629  0.38692516  0.00871116  1
  Zr  Zr61  1  0.29398922  0.90479688  0.38172070  1
  Zr  Zr62  1  0.80410145  0.60497602  0.01360390  1
  Zr  Zr63  1  0.29352028  0.49358617  0.87186865  1
  Zr  Zr64  1  0.38467440  0.80434801  0.50339667  1
  Zr  Zr65  1  0.68755932  0.69088201  0.62016680  1
  Zr  Zr66  1  0.50246341  0.71448682  0.89183583  1
  Zr  Zr67  1  0.81580256  -0.00483158  0.50614567  1
  Zr  Zr68  1  0.28662947  0.49288722  0.62389102  1
  Zr  Zr69  1  0.09502793  0.50142957  0.13436502  1
  Zr  Zr70  1  0.80516188  0.79590024  0.50284678  1
  Zr  Zr71  1  0.41075644  0.00175808  0.25206140  1
  Zr  Zr72  1  0.90100120  0.49071166  0.87893509  1
  Zr  Zr73  1  0.89397290  0.49083231  0.63516106  1
  Zr  Zr74  1  0.40067928  0.80231878  0.26306931  1
  Zr  Zr75  1  0.38551673  0.60500388  0.49299686  1
  Zr  Zr76  1  0.00539441  0.80495911  -0.01140191  1
  Zr  Zr77  1  0.79899281  0.59220719  0.48733254  1
  Zr  Zr78  1  0.40475090  0.40037062  0.73642906  1
  Zr  Zr79  1  -0.00156006  0.39462802  0.49998598  1
  Ta  Ta80  1  0.28433100  0.49403652  0.36550928  1
  Ta  Ta81  1  0.00194876  0.80632373  0.75800108  1
  Ta  Ta82  1  0.80730184  0.20649811  0.50263129  1
  Ta  Ta83  1  0.60047723  0.00469759  0.25744653  1
  Ta  Ta84  1  0.19825105  0.60396066  0.75601528  1
  Ta  Ta85  1  0.89877847  0.49381663  0.35364980  1
  Ta  Ta86  1  -0.00032910  0.00431264  0.75350354  1
  Ta  Ta87  1  0.40407060  0.19669213  0.72686995  1
  Ta  Ta88  1  0.70550670  0.50185711  0.35512691  1
  Ta  Ta89  1  0.41207167  0.00015869  0.74909031  1
  Ta  Ta90  1  0.39612573  0.19126348  0.51259226  1
  Ta  Ta91  1  0.70218678  0.49413682  0.62303830  1
  Ta  Ta92  1  0.09151637  0.09291512  0.10752569  1
  Ta  Ta93  1  0.51266550  0.09240511  0.61224694  1
  Ta  Ta94  1  0.00566397  0.20264093  0.73627636  1
  Ta  Ta95  1  0.49243340  0.28129136  0.37522616  1
  Ta  Ta96  1  0.79362564  0.39026641  0.75850409  1
  Ta  Ta97  1  0.50105280  0.49490803  0.88961621  1
  Ta  Ta98  1  0.89502609  0.11136487  0.86019758  1
  Ta  Ta99  1  0.10278031  0.69867177  0.87921910  1
  Ta  Ta100  1  0.90046233  0.29378550  0.36777268  1
  Ta  Ta101  1  0.70129498  0.49345692  0.88407169  1
  Ta  Ta102  1  0.90805524  0.29444752  0.86261506  1
  Ta  Ta103  1  0.70381816  0.69751413  0.36250080  1
  Ta  Ta104  1  0.60737536  0.19867030  0.48881214  1
  Ta  Ta105  1  0.60446909  0.39076914  -0.00201764  1
  Ta  Ta106  1  0.70065122  0.10278644  0.61655457  1
  Ta  Ta107  1  0.19593855  0.00067220  -0.02993166  1
  Ta  Ta108  1  0.79991877  0.39404416  0.48205118  1
  Ta  Ta109  1  0.89571803  0.91009293  0.86875301  1
  Ta  Ta110  1  0.80770757  -0.00187528  0.23346763  1
  Ta  Ta111  1  0.89719682  0.10460936  0.63478062  1
  Ta  Ta112  1  0.10801180  0.90660265  0.64505342  1
  Ta  Ta113  1  0.09733696  0.49712700  0.63230623  1
  Ta  Ta114  1  0.91188746  0.91212212  0.11193123  1
  Ta  Ta115  1  0.00166783  0.60234155  0.00819554  1
  Ta  Ta116  1  0.59846218  0.60585318  0.25007611  1
  Ta  Ta117  1  0.21654122  0.80779972  -0.02827414  1
  Ta  Ta118  1  0.39247052  0.19582104  0.01399937  1
  Ta  Ta119  1  0.19917576  0.80073433  0.75856064  1
  Ti  Ti120  1  0.19194051  0.38439850  0.23991808  1
  Ti  Ti121  1  0.18637235  0.18955294  0.23813822  1
  Ti  Ti122  1  0.19820374  0.81095512  0.25408560  1
  Ti  Ti123  1  0.89849840  0.29923830  0.63063867  1
  Ti  Ti124  1  0.79035457  0.00831061  0.75429261  1
  Ti  Ti125  1  0.69674078  0.70545898  0.13729731  1
  Ti  Ti126  1  0.59587032  0.81783955  0.76377151  1
  Ti  Ti127  1  0.80237387  0.38655019  0.25051574  1
  Ti  Ti128  1  0.20397125  -0.00150789  0.51395128  1
  Ti  Ti129  1  -0.00180797  0.38563993  0.01932417  1
  Ti  Ti130  1  0.20224053  0.00087453  0.75831559  1
  Ti  Ti131  1  0.51828824  0.10415319  0.11271761  1
  Ti  Ti132  1  0.09598739  0.30031731  0.85862430  1
  Ti  Ti133  1  -0.00319949  0.20571850  0.00325863  1
  Ti  Ti134  1  0.79051624  0.59271830  0.76052502  1
  Ti  Ti135  1  0.61680546  0.00577306  -0.00741232  1
  Ti  Ti136  1  0.89795758  0.49786197  0.13603819  1
  Ti  Ti137  1  0.10720631  0.30838860  0.63230001  1
  Ti  Ti138  1  0.30237997  0.08954008  0.63303402  1
  Ti  Ti139  1  -0.00123053  0.19502583  0.23195450  1
  Ti  Ti140  1  0.91873821  0.11314543  0.38898659  1
  Ti  Ti141  1  0.89746858  0.69990082  0.87836492  1
  Ti  Ti142  1  0.19557607  0.60411507  -0.00280556  1
  Ti  Ti143  1  0.30165283  0.89851057  0.12243318  1
  Ti  Ti144  1  0.09825908  0.11498929  0.86384430  1
  Ti  Ti145  1  0.70797817  0.28495445  0.88203270  1
  Ti  Ti146  1  -0.00251642  0.38792658  0.24256122  1
  Ti  Ti147  1  0.19796397  0.81054946  0.52102290  1
  Ti  Ti148  1  0.10112797  0.69931658  0.63476821  1
  Ti  Ti149  1  -0.00122486  0.01105939  -0.02381032  1
  Ti  Ti150  1  0.40533384  0.18931057  0.24467693  1
  Ti  Ti151  1  0.18789285  -0.00100491  0.26062842  1
  Ti  Ti152  1  0.60390822  0.80586753  0.48590441  1
  Ti  Ti153  1  0.59929788  0.81029080  0.25130934  1
  Ti  Ti154  1  0.61364942  0.81740423  -0.00173012  1
  Ti  Ti155  1  0.29270375  0.70356411  0.63749893  1
  Ti  Ti156  1  0.70908164  0.30187630  0.61897140  1
  Ti  Ti157  1  0.39075878  0.38582925  0.25017757  1
  Ti  Ti158  1  0.09746983  0.48699641  0.36768914  1
  Ti  Ti159  1  0.70082984  0.70387512  0.87754121  1
  Mo  Mo160  1  0.29502388  0.69891425  0.86898499  1
  Mo  Mo161  1  0.49800003  0.09717221  0.39245001  1
  Mo  Mo162  1  0.60567750  0.19642712  -0.01034872  1
  Mo  Mo163  1  0.69599964  0.90751183  0.86335544  1
  Mo  Mo164  1  0.70710647  0.10220009  0.86284312  1
  Mo  Mo165  1  0.69994895  0.89917024  0.14277464  1
  Mo  Mo166  1  0.90490008  0.70414953  0.10545036  1
  Mo  Mo167  1  0.39574841  0.00736272  0.51229428  1
  Mo  Mo168  1  0.10966768  0.90999866  0.38965527  1
  Mo  Mo169  1  0.10471331  0.09814846  0.64734839  1
  Mo  Mo170  1  0.10882261  0.70445356  0.09858986  1
  Mo  Mo171  1  -0.00482615  0.20321033  0.52087551  1
  Mo  Mo172  1  0.80017126  0.60015474  0.24408329  1
  Mo  Mo173  1  0.90219483  0.90738111  0.65339144  1
  Mo  Mo174  1  0.89997249  0.69909563  0.38462792  1
  Mo  Mo175  1  0.10408562  0.10532213  0.37252563  1
  Mo  Mo176  1  0.69168279  0.08914826  0.13848799  1
  Mo  Mo177  1  0.19113289  0.40000698  0.49993121  1
  Mo  Mo178  1  0.80172800  0.20472062  0.73517864  1
  Mo  Mo179  1  0.70704123  0.29401308  0.36695782  1
  Mo  Mo180  1  0.09529389  0.29017985  0.13637019  1
  Mo  Mo181  1  0.50569771  0.90740849  0.88500470  1
  Mo  Mo182  1  0.29194131  0.70157728  0.36660531  1
  Mo  Mo183  1  0.30201403  0.90813056  0.85623827  1
  Mo  Mo184  1  0.09898725  0.90632068  0.86524996  1
  Mo  Mo185  1  0.29742189  0.29247579  0.62834172  1
  Mo  Mo186  1  0.29539685  0.90698563  0.63973056  1
  Mo  Mo187  1  0.29855447  0.28840579  0.14613094  1
  Mo  Mo188  1  0.90262912  0.29676915  0.13671137  1
  Mo  Mo189  1  -0.00404251  0.39258378  0.73924124  1
  Mo  Mo190  1  0.90935002  0.09403082  0.11064520  1
  Mo  Mo191  1  0.60188815  0.00045927  0.47923685  1
  Mo  Mo192  1  0.19971220  0.19962644  0.73735961  1
  Mo  Mo193  1  0.58944141  0.18619401  0.26772485  1
  Mo  Mo194  1  0.38970195  0.60097288  0.26701339  1
  Mo  Mo195  1  0.39616771  0.80936551  -0.01238157  1
  Mo  Mo196  1  0.19267821  0.40004306  0.73828517  1
  Mo  Mo197  1  0.50763491  0.90459301  0.38907039  1
  Mo  Mo198  1  0.60168592  0.00068694  0.75784534  1
  Mo  Mo199  1  0.60837212  0.59951629  0.47460870  1
