# generated using pymatgen
data_HfZrTaTiMo
_symmetry_space_group_name_H-M   'P 1'
_cell_length_a   15.93298891
_cell_length_b   15.92644083
_cell_length_c   15.20223774
_cell_angle_alpha   89.98548800
_cell_angle_beta   89.94708138
_cell_angle_gamma   90.02441785
_symmetry_Int_Tables_number   1
_chemical_formula_structural   HfZrTaTiMo
_chemical_formula_sum   'Hf40 Zr40 Ta40 Ti40 Mo40'
_cell_volume   3857.65395664
_cell_formula_units_Z   40
loop_
 _symmetry_equiv_pos_site_id
 _symmetry_equiv_pos_as_xyz
  1  'x, y, z'
loop_
 _atom_site_type_symbol
 _atom_site_label
 _atom_site_symmetry_multiplicity
 _atom_site_fract_x
 _atom_site_fract_y
 _atom_site_fract_z
 _atom_site_occupancy
  Hf  Hf0  1  0.58909967  0.38633229  0.75877338  1
  Hf  Hf1  1  0.51577301  0.09959097  0.89065253  1
  Hf  Hf2  1  0.90070622  0.69274538  0.87091968  1
  Hf  Hf3  1  0.19608630  0.80933182  0.50021565  1
  Hf  Hf4  1  0.39825883  0.59848055  0.74609045  1
  Hf  Hf5  1  0.00274067  0.19505497  0.50724455  1
  Hf  Hf6  1  0.79421051  0.01328269  0.75740926  1
  Hf  Hf7  1  0.90079234  0.29823829  0.37714876  1
  Hf  Hf8  1  0.89389570  0.49941295  0.60908323  1
  Hf  Hf9  1  0.89526478  0.69071335  0.62378382  1
  Hf  Hf10  1  -0.00255756  0.59640103  0.01186249  1
  Hf  Hf11  1  0.19909772  0.60871092  0.25516014  1
  Hf  Hf12  1  -0.01338634  0.60312788  0.23620995  1
  Hf  Hf13  1  0.01427680  0.19484456  0.26021244  1
  Hf  Hf14  1  0.10568153  0.49203631  0.13647888  1
  Hf  Hf15  1  0.21954948  0.20254579  0.74713037  1
  Hf  Hf16  1  0.49453823  0.50280840  0.89327356  1
  Hf  Hf17  1  0.68708859  0.49165175  0.12939235  1
  Hf  Hf18  1  0.08732279  0.50166469  0.85806106  1
  Hf  Hf19  1  0.39815369  0.79688413  0.24813176  1
  Hf  Hf20  1  0.69435673  0.90188029  0.12051727  1
  Hf  Hf21  1  -0.00722382  0.39739219  0.00992974  1
  Hf  Hf22  1  0.69619909  0.49163431  0.88466231  1
  Hf  Hf23  1  0.68789826  0.69789124  0.88903423  1
  Hf  Hf24  1  0.89970076  0.49534599  0.37587813  1
  Hf  Hf25  1  0.79345812  0.37735761  0.01570263  1
  Hf  Hf26  1  0.11359220  0.30267185  0.61910016  1
  Hf  Hf27  1  0.09570017  0.49750307  0.37763414  1
  Hf  Hf28  1  0.59673812  0.80402785  0.49899558  1
  Hf  Hf29  1  0.60993718  0.60557547  0.49646803  1
  Hf  Hf30  1  0.80044425  -0.00061125  0.25450302  1
  Hf  Hf31  1  0.09951783  0.70605966  0.85326411  1
  Hf  Hf32  1  0.80029361  0.19134975  0.24793633  1
  Hf  Hf33  1  0.30343561  0.70071447  0.38762739  1
  Hf  Hf34  1  0.88009455  0.68016557  0.38641559  1
  Hf  Hf35  1  0.49584737  0.69873060  0.38021370  1
  Hf  Hf36  1  0.19180639  0.39279038  -0.00389362  1
  Hf  Hf37  1  0.21054979  0.59905018  0.74757251  1
  Hf  Hf38  1  0.39334566  0.00257096  0.25877399  1
  Hf  Hf39  1  0.79503890  0.59188839  0.75516949  1
  Zr  Zr40  1  0.90324061  0.10972136  0.87742005  1
  Zr  Zr41  1  0.59695932  0.40165036  0.48629854  1
  Zr  Zr42  1  -0.00371123  0.79586755  0.25560715  1
  Zr  Zr43  1  -0.02071588  0.38879807  0.73503186  1
  Zr  Zr44  1  0.00969965  -0.00779630  0.50973702  1
  Zr  Zr45  1  -0.00887734  0.81042813  0.73588913  1
  Zr  Zr46  1  0.78070772  0.79539402  0.50090217  1
  Zr  Zr47  1  0.29028328  0.90727893  0.11949499  1
  Zr  Zr48  1  0.49630307  0.70463774  0.62322455  1
  Zr  Zr49  1  0.61694909  0.21452504  0.00066067  1
  Zr  Zr50  1  0.69678743  0.49453982  0.62932598  1
  Zr  Zr51  1  0.09235081  0.29777022  0.85105023  1
  Zr  Zr52  1  0.62435050  0.19779410  0.76112618  1
  Zr  Zr53  1  0.31903809  0.10596770  0.87739734  1
  Zr  Zr54  1  0.09604277  0.50273981  0.62479797  1
  Zr  Zr55  1  0.42357688  0.21073294  0.73620631  1
  Zr  Zr56  1  0.89276853  0.89309753  0.38236808  1
  Zr  Zr57  1  0.11335748  0.10609454  0.12712028  1
  Zr  Zr58  1  0.30155274  0.10099323  0.11173948  1
  Zr  Zr59  1  0.19388062  0.81359383  0.26993272  1
  Zr  Zr60  1  0.00745465  0.79035154  0.49979219  1
  Zr  Zr61  1  0.79133367  0.81390361  0.76487489  1
  Zr  Zr62  1  0.40937704  0.20051743  0.50318146  1
  Zr  Zr63  1  0.60019906  -0.00286001  0.48803196  1
  Zr  Zr64  1  0.70837092  0.51437268  0.36024981  1
  Zr  Zr65  1  0.19501752  0.59936853  -0.00503872  1
  Zr  Zr66  1  0.58515218  0.60259774  0.24107426  1
  Zr  Zr67  1  0.21277166  0.38054619  0.25495567  1
  Zr  Zr68  1  0.09658297  0.91682601  0.12137239  1
  Zr  Zr69  1  0.39722951  0.40089699  0.74178779  1
  Zr  Zr70  1  0.80569417  0.59102572  0.01433404  1
  Zr  Zr71  1  -0.00369743  0.80058386  -0.00189052  1
  Zr  Zr72  1  0.89712535  0.90589431  0.11583913  1
  Zr  Zr73  1  0.30475755  0.70105239  0.11396527  1
  Zr  Zr74  1  0.19691889  0.80648690  -0.01017595  1
  Zr  Zr75  1  0.30792170  0.49924038  0.37888012  1
  Zr  Zr76  1  0.00637460  0.00358046  0.27473986  1
  Zr  Zr77  1  0.41369766  -0.01677578  -0.00360681  1
  Zr  Zr78  1  0.01079599  0.20321309  0.00149743  1
  Zr  Zr79  1  0.38471063  0.20731656  0.25715629  1
  Ta  Ta80  1  0.40855285  0.39271160  0.01754418  1
  Ta  Ta81  1  0.00044347  0.00820902  0.73936163  1
  Ta  Ta82  1  0.60297423  0.00428674  0.75144585  1
  Ta  Ta83  1  0.80151362  0.39560624  0.24310068  1
  Ta  Ta84  1  0.69460405  0.70279345  0.64420865  1
  Ta  Ta85  1  0.18817664  0.01125240  -0.03198063  1
  Ta  Ta86  1  0.18898639  0.60775077  0.49902996  1
  Ta  Ta87  1  0.59210649  0.80577306  0.76407500  1
  Ta  Ta88  1  0.11589583  0.09894152  0.62419929  1
  Ta  Ta89  1  0.50385849  0.10350134  0.36806256  1
  Ta  Ta90  1  0.39804286  0.80005950  0.75474190  1
  Ta  Ta91  1  0.31873563  0.30308728  0.88824778  1
  Ta  Ta92  1  0.29866762  0.89711191  0.86166565  1
  Ta  Ta93  1  0.49690942  0.90723275  0.63504779  1
  Ta  Ta94  1  0.57965978  0.81214239  -0.00174772  1
  Ta  Ta95  1  0.20713159  0.00554049  0.75026583  1
  Ta  Ta96  1  0.79471813  0.78420812  0.24100933  1
  Ta  Ta97  1  0.10829905  0.29800311  0.38668244  1
  Ta  Ta98  1  0.20123694  0.20210938  -0.02124253  1
  Ta  Ta99  1  0.40639996  0.39874635  0.50078708  1
  Ta  Ta100  1  0.69016638  0.70275277  0.11357665  1
  Ta  Ta101  1  0.09740722  0.90663317  0.85610012  1
  Ta  Ta102  1  0.29401978  0.49994468  0.60637570  1
  Ta  Ta103  1  0.49653193  0.90103317  0.36658144  1
  Ta  Ta104  1  0.70145404  0.10054530  0.11821822  1
  Ta  Ta105  1  0.69231239  0.90472872  0.63318044  1
  Ta  Ta106  1  0.20276694  0.01618674  0.28526454  1
  Ta  Ta107  1  0.70620561  0.10301386  0.60903213  1
  Ta  Ta108  1  0.30502077  0.49617453  0.12164111  1
  Ta  Ta109  1  0.60705820  0.20133436  0.48360825  1
  Ta  Ta110  1  0.60261567  0.00534746  0.25182293  1
  Ta  Ta111  1  0.50748082  0.10487489  0.13014397  1
  Ta  Ta112  1  0.49969301  0.30543553  0.36274542  1
  Ta  Ta113  1  0.59197338  0.60080501  0.75640869  1
  Ta  Ta114  1  0.51441653  0.09763826  0.61947307  1
  Ta  Ta115  1  0.49036902  0.69983269  0.88801450  1
  Ta  Ta116  1  0.29668167  0.70498880  0.61787069  1
  Ta  Ta117  1  0.79131766  0.39296390  0.48924322  1
  Ta  Ta118  1  0.89470567  0.48717416  0.87062011  1
  Ta  Ta119  1  0.29435806  0.29180045  0.11232962  1
  Ti  Ti120  1  0.88160681  0.29108689  0.60925175  1
  Ti  Ti121  1  0.69697904  0.29594941  0.35901660  1
  Ti  Ti122  1  0.40443252  0.59455648  0.50719101  1
  Ti  Ti123  1  0.90540875  0.91094472  0.88178881  1
  Ti  Ti124  1  0.30118657  0.30842337  0.60979365  1
  Ti  Ti125  1  0.11472788  0.90252457  0.63954414  1
  Ti  Ti126  1  -0.00699500  0.19479338  0.73030409  1
  Ti  Ti127  1  0.88839514  0.09947217  0.61622413  1
  Ti  Ti128  1  0.30442961  0.70082639  0.87909085  1
  Ti  Ti129  1  0.00332098  0.38915909  0.24479823  1
  Ti  Ti130  1  0.49896570  0.90123329  0.13520350  1
  Ti  Ti131  1  0.78868595  0.38166809  0.74882425  1
  Ti  Ti132  1  0.50160294  0.49667064  0.62377536  1
  Ti  Ti133  1  0.88562056  0.29225386  0.87333577  1
  Ti  Ti134  1  0.30553520  0.49884749  0.89294864  1
  Ti  Ti135  1  0.51189878  0.30025740  0.14402177  1
  Ti  Ti136  1  0.78962885  -0.00227188  0.49176864  1
  Ti  Ti137  1  0.79869812  0.00821717  -0.00516609  1
  Ti  Ti138  1  0.10116400  0.70865174  0.12589725  1
  Ti  Ti139  1  0.00002919  0.39465598  0.50310869  1
  Ti  Ti140  1  0.09686487  0.69468380  0.63576710  1
  Ti  Ti141  1  0.21242366  -0.00127701  0.49349112  1
  Ti  Ti142  1  0.39757215  0.81824322  0.50261616  1
  Ti  Ti143  1  0.88437303  0.90628380  0.62049954  1
  Ti  Ti144  1  0.31196004  0.09020474  0.61746864  1
  Ti  Ti145  1  0.68289943  0.91780426  0.89089194  1
  Ti  Ti146  1  0.40987096  0.40799739  0.24354910  1
  Ti  Ti147  1  0.69724826  0.29203478  0.61439829  1
  Ti  Ti148  1  0.90612913  0.28830525  0.13428871  1
  Ti  Ti149  1  0.59457329  0.79568098  0.24271326  1
  Ti  Ti150  1  0.21150396  0.19730175  0.49225210  1
  Ti  Ti151  1  0.59596249  0.39256159  0.00368267  1
  Ti  Ti152  1  0.40857999  0.00398044  0.75155255  1
  Ti  Ti153  1  0.30461869  0.90497347  0.63342806  1
  Ti  Ti154  1  0.79630694  0.80336603  -0.00328773  1
  Ti  Ti155  1  0.21406276  0.40193604  0.75550260  1
  Ti  Ti156  1  0.69346790  0.89126856  0.35821580  1
  Ti  Ti157  1  0.89311720  0.10092105  0.39252988  1
  Ti  Ti158  1  0.90909330  0.09373313  0.11304357  1
  Ti  Ti159  1  0.40315788  0.59702026  0.23732294  1
  Mo  Mo160  1  0.80776249  0.20299331  0.73283628  1
  Mo  Mo161  1  0.50014632  0.30043723  0.89133995  1
  Mo  Mo162  1  0.30838885  0.90338008  0.38732054  1
  Mo  Mo163  1  0.10355777  0.90377241  0.38291494  1
  Mo  Mo164  1  0.10573775  0.10424754  0.40392464  1
  Mo  Mo165  1  0.20746437  0.80270180  0.73650558  1
  Mo  Mo166  1  0.09333870  0.69516188  0.37915283  1
  Mo  Mo167  1  0.40426223  -0.00173504  0.50256487  1
  Mo  Mo168  1  0.89896661  0.48817117  0.14086460  1
  Mo  Mo169  1  0.20435094  0.39928060  0.49327057  1
  Mo  Mo170  1  0.59383904  0.39912541  0.25828394  1
  Mo  Mo171  1  0.10830615  0.29456033  0.13562056  1
  Mo  Mo172  1  0.30461191  0.30218320  0.39208039  1
  Mo  Mo173  1  0.71014836  0.10040067  0.89434958  1
  Mo  Mo174  1  0.30691274  0.10006833  0.39588321  1
  Mo  Mo175  1  0.20351481  0.19687702  0.27352434  1
  Mo  Mo176  1  0.79025371  0.59692828  0.51279963  1
  Mo  Mo177  1  0.49753563  0.70398014  0.10675339  1
  Mo  Mo178  1  0.60222039  0.00017594  0.01613833  1
  Mo  Mo179  1  0.69383798  0.70616177  0.35351437  1
  Mo  Mo180  1  0.79703692  0.60197363  0.22581029  1
  Mo  Mo181  1  0.59304347  0.60344657  0.00912575  1
  Mo  Mo182  1  0.79526471  0.20076878  0.49255428  1
  Mo  Mo183  1  0.39761016  0.80092350  -0.01621373  1
  Mo  Mo184  1  0.41184721  0.20700642  0.01729501  1
  Mo  Mo185  1  0.49852643  0.90341356  0.85770098  1
  Mo  Mo186  1  0.00283349  0.59974236  0.49494936  1
  Mo  Mo187  1  -0.00718609  0.59617112  0.75395578  1
  Mo  Mo188  1  0.80857334  0.19758972  0.02336294  1
  Mo  Mo189  1  0.00587550  0.00329908  -0.02356284  1
  Mo  Mo190  1  0.49296922  0.50192095  0.37594671  1
  Mo  Mo191  1  0.39588233  0.59710413  0.00602123  1
  Mo  Mo192  1  0.71132505  0.29959308  0.87285137  1
  Mo  Mo193  1  0.70411933  0.09821982  0.37971063  1
  Mo  Mo194  1  0.49541866  0.49818386  0.11539722  1
  Mo  Mo195  1  0.51388262  0.29739389  0.60931109  1
  Mo  Mo196  1  0.60055176  0.19564188  0.25783224  1
  Mo  Mo197  1  0.69398880  0.29567423  0.15203791  1
  Mo  Mo198  1  0.10143965  0.10356415  0.84452701  1
  Mo  Mo199  1  0.88960928  0.70246301  0.11525108  1
