# generated using pymatgen
data_HfZrTaTiMo
_symmetry_space_group_name_H-M   'P 1'
_cell_length_a   15.93312130
_cell_length_b   15.92076120
_cell_length_c   15.20108565
_cell_angle_alpha   89.98126315
_cell_angle_beta   90.00071047
_cell_angle_gamma   90.04128408
_symmetry_Int_Tables_number   1
_chemical_formula_structural   HfZrTaTiMo
_chemical_formula_sum   'Hf40 Zr40 Ta40 Ti40 Mo40'
_cell_volume   3856.01896048
_cell_formula_units_Z   40
loop_
 _symmetry_equiv_pos_site_id
 _symmetry_equiv_pos_as_xyz
  1  'x, y, z'
loop_
 _atom_site_type_symbol
 _atom_site_label
 _atom_site_symmetry_multiplicity
 _atom_site_fract_x
 _atom_site_fract_y
 _atom_site_fract_z
 _atom_site_occupancy
  Hf  Hf0  1  0.20417155  0.00228672  0.50988825  1
  Hf  Hf1  1  0.69839298  0.29423425  0.36920605  1
  Hf  Hf2  1  0.40094959  -0.00915761  -0.01827978  1
  Hf  Hf3  1  0.89726729  0.70901041  0.12081548  1
  Hf  Hf4  1  0.92121377  0.69957024  0.62320484  1
  Hf  Hf5  1  -0.00820313  0.79528278  0.27326121  1
  Hf  Hf6  1  0.91178911  0.51150291  0.13370456  1
  Hf  Hf7  1  0.69173512  0.50036185  0.62725190  1
  Hf  Hf8  1  0.70664202  0.90864803  0.87102827  1
  Hf  Hf9  1  0.49576854  0.08666128  0.36792303  1
  Hf  Hf10  1  0.49700604  0.49492141  0.37217130  1
  Hf  Hf11  1  0.59673557  0.19058148  0.50598866  1
  Hf  Hf12  1  0.80156652  0.39822867  0.75635037  1
  Hf  Hf13  1  0.60469916  -0.01213470  0.52018848  1
  Hf  Hf14  1  0.10666338  0.88588015  0.86616503  1
  Hf  Hf15  1  0.50230792  0.89856634  0.13684904  1
  Hf  Hf16  1  0.38562535  0.18732327  0.24250955  1
  Hf  Hf17  1  0.89774390  0.10323746  0.61809598  1
  Hf  Hf18  1  0.78718702  0.80350152  0.51330073  1
  Hf  Hf19  1  0.39639205  0.60420908  0.00357206  1
  Hf  Hf20  1  0.31379372  0.29477069  0.09793542  1
  Hf  Hf21  1  0.20065048  0.20838785  0.74760547  1
  Hf  Hf22  1  0.39975575  0.79417987  0.72970609  1
  Hf  Hf23  1  0.79707933  0.79949298  0.26829627  1
  Hf  Hf24  1  0.10692437  0.10608047  0.38340649  1
  Hf  Hf25  1  0.00815536  0.60628953  -0.01331856  1
  Hf  Hf26  1  0.28746057  0.69902093  0.86090699  1
  Hf  Hf27  1  0.09235355  0.69830389  0.13763383  1
  Hf  Hf28  1  0.11040153  0.50437529  0.86373342  1
  Hf  Hf29  1  0.79833336  0.40712332  0.01486714  1
  Hf  Hf30  1  0.00858471  0.39198313  0.25410057  1
  Hf  Hf31  1  0.00451332  -0.01015881  0.25866099  1
  Hf  Hf32  1  0.69260070  0.09656089  0.36135951  1
  Hf  Hf33  1  0.39991163  0.79983025  0.27356513  1
  Hf  Hf34  1  0.38923799  0.59234800  0.50115475  1
  Hf  Hf35  1  0.59321771  0.79925692  -0.02005475  1
  Hf  Hf36  1  0.20049307  0.79349816  0.00484971  1
  Hf  Hf37  1  0.39366281  0.39101331  0.24170048  1
  Hf  Hf38  1  -0.00084922  0.20444939  0.25102666  1
  Hf  Hf39  1  0.70346009  0.10055881  0.64642757  1
  Zr  Zr40  1  0.70073958  0.49473816  0.37075961  1
  Zr  Zr41  1  0.20004806  0.41843389  0.51521667  1
  Zr  Zr42  1  0.49523706  0.08444046  0.13588997  1
  Zr  Zr43  1  0.69752505  0.28541898  0.89056450  1
  Zr  Zr44  1  0.69573923  0.29863376  0.63955041  1
  Zr  Zr45  1  0.10370442  0.09416195  0.87372830  1
  Zr  Zr46  1  0.20312286  0.21048968  0.24128726  1
  Zr  Zr47  1  0.89748328  0.30286538  0.88653083  1
  Zr  Zr48  1  0.10112864  0.09015587  0.12520906  1
  Zr  Zr49  1  0.22213749  0.00849058  0.25933932  1
  Zr  Zr50  1  0.90502166  0.49945496  0.37076406  1
  Zr  Zr51  1  0.80297995  -0.00990180  0.24543585  1
  Zr  Zr52  1  0.09236807  0.10461610  0.61556768  1
  Zr  Zr53  1  0.00057056  0.22228851  0.48405502  1
  Zr  Zr54  1  0.89109245  0.10127140  0.38015864  1
  Zr  Zr55  1  0.50393512  0.70504497  0.13037374  1
  Zr  Zr56  1  0.91493852  0.90545900  0.60780930  1
  Zr  Zr57  1  0.50483281  0.50820305  0.13408582  1
  Zr  Zr58  1  0.49024262  0.28781634  0.37787130  1
  Zr  Zr59  1  0.20334992  0.19163133  -0.00300373  1
  Zr  Zr60  1  0.91252327  0.49898466  0.62868756  1
  Zr  Zr61  1  0.69894645  0.49736986  0.87658366  1
  Zr  Zr62  1  0.00352076  0.21281475  0.76294603  1
  Zr  Zr63  1  0.49559843  0.29687312  0.62628729  1
  Zr  Zr64  1  0.79202944  0.61595178  0.75031701  1
  Zr  Zr65  1  0.68692622  0.10470706  0.11656581  1
  Zr  Zr66  1  0.49205723  0.49129341  0.62266414  1
  Zr  Zr67  1  -0.00002770  -0.00966112  0.75600106  1
  Zr  Zr68  1  0.79713568  0.61374522  0.25950687  1
  Zr  Zr69  1  0.61000290  0.79426142  0.73696403  1
  Zr  Zr70  1  0.30385225  0.50391435  0.86509229  1
  Zr  Zr71  1  0.49182588  0.30178647  0.89151027  1
  Zr  Zr72  1  0.88242371  0.09889915  0.88406887  1
  Zr  Zr73  1  0.19791079  0.80770386  0.25954221  1
  Zr  Zr74  1  0.60510667  0.38831826  0.23387961  1
  Zr  Zr75  1  0.80113754  0.60415022  0.49859577  1
  Zr  Zr76  1  0.89509706  0.09621923  0.11495914  1
  Zr  Zr77  1  0.90210994  0.30341347  0.62754664  1
  Zr  Zr78  1  0.69861983  0.89951149  0.11354553  1
  Zr  Zr79  1  0.80161289  0.60960791  -0.01196917  1
  Ta  Ta80  1  0.48893194  0.69481212  0.86430246  1
  Ta  Ta81  1  0.30440949  0.89867681  0.61612189  1
  Ta  Ta82  1  0.29992012  0.08964246  0.85915063  1
  Ta  Ta83  1  0.60677373  0.79642279  0.27303813  1
  Ta  Ta84  1  0.29589404  0.89470932  0.85349185  1
  Ta  Ta85  1  0.20141557  -0.00665002  0.73135616  1
  Ta  Ta86  1  0.80771415  0.80682020  0.74440545  1
  Ta  Ta87  1  0.10733554  0.51002887  0.36343573  1
  Ta  Ta88  1  0.28884755  0.69799875  0.39002673  1
  Ta  Ta89  1  0.79134715  0.20133424  0.50249857  1
  Ta  Ta90  1  0.90275155  0.29848567  0.11597392  1
  Ta  Ta91  1  0.30930337  0.90265268  0.12811583  1
  Ta  Ta92  1  0.40614201  0.79652628  0.50348114  1
  Ta  Ta93  1  0.20654552  0.60398739  0.24794071  1
  Ta  Ta94  1  0.10058345  0.50542563  0.13587642  1
  Ta  Ta95  1  0.59607304  0.60306130  -0.01676945  1
  Ta  Ta96  1  0.59924636  0.39894436  0.49587579  1
  Ta  Ta97  1  0.39486371  0.60547423  0.26292658  1
  Ta  Ta98  1  0.39570788  0.20064860  0.75644100  1
  Ta  Ta99  1  0.59817217  0.60678217  0.49334181  1
  Ta  Ta100  1  0.69502021  0.70458528  0.11610095  1
  Ta  Ta101  1  0.00386344  0.20306303  -0.00174653  1
  Ta  Ta102  1  0.10157703  0.89678328  0.39862755  1
  Ta  Ta103  1  0.00933527  0.40557346  -0.00218936  1
  Ta  Ta104  1  0.20853123  -0.01183444  -0.00055437  1
  Ta  Ta105  1  0.51192373  0.27995380  0.10917453  1
  Ta  Ta106  1  0.20300114  0.41107255  0.01134901  1
  Ta  Ta107  1  0.30433116  0.70566480  0.13286283  1
  Ta  Ta108  1  0.29415974  0.49433479  0.36793894  1
  Ta  Ta109  1  0.00111669  -0.01150643  -0.00692794  1
  Ta  Ta110  1  0.19434076  0.79569516  0.71585784  1
  Ta  Ta111  1  0.29580775  0.30361389  0.88284097  1
  Ta  Ta112  1  0.20681079  0.40096994  0.23492923  1
  Ta  Ta113  1  0.59273164  0.60080873  0.75855892  1
  Ta  Ta114  1  0.58805329  0.40382042  0.76676975  1
  Ta  Ta115  1  0.39491999  0.80122205  -0.01045155  1
  Ta  Ta116  1  0.80044206  0.39633602  0.22948738  1
  Ta  Ta117  1  0.30554183  0.30153401  0.61239607  1
  Ta  Ta118  1  0.30601840  0.10546617  0.62710428  1
  Ta  Ta119  1  0.20009754  0.39714461  0.74112891  1
  Ti  Ti120  1  0.80363474  0.80242387  -0.01853141  1
  Ti  Ti121  1  0.89919856  0.90563043  0.40003734  1
  Ti  Ti122  1  0.09747749  0.89633427  0.12253284  1
  Ti  Ti123  1  0.00066228  0.80009528  -0.01177546  1
  Ti  Ti124  1  0.40281694  0.41681575  0.00508527  1
  Ti  Ti125  1  0.09004296  0.51516586  0.64407469  1
  Ti  Ti126  1  0.59624813  0.40809600  0.00453048  1
  Ti  Ti127  1  0.79188658  0.20971546  0.23203361  1
  Ti  Ti128  1  0.20507545  0.59828994  0.01805463  1
  Ti  Ti129  1  0.90840061  0.71155675  0.85997585  1
  Ti  Ti130  1  0.69594165  0.51778091  0.12681783  1
  Ti  Ti131  1  0.69924687  0.90727326  0.38326581  1
  Ti  Ti132  1  0.00705995  0.41141991  0.48881219  1
  Ti  Ti133  1  0.79680215  0.39535799  0.50387944  1
  Ti  Ti134  1  0.88516155  0.30460509  0.36935193  1
  Ti  Ti135  1  0.50347496  0.69140208  0.61991777  1
  Ti  Ti136  1  0.40577129  0.17565910  -0.01551063  1
  Ti  Ti137  1  0.19217581  0.60640625  0.51382582  1
  Ti  Ti138  1  0.58841862  0.00408107  -0.02071813  1
  Ti  Ti139  1  0.30477725  0.90236292  0.39553635  1
  Ti  Ti140  1  0.39457558  0.59701909  0.73478063  1
  Ti  Ti141  1  0.90192054  0.89676115  0.11010856  1
  Ti  Ti142  1  0.10107386  0.69659923  0.84607716  1
  Ti  Ti143  1  0.40841059  -0.00098437  0.51133167  1
  Ti  Ti144  1  0.39463037  0.39550150  0.75520680  1
  Ti  Ti145  1  0.60151339  0.61636117  0.26935955  1
  Ti  Ti146  1  0.59674769  0.79806761  0.50715359  1
  Ti  Ti147  1  0.80703772  -0.00577590  0.74937430  1
  Ti  Ti148  1  0.49366977  0.89490598  0.85517859  1
  Ti  Ti149  1  0.49651522  0.09843755  0.63738005  1
  Ti  Ti150  1  0.12799911  0.31046241  0.38187968  1
  Ti  Ti151  1  0.58975646  0.19607690  0.76618013  1
  Ti  Ti152  1  0.09386036  0.31384519  0.62367451  1
  Ti  Ti153  1  0.30478740  0.12252210  0.40475298  1
  Ti  Ti154  1  0.09972260  0.30360993  0.11284458  1
  Ti  Ti155  1  0.39999772  -0.00299281  0.74137298  1
  Ti  Ti156  1  0.91124062  0.50245562  0.86363713  1
  Ti  Ti157  1  0.59443780  -0.00606807  0.74634576  1
  Ti  Ti158  1  0.69961508  0.09979200  0.87563056  1
  Ti  Ti159  1  0.50536429  0.90156450  0.38030973  1
  Mo  Mo160  1  0.01262897  0.59617534  0.48670676  1
  Mo  Mo161  1  0.59861920  -0.01692966  0.26030183  1
  Mo  Mo162  1  0.30000954  0.69618889  0.61181783  1
  Mo  Mo163  1  0.39184716  -0.01048880  0.26986463  1
  Mo  Mo164  1  0.10236072  0.69517255  0.38263055  1
  Mo  Mo165  1  0.10892063  0.31109186  0.89023175  1
  Mo  Mo166  1  0.40189900  0.19166162  0.51544704  1
  Mo  Mo167  1  0.49835348  0.90062339  0.62510598  1
  Mo  Mo168  1  0.59293570  0.19768365  0.24799143  1
  Mo  Mo169  1  0.70672754  0.90419548  0.64207071  1
  Mo  Mo170  1  0.39533888  0.39692045  0.48757084  1
  Mo  Mo171  1  0.69732200  0.70519471  0.88117018  1
  Mo  Mo172  1  0.30129826  0.50502502  0.13568678  1
  Mo  Mo173  1  0.00260918  0.79896493  0.75148225  1
  Mo  Mo174  1  0.49848341  0.08955362  0.85264132  1
  Mo  Mo175  1  0.30581565  0.08651565  0.10697842  1
  Mo  Mo176  1  0.00450862  0.60472677  0.26560656  1
  Mo  Mo177  1  0.69227801  0.69736778  0.61709737  1
  Mo  Mo178  1  0.69685296  0.29732573  0.11180411  1
  Mo  Mo179  1  0.20230395  0.60208392  0.72591457  1
  Mo  Mo180  1  0.10112346  0.89266155  0.61090496  1
  Mo  Mo181  1  0.29946197  0.30348379  0.39322589  1
  Mo  Mo182  1  0.49642538  0.70051881  0.38671286  1
  Mo  Mo183  1  0.00151327  0.00175019  0.48644272  1
  Mo  Mo184  1  0.49460328  0.50328664  0.87069993  1
  Mo  Mo185  1  0.79637228  0.19959157  0.01658935  1
  Mo  Mo186  1  0.59060849  0.18511206  -0.01488991  1
  Mo  Mo187  1  -0.00077636  0.60278132  0.76237992  1
  Mo  Mo188  1  0.69455403  0.70802140  0.39285543  1
  Mo  Mo189  1  0.79835510  -0.00604805  -0.00351675  1
  Mo  Mo190  1  0.00991078  0.40218414  0.76551573  1
  Mo  Mo191  1  0.20334165  0.79789229  0.50525096  1
  Mo  Mo192  1  0.00444028  0.79300593  0.48788785  1
  Mo  Mo193  1  0.09725461  0.69722762  0.61980390  1
  Mo  Mo194  1  0.29854730  0.49641301  0.63802089  1
  Mo  Mo195  1  0.79737118  0.19673230  0.74822233  1
  Mo  Mo196  1  0.79367977  0.00515794  0.50253860  1
  Mo  Mo197  1  0.90183336  0.89446935  0.88147650  1
  Mo  Mo198  1  0.90221063  0.70397695  0.39602625  1
  Mo  Mo199  1  0.20130347  0.21035276  0.51642123  1
