# generated using pymatgen
data_HfZrTaTiMo
_symmetry_space_group_name_H-M   'P 1'
_cell_length_a   15.93034505
_cell_length_b   15.92207189
_cell_length_c   15.19953575
_cell_angle_alpha   89.99683615
_cell_angle_beta   90.03943292
_cell_angle_gamma   90.00672197
_symmetry_Int_Tables_number   1
_chemical_formula_structural   HfZrTaTiMo
_chemical_formula_sum   'Hf40 Zr40 Ta40 Ti40 Mo40'
_cell_volume   3855.27160619
_cell_formula_units_Z   40
loop_
 _symmetry_equiv_pos_site_id
 _symmetry_equiv_pos_as_xyz
  1  'x, y, z'
loop_
 _atom_site_type_symbol
 _atom_site_label
 _atom_site_symmetry_multiplicity
 _atom_site_fract_x
 _atom_site_fract_y
 _atom_site_fract_z
 _atom_site_occupancy
  Hf  Hf0  1  0.89457545  0.68784907  0.12654499  1
  Hf  Hf1  1  0.29440831  0.10872541  0.87144256  1
  Hf  Hf2  1  0.29204635  0.89047802  0.61310125  1
  Hf  Hf3  1  0.29903867  0.30342972  0.13492485  1
  Hf  Hf4  1  0.59173274  -0.01604133  0.50320064  1
  Hf  Hf5  1  0.51217033  0.29723386  0.37707443  1
  Hf  Hf6  1  0.79942011  0.19966511  0.25912049  1
  Hf  Hf7  1  0.20480356  0.60420350  0.74960129  1
  Hf  Hf8  1  0.89494872  0.29235154  0.11243007  1
  Hf  Hf9  1  0.29739462  0.09961916  0.61373657  1
  Hf  Hf10  1  0.19257431  -0.00068063  0.74338471  1
  Hf  Hf11  1  0.79851275  0.57914710  0.26101276  1
  Hf  Hf12  1  0.89503528  0.69605869  0.36953347  1
  Hf  Hf13  1  0.28309790  0.08959314  0.13593554  1
  Hf  Hf14  1  0.31957655  0.50467107  0.63610452  1
  Hf  Hf15  1  0.60052961  0.79986637  0.74892646  1
  Hf  Hf16  1  0.61471966  0.41032095  0.26610947  1
  Hf  Hf17  1  0.49436421  0.10907161  0.86938211  1
  Hf  Hf18  1  0.69222860  0.10348230  0.87049442  1
  Hf  Hf19  1  0.79679629  0.40968433  0.74362611  1
  Hf  Hf20  1  -0.00394273  0.60054595  0.49792928  1
  Hf  Hf21  1  0.28857571  0.69707726  0.89373406  1
  Hf  Hf22  1  0.00935772  0.39888299  0.00567636  1
  Hf  Hf23  1  0.40151486  0.40589032  0.26607113  1
  Hf  Hf24  1  0.39929502  -0.00493668  0.75491432  1
  Hf  Hf25  1  -0.00967880  -0.00202929  0.50593431  1
  Hf  Hf26  1  0.50765459  0.69618707  0.12869713  1
  Hf  Hf27  1  0.79928503  0.20395332  0.51952743  1
  Hf  Hf28  1  -0.00383989  0.80846630  0.48936066  1
  Hf  Hf29  1  0.52246162  0.50989374  0.64712224  1
  Hf  Hf30  1  0.10468535  0.49276914  0.61299657  1
  Hf  Hf31  1  -0.00716365  0.00116322  0.73996141  1
  Hf  Hf32  1  0.79898690  -0.00112583  0.75350233  1
  Hf  Hf33  1  0.20949389  0.80405271  0.23470716  1
  Hf  Hf34  1  0.20085167  0.40255916  0.00307814  1
  Hf  Hf35  1  0.90192279  0.88557575  0.87347129  1
  Hf  Hf36  1  0.41097299  0.80005084  0.48304161  1
  Hf  Hf37  1  0.70339718  0.50003207  0.10823664  1
  Hf  Hf38  1  0.80114262  0.20096364  0.73988085  1
  Hf  Hf39  1  -0.00323174  0.80591583  0.25265028  1
  Zr  Zr40  1  0.39857735  0.20064135  0.01105120  1
  Zr  Zr41  1  0.90622025  0.67798283  0.88612269  1
  Zr  Zr42  1  0.09209790  0.51516162  0.87411182  1
  Zr  Zr43  1  0.69797044  0.89655277  0.11641691  1
  Zr  Zr44  1  -0.00000312  0.39245873  0.24290896  1
  Zr  Zr45  1  0.10440353  0.30346638  0.85313371  1
  Zr  Zr46  1  0.22052205  0.59547894  0.48851419  1
  Zr  Zr47  1  0.90160724  0.90502837  0.11923187  1
  Zr  Zr48  1  0.19121338  -0.00388986  -0.00064123  1
  Zr  Zr49  1  0.70694848  0.88767926  0.62360334  1
  Zr  Zr50  1  0.08987469  0.30045923  0.39108923  1
  Zr  Zr51  1  0.37959741  0.22173740  0.49797829  1
  Zr  Zr52  1  0.39600464  0.79726721  0.75937883  1
  Zr  Zr53  1  0.09026653  0.10762928  0.86601484  1
  Zr  Zr54  1  0.69046491  0.88888051  0.88690445  1
  Zr  Zr55  1  0.49667905  0.10230951  0.38844393  1
  Zr  Zr56  1  0.11197697  0.71028574  0.60940725  1
  Zr  Zr57  1  0.41431848  0.41339974  0.49278603  1
  Zr  Zr58  1  0.30787070  0.50546769  0.12177436  1
  Zr  Zr59  1  0.80738850  0.00551778  0.25183461  1
  Zr  Zr60  1  0.40185331  0.19299339  0.24954403  1
  Zr  Zr61  1  0.80809896  0.39106814  0.26449416  1
  Zr  Zr62  1  0.69410690  0.10423757  0.39418036  1
  Zr  Zr63  1  0.50925782  0.71404358  0.88895789  1
  Zr  Zr64  1  0.69633327  0.89490023  0.37218648  1
  Zr  Zr65  1  0.59180786  0.00815836  0.24637167  1
  Zr  Zr66  1  0.70226752  0.10482904  0.10966221  1
  Zr  Zr67  1  0.10821609  0.70415450  0.37171490  1
  Zr  Zr68  1  0.41624523  0.39808926  -0.01623954  1
  Zr  Zr69  1  0.59738120  0.77966124  0.50162042  1
  Zr  Zr70  1  0.29089786  0.90546999  0.37440240  1
  Zr  Zr71  1  0.70110923  0.30964763  0.10731679  1
  Zr  Zr72  1  -0.00453916  0.60937810  0.73419061  1
  Zr  Zr73  1  0.29393683  0.89596274  0.88279389  1
  Zr  Zr74  1  0.49344277  0.10271891  0.62220160  1
  Zr  Zr75  1  0.91284880  0.29692808  0.86283987  1
  Zr  Zr76  1  0.42103077  0.60595102  0.48152812  1
  Zr  Zr77  1  0.01589160  0.79164965  0.01017077  1
  Zr  Zr78  1  0.22501690  0.38598575  0.49086518  1
  Zr  Zr79  1  0.18395511  0.20897789  0.01165684  1
  Ta  Ta80  1  0.59302437  -0.00499712  0.74998321  1
  Ta  Ta81  1  0.69895281  0.69215021  0.12786531  1
  Ta  Ta82  1  0.60220982  0.20451854  0.23837888  1
  Ta  Ta83  1  0.10069487  0.49737008  0.37888746  1
  Ta  Ta84  1  0.20459102  0.59427155  0.25117432  1
  Ta  Ta85  1  -0.01431020  0.19629650  0.25988390  1
  Ta  Ta86  1  0.59845490  0.20839281  0.74013805  1
  Ta  Ta87  1  0.00242591  0.58492244  0.24999701  1
  Ta  Ta88  1  -0.00073861  0.00278673  -0.00609364  1
  Ta  Ta89  1  0.10406432  0.30118624  0.61798698  1
  Ta  Ta90  1  -0.00380486  0.19700655  0.51033006  1
  Ta  Ta91  1  0.18583206  0.20526744  0.25654024  1
  Ta  Ta92  1  0.69423818  0.09313660  0.62653942  1
  Ta  Ta93  1  0.40626134  0.60260990  0.25997493  1
  Ta  Ta94  1  0.09367885  0.88493727  0.86337316  1
  Ta  Ta95  1  0.39561811  -0.00486358  0.24493683  1
  Ta  Ta96  1  0.19695663  0.40187289  0.25445565  1
  Ta  Ta97  1  0.49219257  0.89380083  0.62620223  1
  Ta  Ta98  1  0.09604843  0.10030709  0.37952976  1
  Ta  Ta99  1  0.60202188  0.59408313  -0.01200932  1
  Ta  Ta100  1  0.40721621  0.40049293  0.76563700  1
  Ta  Ta101  1  0.08233057  0.09916493  0.14237609  1
  Ta  Ta102  1  0.50113177  0.90027239  0.12472887  1
  Ta  Ta103  1  0.40057009  0.00049354  0.01023125  1
  Ta  Ta104  1  0.69393580  0.69437081  0.35719484  1
  Ta  Ta105  1  0.80588518  0.40668118  -0.02683081  1
  Ta  Ta106  1  0.31076306  0.70221701  0.62016314  1
  Ta  Ta107  1  0.50858824  0.31174913  0.13064985  1
  Ta  Ta108  1  0.79135092  0.60073784  0.50048550  1
  Ta  Ta109  1  0.39792445  0.80582552  0.01454910  1
  Ta  Ta110  1  0.19998013  0.20204543  0.72711441  1
  Ta  Ta111  1  0.80333463  0.19981965  -0.02096121  1
  Ta  Ta112  1  0.59079636  0.21229444  -0.00248339  1
  Ta  Ta113  1  0.40694649  0.59747580  -0.00509854  1
  Ta  Ta114  1  -0.00294567  0.19244925  0.71816720  1
  Ta  Ta115  1  0.10281728  0.91558401  0.14001743  1
  Ta  Ta116  1  0.79828446  0.79936515  0.25010984  1
  Ta  Ta117  1  0.69205098  0.30618759  0.86896648  1
  Ta  Ta118  1  0.80909085  0.00789926  -0.01340545  1
  Ta  Ta119  1  0.51052397  0.50071780  0.12666471  1
  Ti  Ti120  1  0.49661065  0.31215615  0.63788413  1
  Ti  Ti121  1  0.10263493  0.90782937  0.36761764  1
  Ti  Ti122  1  0.79437745  0.40082219  0.51055475  1
  Ti  Ti123  1  0.30310697  0.70567112  0.36778271  1
  Ti  Ti124  1  0.20959353  0.40165307  0.74603441  1
  Ti  Ti125  1  -0.00412932  0.19153535  0.00616730  1
  Ti  Ti126  1  0.79819900  0.79028960  0.00362531  1
  Ti  Ti127  1  0.69541917  0.67922838  0.63588890  1
  Ti  Ti128  1  -0.00165792  0.40869458  0.74116172  1
  Ti  Ti129  1  0.19666956  0.80067957  0.01782508  1
  Ti  Ti130  1  0.18588459  0.60258651  0.01236562  1
  Ti  Ti131  1  0.89323853  0.09977225  0.39468798  1
  Ti  Ti132  1  0.58906777  0.00450649  -0.00165374  1
  Ti  Ti133  1  -0.00972170  0.00535778  0.26407712  1
  Ti  Ti134  1  0.28562561  0.10311240  0.37707381  1
  Ti  Ti135  1  0.60789653  0.40794865  0.50464878  1
  Ti  Ti136  1  0.30332206  0.29426968  0.86178455  1
  Ti  Ti137  1  0.60114004  0.21517776  0.52484421  1
  Ti  Ti138  1  0.18581225  0.00081301  0.50287495  1
  Ti  Ti139  1  0.60415986  0.59274212  0.48373065  1
  Ti  Ti140  1  0.89251007  0.50613712  0.61773430  1
  Ti  Ti141  1  0.40750462  0.60200937  0.77384014  1
  Ti  Ti142  1  0.49860594  0.69401916  0.63938786  1
  Ti  Ti143  1  0.89105529  0.70592509  0.61930381  1
  Ti  Ti144  1  0.09650034  0.89137272  0.62851588  1
  Ti  Ti145  1  0.29990162  0.50124482  0.87910690  1
  Ti  Ti146  1  0.90656886  0.31261574  0.61945157  1
  Ti  Ti147  1  0.80478831  0.78200378  0.75324704  1
  Ti  Ti148  1  0.79869652  0.79770387  0.48808858  1
  Ti  Ti149  1  0.40637248  0.80400106  0.24718590  1
  Ti  Ti150  1  0.19361583  0.79195534  0.75259034  1
  Ti  Ti151  1  0.89431178  0.88949433  0.62852723  1
  Ti  Ti152  1  0.90598666  0.48246882  0.39347666  1
  Ti  Ti153  1  0.39912065  -0.00567452  0.49008344  1
  Ti  Ti154  1  0.89910445  0.49938979  0.11045423  1
  Ti  Ti155  1  0.70444621  0.51022277  0.86640207  1
  Ti  Ti156  1  0.70374053  0.29903424  0.39146315  1
  Ti  Ti157  1  0.30654987  0.69578569  0.12263917  1
  Ti  Ti158  1  0.09845814  0.68928856  0.13860392  1
  Ti  Ti159  1  0.70745745  0.69257838  0.88000470  1
  Mo  Mo160  1  0.79928187  0.59528624  0.00014622  1
  Mo  Mo161  1  0.60197802  0.40581953  -0.02124801  1
  Mo  Mo162  1  0.49582400  0.89984860  0.35340171  1
  Mo  Mo163  1  0.60173237  0.79879911  0.23715072  1
  Mo  Mo164  1  0.60381705  0.59507726  0.25482971  1
  Mo  Mo165  1  0.30437933  0.30666860  0.64408678  1
  Mo  Mo166  1  0.89726749  0.29502733  0.39806315  1
  Mo  Mo167  1  0.10428040  0.70596593  0.88244703  1
  Mo  Mo168  1  0.70840364  0.49689078  0.39807487  1
  Mo  Mo169  1  0.90168002  0.10221858  0.11242815  1
  Mo  Mo170  1  0.49961571  0.10466259  0.11735939  1
  Mo  Mo171  1  0.30119315  0.50465336  0.36150135  1
  Mo  Mo172  1  0.70156734  0.50368286  0.61830232  1
  Mo  Mo173  1  0.79884782  0.60097399  0.73582119  1
  Mo  Mo174  1  -0.00460836  0.40168708  0.51117466  1
  Mo  Mo175  1  0.90146941  0.49829633  0.87581152  1
  Mo  Mo176  1  0.51002929  0.70629611  0.34800180  1
  Mo  Mo177  1  0.79951322  -0.00530126  0.50980936  1
  Mo  Mo178  1  0.29641291  0.29598199  0.35724605  1
  Mo  Mo179  1  0.60826793  0.60570203  0.76804608  1
  Mo  Mo180  1  0.00600842  0.59188419  0.02356548  1
  Mo  Mo181  1  0.19068168  0.00671791  0.25918261  1
  Mo  Mo182  1  0.89101021  0.09263051  0.61512315  1
  Mo  Mo183  1  0.09514461  0.29452505  0.13734691  1
  Mo  Mo184  1  0.20292443  0.80370110  0.49415925  1
  Mo  Mo185  1  0.60306500  0.40306191  0.75887731  1
  Mo  Mo186  1  0.69121590  0.30799691  0.63122199  1
  Mo  Mo187  1  0.89414266  0.90098848  0.37446217  1
  Mo  Mo188  1  0.60254559  0.79583506  0.01531176  1
  Mo  Mo189  1  0.09954458  0.09769957  0.61142301  1
  Mo  Mo190  1  0.51294842  0.50447302  0.36653322  1
  Mo  Mo191  1  0.49951973  0.90740016  0.89839490  1
  Mo  Mo192  1  -0.00296832  0.79952928  0.73993866  1
  Mo  Mo193  1  0.19408265  0.19497600  0.50287275  1
  Mo  Mo194  1  0.90144578  0.09930073  0.87660374  1
  Mo  Mo195  1  0.39592232  0.20719102  0.74099215  1
  Mo  Mo196  1  0.30180922  0.89835419  0.12753941  1
  Mo  Mo197  1  0.10371266  0.50128920  0.13310667  1
  Mo  Mo198  1  0.50779133  0.50562269  0.86818821  1
  Mo  Mo199  1  0.50409374  0.29832814  0.86056516  1
