# generated using pymatgen
data_HfZrTaTiMo
_symmetry_space_group_name_H-M   'P 1'
_cell_length_a   15.93060392
_cell_length_b   15.93599847
_cell_length_c   15.19203146
_cell_angle_alpha   90.00206206
_cell_angle_beta   90.04167828
_cell_angle_gamma   89.90169966
_symmetry_Int_Tables_number   1
_chemical_formula_structural   HfZrTaTiMo
_chemical_formula_sum   'Hf40 Zr40 Ta40 Ti40 Mo40'
_cell_volume   3856.79553792
_cell_formula_units_Z   40
loop_
 _symmetry_equiv_pos_site_id
 _symmetry_equiv_pos_as_xyz
  1  'x, y, z'
loop_
 _atom_site_type_symbol
 _atom_site_label
 _atom_site_symmetry_multiplicity
 _atom_site_fract_x
 _atom_site_fract_y
 _atom_site_fract_z
 _atom_site_occupancy
  Hf  Hf0  1  0.70584456  0.70102622  0.11068703  1
  Hf  Hf1  1  0.89903413  0.90043889  0.61625766  1
  Hf  Hf2  1  0.70334723  0.10437885  0.87705587  1
  Hf  Hf3  1  0.89605449  0.49632430  0.87597523  1
  Hf  Hf4  1  0.20261738  0.39759850  0.50800686  1
  Hf  Hf5  1  0.80508010  0.78542726  0.26201656  1
  Hf  Hf6  1  0.10626685  0.90495992  0.36903685  1
  Hf  Hf7  1  0.41301899  0.38195287  0.76961827  1
  Hf  Hf8  1  0.19782966  -0.00286934  0.00012671  1
  Hf  Hf9  1  0.40363301  0.18828898  0.74904267  1
  Hf  Hf10  1  0.10318597  0.50018640  0.62806339  1
  Hf  Hf11  1  0.39915588  -0.00287167  0.01472258  1
  Hf  Hf12  1  0.60943690  0.41933031  0.49384117  1
  Hf  Hf13  1  0.50444876  0.50721231  0.87938877  1
  Hf  Hf14  1  0.00847614  -0.00441975  0.75313728  1
  Hf  Hf15  1  0.89947454  0.90068722  0.38516550  1
  Hf  Hf16  1  0.30275920  0.50186752  0.37349390  1
  Hf  Hf17  1  0.00612242  0.61203763  -0.00307177  1
  Hf  Hf18  1  0.29537729  0.88398156  0.14200711  1
  Hf  Hf19  1  0.10405895  0.50821498  0.85811171  1
  Hf  Hf20  1  0.90597684  0.29765745  0.12382289  1
  Hf  Hf21  1  0.09560490  0.10578040  0.36581090  1
  Hf  Hf22  1  0.09882926  0.48949068  0.37892229  1
  Hf  Hf23  1  0.09747331  0.89646649  0.13758134  1
  Hf  Hf24  1  0.19731230  -0.00033707  0.75324482  1
  Hf  Hf25  1  0.89572811  0.49474877  0.37778624  1
  Hf  Hf26  1  -0.00562751  0.59567107  0.50539338  1
  Hf  Hf27  1  0.40440897  0.41179571  0.50389360  1
  Hf  Hf28  1  -0.01451581  0.60973798  0.25573096  1
  Hf  Hf29  1  0.21816469  0.80705117  0.49997462  1
  Hf  Hf30  1  0.59307895  0.21347301  0.75560506  1
  Hf  Hf31  1  0.20045098  0.81055847  0.75224300  1
  Hf  Hf32  1  0.21005463  0.38297587  -0.01030956  1
  Hf  Hf33  1  0.20373605  0.60063045  0.25252963  1
  Hf  Hf34  1  -0.01563632  0.60364174  0.73669950  1
  Hf  Hf35  1  0.59720602  0.80936558  0.24350812  1
  Hf  Hf36  1  0.59807960  0.38716819  -0.00600921  1
  Hf  Hf37  1  0.68991372  0.09402328  0.37355053  1
  Hf  Hf38  1  0.30653526  0.50355735  0.87180727  1
  Hf  Hf39  1  0.80465894  0.20140879  0.50282985  1
  Zr  Zr40  1  0.19693998  0.60869690  -0.00394776  1
  Zr  Zr41  1  -0.00419811  0.38765222  0.73810952  1
  Zr  Zr42  1  0.70534325  0.50053982  0.11131942  1
  Zr  Zr43  1  0.79846816  0.80152873  0.75482479  1
  Zr  Zr44  1  0.59979955  0.39925827  0.24555047  1
  Zr  Zr45  1  0.49385555  0.51458710  0.10400844  1
  Zr  Zr46  1  0.70398240  0.90000931  0.88649349  1
  Zr  Zr47  1  0.59197963  0.60641323  0.50476656  1
  Zr  Zr48  1  0.41040281  -0.00444285  0.24148291  1
  Zr  Zr49  1  0.80350699  0.19814592  0.24990434  1
  Zr  Zr50  1  0.39749307  0.19511084  0.50336268  1
  Zr  Zr51  1  0.30357713  0.29899482  0.62829303  1
  Zr  Zr52  1  0.89525781  0.09415572  0.87473028  1
  Zr  Zr53  1  0.50068385  0.10236794  0.89468244  1
  Zr  Zr54  1  0.39776033  0.39934019  0.24237517  1
  Zr  Zr55  1  0.01574882  0.39165384  -0.00578015  1
  Zr  Zr56  1  0.90258516  0.88808662  0.11865895  1
  Zr  Zr57  1  0.70444292  0.30370318  0.37719525  1
  Zr  Zr58  1  0.18860046  0.19444570  0.75131237  1
  Zr  Zr59  1  0.69984612  0.49848574  0.86679540  1
  Zr  Zr60  1  0.89868410  0.50339966  0.12160704  1
  Zr  Zr61  1  0.59203512  0.00079591  0.75327477  1
  Zr  Zr62  1  0.10536966  0.49606998  0.13198961  1
  Zr  Zr63  1  0.49609631  0.89248624  0.62324453  1
  Zr  Zr64  1  0.69667357  0.89273866  0.61314587  1
  Zr  Zr65  1  0.79277217  -0.00767027  0.24692723  1
  Zr  Zr66  1  0.49799445  0.29494201  0.37738571  1
  Zr  Zr67  1  0.87762834  0.69905413  0.61499603  1
  Zr  Zr68  1  0.69327724  0.30995956  0.62301156  1
  Zr  Zr69  1  0.60551367  0.60332280  0.25116347  1
  Zr  Zr70  1  0.30257401  0.69753141  0.12923322  1
  Zr  Zr71  1  0.10638862  0.69925347  0.38159997  1
  Zr  Zr72  1  0.69433805  0.09524704  0.62204583  1
  Zr  Zr73  1  0.89137867  0.29724241  0.88130895  1
  Zr  Zr74  1  0.38544078  0.80075659  -0.01531948  1
  Zr  Zr75  1  0.29774261  0.10176205  0.36507906  1
  Zr  Zr76  1  0.38914957  -0.01375465  0.49255461  1
  Zr  Zr77  1  0.30009189  0.10226982  0.88467021  1
  Zr  Zr78  1  0.50341408  0.51121120  0.65119202  1
  Zr  Zr79  1  0.31652344  0.69992801  0.63817518  1
  Ta  Ta80  1  0.19754415  0.21076719  0.23494294  1
  Ta  Ta81  1  0.50671816  0.70005929  0.87857102  1
  Ta  Ta82  1  0.49902882  0.70853979  0.11055409  1
  Ta  Ta83  1  0.00880947  0.19531188  -0.00689824  1
  Ta  Ta84  1  0.50575901  0.09489953  0.37174525  1
  Ta  Ta85  1  0.80753836  0.20520728  0.73525600  1
  Ta  Ta86  1  0.18774802  0.80326966  -0.01874542  1
  Ta  Ta87  1  0.40411098  0.80547588  0.76646327  1
  Ta  Ta88  1  0.40236689  0.79232017  0.48451011  1
  Ta  Ta89  1  0.10339311  0.70321803  0.62630889  1
  Ta  Ta90  1  0.09389888  0.10310966  0.13062402  1
  Ta  Ta91  1  0.80240885  0.60466978  -0.01587958  1
  Ta  Ta92  1  0.30431632  0.49578717  0.11336074  1
  Ta  Ta93  1  0.91291945  0.30249405  0.38039231  1
  Ta  Ta94  1  0.00592002  -0.00243425  -0.00277172  1
  Ta  Ta95  1  0.90279259  0.09597379  0.62348421  1
  Ta  Ta96  1  0.30355800  0.50609753  0.64831548  1
  Ta  Ta97  1  0.19019662  0.20488473  0.00555473  1
  Ta  Ta98  1  0.50699571  0.89779053  0.88779797  1
  Ta  Ta99  1  0.90629141  0.09898423  0.12110519  1
  Ta  Ta100  1  0.21273547  0.60101595  0.50888515  1
  Ta  Ta101  1  0.00179091  0.79790353  0.50192297  1
  Ta  Ta102  1  0.00057650  0.19251926  0.74365421  1
  Ta  Ta103  1  0.19980617  0.00054340  0.50570386  1
  Ta  Ta104  1  0.79674672  0.19964531  0.01152053  1
  Ta  Ta105  1  0.00238625  0.19943080  0.50730923  1
  Ta  Ta106  1  0.90041043  0.70666027  0.87352392  1
  Ta  Ta107  1  0.20141276  0.39174524  0.75582310  1
  Ta  Ta108  1  0.69323592  0.70137140  0.87764843  1
  Ta  Ta109  1  0.80197568  0.00139473  0.01015800  1
  Ta  Ta110  1  0.60168109  0.00019771  0.02013194  1
  Ta  Ta111  1  0.28992907  0.30103494  0.36952666  1
  Ta  Ta112  1  0.70074709  0.70145108  0.38306199  1
  Ta  Ta113  1  0.80478715  0.40027953  0.73227589  1
  Ta  Ta114  1  0.91155692  0.89010532  0.88307898  1
  Ta  Ta115  1  0.09966827  0.71471843  0.13676217  1
  Ta  Ta116  1  0.10042844  0.29824298  0.37303206  1
  Ta  Ta117  1  0.79908838  0.00300522  0.49527245  1
  Ta  Ta118  1  0.19465554  0.19355395  0.50549154  1
  Ta  Ta119  1  0.80243161  0.40376587  0.24994131  1
  Ti  Ti120  1  -0.00858746  0.00414412  0.24798072  1
  Ti  Ti121  1  0.39398651  -0.00924091  0.75641213  1
  Ti  Ti122  1  0.40328387  0.60725500  0.50050734  1
  Ti  Ti123  1  0.39844558  0.20223446  0.24512322  1
  Ti  Ti124  1  0.49887960  0.70273249  0.36476341  1
  Ti  Ti125  1  0.89915433  0.70443481  0.11197054  1
  Ti  Ti126  1  0.59695014  -0.00263881  0.23340355  1
  Ti  Ti127  1  0.60443530  0.20086457  0.00558649  1
  Ti  Ti128  1  0.70396703  0.29988894  0.12619196  1
  Ti  Ti129  1  0.49977754  0.10974310  0.12393755  1
  Ti  Ti130  1  0.50554098  0.30587665  0.61841176  1
  Ti  Ti131  1  0.59394639  0.20025175  0.24273999  1
  Ti  Ti132  1  0.59197034  0.79452237  0.49612246  1
  Ti  Ti133  1  0.48992137  0.29727177  0.11580679  1
  Ti  Ti134  1  0.70342414  0.89086575  0.11218110  1
  Ti  Ti135  1  0.50052422  0.50749189  0.36936816  1
  Ti  Ti136  1  0.10024330  0.89905018  0.61624131  1
  Ti  Ti137  1  0.68621724  0.70049619  0.63568067  1
  Ti  Ti138  1  0.50410881  0.90223445  0.37691855  1
  Ti  Ti139  1  0.09740927  0.29577864  0.61933516  1
  Ti  Ti140  1  0.00497565  0.00590662  0.50161428  1
  Ti  Ti141  1  0.80165244  0.00029445  0.74639397  1
  Ti  Ti142  1  0.29579452  0.69257568  0.86196772  1
  Ti  Ti143  1  0.69212754  0.89933846  0.38651813  1
  Ti  Ti144  1  0.38364148  0.22429909  -0.00177161  1
  Ti  Ti145  1  0.29873646  0.11099650  0.12387732  1
  Ti  Ti146  1  0.78619969  0.59228251  0.49312923  1
  Ti  Ti147  1  0.70516916  0.51408866  0.64645610  1
  Ti  Ti148  1  0.90276593  0.10235089  0.37648367  1
  Ti  Ti149  1  0.29898678  0.08874721  0.62480543  1
  Ti  Ti150  1  0.50053900  0.09088630  0.61219620  1
  Ti  Ti151  1  0.70673832  0.30262725  0.87160410  1
  Ti  Ti152  1  -0.00337651  0.79483155  0.26665459  1
  Ti  Ti153  1  0.40324367  0.60628366  0.24992958  1
  Ti  Ti154  1  0.70009593  0.10269667  0.12757856  1
  Ti  Ti155  1  0.08622149  0.71291002  0.85153237  1
  Ti  Ti156  1  0.20454054  0.00557635  0.24459714  1
  Ti  Ti157  1  0.00593697  0.39108468  0.24601866  1
  Ti  Ti158  1  0.59624814  0.19716204  0.50170595  1
  Ti  Ti159  1  0.80754151  0.40574766  0.51142622  1
  Mo  Mo160  1  0.59520719  0.79968700  0.75678091  1
  Mo  Mo161  1  0.20175182  0.79964980  0.26771875  1
  Mo  Mo162  1  0.30261646  0.90265262  0.63851245  1
  Mo  Mo163  1  0.50529499  0.70886727  0.64340950  1
  Mo  Mo164  1  0.79863842  0.59997708  0.26273296  1
  Mo  Mo165  1  0.50164458  0.29404919  0.89327659  1
  Mo  Mo166  1  0.00788165  0.79585993  0.00071577  1
  Mo  Mo167  1  0.29980562  0.29487076  0.86554091  1
  Mo  Mo168  1  0.89479784  0.69962344  0.39458875  1
  Mo  Mo169  1  0.79612832  0.39408735  0.01081863  1
  Mo  Mo170  1  0.60267651  0.60994116  0.75128595  1
  Mo  Mo171  1  0.30139045  0.89433495  0.35721966  1
  Mo  Mo172  1  0.90199651  0.29678843  0.61226993  1
  Mo  Mo173  1  -0.00101177  0.39144064  0.50749354  1
  Mo  Mo174  1  0.60671831  0.39740513  0.75975573  1
  Mo  Mo175  1  0.19979130  0.39833277  0.25173378  1
  Mo  Mo176  1  0.19611496  0.60356750  0.74405079  1
  Mo  Mo177  1  0.88845536  0.49896770  0.61746368  1
  Mo  Mo178  1  0.09802986  0.29674334  0.13713218  1
  Mo  Mo179  1  0.40588302  0.79495458  0.26565141  1
  Mo  Mo180  1  0.59512089  -0.00248706  0.49130363  1
  Mo  Mo181  1  0.00108116  0.80236749  0.72736212  1
  Mo  Mo182  1  0.29926640  0.30037260  0.13495086  1
  Mo  Mo183  1  0.59775490  0.80429216  0.00790046  1
  Mo  Mo184  1  -0.00028049  0.19831023  0.25538235  1
  Mo  Mo185  1  0.70625026  0.50506433  0.36623017  1
  Mo  Mo186  1  0.79702732  0.60157995  0.76086840  1
  Mo  Mo187  1  0.80429979  0.79875188  -0.01092957  1
  Mo  Mo188  1  0.31123405  0.69530612  0.37635209  1
  Mo  Mo189  1  0.09668821  0.09449313  0.61135952  1
  Mo  Mo190  1  0.09402688  0.89668938  0.87867734  1
  Mo  Mo191  1  0.39771860  0.39583838  -0.00169880  1
  Mo  Mo192  1  0.60192436  0.60723584  -0.00473662  1
  Mo  Mo193  1  0.50080828  0.89432277  0.11514249  1
  Mo  Mo194  1  0.40129123  0.60725672  0.76643011  1
  Mo  Mo195  1  0.09569464  0.09862207  0.88934573  1
  Mo  Mo196  1  0.39783578  0.60548118  -0.01109884  1
  Mo  Mo197  1  0.09878290  0.29222013  0.86097182  1
  Mo  Mo198  1  0.79244547  0.79804983  0.48922924  1
  Mo  Mo199  1  0.30165808  0.90158006  0.86926795  1
