# generated using pymatgen
data_HfZrTaTiMo
_symmetry_space_group_name_H-M   'P 1'
_cell_length_a   15.92194305
_cell_length_b   15.92252251
_cell_length_c   15.20114704
_cell_angle_alpha   90.00724659
_cell_angle_beta   90.02317462
_cell_angle_gamma   90.08024294
_symmetry_Int_Tables_number   1
_chemical_formula_structural   HfZrTaTiMo
_chemical_formula_sum   'Hf40 Zr40 Ta40 Ti40 Mo40'
_cell_volume   3853.75261629
_cell_formula_units_Z   40
loop_
 _symmetry_equiv_pos_site_id
 _symmetry_equiv_pos_as_xyz
  1  'x, y, z'
loop_
 _atom_site_type_symbol
 _atom_site_label
 _atom_site_symmetry_multiplicity
 _atom_site_fract_x
 _atom_site_fract_y
 _atom_site_fract_z
 _atom_site_occupancy
  Hf  Hf0  1  0.89857513  0.70093391  0.89198717  1
  Hf  Hf1  1  0.30142645  0.69520792  0.62394264  1
  Hf  Hf2  1  0.11631389  0.49493706  0.62501947  1
  Hf  Hf3  1  0.50080666  0.08780457  0.63171698  1
  Hf  Hf4  1  0.70701237  0.70976385  0.86463408  1
  Hf  Hf5  1  0.89559530  0.10285918  0.61733697  1
  Hf  Hf6  1  0.00174167  0.00301955  -0.00624077  1
  Hf  Hf7  1  0.30375853  0.69873362  0.87322161  1
  Hf  Hf8  1  0.90591755  0.70276367  0.11758833  1
  Hf  Hf9  1  0.20509719  0.00558645  0.00176188  1
  Hf  Hf10  1  0.78968289  -0.00879538  0.00590782  1
  Hf  Hf11  1  0.20935051  0.81390610  0.50064779  1
  Hf  Hf12  1  0.09443763  0.30279151  0.12709970  1
  Hf  Hf13  1  0.50544941  0.30356883  0.12382519  1
  Hf  Hf14  1  0.88934782  0.10719106  0.87611542  1
  Hf  Hf15  1  0.71558557  0.48695540  0.62033788  1
  Hf  Hf16  1  0.19850755  0.40074245  -0.00515634  1
  Hf  Hf17  1  0.59233657  0.00665636  0.25787567  1
  Hf  Hf18  1  0.70654030  0.49829380  0.37531712  1
  Hf  Hf19  1  0.60444471  0.60190010  0.73633178  1
  Hf  Hf20  1  0.20725795  0.20659340  0.49324493  1
  Hf  Hf21  1  0.38836140  -0.00804272  0.50896552  1
  Hf  Hf22  1  0.59852146  0.19437405  0.75062827  1
  Hf  Hf23  1  0.30581998  0.70180587  0.10557899  1
  Hf  Hf24  1  0.01689755  0.59498452  0.25680513  1
  Hf  Hf25  1  0.58681918  0.59392404  -0.00965991  1
  Hf  Hf26  1  0.60703078  0.38461401  0.73869887  1
  Hf  Hf27  1  0.68122416  0.49655732  0.14674911  1
  Hf  Hf28  1  0.59288679  0.38603112  0.50072714  1
  Hf  Hf29  1  0.28624922  0.09631042  0.64131198  1
  Hf  Hf30  1  0.90373934  0.69149809  0.38499197  1
  Hf  Hf31  1  -0.00263642  0.20589202  0.49149640  1
  Hf  Hf32  1  0.89928166  0.90552520  0.61897075  1
  Hf  Hf33  1  0.39556848  0.19786359  0.26151670  1
  Hf  Hf34  1  0.40118181  0.59796198  0.74283597  1
  Hf  Hf35  1  0.18410297  0.01268537  0.23112251  1
  Hf  Hf36  1  0.29112576  0.90782609  0.36268792  1
  Hf  Hf37  1  0.60744735  0.59999553  0.51577404  1
  Hf  Hf38  1  0.78768104  0.59928031  0.01378811  1
  Hf  Hf39  1  0.80120906  0.39559603  0.01487023  1
  Zr  Zr40  1  0.79999326  0.20151115  0.24632127  1
  Zr  Zr41  1  0.40167648  0.19773159  0.49362320  1
  Zr  Zr42  1  0.70315995  0.10304591  0.38535590  1
  Zr  Zr43  1  0.81001119  0.38035083  0.49704502  1
  Zr  Zr44  1  0.19499369  0.80166988  0.24127319  1
  Zr  Zr45  1  0.58822634  0.20261526  0.26568475  1
  Zr  Zr46  1  0.39368569  0.19689020  -0.00317474  1
  Zr  Zr47  1  0.01514421  0.80093494  -0.00866940  1
  Zr  Zr48  1  0.10639290  0.70017888  0.62441621  1
  Zr  Zr49  1  0.40233289  0.40478731  -0.00528288  1
  Zr  Zr50  1  0.30404935  0.50103147  0.39535982  1
  Zr  Zr51  1  0.81324867  0.61364542  0.72333859  1
  Zr  Zr52  1  0.90910041  0.91334495  0.38147279  1
  Zr  Zr53  1  0.49759821  0.88858773  0.13933433  1
  Zr  Zr54  1  0.90488843  0.10046466  0.12152866  1
  Zr  Zr55  1  0.69640117  0.68943066  0.37173453  1
  Zr  Zr56  1  -0.00355444  0.79891144  0.74992330  1
  Zr  Zr57  1  0.38878696  0.78928143  0.25587466  1
  Zr  Zr58  1  0.80216526  0.80265801  0.25913617  1
  Zr  Zr59  1  0.78775705  0.20519393  0.73962243  1
  Zr  Zr60  1  0.70959350  0.49460222  0.85803104  1
  Zr  Zr61  1  0.48892989  0.68930775  0.39013857  1
  Zr  Zr62  1  0.00856622  0.80683440  0.25423582  1
  Zr  Zr63  1  0.18979736  0.60075515  -0.01165344  1
  Zr  Zr64  1  0.00750646  0.60401824  0.75110051  1
  Zr  Zr65  1  0.69025425  0.69942724  0.14210887  1
  Zr  Zr66  1  0.60645464  0.79835839  -0.00406108  1
  Zr  Zr67  1  0.40218277  0.39804901  0.25680775  1
  Zr  Zr68  1  0.92180269  0.49940474  0.11796474  1
  Zr  Zr69  1  0.11170382  0.91861526  0.62655978  1
  Zr  Zr70  1  0.40959056  0.80921865  -0.01459503  1
  Zr  Zr71  1  0.20100173  0.41586151  0.24129770  1
  Zr  Zr72  1  -0.00823040  0.00055149  0.76405481  1
  Zr  Zr73  1  0.58694755  -0.00810959  -0.00242058  1
  Zr  Zr74  1  0.78898720  0.79710104  0.50554978  1
  Zr  Zr75  1  0.59952622  0.39909963  -0.00834625  1
  Zr  Zr76  1  0.10741939  0.30105471  0.64146929  1
  Zr  Zr77  1  0.09542835  0.10759579  0.63606223  1
  Zr  Zr78  1  0.10927251  0.30229693  0.36812912  1
  Zr  Zr79  1  0.90092832  0.50162873  0.87919924  1
  Ta  Ta80  1  -0.00065532  0.40109314  0.25921636  1
  Ta  Ta81  1  0.89705268  0.30381471  0.86933442  1
  Ta  Ta82  1  0.90563807  0.30127780  0.63745862  1
  Ta  Ta83  1  0.00220816  0.40017405  0.75803746  1
  Ta  Ta84  1  0.10128946  0.11292846  0.86952598  1
  Ta  Ta85  1  0.21006357  0.60842975  0.25527847  1
  Ta  Ta86  1  0.49747727  0.68140008  0.13007180  1
  Ta  Ta87  1  0.01166663  0.18551600  0.25259779  1
  Ta  Ta88  1  0.31026791  0.51284214  0.11303249  1
  Ta  Ta89  1  0.19795286  0.20376630  -0.00430445  1
  Ta  Ta90  1  0.70672872  0.29430831  0.88353893  1
  Ta  Ta91  1  0.38932764  0.00848292  0.23370031  1
  Ta  Ta92  1  0.20779190  0.80644169  0.75723060  1
  Ta  Ta93  1  0.40043377  0.80488477  0.50819535  1
  Ta  Ta94  1  0.90238192  0.09809922  0.37923591  1
  Ta  Ta95  1  0.69862951  0.89932636  0.14095918  1
  Ta  Ta96  1  0.40465254  0.80756040  0.74475557  1
  Ta  Ta97  1  0.39656927  0.59317896  0.25316363  1
  Ta  Ta98  1  0.69744037  0.29662129  0.12816174  1
  Ta  Ta99  1  0.90788156  0.29908618  0.13069984  1
  Ta  Ta100  1  0.81219056  0.58986272  0.24693956  1
  Ta  Ta101  1  0.87936348  0.89184797  0.87684571  1
  Ta  Ta102  1  0.90613708  0.49662985  0.38526631  1
  Ta  Ta103  1  0.10993876  0.70148569  0.38625469  1
  Ta  Ta104  1  0.69473488  0.09828195  0.88366199  1
  Ta  Ta105  1  0.69057538  0.10314187  0.11903819  1
  Ta  Ta106  1  0.29802776  0.30601418  0.64443188  1
  Ta  Ta107  1  0.59591524  0.81115239  0.50055960  1
  Ta  Ta108  1  0.49479487  0.09266696  0.87005532  1
  Ta  Ta109  1  0.78716689  -0.00533614  0.49862806  1
  Ta  Ta110  1  0.29592774  0.30168128  0.85881609  1
  Ta  Ta111  1  0.00847033  0.80509645  0.49885357  1
  Ta  Ta112  1  0.69583062  0.90036093  0.85662166  1
  Ta  Ta113  1  0.49683588  0.49596716  0.85376885  1
  Ta  Ta114  1  0.79743414  0.00132562  0.24961699  1
  Ta  Ta115  1  0.91429335  0.49363116  0.61471103  1
  Ta  Ta116  1  0.50342859  0.70889291  0.62341097  1
  Ta  Ta117  1  0.39069376  -0.00236190  0.00357933  1
  Ta  Ta118  1  0.49009154  0.90318133  0.37064005  1
  Ta  Ta119  1  0.59269111  -0.00716962  0.49107450  1
  Ti  Ti120  1  0.00162946  0.21100682  -0.00964111  1
  Ti  Ti121  1  0.39143045  0.38493010  0.49864430  1
  Ti  Ti122  1  0.20600403  0.60216551  0.49658459  1
  Ti  Ti123  1  0.80617045  0.39885205  0.24898004  1
  Ti  Ti124  1  0.49070821  0.29533089  0.62812274  1
  Ti  Ti125  1  0.39681209  -0.00984851  0.75579744  1
  Ti  Ti126  1  0.20579564  0.81169302  -0.00735660  1
  Ti  Ti127  1  0.68160844  0.90532071  0.63748744  1
  Ti  Ti128  1  0.10548434  0.50002564  0.39024945  1
  Ti  Ti129  1  0.59076665  0.39743166  0.26845102  1
  Ti  Ti130  1  0.29900862  0.29993200  0.12581234  1
  Ti  Ti131  1  0.59441512  0.79841596  0.26881908  1
  Ti  Ti132  1  0.49698293  0.10363276  0.11573487  1
  Ti  Ti133  1  0.29804682  0.10001073  0.86599046  1
  Ti  Ti134  1  0.70226194  0.29680513  0.37708849  1
  Ti  Ti135  1  0.49625916  0.29904031  0.86747094  1
  Ti  Ti136  1  0.89918391  0.89893262  0.12451610  1
  Ti  Ti137  1  0.59432215  0.19661875  0.49886860  1
  Ti  Ti138  1  0.09408646  0.90485242  0.11790463  1
  Ti  Ti139  1  0.09276856  0.07950740  0.38534584  1
  Ti  Ti140  1  0.39935976  0.19783076  0.75269859  1
  Ti  Ti141  1  0.90257503  0.29469738  0.36238924  1
  Ti  Ti142  1  0.79815312  0.80065209  0.72824696  1
  Ti  Ti143  1  0.49793027  0.50021424  0.39061406  1
  Ti  Ti144  1  0.00987424  0.40297645  -0.01103893  1
  Ti  Ti145  1  0.20315270  0.19660462  0.24189163  1
  Ti  Ti146  1  0.00467464  0.60061424  0.50476733  1
  Ti  Ti147  1  0.00916591  0.39530790  0.49686107  1
  Ti  Ti148  1  0.29943891  0.48953266  0.62800557  1
  Ti  Ti149  1  0.48925653  0.49057288  0.62235927  1
  Ti  Ti150  1  0.79748047  0.20290581  0.00857616  1
  Ti  Ti151  1  0.78864702  0.00265290  0.74667677  1
  Ti  Ti152  1  0.10569273  0.50255397  0.86156376  1
  Ti  Ti153  1  0.69504274  0.09665058  0.61408717  1
  Ti  Ti154  1  0.50439244  0.70220390  0.86055793  1
  Ti  Ti155  1  0.10050258  0.69057555  0.11859110  1
  Ti  Ti156  1  0.10821988  0.90461166  0.86906972  1
  Ti  Ti157  1  0.29031204  0.09534897  0.37318080  1
  Ti  Ti158  1  0.59765269  0.19986565  -0.00861858  1
  Ti  Ti159  1  0.30391287  0.49881518  0.86607194  1
  Mo  Mo160  1  0.20772171  0.39714908  0.50124152  1
  Mo  Mo161  1  0.58441065  0.58805686  0.26196811  1
  Mo  Mo162  1  0.09650614  0.30349587  0.87329563  1
  Mo  Mo163  1  0.00941483  0.59754612  -0.00902993  1
  Mo  Mo164  1  0.10724151  0.50383158  0.12586339  1
  Mo  Mo165  1  0.79923822  0.19749993  0.50334355  1
  Mo  Mo166  1  0.20588019  0.59992617  0.75944548  1
  Mo  Mo167  1  0.60102840  0.00303804  0.75790618  1
  Mo  Mo168  1  0.69304353  0.90180259  0.36539339  1
  Mo  Mo169  1  0.59978544  0.80224339  0.74078704  1
  Mo  Mo170  1  0.20319932  0.00095615  0.77369372  1
  Mo  Mo171  1  0.50045009  0.90106149  0.63126204  1
  Mo  Mo172  1  0.10054532  0.90742797  0.38381747  1
  Mo  Mo173  1  0.69864047  0.70813581  0.62315076  1
  Mo  Mo174  1  0.79613560  0.80757514  0.00983824  1
  Mo  Mo175  1  0.69878183  0.28478711  0.60822903  1
  Mo  Mo176  1  0.48945836  0.09072873  0.38853870  1
  Mo  Mo177  1  0.40436718  0.59433808  0.52396088  1
  Mo  Mo178  1  0.09776156  0.11365316  0.10528481  1
  Mo  Mo179  1  0.50215445  0.90301952  0.85528694  1
  Mo  Mo180  1  0.29717961  0.90530174  0.12504746  1
  Mo  Mo181  1  0.19866103  0.00647994  0.49234594  1
  Mo  Mo182  1  0.49958456  0.30017017  0.38446386  1
  Mo  Mo183  1  0.20375704  0.40765943  0.76501195  1
  Mo  Mo184  1  0.29788160  0.29798914  0.36669226  1
  Mo  Mo185  1  0.20218739  0.20257355  0.76611487  1
  Mo  Mo186  1  0.81219992  0.59376482  0.50562741  1
  Mo  Mo187  1  0.30186753  0.90175934  0.64145082  1
  Mo  Mo188  1  0.40720519  0.59762425  -0.01681717  1
  Mo  Mo189  1  0.10729078  0.70662459  0.86602978  1
  Mo  Mo190  1  0.80878990  0.39672318  0.73819835  1
  Mo  Mo191  1  -0.00255779  0.00308799  0.50430770  1
  Mo  Mo192  1  0.30291731  0.90478594  0.86805816  1
  Mo  Mo193  1  -0.00456401  0.20659147  0.76429918  1
  Mo  Mo194  1  0.29787619  0.69727990  0.39209577  1
  Mo  Mo195  1  0.40407678  0.39630469  0.74816688  1
  Mo  Mo196  1  0.49484801  0.50455940  0.13423280  1
  Mo  Mo197  1  0.29879562  0.11047157  0.12215727  1
  Mo  Mo198  1  -0.00191942  0.00478992  0.23665642  1
  Mo  Mo199  1  0.90421760  0.69972426  0.60257117  1
