# generated using pymatgen
data_HfZrTaTiMo
_symmetry_space_group_name_H-M   'P 1'
_cell_length_a   15.92808735
_cell_length_b   15.92059032
_cell_length_c   15.19060910
_cell_angle_alpha   89.97927727
_cell_angle_beta   90.01237174
_cell_angle_gamma   89.97329676
_symmetry_Int_Tables_number   1
_chemical_formula_structural   HfZrTaTiMo
_chemical_formula_sum   'Hf40 Zr40 Ta40 Ti40 Mo40'
_cell_volume   3852.10306353
_cell_formula_units_Z   40
loop_
 _symmetry_equiv_pos_site_id
 _symmetry_equiv_pos_as_xyz
  1  'x, y, z'
loop_
 _atom_site_type_symbol
 _atom_site_label
 _atom_site_symmetry_multiplicity
 _atom_site_fract_x
 _atom_site_fract_y
 _atom_site_fract_z
 _atom_site_occupancy
  Hf  Hf0  1  0.59890542  0.19375671  0.75546294  1
  Hf  Hf1  1  0.21660441  -0.00298324  0.26046513  1
  Hf  Hf2  1  0.30616646  0.91082861  0.88194366  1
  Hf  Hf3  1  0.39601892  0.40317070  0.49952990  1
  Hf  Hf4  1  0.88409828  0.49360882  0.38134454  1
  Hf  Hf5  1  0.39499005  0.59809259  0.49214914  1
  Hf  Hf6  1  0.80425774  -0.02011076  0.01300875  1
  Hf  Hf7  1  0.69450284  0.50087595  0.62246141  1
  Hf  Hf8  1  0.60986034  0.79113977  0.00592533  1
  Hf  Hf9  1  0.39823279  0.79306975  0.00608615  1
  Hf  Hf10  1  0.88225629  0.69077870  0.37014129  1
  Hf  Hf11  1  0.49706242  0.09193426  0.61383532  1
  Hf  Hf12  1  0.89282107  0.50174144  0.63618942  1
  Hf  Hf13  1  0.11359921  0.30897296  0.12867237  1
  Hf  Hf14  1  -0.01015048  0.60613795  0.50741381  1
  Hf  Hf15  1  -0.01417537  0.01732894  0.01795131  1
  Hf  Hf16  1  -0.00144961  0.60279524  0.76386244  1
  Hf  Hf17  1  0.60732756  0.39346874  0.75227098  1
  Hf  Hf18  1  0.60576500  -0.00354785  0.24438155  1
  Hf  Hf19  1  0.09701194  0.50679199  0.37417586  1
  Hf  Hf20  1  -0.01489881  0.59577580  0.23570634  1
  Hf  Hf21  1  0.30823227  0.30336712  0.10793014  1
  Hf  Hf22  1  0.90225789  0.89822587  0.37715672  1
  Hf  Hf23  1  0.39936350  0.19746619  0.47859684  1
  Hf  Hf24  1  0.60576237  0.19087255  -0.00827956  1
  Hf  Hf25  1  0.69954760  0.50312641  0.87398007  1
  Hf  Hf26  1  0.08984751  0.91280452  0.87316751  1
  Hf  Hf27  1  0.90917622  0.29029192  0.11081814  1
  Hf  Hf28  1  0.60251219  0.40506199  0.00089201  1
  Hf  Hf29  1  0.88052935  0.71980744  0.13458444  1
  Hf  Hf30  1  0.10000022  0.89999142  0.61786717  1
  Hf  Hf31  1  -0.00373994  0.40906637  0.23252271  1
  Hf  Hf32  1  0.50578289  0.30027753  0.62025268  1
  Hf  Hf33  1  0.09682749  0.70082422  0.62886799  1
  Hf  Hf34  1  -0.02474355  0.81309051  -0.01523848  1
  Hf  Hf35  1  0.10682497  0.10447056  0.61854882  1
  Hf  Hf36  1  0.09339780  0.10702428  0.86649499  1
  Hf  Hf37  1  0.40002739  0.79652576  0.25711050  1
  Hf  Hf38  1  0.08632719  0.90544272  0.14151884  1
  Hf  Hf39  1  0.32650053  0.10443840  0.11172470  1
  Zr  Zr40  1  0.18840453  0.60489722  0.23329012  1
  Zr  Zr41  1  0.00027371  0.39778870  0.50535734  1
  Zr  Zr42  1  0.19850984  0.80106675  0.00902092  1
  Zr  Zr43  1  0.49277230  0.49956046  0.11557568  1
  Zr  Zr44  1  0.90515234  0.29657904  0.87652200  1
  Zr  Zr45  1  0.41315495  0.80848528  0.74512966  1
  Zr  Zr46  1  0.80203378  0.20053616  0.25148360  1
  Zr  Zr47  1  0.79117695  0.20958244  0.73910003  1
  Zr  Zr48  1  0.20548825  0.20274088  0.75456134  1
  Zr  Zr49  1  0.19256376  0.80623646  0.75623205  1
  Zr  Zr50  1  0.90341182  0.09923315  0.85515632  1
  Zr  Zr51  1  0.59105106  0.59883539  0.25262634  1
  Zr  Zr52  1  0.49760015  0.90374635  0.12547629  1
  Zr  Zr53  1  0.70457712  0.29972576  0.11694798  1
  Zr  Zr54  1  0.58849471  0.19113849  0.25186495  1
  Zr  Zr55  1  0.80944866  0.20635429  0.50023281  1
  Zr  Zr56  1  0.30022346  0.90974574  0.61170530  1
  Zr  Zr57  1  0.29774631  0.69897875  0.62992827  1
  Zr  Zr58  1  0.70086987  0.09105373  0.62053696  1
  Zr  Zr59  1  0.10083196  0.10449116  0.37761957  1
  Zr  Zr60  1  0.50718356  0.69655133  0.62030392  1
  Zr  Zr61  1  0.28313117  0.69748310  0.37426950  1
  Zr  Zr62  1  0.19361830  0.40495030  0.76215813  1
  Zr  Zr63  1  0.10395786  0.89838860  0.38034340  1
  Zr  Zr64  1  0.08514103  0.70738399  0.11230451  1
  Zr  Zr65  1  0.81139119  -0.00478252  0.24367764  1
  Zr  Zr66  1  0.09651439  0.11949693  0.14808709  1
  Zr  Zr67  1  0.70422517  0.32035283  0.37020117  1
  Zr  Zr68  1  0.19632821  0.00647910  0.01191302  1
  Zr  Zr69  1  0.30008684  0.29883676  0.62719611  1
  Zr  Zr70  1  0.29782259  0.50061225  0.11749393  1
  Zr  Zr71  1  0.30179362  0.69941341  0.86982574  1
  Zr  Zr72  1  0.39628426  0.38793416  0.25844881  1
  Zr  Zr73  1  0.41047298  0.02290983  0.27172714  1
  Zr  Zr74  1  0.79108276  0.60694317  0.00564210  1
  Zr  Zr75  1  0.24264200  0.20644497  0.26632817  1
  Zr  Zr76  1  0.10738486  0.30801113  0.36432882  1
  Zr  Zr77  1  0.70250588  0.08582207  0.38745521  1
  Zr  Zr78  1  0.70889236  0.07586260  0.86611449  1
  Zr  Zr79  1  0.51983948  0.89115094  0.38436385  1
  Ta  Ta80  1  -0.00449953  0.00334860  0.50762439  1
  Ta  Ta81  1  0.50181566  0.08357732  0.87901700  1
  Ta  Ta82  1  0.50916568  0.89638652  0.88255919  1
  Ta  Ta83  1  0.80045471  0.78694121  0.51022794  1
  Ta  Ta84  1  0.60567981  0.20500240  0.49614680  1
  Ta  Ta85  1  0.68791536  0.70397916  0.37713719  1
  Ta  Ta86  1  -0.00307710  -0.00172246  0.72984213  1
  Ta  Ta87  1  0.79291806  0.80042717  0.74290771  1
  Ta  Ta88  1  0.50733877  0.49375483  0.37966108  1
  Ta  Ta89  1  0.40340690  0.79811227  0.49102146  1
  Ta  Ta90  1  0.69288197  0.70023566  0.86107435  1
  Ta  Ta91  1  0.71695476  0.30460870  0.88882274  1
  Ta  Ta92  1  0.71099905  0.87759028  0.14143583  1
  Ta  Ta93  1  0.90385917  0.30577544  0.64104905  1
  Ta  Ta94  1  0.49397741  0.28843837  0.11855746  1
  Ta  Ta95  1  0.89117598  0.49477963  0.87826780  1
  Ta  Ta96  1  0.70343834  0.09330615  0.11927179  1
  Ta  Ta97  1  0.30310926  0.50326347  0.87565220  1
  Ta  Ta98  1  0.19394498  0.59381749  0.50591892  1
  Ta  Ta99  1  0.00364491  0.40990783  -0.00070858  1
  Ta  Ta100  1  0.29864745  0.50325671  0.64016332  1
  Ta  Ta101  1  0.30364810  0.09871618  0.87823331  1
  Ta  Ta102  1  0.60925368  -0.01184120  0.00632203  1
  Ta  Ta103  1  0.40819709  0.20148078  -0.02149427  1
  Ta  Ta104  1  0.39630913  0.60078719  0.26238135  1
  Ta  Ta105  1  0.91231156  0.10008973  0.37271459  1
  Ta  Ta106  1  0.50594268  0.69080693  0.88128872  1
  Ta  Ta107  1  0.40786911  0.59143126  0.75698917  1
  Ta  Ta108  1  0.40368417  0.00378905  0.74956908  1
  Ta  Ta109  1  0.19517118  0.40476887  -0.01680555  1
  Ta  Ta110  1  -0.01511933  0.79973072  0.75509546  1
  Ta  Ta111  1  0.70512805  0.88674372  0.38291901  1
  Ta  Ta112  1  0.28696162  0.49177608  0.36703521  1
  Ta  Ta113  1  0.20185240  0.20512675  -0.01037830  1
  Ta  Ta114  1  0.40782434  0.40269267  0.75819766  1
  Ta  Ta115  1  0.19563429  0.59981358  -0.00318126  1
  Ta  Ta116  1  0.50838569  0.30462385  0.37796317  1
  Ta  Ta117  1  0.70239371  0.50895935  0.38060426  1
  Ta  Ta118  1  0.59398258  -0.01970699  0.73945901  1
  Ta  Ta119  1  0.40582561  0.19656822  0.76091642  1
  Ti  Ti120  1  0.88096579  0.91258221  0.85024315  1
  Ti  Ti121  1  0.00269921  0.79268727  0.26532483  1
  Ti  Ti122  1  0.30220788  0.09941364  0.61600281  1
  Ti  Ti123  1  0.49194014  0.69044396  0.11918745  1
  Ti  Ti124  1  -0.00120728  0.20635045  0.50397999  1
  Ti  Ti125  1  0.20298276  0.79883629  0.24555834  1
  Ti  Ti126  1  0.09991299  0.50012391  0.63054026  1
  Ti  Ti127  1  0.59313361  0.59552594  0.75242563  1
  Ti  Ti128  1  0.89768204  0.89393450  0.62305468  1
  Ti  Ti129  1  0.81290952  0.17805491  0.00150415  1
  Ti  Ti130  1  0.30401866  0.30182273  0.87389410  1
  Ti  Ti131  1  0.90384186  0.10368928  0.62645059  1
  Ti  Ti132  1  0.00259700  0.40490272  0.76230458  1
  Ti  Ti133  1  0.49948936  0.49831775  0.61894095  1
  Ti  Ti134  1  0.59816081  0.60139315  0.49281531  1
  Ti  Ti135  1  0.50693900  0.30126364  0.87511713  1
  Ti  Ti136  1  0.19971509  0.40466906  0.51141336  1
  Ti  Ti137  1  0.80204522  0.60791304  0.75480277  1
  Ti  Ti138  1  0.40041988  -0.00550828  0.48606472  1
  Ti  Ti139  1  0.80757104  -0.00720312  0.50637051  1
  Ti  Ti140  1  0.79288437  0.80114036  -0.02376074  1
  Ti  Ti141  1  0.09024694  0.29563310  0.88018953  1
  Ti  Ti142  1  0.69418755  0.69545013  0.14420169  1
  Ti  Ti143  1  0.20521543  0.00426515  0.74750602  1
  Ti  Ti144  1  0.30534272  0.90309001  0.12410731  1
  Ti  Ti145  1  0.60143709  0.79864834  0.74403155  1
  Ti  Ti146  1  -0.01013101  0.60366716  -0.00858171  1
  Ti  Ti147  1  0.79442803  0.39573319  0.51444117  1
  Ti  Ti148  1  0.20408129  0.20691347  0.49615629  1
  Ti  Ti149  1  0.19871555  0.79638247  0.49529570  1
  Ti  Ti150  1  0.70293749  0.69185430  0.62449792  1
  Ti  Ti151  1  0.19408835  0.59728678  0.76239101  1
  Ti  Ti152  1  0.69360653  0.89239895  0.61057804  1
  Ti  Ti153  1  0.60054931  0.40208575  0.23804153  1
  Ti  Ti154  1  0.90575320  0.30233759  0.36632405  1
  Ti  Ti155  1  0.09345257  0.70600913  0.88190629  1
  Ti  Ti156  1  0.40426544  0.40290225  -0.01959153  1
  Ti  Ti157  1  0.79905834  0.42079089  0.22486471  1
  Ti  Ti158  1  0.09575237  0.30196820  0.63207789  1
  Ti  Ti159  1  -0.00537975  0.79390290  0.50166122  1
  Mo  Mo160  1  0.90192636  0.10155536  0.14015769  1
  Mo  Mo161  1  0.51023484  0.09768173  0.39542917  1
  Mo  Mo162  1  0.89473091  0.70458631  0.63561564  1
  Mo  Mo163  1  0.79347598  0.79474882  0.27098932  1
  Mo  Mo164  1  0.59778733  0.60598745  0.00349412  1
  Mo  Mo165  1  0.50025021  0.50139600  0.87975321  1
  Mo  Mo166  1  0.59796826  0.79330449  0.24022008  1
  Mo  Mo167  1  0.80374292  0.40475597  0.00638451  1
  Mo  Mo168  1  0.60693387  0.79105734  0.51447103  1
  Mo  Mo169  1  0.80035413  0.40418061  0.74886318  1
  Mo  Mo170  1  -0.00610896  0.20720890  0.25808658  1
  Mo  Mo171  1  0.30241571  0.89547236  0.38565215  1
  Mo  Mo172  1  0.20178192  0.00105496  0.49722272  1
  Mo  Mo173  1  0.89614700  0.50441856  0.10251277  1
  Mo  Mo174  1  0.70089106  0.30302269  0.61620289  1
  Mo  Mo175  1  0.30428407  0.69966712  0.13234641  1
  Mo  Mo176  1  0.39791673  0.59960757  -0.01371389  1
  Mo  Mo177  1  0.80029718  -0.01193018  0.72185607  1
  Mo  Mo178  1  0.09025680  0.70022865  0.38720203  1
  Mo  Mo179  1  0.09540394  0.50429440  0.10353013  1
  Mo  Mo180  1  0.50760814  0.10313731  0.10259470  1
  Mo  Mo181  1  0.69659265  0.50488118  0.12635661  1
  Mo  Mo182  1  0.49913109  0.69463511  0.38454716  1
  Mo  Mo183  1  0.00260077  0.00162092  0.25538758  1
  Mo  Mo184  1  0.29854229  0.30983130  0.39231411  1
  Mo  Mo185  1  0.41339825  0.20269215  0.26321775  1
  Mo  Mo186  1  0.90370127  0.89226593  0.14279128  1
  Mo  Mo187  1  0.59991277  0.40439030  0.50122242  1
  Mo  Mo188  1  0.00968077  0.20384875  0.00340424  1
  Mo  Mo189  1  0.19961939  0.40769119  0.24384690  1
  Mo  Mo190  1  0.78907450  0.59416221  0.23931228  1
  Mo  Mo191  1  0.60343636  -0.00761512  0.50904747  1
  Mo  Mo192  1  0.88990308  0.70119668  0.86594227  1
  Mo  Mo193  1  0.00361031  0.20449254  0.73117849  1
  Mo  Mo194  1  0.78984002  0.60100572  0.51011861  1
  Mo  Mo195  1  0.09565915  0.50653166  0.88535036  1
  Mo  Mo196  1  0.69471203  0.89185029  0.86072359  1
  Mo  Mo197  1  0.40691319  -0.00222876  -0.00918963  1
  Mo  Mo198  1  0.50286419  0.90023225  0.61030388  1
  Mo  Mo199  1  0.29766151  0.09343862  0.39739789  1
