# generated using pymatgen
data_HfZrTaTiMo
_symmetry_space_group_name_H-M   'P 1'
_cell_length_a   15.92638160
_cell_length_b   15.93745015
_cell_length_c   15.21621268
_cell_angle_alpha   90.02571586
_cell_angle_beta   89.96633462
_cell_angle_gamma   89.99684217
_symmetry_Int_Tables_number   1
_chemical_formula_structural   HfZrTaTiMo
_chemical_formula_sum   'Hf40 Zr40 Ta40 Ti40 Mo40'
_cell_volume   3862.26800917
_cell_formula_units_Z   40
loop_
 _symmetry_equiv_pos_site_id
 _symmetry_equiv_pos_as_xyz
  1  'x, y, z'
loop_
 _atom_site_type_symbol
 _atom_site_label
 _atom_site_symmetry_multiplicity
 _atom_site_fract_x
 _atom_site_fract_y
 _atom_site_fract_z
 _atom_site_occupancy
  Hf  Hf0  1  0.19822282  0.59810492  -0.00201597  1
  Hf  Hf1  1  0.71032500  0.48523455  0.12266763  1
  Hf  Hf2  1  0.09224217  0.50933854  0.60490104  1
  Hf  Hf3  1  0.19533380  0.80885416  -0.00714226  1
  Hf  Hf4  1  0.29398156  0.69679091  0.62081692  1
  Hf  Hf5  1  0.10156577  0.30843050  0.62778655  1
  Hf  Hf6  1  0.89148231  0.90327073  0.13753128  1
  Hf  Hf7  1  0.00370965  -0.01340779  0.75645301  1
  Hf  Hf8  1  0.50577447  0.10630953  0.12209699  1
  Hf  Hf9  1  0.80674799  0.78649972  0.73702696  1
  Hf  Hf10  1  0.40773231  0.20240987  0.74421375  1
  Hf  Hf11  1  0.18955838  0.79884359  0.76135317  1
  Hf  Hf12  1  0.79798170  0.38088802  0.26044778  1
  Hf  Hf13  1  0.90500745  0.69876473  0.37909293  1
  Hf  Hf14  1  0.71631312  0.68837080  0.87225153  1
  Hf  Hf15  1  0.71440293  0.10271615  0.13418772  1
  Hf  Hf16  1  0.51337920  0.89902640  0.39090175  1
  Hf  Hf17  1  0.30378650  0.49390849  0.36518779  1
  Hf  Hf18  1  0.00940257  0.00604624  0.49643142  1
  Hf  Hf19  1  0.29683243  0.70957296  0.36442932  1
  Hf  Hf20  1  0.49980428  0.31467726  0.12145675  1
  Hf  Hf21  1  0.49458112  0.70659791  0.61282198  1
  Hf  Hf22  1  0.69497171  0.28635559  0.39746052  1
  Hf  Hf23  1  0.50420518  0.89937050  0.11300872  1
  Hf  Hf24  1  0.10880483  0.09615466  0.64023914  1
  Hf  Hf25  1  0.50652831  0.50416543  0.11804741  1
  Hf  Hf26  1  0.80121345  0.39350558  0.74994325  1
  Hf  Hf27  1  0.09435000  0.70883575  0.60855888  1
  Hf  Hf28  1  0.50453038  0.69904715  0.87997747  1
  Hf  Hf29  1  0.50226420  0.70185043  0.38627181  1
  Hf  Hf30  1  0.29868851  0.90399375  0.61974452  1
  Hf  Hf31  1  0.49493894  0.29762491  0.88568474  1
  Hf  Hf32  1  0.39041562  0.00322662  -0.00464061  1
  Hf  Hf33  1  0.81869159  0.37929498  0.51945061  1
  Hf  Hf34  1  0.37688221  0.20564563  0.01766266  1
  Hf  Hf35  1  0.10231807  0.69857021  0.13077758  1
  Hf  Hf36  1  0.00449547  0.80320337  0.24912612  1
  Hf  Hf37  1  0.82043933  0.59488222  0.00888618  1
  Hf  Hf38  1  0.69809897  0.49296335  0.62610616  1
  Hf  Hf39  1  0.79847126  0.18301955  0.52443253  1
  Zr  Zr40  1  0.39489188  0.80717606  0.75982726  1
  Zr  Zr41  1  0.19510705  0.19958141  0.49876413  1
  Zr  Zr42  1  0.79942907  0.59027728  0.50365385  1
  Zr  Zr43  1  0.71080176  0.90029963  0.12765738  1
  Zr  Zr44  1  0.28872642  0.49900022  0.62307567  1
  Zr  Zr45  1  -0.01259651  0.79070275  0.00678050  1
  Zr  Zr46  1  -0.01597323  0.20324608  0.51223118  1
  Zr  Zr47  1  0.11691430  0.91158016  0.35755691  1
  Zr  Zr48  1  0.61273494  0.00966121  0.50318336  1
  Zr  Zr49  1  0.08815245  0.30298889  0.37214305  1
  Zr  Zr50  1  0.40824360  0.00074933  0.76130735  1
  Zr  Zr51  1  0.38860231  0.20500828  0.49260425  1
  Zr  Zr52  1  0.50362531  0.31668637  0.37892566  1
  Zr  Zr53  1  0.27868572  0.09725770  0.36113910  1
  Zr  Zr54  1  0.20307679  -0.01618829  0.77116242  1
  Zr  Zr55  1  0.88522639  0.29928187  0.10465828  1
  Zr  Zr56  1  0.68987377  0.28074777  0.86928626  1
  Zr  Zr57  1  0.39313742  0.21301460  0.24988877  1
  Zr  Zr58  1  0.39719235  0.40372166  0.74663065  1
  Zr  Zr59  1  0.40117680  0.60680712  -0.00017254  1
  Zr  Zr60  1  0.09946670  0.29515267  0.88323596  1
  Zr  Zr61  1  0.60053812  0.80357560  0.74601553  1
  Zr  Zr62  1  0.60090894  0.00619435  0.75262279  1
  Zr  Zr63  1  0.80838295  0.00277448  0.50144295  1
  Zr  Zr64  1  0.19132196  0.01668175  0.01185078  1
  Zr  Zr65  1  0.60328146  0.59043015  0.26325284  1
  Zr  Zr66  1  0.39907336  0.00403654  0.25565589  1
  Zr  Zr67  1  0.08885130  0.29809880  0.10807600  1
  Zr  Zr68  1  0.30562675  0.49759953  0.13258604  1
  Zr  Zr69  1  0.40745823  0.80645218  0.25106028  1
  Zr  Zr70  1  0.61825042  0.00886365  -0.01362951  1
  Zr  Zr71  1  0.28954808  0.11847123  0.86694967  1
  Zr  Zr72  1  0.60505768  -0.00059264  0.25909277  1
  Zr  Zr73  1  0.91920426  0.88621418  0.61154137  1
  Zr  Zr74  1  0.91442105  0.48512046  0.38658265  1
  Zr  Zr75  1  0.00060146  -0.00572698  -0.00423782  1
  Zr  Zr76  1  0.70279904  0.70903893  0.37863267  1
  Zr  Zr77  1  0.00069618  0.40969655  0.75357120  1
  Zr  Zr78  1  0.70781498  0.69542585  0.13426023  1
  Zr  Zr79  1  0.60218358  0.60267168  0.73910013  1
  Ta  Ta80  1  0.51426433  0.11766816  0.37863816  1
  Ta  Ta81  1  0.40768329  0.59998700  0.25417970  1
  Ta  Ta82  1  0.89946961  0.29459261  0.87750679  1
  Ta  Ta83  1  0.60850034  0.79367027  0.00047921  1
  Ta  Ta84  1  0.39610138  0.60105972  0.75239943  1
  Ta  Ta85  1  0.50225820  0.30315255  0.61190901  1
  Ta  Ta86  1  0.29044599  0.89973585  0.13110583  1
  Ta  Ta87  1  0.39768541  0.00794389  0.49081144  1
  Ta  Ta88  1  0.79579991  0.18537598  -0.01478669  1
  Ta  Ta89  1  0.00304883  0.79378397  0.76051158  1
  Ta  Ta90  1  0.20372979  0.39982593  0.00108192  1
  Ta  Ta91  1  0.70253100  0.89565278  0.62137279  1
  Ta  Ta92  1  0.59230003  0.39597296  0.74896236  1
  Ta  Ta93  1  0.49506863  0.49874321  0.61445072  1
  Ta  Ta94  1  0.08275202  0.68686662  0.88459463  1
  Ta  Ta95  1  0.90902769  0.69014204  0.60693926  1
  Ta  Ta96  1  0.29116425  0.30446238  0.87071904  1
  Ta  Ta97  1  0.19530509  0.39613990  0.24346021  1
  Ta  Ta98  1  0.30027812  0.70423791  0.13656289  1
  Ta  Ta99  1  0.89940431  0.90211619  0.36859542  1
  Ta  Ta100  1  0.59925590  0.59715713  0.50331191  1
  Ta  Ta101  1  0.18874244  0.59806169  0.76322525  1
  Ta  Ta102  1  0.50429982  0.89653536  0.89304153  1
  Ta  Ta103  1  0.80311115  -0.00646643  0.74640803  1
  Ta  Ta104  1  0.60714762  0.40340453  -0.01268887  1
  Ta  Ta105  1  -0.00630627  0.19863763  0.74860620  1
  Ta  Ta106  1  0.39289445  0.39977926  0.49837466  1
  Ta  Ta107  1  0.29859265  0.50132676  0.87292010  1
  Ta  Ta108  1  0.89695318  0.09943215  0.13164326  1
  Ta  Ta109  1  0.60485845  0.80100342  0.24636656  1
  Ta  Ta110  1  -0.00477134  0.40020723  0.23787053  1
  Ta  Ta111  1  0.89792832  0.51794877  0.86180126  1
  Ta  Ta112  1  0.30156412  0.10056619  0.63119391  1
  Ta  Ta113  1  0.09443549  0.49967144  0.11949457  1
  Ta  Ta114  1  0.50324694  0.50071110  0.87586128  1
  Ta  Ta115  1  0.20088649  0.60146306  0.47994171  1
  Ta  Ta116  1  0.19596286  0.59682480  0.25267285  1
  Ta  Ta117  1  0.61234367  0.21468997  0.23950551  1
  Ta  Ta118  1  0.09882991  0.69856675  0.37157655  1
  Ta  Ta119  1  0.19722301  0.80825342  0.49075629  1
  Ti  Ti120  1  0.50001982  0.90522269  0.61249396  1
  Ti  Ti121  1  0.29815411  0.69911550  0.87385702  1
  Ti  Ti122  1  0.39441870  0.80124659  0.00098473  1
  Ti  Ti123  1  0.51478133  0.11675375  0.88661433  1
  Ti  Ti124  1  0.69067040  0.48113309  0.39312323  1
  Ti  Ti125  1  -0.01479352  0.20942462  0.24394657  1
  Ti  Ti126  1  0.39645928  0.59554386  0.49272087  1
  Ti  Ti127  1  0.20405748  0.39372135  0.48631671  1
  Ti  Ti128  1  0.29274712  0.29968261  0.63592335  1
  Ti  Ti129  1  0.68876972  0.28805949  0.63187975  1
  Ti  Ti130  1  -0.00431738  0.18224574  -0.00409654  1
  Ti  Ti131  1  0.09261809  0.10779663  0.35544112  1
  Ti  Ti132  1  0.39122213  0.81129123  0.49295343  1
  Ti  Ti133  1  0.79875152  0.40023629  -0.01980867  1
  Ti  Ti134  1  0.50388589  0.70077511  0.12327688  1
  Ti  Ti135  1  0.09845680  0.49686896  0.37763380  1
  Ti  Ti136  1  0.70208744  0.50166407  0.86285631  1
  Ti  Ti137  1  0.89747990  0.10672902  0.35788859  1
  Ti  Ti138  1  0.61221461  0.59680567  -0.00275054  1
  Ti  Ti139  1  -0.00273859  0.60648418  0.74476741  1
  Ti  Ti140  1  0.70608814  0.89285935  0.87186227  1
  Ti  Ti141  1  0.89746236  0.09892457  0.86397631  1
  Ti  Ti142  1  0.79914172  0.80326999  0.49968702  1
  Ti  Ti143  1  0.39307491  0.40451164  -0.00676320  1
  Ti  Ti144  1  0.79836627  0.18915851  0.74499283  1
  Ti  Ti145  1  0.50270340  0.10651508  0.61327115  1
  Ti  Ti146  1  0.20293497  0.00094836  0.50278069  1
  Ti  Ti147  1  0.19232617  0.40972576  0.76418087  1
  Ti  Ti148  1  0.80712415  -0.00015811  -0.01785630  1
  Ti  Ti149  1  0.80318569  0.58140327  0.26124535  1
  Ti  Ti150  1  0.00390549  0.00652002  0.24104356  1
  Ti  Ti151  1  0.10080910  0.10835065  0.86572456  1
  Ti  Ti152  1  0.89694657  0.88622908  0.87251422  1
  Ti  Ti153  1  -0.01181537  0.42291225  -0.00725143  1
  Ti  Ti154  1  0.00022932  0.58884050  0.24837427  1
  Ti  Ti155  1  0.89420405  0.69395688  0.14930824  1
  Ti  Ti156  1  0.70732332  0.10295683  0.36341762  1
  Ti  Ti157  1  0.19441938  0.20073940  0.22522676  1
  Ti  Ti158  1  0.60319018  0.40081695  0.25091844  1
  Ti  Ti159  1  0.80196130  0.79354128  -0.00391954  1
  Mo  Mo160  1  0.00207259  0.39738129  0.51159162  1
  Mo  Mo161  1  0.60352688  0.20348872  0.01679725  1
  Mo  Mo162  1  -0.00446381  0.59776613  0.01349221  1
  Mo  Mo163  1  0.30332392  0.89667653  0.89531036  1
  Mo  Mo164  1  0.29358484  0.10149509  0.13563336  1
  Mo  Mo165  1  0.20319164  0.80095471  0.24707358  1
  Mo  Mo166  1  0.19317797  0.00479551  0.22926243  1
  Mo  Mo167  1  0.70909725  0.89790751  0.37502096  1
  Mo  Mo168  1  0.89761519  0.28786941  0.37095112  1
  Mo  Mo169  1  0.60236118  0.40024267  0.51635514  1
  Mo  Mo170  1  0.70369369  0.70304007  0.60907887  1
  Mo  Mo171  1  0.10004153  0.90182585  0.13422846  1
  Mo  Mo172  1  0.80720766  0.00309266  0.26740057  1
  Mo  Mo173  1  0.60052400  0.19664049  0.51332076  1
  Mo  Mo174  1  0.09625252  0.50297263  0.89155782  1
  Mo  Mo175  1  0.70814799  0.09714348  0.86278866  1
  Mo  Mo176  1  0.10697288  0.89752631  0.61064568  1
  Mo  Mo177  1  0.19888593  0.20770165  0.73995402  1
  Mo  Mo178  1  0.30325985  0.90586753  0.38205293  1
  Mo  Mo179  1  0.80917114  0.59563696  0.72976266  1
  Mo  Mo180  1  0.90037766  0.69668209  0.86636178  1
  Mo  Mo181  1  0.19289282  0.20461322  0.01416557  1
  Mo  Mo182  1  0.89804820  0.29564521  0.65249536  1
  Mo  Mo183  1  0.50050334  0.50259421  0.39309929  1
  Mo  Mo184  1  0.80089036  0.20068086  0.25249531  1
  Mo  Mo185  1  0.29424613  0.30967705  0.13085539  1
  Mo  Mo186  1  0.90399162  0.09213160  0.64741235  1
  Mo  Mo187  1  0.59301825  0.19879794  0.73404872  1
  Mo  Mo188  1  0.69814580  0.29890648  0.10614102  1
  Mo  Mo189  1  0.90121039  0.49721539  0.13912375  1
  Mo  Mo190  1  0.00521377  0.60027526  0.48926899  1
  Mo  Mo191  1  0.90397396  0.50160147  0.63288508  1
  Mo  Mo192  1  0.08572215  0.10592574  0.13731230  1
  Mo  Mo193  1  0.60624081  0.80133836  0.51516413  1
  Mo  Mo194  1  0.70033048  0.09607842  0.64556381  1
  Mo  Mo195  1  0.00540475  0.80398657  0.47652025  1
  Mo  Mo196  1  0.40598612  0.40890349  0.25721935  1
  Mo  Mo197  1  0.09090250  0.89231259  0.88788256  1
  Mo  Mo198  1  0.29110677  0.30565641  0.35299663  1
  Mo  Mo199  1  0.80061561  0.80048860  0.26497547  1
