# generated using pymatgen
data_HfZrTaTiMo
_symmetry_space_group_name_H-M   'P 1'
_cell_length_a   15.93352591
_cell_length_b   15.93135653
_cell_length_c   15.20423111
_cell_angle_alpha   90.05156484
_cell_angle_beta   89.97844105
_cell_angle_gamma   90.09139558
_symmetry_Int_Tables_number   1
_chemical_formula_structural   HfZrTaTiMo
_chemical_formula_sum   'Hf40 Zr40 Ta40 Ti40 Mo40'
_cell_volume   3859.47605926
_cell_formula_units_Z   40
loop_
 _symmetry_equiv_pos_site_id
 _symmetry_equiv_pos_as_xyz
  1  'x, y, z'
loop_
 _atom_site_type_symbol
 _atom_site_label
 _atom_site_symmetry_multiplicity
 _atom_site_fract_x
 _atom_site_fract_y
 _atom_site_fract_z
 _atom_site_occupancy
  Hf  Hf0  1  0.70548341  0.10204738  0.61879191  1
  Hf  Hf1  1  0.30726383  0.90696323  0.11558248  1
  Hf  Hf2  1  0.30452721  0.90292570  0.64602437  1
  Hf  Hf3  1  0.51758840  0.49762387  0.14600753  1
  Hf  Hf4  1  0.30292782  0.70731922  0.62953029  1
  Hf  Hf5  1  0.00127879  0.59096745  -0.01283941  1
  Hf  Hf6  1  0.20288657  0.40319246  0.23606268  1
  Hf  Hf7  1  0.09492557  0.70441455  0.62660851  1
  Hf  Hf8  1  0.40836731  0.81134364  0.48695580  1
  Hf  Hf9  1  0.88267936  0.48259549  0.86855626  1
  Hf  Hf10  1  0.89683086  0.30559742  0.37967051  1
  Hf  Hf11  1  0.10268322  0.70337909  0.37139749  1
  Hf  Hf12  1  0.39098887  0.59995041  0.23564961  1
  Hf  Hf13  1  0.30415798  0.09500317  0.62015176  1
  Hf  Hf14  1  0.89097441  0.70282689  0.10374012  1
  Hf  Hf15  1  0.68571884  0.07943696  0.38816647  1
  Hf  Hf16  1  0.89773513  0.49829634  0.62724739  1
  Hf  Hf17  1  0.10770562  0.09328426  0.38212723  1
  Hf  Hf18  1  0.79924865  0.59027509  0.49461153  1
  Hf  Hf19  1  0.50247110  0.49789971  0.86118303  1
  Hf  Hf20  1  0.00357074  0.19479649  0.24373553  1
  Hf  Hf21  1  0.29763980  0.09746197  0.88783017  1
  Hf  Hf22  1  0.40850517  0.80019104  -0.00398561  1
  Hf  Hf23  1  -0.00310222  0.19897961  0.00421116  1
  Hf  Hf24  1  0.78778548  0.58105551  0.00320457  1
  Hf  Hf25  1  0.60431621  0.81155349  -0.01618565  1
  Hf  Hf26  1  0.50477436  0.49499545  0.63241678  1
  Hf  Hf27  1  0.30633728  0.10040202  0.12011831  1
  Hf  Hf28  1  0.89271905  0.29186712  0.60756548  1
  Hf  Hf29  1  0.40969001  0.40361405  0.01342255  1
  Hf  Hf30  1  -0.00898183  0.39500201  0.00212048  1
  Hf  Hf31  1  0.40047041  0.60107358  0.50380566  1
  Hf  Hf32  1  0.61158054  0.40947140  -0.00151047  1
  Hf  Hf33  1  0.69833639  0.30154378  0.61264520  1
  Hf  Hf34  1  0.00357025  0.80428229  0.23652495  1
  Hf  Hf35  1  0.29561012  0.70363995  0.36988318  1
  Hf  Hf36  1  0.59125900  0.60137412  -0.00762369  1
  Hf  Hf37  1  0.19847173  0.80707644  0.50540044  1
  Hf  Hf38  1  0.40182231  0.60627104  0.74627586  1
  Hf  Hf39  1  0.80182526  0.80061427  0.77139110  1
  Zr  Zr40  1  0.00025203  0.79816858  -0.01671519  1
  Zr  Zr41  1  0.70337621  0.70728984  0.62605635  1
  Zr  Zr42  1  0.79374872  0.19346533  0.25898964  1
  Zr  Zr43  1  0.59696857  0.59978788  0.49891117  1
  Zr  Zr44  1  -0.00574168  0.60214327  0.77166478  1
  Zr  Zr45  1  0.49735141  0.90499024  0.63763629  1
  Zr  Zr46  1  0.72293714  0.11712360  0.88012571  1
  Zr  Zr47  1  0.09445108  0.49807439  0.62869678  1
  Zr  Zr48  1  0.09951474  0.29646308  0.37352889  1
  Zr  Zr49  1  0.88338303  0.09944692  0.11031483  1
  Zr  Zr50  1  0.30236546  0.49465085  0.88433589  1
  Zr  Zr51  1  0.80530085  0.80139202  0.25476594  1
  Zr  Zr52  1  0.60197676  0.81561178  0.25566879  1
  Zr  Zr53  1  0.59928971  0.01016023  0.76772448  1
  Zr  Zr54  1  0.00050251  0.79470701  0.76882086  1
  Zr  Zr55  1  -0.00285711  -0.00363900  0.23287217  1
  Zr  Zr56  1  0.20123827  0.40110126  0.50336737  1
  Zr  Zr57  1  0.29586701  0.91373872  0.35828289  1
  Zr  Zr58  1  0.89911874  0.09207650  0.39083363  1
  Zr  Zr59  1  0.30024802  0.50207812  0.37387778  1
  Zr  Zr60  1  0.50367934  0.70469880  0.12948688  1
  Zr  Zr61  1  -0.01187138  0.18251232  0.75687924  1
  Zr  Zr62  1  0.60622253  0.21097515  0.00505498  1
  Zr  Zr63  1  0.40457553  0.18874815  0.75362477  1
  Zr  Zr64  1  0.19472584  0.59663756  0.76581444  1
  Zr  Zr65  1  0.79319580  -0.03215318  0.50103842  1
  Zr  Zr66  1  0.59224986  0.19036321  0.26157379  1
  Zr  Zr67  1  0.70758010  0.31346585  0.86228925  1
  Zr  Zr68  1  -0.00209942  0.60175571  0.23709965  1
  Zr  Zr69  1  0.30120143  0.29378113  0.88699370  1
  Zr  Zr70  1  0.40577997  0.81602056  0.24747743  1
  Zr  Zr71  1  0.10604333  0.29503327  0.87749711  1
  Zr  Zr72  1  0.29992554  0.09562207  0.37024881  1
  Zr  Zr73  1  0.09441879  0.50141539  0.36394307  1
  Zr  Zr74  1  0.09450468  0.29265005  0.62293432  1
  Zr  Zr75  1  0.29763117  0.29225795  0.37161088  1
  Zr  Zr76  1  0.79977923  0.59622259  0.24189602  1
  Zr  Zr77  1  0.90657297  0.90177502  0.63658289  1
  Zr  Zr78  1  0.61178092  0.81819543  0.48892150  1
  Zr  Zr79  1  0.50000240  0.30200206  0.62390222  1
  Ta  Ta80  1  0.19632475  0.80135630  0.22405057  1
  Ta  Ta81  1  0.69656168  0.70293823  0.11805649  1
  Ta  Ta82  1  0.59619981  0.00826872  -0.00319682  1
  Ta  Ta83  1  0.50106035  0.29966172  0.14137692  1
  Ta  Ta84  1  0.19866109  0.19487731  0.73953433  1
  Ta  Ta85  1  0.79675972  0.39427838  0.02111992  1
  Ta  Ta86  1  0.50242200  0.69565945  0.36541243  1
  Ta  Ta87  1  0.10010534  0.90246202  0.37354060  1
  Ta  Ta88  1  0.90212168  0.09445899  0.60958236  1
  Ta  Ta89  1  0.20196898  0.60631231  0.22197938  1
  Ta  Ta90  1  0.69425800  0.31290036  0.15041922  1
  Ta  Ta91  1  0.19961461  0.60223101  0.50837693  1
  Ta  Ta92  1  0.50235987  0.09643691  0.61056991  1
  Ta  Ta93  1  0.29865915  0.29546933  0.61955616  1
  Ta  Ta94  1  0.10709234  0.90930419  0.87623915  1
  Ta  Ta95  1  0.90402731  0.69945457  0.38622386  1
  Ta  Ta96  1  0.20145967  0.79647425  0.77116533  1
  Ta  Ta97  1  0.50301795  0.30305724  0.86704250  1
  Ta  Ta98  1  -0.00069164  0.80789874  0.49941390  1
  Ta  Ta99  1  0.30398642  0.29389616  0.12273221  1
  Ta  Ta100  1  0.70383816  0.69578116  0.88115968  1
  Ta  Ta101  1  0.29936578  0.90661133  0.87819785  1
  Ta  Ta102  1  0.00123359  0.00175451  -0.00437594  1
  Ta  Ta103  1  0.89926388  0.70147730  0.61270795  1
  Ta  Ta104  1  0.19611193  -0.00580029  0.51239797  1
  Ta  Ta105  1  0.69797751  0.49486965  0.63512881  1
  Ta  Ta106  1  0.69803120  0.49261001  0.36113553  1
  Ta  Ta107  1  0.59429011  0.20158557  0.48846207  1
  Ta  Ta108  1  0.70209167  0.69824203  0.37399874  1
  Ta  Ta109  1  0.70102862  0.90225320  0.11653561  1
  Ta  Ta110  1  0.59802319  0.80024180  0.77174276  1
  Ta  Ta111  1  0.79119507  -0.00809368  0.24766140  1
  Ta  Ta112  1  0.20144158  0.79994754  -0.00221548  1
  Ta  Ta113  1  0.09726035  0.49540693  0.11912820  1
  Ta  Ta114  1  0.30789713  0.69671918  0.88994848  1
  Ta  Ta115  1  0.60138301  0.20181345  0.75157889  1
  Ta  Ta116  1  0.20279334  0.59712882  0.00614346  1
  Ta  Ta117  1  0.20091797  0.39506926  0.74998363  1
  Ta  Ta118  1  0.40135967  0.19900163  0.49478881  1
  Ta  Ta119  1  0.89077434  0.89964831  0.10497638  1
  Ti  Ti120  1  0.89533882  0.30523322  0.14278164  1
  Ti  Ti121  1  -0.00412470  0.40732433  0.49718989  1
  Ti  Ti122  1  0.10334848  0.10018617  0.88127111  1
  Ti  Ti123  1  0.19576692  0.00574875  0.75256965  1
  Ti  Ti124  1  0.00209091  0.39365050  0.76234487  1
  Ti  Ti125  1  0.79842954  0.60338672  0.75335503  1
  Ti  Ti126  1  0.18369364  -0.00308226  0.22742204  1
  Ti  Ti127  1  0.10193746  0.29759854  0.12316698  1
  Ti  Ti128  1  0.10046666  0.70057112  0.10957653  1
  Ti  Ti129  1  0.80091799  0.39268073  0.73603416  1
  Ti  Ti130  1  0.88342765  0.28062724  0.87519599  1
  Ti  Ti131  1  0.70748968  0.30503699  0.38204396  1
  Ti  Ti132  1  0.00597068  0.19171376  0.49928913  1
  Ti  Ti133  1  0.90553200  0.89702447  0.37668422  1
  Ti  Ti134  1  0.40514470  0.79846771  0.77100669  1
  Ti  Ti135  1  0.89830549  0.91368020  0.87930748  1
  Ti  Ti136  1  0.19889307  0.39942600  0.00808418  1
  Ti  Ti137  1  0.19678985  0.19354901  0.23263581  1
  Ti  Ti138  1  0.69724231  0.10098658  0.12095712  1
  Ti  Ti139  1  0.81369677  0.01342038  0.75731967  1
  Ti  Ti140  1  0.60027033  0.40392114  0.48610880  1
  Ti  Ti141  1  0.39255124  0.39405165  0.74807464  1
  Ti  Ti142  1  0.09738316  0.90388451  0.64238149  1
  Ti  Ti143  1  0.60455893  0.60795658  0.75475547  1
  Ti  Ti144  1  0.58833301  0.00135684  0.23446443  1
  Ti  Ti145  1  0.89729997  0.49057778  0.36514035  1
  Ti  Ti146  1  0.49613380  0.30368791  0.37127130  1
  Ti  Ti147  1  0.40233333  0.40011069  0.49705374  1
  Ti  Ti148  1  0.50191531  0.50055359  0.36402521  1
  Ti  Ti149  1  0.19132112  0.00229701  0.00905462  1
  Ti  Ti150  1  0.29993412  0.49525807  0.62682261  1
  Ti  Ti151  1  0.39720260  0.39717059  0.24580709  1
  Ti  Ti152  1  0.40746241  0.18966469  0.25091986  1
  Ti  Ti153  1  0.00208000  0.59928977  0.49574156  1
  Ti  Ti154  1  0.49074789  0.91685849  0.87670619  1
  Ti  Ti155  1  0.09224371  0.08788385  0.62355851  1
  Ti  Ti156  1  0.69827072  0.90204762  0.64852524  1
  Ti  Ti157  1  0.50482973  0.71120611  0.62915332  1
  Ti  Ti158  1  0.78994001  -0.00606364  -0.00862831  1
  Ti  Ti159  1  0.41339968  0.19998005  0.00321596  1
  Mo  Mo160  1  0.30244319  0.49572780  0.11485101  1
  Mo  Mo161  1  0.09891026  0.89916787  0.10381705  1
  Mo  Mo162  1  0.50186348  0.10552360  0.11231053  1
  Mo  Mo163  1  0.19874184  0.19107746  0.51962052  1
  Mo  Mo164  1  0.90164272  0.49146941  0.12744015  1
  Mo  Mo165  1  0.40554547  0.00412607  -0.00483159  1
  Mo  Mo166  1  0.49960948  0.69923697  0.86927153  1
  Mo  Mo167  1  0.80729626  0.79167432  0.48826384  1
  Mo  Mo168  1  0.70318962  0.90906629  0.87138456  1
  Mo  Mo169  1  0.39872829  0.59898182  0.01202812  1
  Mo  Mo170  1  0.60280669  0.60637756  0.26113573  1
  Mo  Mo171  1  0.79755473  0.21740121  0.02292805  1
  Mo  Mo172  1  0.59524425  0.39417282  0.27206724  1
  Mo  Mo173  1  0.69783598  0.49862327  0.14437647  1
  Mo  Mo174  1  0.80182797  0.19570945  0.73192018  1
  Mo  Mo175  1  0.79760949  0.19675275  0.49268780  1
  Mo  Mo176  1  -0.00159984  0.39949132  0.23377521  1
  Mo  Mo177  1  0.60195972  0.40030795  0.75098449  1
  Mo  Mo178  1  0.50507268  0.91189543  0.10609612  1
  Mo  Mo179  1  0.00528190  0.00150281  0.76976554  1
  Mo  Mo180  1  0.11134989  0.69830545  0.88804754  1
  Mo  Mo181  1  0.10221060  0.10073604  0.11505956  1
  Mo  Mo182  1  0.19793035  0.19989632  0.01621812  1
  Mo  Mo183  1  0.88746942  0.69103967  0.88719688  1
  Mo  Mo184  1  0.29930357  0.70168927  0.11035755  1
  Mo  Mo185  1  0.00894786  -0.01051726  0.50168189  1
  Mo  Mo186  1  0.49271254  0.09649792  0.39114787  1
  Mo  Mo187  1  0.80081672  0.39982031  0.24798759  1
  Mo  Mo188  1  0.79368294  0.40672757  0.49680901  1
  Mo  Mo189  1  0.59717639  -0.00327760  0.51487027  1
  Mo  Mo190  1  0.50626988  0.92986183  0.38226291  1
  Mo  Mo191  1  0.40000192  -0.00262889  0.49834476  1
  Mo  Mo192  1  0.50219704  0.11104252  0.88924872  1
  Mo  Mo193  1  0.89946846  0.09894401  0.88998168  1
  Mo  Mo194  1  0.70088239  0.50205075  0.85099481  1
  Mo  Mo195  1  0.70168327  0.90244941  0.35877211  1
  Mo  Mo196  1  0.42253353  0.01096962  0.23028337  1
  Mo  Mo197  1  0.10204393  0.48763295  0.88802121  1
  Mo  Mo198  1  0.39810164  0.00231153  0.76929112  1
  Mo  Mo199  1  0.79500418  0.80415733  -0.01223781  1
