# generated using pymatgen
data_HfZrTaTiMo
_symmetry_space_group_name_H-M   'P 1'
_cell_length_a   15.92890688
_cell_length_b   15.93325490
_cell_length_c   15.20549251
_cell_angle_alpha   90.04066802
_cell_angle_beta   89.88700815
_cell_angle_gamma   90.09683879
_symmetry_Int_Tables_number   1
_chemical_formula_structural   HfZrTaTiMo
_chemical_formula_sum   'Hf40 Zr40 Ta40 Ti40 Mo40'
_cell_volume   3859.12988937
_cell_formula_units_Z   40
loop_
 _symmetry_equiv_pos_site_id
 _symmetry_equiv_pos_as_xyz
  1  'x, y, z'
loop_
 _atom_site_type_symbol
 _atom_site_label
 _atom_site_symmetry_multiplicity
 _atom_site_fract_x
 _atom_site_fract_y
 _atom_site_fract_z
 _atom_site_occupancy
  Hf  Hf0  1  0.20655190  0.40409887  0.49197834  1
  Hf  Hf1  1  0.69484466  0.70151495  0.88298024  1
  Hf  Hf2  1  0.30573146  0.30040942  0.62985610  1
  Hf  Hf3  1  0.90376198  0.49600549  0.35934022  1
  Hf  Hf4  1  0.50093454  0.50226884  0.12850296  1
  Hf  Hf5  1  0.78991726  0.78623173  0.49948869  1
  Hf  Hf6  1  0.89790041  0.71366320  0.10944641  1
  Hf  Hf7  1  0.70962917  0.09605774  0.37989353  1
  Hf  Hf8  1  0.68390167  0.88517318  0.63250321  1
  Hf  Hf9  1  0.49433486  0.30250690  0.37120167  1
  Hf  Hf10  1  0.40089796  0.59985123  -0.00303534  1
  Hf  Hf11  1  0.89329802  0.49632277  0.89238538  1
  Hf  Hf12  1  0.40639859  0.01290647  -0.00264236  1
  Hf  Hf13  1  0.89860094  0.69641448  0.62841693  1
  Hf  Hf14  1  0.90075571  0.69888746  0.88593206  1
  Hf  Hf15  1  0.11179660  0.30080734  0.35070283  1
  Hf  Hf16  1  0.52363394  0.91401529  0.86271802  1
  Hf  Hf17  1  0.59084242  0.80253457  0.24086890  1
  Hf  Hf18  1  0.60302318  0.40548481  0.48995070  1
  Hf  Hf19  1  0.29808289  0.49870886  0.12606002  1
  Hf  Hf20  1  0.00677154  0.59751863  0.75273259  1
  Hf  Hf21  1  0.29553798  0.50161308  0.63564866  1
  Hf  Hf22  1  0.69949525  0.29831525  0.62809028  1
  Hf  Hf23  1  0.79691255  0.00071437  0.74942957  1
  Hf  Hf24  1  0.70762241  0.10588753  0.61767262  1
  Hf  Hf25  1  0.60113400  0.39313434  0.01033220  1
  Hf  Hf26  1  0.10383305  0.50016370  0.35679596  1
  Hf  Hf27  1  0.79255067  0.19879015  -0.01122058  1
  Hf  Hf28  1  0.20454231  0.19943554  0.00149850  1
  Hf  Hf29  1  0.09264907  0.10263717  0.61234305  1
  Hf  Hf30  1  0.59183216  0.19604416  0.25391201  1
  Hf  Hf31  1  0.18297602  0.39491601  0.75922618  1
  Hf  Hf32  1  0.29516537  0.50262766  0.87976324  1
  Hf  Hf33  1  0.49963372  0.29027737  0.87868167  1
  Hf  Hf34  1  0.50385615  0.70726703  0.87848665  1
  Hf  Hf35  1  0.59268770  -0.00009675  0.50927658  1
  Hf  Hf36  1  0.49665350  0.71152771  0.38196042  1
  Hf  Hf37  1  0.61414778  0.60691974  0.50995597  1
  Hf  Hf38  1  0.00026630  0.00373247  0.74582512  1
  Hf  Hf39  1  0.59123095  -0.00066506  0.25660508  1
  Zr  Zr40  1  0.19635010  0.19801134  0.75844455  1
  Zr  Zr41  1  0.11449335  0.50645621  0.12468320  1
  Zr  Zr42  1  0.39351203  0.81057107  0.23416241  1
  Zr  Zr43  1  0.29782167  0.70257544  0.63308289  1
  Zr  Zr44  1  0.90516945  0.48284187  0.62903634  1
  Zr  Zr45  1  0.01839554  0.17877865  0.24746693  1
  Zr  Zr46  1  0.26662638  0.70752055  0.10231121  1
  Zr  Zr47  1  0.69570417  0.29433185  0.86081720  1
  Zr  Zr48  1  0.19616785  0.01812050  0.27006198  1
  Zr  Zr49  1  0.09823736  0.88400320  0.11366446  1
  Zr  Zr50  1  0.71189097  0.90426959  0.13813626  1
  Zr  Zr51  1  0.20852187  0.20114667  0.48221102  1
  Zr  Zr52  1  0.10520058  0.89246348  0.61716610  1
  Zr  Zr53  1  0.49869656  0.49806096  0.62547784  1
  Zr  Zr54  1  0.08952788  0.30283727  0.62116703  1
  Zr  Zr55  1  0.89964510  0.90368830  0.11852809  1
  Zr  Zr56  1  -0.00326859  0.79332510  0.27060362  1
  Zr  Zr57  1  0.40558714  0.40038448  0.75909375  1
  Zr  Zr58  1  0.90110089  0.08859663  0.12384068  1
  Zr  Zr59  1  0.30586175  0.90695373  0.86627103  1
  Zr  Zr60  1  0.50679410  0.51178978  0.36120816  1
  Zr  Zr61  1  0.78680877  0.39977063  0.01048907  1
  Zr  Zr62  1  0.28116104  0.92136296  0.11212010  1
  Zr  Zr63  1  0.09080160  0.49126467  0.88782895  1
  Zr  Zr64  1  0.00195805  0.60089373  0.49373609  1
  Zr  Zr65  1  0.39447185  0.62111725  0.24172514  1
  Zr  Zr66  1  0.90068762  0.28867242  0.36269475  1
  Zr  Zr67  1  0.09245698  0.90935311  0.39696076  1
  Zr  Zr68  1  0.40668665  0.81281434  0.00460035  1
  Zr  Zr69  1  0.30172308  0.89254626  0.39136064  1
  Zr  Zr70  1  0.39570266  0.60254261  0.49936827  1
  Zr  Zr71  1  0.79426267  0.59309295  0.75389540  1
  Zr  Zr72  1  0.89270888  0.28475141  0.13088432  1
  Zr  Zr73  1  0.39871907  0.00898274  0.25398254  1
  Zr  Zr74  1  0.79648187  0.40139885  0.48746741  1
  Zr  Zr75  1  0.71320622  0.10193513  0.13794499  1
  Zr  Zr76  1  0.90321208  0.90266308  0.87488906  1
  Zr  Zr77  1  0.89504728  0.28569877  0.62106503  1
  Zr  Zr78  1  0.80522063  0.60832138  0.25195874  1
  Zr  Zr79  1  0.20447393  0.00363211  0.74588668  1
  Ta  Ta80  1  0.19469732  0.79605309  0.75374365  1
  Ta  Ta81  1  0.49893157  0.90032119  0.39120212  1
  Ta  Ta82  1  0.30010715  0.29974605  0.87644043  1
  Ta  Ta83  1  0.00353837  0.39841534  0.22887812  1
  Ta  Ta84  1  0.40559245  0.80792924  0.74439961  1
  Ta  Ta85  1  0.60484088  0.40004320  0.24445051  1
  Ta  Ta86  1  0.90713910  0.08497697  0.38592678  1
  Ta  Ta87  1  0.49123075  0.29623839  0.13199896  1
  Ta  Ta88  1  -0.00244426  0.20216067  0.76557971  1
  Ta  Ta89  1  0.79395264  0.39826376  0.24148431  1
  Ta  Ta90  1  0.59958677  0.59824508  0.75080219  1
  Ta  Ta91  1  0.79628167  0.59518359  0.48970370  1
  Ta  Ta92  1  0.19926008  0.60157410  0.49126160  1
  Ta  Ta93  1  0.11405538  0.08665640  0.11138594  1
  Ta  Ta94  1  0.68240146  0.08618509  0.87135313  1
  Ta  Ta95  1  0.69630412  0.89411650  0.37772172  1
  Ta  Ta96  1  0.50007596  0.29586237  0.61929602  1
  Ta  Ta97  1  0.51571068  0.70063271  0.10642953  1
  Ta  Ta98  1  0.79652700  0.79743492  0.75323436  1
  Ta  Ta99  1  0.59607551  0.20108916  0.49463998  1
  Ta  Ta100  1  0.40352061  0.19330101  0.75140079  1
  Ta  Ta101  1  -0.00925483  0.79478550  0.49838353  1
  Ta  Ta102  1  0.70200046  0.29553105  0.36476740  1
  Ta  Ta103  1  0.89901502  0.50395012  0.12225035  1
  Ta  Ta104  1  0.00713054  0.79416261  0.74887258  1
  Ta  Ta105  1  0.29834372  0.70409895  0.87119114  1
  Ta  Ta106  1  0.00312208  0.60259692  0.01330376  1
  Ta  Ta107  1  0.70233157  0.70310411  0.11662793  1
  Ta  Ta108  1  0.10062869  0.50122971  0.62401411  1
  Ta  Ta109  1  0.00603149  0.61077235  0.24009525  1
  Ta  Ta110  1  0.00560933  0.00295060  -0.00854087  1
  Ta  Ta111  1  0.51466426  0.71450803  0.63055286  1
  Ta  Ta112  1  0.78631973  0.81566342  -0.01366445  1
  Ta  Ta113  1  0.29977222  0.50021832  0.35794053  1
  Ta  Ta114  1  0.69054656  0.69495178  0.36066846  1
  Ta  Ta115  1  0.10329794  0.70226787  0.89266820  1
  Ta  Ta116  1  0.49727272  0.10428639  0.12005060  1
  Ta  Ta117  1  0.59894110  0.19595888  0.01105313  1
  Ta  Ta118  1  0.58658379  0.18173512  0.74019624  1
  Ta  Ta119  1  0.00676782  0.39761619  0.48670443  1
  Ti  Ti120  1  0.61341323  0.58718994  -0.00475522  1
  Ti  Ti121  1  0.19294575  0.79744258  0.26722250  1
  Ti  Ti122  1  0.10003691  0.09845187  0.88086704  1
  Ti  Ti123  1  0.90008850  0.09976201  0.88369005  1
  Ti  Ti124  1  0.60935474  -0.00496042  0.01213216  1
  Ti  Ti125  1  0.30685035  0.10448446  0.62146603  1
  Ti  Ti126  1  0.42109410  0.01453057  0.73846685  1
  Ti  Ti127  1  0.40036179  0.19929769  0.49008788  1
  Ti  Ti128  1  0.39771299  0.20377459  0.00526321  1
  Ti  Ti129  1  0.10349897  0.89897905  0.87880410  1
  Ti  Ti130  1  0.00413496  0.38821041  0.02035240  1
  Ti  Ti131  1  0.38852281  0.19205863  0.25939074  1
  Ti  Ti132  1  0.40438299  0.80639527  0.51934994  1
  Ti  Ti133  1  0.30357037  0.90425104  0.62827644  1
  Ti  Ti134  1  0.20813452  0.00736451  0.50130543  1
  Ti  Ti135  1  0.69916766  0.51155341  0.13748168  1
  Ti  Ti136  1  0.19186894  0.60600158  0.75433663  1
  Ti  Ti137  1  0.00249389  0.19857671  0.48428404  1
  Ti  Ti138  1  0.29330775  0.29595405  0.13925247  1
  Ti  Ti139  1  -0.00037109  -0.00965762  0.25631268  1
  Ti  Ti140  1  0.91113234  0.30540356  0.87785227  1
  Ti  Ti141  1  0.19548878  0.78255212  0.49829718  1
  Ti  Ti142  1  0.89895971  0.10336236  0.61045447  1
  Ti  Ti143  1  0.40623898  0.60622866  0.75500105  1
  Ti  Ti144  1  0.89973492  0.89576144  0.62624394  1
  Ti  Ti145  1  0.19785404  0.38788274  0.00377421  1
  Ti  Ti146  1  0.80469862  -0.01309790  0.50313111  1
  Ti  Ti147  1  0.50651310  0.49894392  0.87847600  1
  Ti  Ti148  1  0.00754995  0.20111582  0.00021300  1
  Ti  Ti149  1  0.30909505  0.10427192  0.87231459  1
  Ti  Ti150  1  0.39652050  0.39701070  0.24903179  1
  Ti  Ti151  1  0.39721001  0.39326979  0.00274223  1
  Ti  Ti152  1  0.80615145  0.80375282  0.26826414  1
  Ti  Ti153  1  0.60031734  0.40216902  0.75240646  1
  Ti  Ti154  1  0.40102731  0.00739426  0.50487163  1
  Ti  Ti155  1  0.39565249  0.40036016  0.49094584  1
  Ti  Ti156  1  0.70337855  0.49576704  0.63376071  1
  Ti  Ti157  1  0.80433607  0.19336864  0.76163113  1
  Ti  Ti158  1  0.19780571  0.62219451  0.26385387  1
  Ti  Ti159  1  0.80228705  0.39613401  0.75985086  1
  Mo  Mo160  1  0.59609691  0.00579491  0.73084133  1
  Mo  Mo161  1  0.89490766  0.69719774  0.38383976  1
  Mo  Mo162  1  0.09576859  0.70348302  0.11270367  1
  Mo  Mo163  1  0.59933625  0.79625197  0.75336378  1
  Mo  Mo164  1  0.70100759  0.50055401  0.35803426  1
  Mo  Mo165  1  0.30575194  0.10071848  0.38918041  1
  Mo  Mo166  1  0.60496338  0.81030188  0.01055805  1
  Mo  Mo167  1  0.69025812  0.49656697  0.86674680  1
  Mo  Mo168  1  0.20040268  0.59795568  -0.01506991  1
  Mo  Mo169  1  0.49650397  0.10119698  0.38940658  1
  Mo  Mo170  1  0.60169933  0.60645698  0.23721550  1
  Mo  Mo171  1  0.30298907  0.11098957  0.12134200  1
  Mo  Mo172  1  0.69998703  0.69303408  0.63713915  1
  Mo  Mo173  1  0.79654319  0.00595924  -0.02151039  1
  Mo  Mo174  1  0.10142453  0.69638742  0.62300622  1
  Mo  Mo175  1  0.20036595  0.80704672  -0.02536110  1
  Mo  Mo176  1  0.09726311  0.09759119  0.39110622  1
  Mo  Mo177  1  0.59771486  0.79755616  0.49070950  1
  Mo  Mo178  1  0.09214605  0.29550032  0.89129605  1
  Mo  Mo179  1  0.50619803  0.90738213  0.11375395  1
  Mo  Mo180  1  0.21135362  0.19411932  0.24315403  1
  Mo  Mo181  1  0.80258654  0.19255523  0.26549058  1
  Mo  Mo182  1  0.70012326  0.90187725  0.86191753  1
  Mo  Mo183  1  0.79606388  0.60152137  0.01021657  1
  Mo  Mo184  1  0.20813881  0.39829081  0.24274025  1
  Mo  Mo185  1  0.79965617  0.19500930  0.48692891  1
  Mo  Mo186  1  0.09998113  0.70074354  0.38395991  1
  Mo  Mo187  1  0.50387314  0.10496557  0.88895356  1
  Mo  Mo188  1  0.49161538  0.90290120  0.62674291  1
  Mo  Mo189  1  0.49186782  0.10949862  0.60848090  1
  Mo  Mo190  1  0.29646746  0.70337771  0.38514543  1
  Mo  Mo191  1  -0.00122490  0.80335857  -0.01491826  1
  Mo  Mo192  1  0.19930214  0.00829048  -0.01890960  1
  Mo  Mo193  1  0.89239428  0.89987161  0.38943261  1
  Mo  Mo194  1  0.81106347  -0.01097838  0.27541524  1
  Mo  Mo195  1  -0.00925337  0.39273697  0.75616217  1
  Mo  Mo196  1  -0.01039511  -0.00301138  0.51957493  1
  Mo  Mo197  1  0.10308392  0.29546388  0.12467392  1
  Mo  Mo198  1  0.69328650  0.29598614  0.14177981  1
  Mo  Mo199  1  0.30749246  0.30500932  0.35972748  1
