# generated using pymatgen
data_HfZrTaTiMo
_symmetry_space_group_name_H-M   'P 1'
_cell_length_a   15.92687364
_cell_length_b   15.92243666
_cell_length_c   15.19523502
_cell_angle_alpha   90.02899895
_cell_angle_beta   90.00486017
_cell_angle_gamma   89.87552004
_symmetry_Int_Tables_number   1
_chemical_formula_structural   HfZrTaTiMo
_chemical_formula_sum   'Hf40 Zr40 Ta40 Ti40 Mo40'
_cell_volume   3853.42050268
_cell_formula_units_Z   40
loop_
 _symmetry_equiv_pos_site_id
 _symmetry_equiv_pos_as_xyz
  1  'x, y, z'
loop_
 _atom_site_type_symbol
 _atom_site_label
 _atom_site_symmetry_multiplicity
 _atom_site_fract_x
 _atom_site_fract_y
 _atom_site_fract_z
 _atom_site_occupancy
  Hf  Hf0  1  -0.00392003  0.21637964  0.50983444  1
  Hf  Hf1  1  0.81949393  0.59282396  0.49782308  1
  Hf  Hf2  1  0.50005013  0.10325295  0.62650368  1
  Hf  Hf3  1  0.79587416  0.39896651  0.22611972  1
  Hf  Hf4  1  0.40703079  0.60223081  0.76160464  1
  Hf  Hf5  1  0.40402865  -0.00299658  -0.00540426  1
  Hf  Hf6  1  0.10160896  0.30568446  0.36974790  1
  Hf  Hf7  1  0.49602512  0.49952234  0.39706747  1
  Hf  Hf8  1  0.70260087  0.69385958  0.12572832  1
  Hf  Hf9  1  0.80418688  0.00369223  0.24613594  1
  Hf  Hf10  1  0.50638946  0.49473575  0.61957690  1
  Hf  Hf11  1  0.29512770  0.89598055  0.86477176  1
  Hf  Hf12  1  -0.00164801  0.19725356  0.24154764  1
  Hf  Hf13  1  0.50209890  0.30074536  0.63485563  1
  Hf  Hf14  1  0.50097597  0.70400896  0.62621206  1
  Hf  Hf15  1  0.69156702  0.90731263  0.86972924  1
  Hf  Hf16  1  0.90037534  0.31767894  0.36480047  1
  Hf  Hf17  1  0.70209033  0.70644130  0.63143354  1
  Hf  Hf18  1  0.59264348  0.81276905  0.01784153  1
  Hf  Hf19  1  0.79735879  0.81693944  0.24171447  1
  Hf  Hf20  1  0.28509550  0.92030198  0.11338052  1
  Hf  Hf21  1  0.39712961  0.59371323  0.25772369  1
  Hf  Hf22  1  0.39739445  0.80137226  0.00529770  1
  Hf  Hf23  1  0.10072960  0.10127581  0.38869922  1
  Hf  Hf24  1  0.18966086  -0.00371305  0.73524637  1
  Hf  Hf25  1  0.69419714  0.11077468  0.11665782  1
  Hf  Hf26  1  0.79410767  0.01880335  0.74626922  1
  Hf  Hf27  1  0.60504564  0.39616682  0.24300541  1
  Hf  Hf28  1  0.41372622  0.39547066  -0.00698210  1
  Hf  Hf29  1  0.58947577  0.79598745  0.25087061  1
  Hf  Hf30  1  0.20457464  0.19384279  0.24590801  1
  Hf  Hf31  1  -0.00468406  0.00549036  0.74658131  1
  Hf  Hf32  1  0.50094993  0.10141402  0.38048075  1
  Hf  Hf33  1  0.30222351  0.49695096  0.62633420  1
  Hf  Hf34  1  0.00249315  0.80187948  0.76366272  1
  Hf  Hf35  1  0.71018402  0.48383957  0.38787374  1
  Hf  Hf36  1  0.38745473  0.80467640  0.24081394  1
  Hf  Hf37  1  0.48732545  0.68009562  0.11300919  1
  Hf  Hf38  1  0.29285912  0.09954633  0.85901293  1
  Hf  Hf39  1  0.51181608  0.29146643  0.12491818  1
  Zr  Zr40  1  0.60518200  0.59511030  0.75970911  1
  Zr  Zr41  1  0.61286253  -0.01178209  0.25002635  1
  Zr  Zr42  1  0.90796353  0.29924550  0.87669971  1
  Zr  Zr43  1  0.19682092  0.79488483  0.50986210  1
  Zr  Zr44  1  0.40091621  0.19283658  -0.00453608  1
  Zr  Zr45  1  0.49231730  0.09436137  0.14343634  1
  Zr  Zr46  1  0.39738116  0.80515348  0.50276271  1
  Zr  Zr47  1  0.29657239  0.70255591  0.87489510  1
  Zr  Zr48  1  0.09510308  0.31313212  0.63709344  1
  Zr  Zr49  1  0.69603396  0.30767312  0.62199437  1
  Zr  Zr50  1  0.79828062  0.39781568  0.75926677  1
  Zr  Zr51  1  0.80358992  0.60044475  0.77088103  1
  Zr  Zr52  1  0.22171972  0.40304523  0.25922987  1
  Zr  Zr53  1  0.18376135  0.59270379  0.51311018  1
  Zr  Zr54  1  0.68816941  0.70515712  0.88407337  1
  Zr  Zr55  1  0.10964306  0.50755936  0.12499333  1
  Zr  Zr56  1  0.29410502  0.50272483  0.88115172  1
  Zr  Zr57  1  0.88881588  0.11370390  0.88554822  1
  Zr  Zr58  1  0.59706895  0.58350572  0.24499119  1
  Zr  Zr59  1  0.31044222  0.09089912  0.39325302  1
  Zr  Zr60  1  0.47948544  0.91280599  0.36942476  1
  Zr  Zr61  1  0.29883166  0.30411472  0.11521353  1
  Zr  Zr62  1  0.90745300  0.69668344  0.63689802  1
  Zr  Zr63  1  0.39286976  0.21083460  0.26158218  1
  Zr  Zr64  1  0.79235394  -0.00399731  0.00659155  1
  Zr  Zr65  1  0.08386011  0.50171877  0.35184228  1
  Zr  Zr66  1  0.30984954  0.50817984  0.10503476  1
  Zr  Zr67  1  0.00093319  0.61680566  -0.00046717  1
  Zr  Zr68  1  0.09881613  0.69214485  0.35277526  1
  Zr  Zr69  1  0.89623527  0.10469733  0.38315480  1
  Zr  Zr70  1  0.10347741  0.07542083  0.11097194  1
  Zr  Zr71  1  0.70725395  0.69454443  0.35886050  1
  Zr  Zr72  1  0.89174588  0.90075617  0.61938299  1
  Zr  Zr73  1  0.29722237  0.69343967  0.37831302  1
  Zr  Zr74  1  0.49799343  0.09314485  0.85118872  1
  Zr  Zr75  1  0.60285751  0.61362449  0.49196921  1
  Zr  Zr76  1  0.79615228  0.79595181  0.48785657  1
  Zr  Zr77  1  0.81179103  0.79585778  0.00057315  1
  Zr  Zr78  1  0.29836352  0.29363396  0.85951020  1
  Zr  Zr79  1  0.20219780  -0.00598445  0.26505139  1
  Ta  Ta80  1  -0.00222083  -0.00352653  0.50140662  1
  Ta  Ta81  1  -0.00412368  0.41747272  0.50279662  1
  Ta  Ta82  1  0.19442048  0.19736628  0.00034998  1
  Ta  Ta83  1  0.69434893  0.89780380  0.62424363  1
  Ta  Ta84  1  0.00005595  0.80969446  0.24129483  1
  Ta  Ta85  1  0.59924019  -0.00575120  0.50336498  1
  Ta  Ta86  1  0.18821057  0.80035557  0.01114614  1
  Ta  Ta87  1  0.90176112  0.89821747  0.38110124  1
  Ta  Ta88  1  0.61240486  0.39545213  -0.00098187  1
  Ta  Ta89  1  0.70424099  0.50040366  0.61609493  1
  Ta  Ta90  1  0.60283403  0.19981344  0.49715812  1
  Ta  Ta91  1  0.09887523  0.30702098  0.13067605  1
  Ta  Ta92  1  0.80192252  0.59364462  0.00079863  1
  Ta  Ta93  1  0.20426237  -0.00781628  0.51272318  1
  Ta  Ta94  1  0.50742234  0.49932008  0.88451518  1
  Ta  Ta95  1  0.61162140  0.20379457  0.26921680  1
  Ta  Ta96  1  0.19566571  0.40602944  0.75556918  1
  Ta  Ta97  1  0.50466327  0.30446191  0.38789268  1
  Ta  Ta98  1  0.70540726  0.09917725  0.38821690  1
  Ta  Ta99  1  0.90505599  0.10116402  0.11720409  1
  Ta  Ta100  1  0.00087337  -0.00667675  0.26103753  1
  Ta  Ta101  1  0.62294706  0.19222242  0.75417792  1
  Ta  Ta102  1  0.90961180  0.49342770  0.64653909  1
  Ta  Ta103  1  0.41199222  0.40442636  0.25375971  1
  Ta  Ta104  1  0.80587163  0.20465034  0.51507644  1
  Ta  Ta105  1  0.51001349  0.29532649  0.85875057  1
  Ta  Ta106  1  0.20748965  0.20514916  0.51173643  1
  Ta  Ta107  1  0.00900023  0.20355403  0.00878595  1
  Ta  Ta108  1  0.90735648  0.49736541  0.88592034  1
  Ta  Ta109  1  0.71370743  0.28484020  0.88846391  1
  Ta  Ta110  1  0.59028182  -0.00120884  0.00134872  1
  Ta  Ta111  1  0.09067325  0.89146087  0.61532737  1
  Ta  Ta112  1  -0.00162161  0.78674568  0.49415330  1
  Ta  Ta113  1  0.90813242  0.69108749  0.35334222  1
  Ta  Ta114  1  0.30203620  0.69578683  0.63314932  1
  Ta  Ta115  1  0.79541684  0.20472041  0.24070893  1
  Ta  Ta116  1  0.09788097  0.89397340  0.38676923  1
  Ta  Ta117  1  0.19280298  0.80296116  0.23651195  1
  Ta  Ta118  1  0.80146584  0.80652171  0.76300333  1
  Ta  Ta119  1  0.49799582  0.88525701  0.85253320  1
  Ti  Ti120  1  0.28553038  0.69019769  0.11708724  1
  Ti  Ti121  1  0.90739525  0.49530686  0.11372546  1
  Ti  Ti122  1  0.39235398  0.39043948  0.50154798  1
  Ti  Ti123  1  0.19634014  0.39613099  0.50317173  1
  Ti  Ti124  1  -0.01620814  0.19841810  0.73178444  1
  Ti  Ti125  1  0.19416327  0.79696637  0.73679646  1
  Ti  Ti126  1  0.19285402  0.39099963  -0.01265519  1
  Ti  Ti127  1  0.50419392  0.89313575  0.63605525  1
  Ti  Ti128  1  0.60356794  -0.00000335  0.73858075  1
  Ti  Ti129  1  0.09386097  0.09935072  0.61297874  1
  Ti  Ti130  1  0.19236689  0.60344540  0.74604633  1
  Ti  Ti131  1  0.10044926  0.90775765  0.88832148  1
  Ti  Ti132  1  0.00392005  0.60298761  0.76778430  1
  Ti  Ti133  1  0.40443660  0.40213202  0.75838106  1
  Ti  Ti134  1  0.70284942  0.09733602  0.60741619  1
  Ti  Ti135  1  0.09100830  0.50369493  0.64145802  1
  Ti  Ti136  1  0.80763791  0.58527818  0.23954634  1
  Ti  Ti137  1  0.00258371  0.80495233  0.00287469  1
  Ti  Ti138  1  0.10764493  0.70459898  0.87710650  1
  Ti  Ti139  1  0.09804684  0.29314472  0.86327302  1
  Ti  Ti140  1  -0.00027426  0.59916354  0.50399498  1
  Ti  Ti141  1  0.90160005  0.30004936  0.11307402  1
  Ti  Ti142  1  0.39160438  -0.00624994  0.73206561  1
  Ti  Ti143  1  0.19493240  0.19463245  0.73153091  1
  Ti  Ti144  1  0.91720480  0.91349072  0.11620033  1
  Ti  Ti145  1  0.00899170  0.39680328  -0.00175119  1
  Ti  Ti146  1  0.59639238  0.80748091  0.48068143  1
  Ti  Ti147  1  0.39208753  -0.00770013  0.52560730  1
  Ti  Ti148  1  0.30157090  0.30008932  0.63725615  1
  Ti  Ti149  1  0.61137435  0.40317673  0.76979405  1
  Ti  Ti150  1  0.10197247  0.50398932  0.88074706  1
  Ti  Ti151  1  0.70695779  0.29665141  0.38953116  1
  Ti  Ti152  1  0.81703773  0.39768355  0.51377537  1
  Ti  Ti153  1  0.60081361  0.58948582  0.00153601  1
  Ti  Ti154  1  0.09281145  0.10594267  0.87436423  1
  Ti  Ti155  1  0.90396406  0.70035457  0.13613701  1
  Ti  Ti156  1  0.39587337  0.20503030  0.51022592  1
  Ti  Ti157  1  0.29911013  0.49952517  0.39235811  1
  Ti  Ti158  1  0.59871701  0.19445603  -0.01615483  1
  Ti  Ti159  1  0.90195757  0.90677759  0.87899371  1
  Mo  Mo160  1  0.09833304  0.70666771  0.13229972  1
  Mo  Mo161  1  0.49042543  0.90203636  0.13678244  1
  Mo  Mo162  1  0.69402989  0.10272866  0.88397200  1
  Mo  Mo163  1  0.09644719  0.69547760  0.64083919  1
  Mo  Mo164  1  0.19843113  0.00427274  -0.02634416  1
  Mo  Mo165  1  -0.00794811  0.60162105  0.22845000  1
  Mo  Mo166  1  0.49483863  0.70063767  0.38128086  1
  Mo  Mo167  1  0.80610400  0.40027125  0.00416777  1
  Mo  Mo168  1  0.90149769  0.30914536  0.63600399  1
  Mo  Mo169  1  0.50346303  0.49207998  0.10832916  1
  Mo  Mo170  1  0.40099734  0.20304131  0.73835773  1
  Mo  Mo171  1  0.29486187  0.10280907  0.11003498  1
  Mo  Mo172  1  0.70533805  0.49855354  0.10906254  1
  Mo  Mo173  1  0.89999467  0.10374139  0.61568401  1
  Mo  Mo174  1  0.90076720  0.50261498  0.36433497  1
  Mo  Mo175  1  0.39287763  0.00140621  0.23965975  1
  Mo  Mo176  1  0.79545115  0.00105483  0.50443145  1
  Mo  Mo177  1  0.20565282  0.60400349  0.23808767  1
  Mo  Mo178  1  0.29715406  0.10182471  0.62373476  1
  Mo  Mo179  1  0.60463670  0.39701593  0.49897280  1
  Mo  Mo180  1  0.00717294  0.41092674  0.77262591  1
  Mo  Mo181  1  0.09205642  0.89920299  0.11244522  1
  Mo  Mo182  1  0.39474855  0.59939962  0.50489731  1
  Mo  Mo183  1  0.39960547  0.79936695  0.74315498  1
  Mo  Mo184  1  0.49992861  0.70059596  0.88683686  1
  Mo  Mo185  1  0.90371877  0.70387192  0.87563631  1
  Mo  Mo186  1  0.30325150  0.30374440  0.39467636  1
  Mo  Mo187  1  0.70547832  0.49208739  0.89491089  1
  Mo  Mo188  1  0.28911557  0.89743866  0.37343953  1
  Mo  Mo189  1  0.60104418  0.80326353  0.74750410  1
  Mo  Mo190  1  -0.00201044  0.00258828  -0.02052164  1
  Mo  Mo191  1  0.29625357  0.89463830  0.64104287  1
  Mo  Mo192  1  -0.00784456  0.40013351  0.22753795  1
  Mo  Mo193  1  0.80058771  0.19881777  0.72996396  1
  Mo  Mo194  1  0.19536501  0.61021153  -0.00191110  1
  Mo  Mo195  1  0.80316628  0.20415596  0.01905395  1
  Mo  Mo196  1  0.40492815  0.60225899  -0.01657163  1
  Mo  Mo197  1  0.70038300  0.29421330  0.11042625  1
  Mo  Mo198  1  0.69742240  0.90284958  0.11544709  1
  Mo  Mo199  1  0.70037354  0.90469398  0.39355457  1
