# generated using pymatgen
data_HfZrTaTiMo
_symmetry_space_group_name_H-M   'P 1'
_cell_length_a   15.92727160
_cell_length_b   15.93991375
_cell_length_c   15.21097788
_cell_angle_alpha   89.95226146
_cell_angle_beta   90.05328868
_cell_angle_gamma   89.97823507
_symmetry_Int_Tables_number   1
_chemical_formula_structural   HfZrTaTiMo
_chemical_formula_sum   'Hf40 Zr40 Ta40 Ti40 Mo40'
_cell_volume   3861.74966845
_cell_formula_units_Z   40
loop_
 _symmetry_equiv_pos_site_id
 _symmetry_equiv_pos_as_xyz
  1  'x, y, z'
loop_
 _atom_site_type_symbol
 _atom_site_label
 _atom_site_symmetry_multiplicity
 _atom_site_fract_x
 _atom_site_fract_y
 _atom_site_fract_z
 _atom_site_occupancy
  Hf  Hf0  1  0.30484641  0.10482629  0.38516007  1
  Hf  Hf1  1  0.50190487  0.50634777  0.63852577  1
  Hf  Hf2  1  0.40497207  0.00503720  0.26168783  1
  Hf  Hf3  1  0.79672927  -0.00709025  0.24091320  1
  Hf  Hf4  1  0.00348241  0.61002934  0.48917795  1
  Hf  Hf5  1  0.00022622  0.40563621  0.00079866  1
  Hf  Hf6  1  0.09867498  0.69477187  0.13242900  1
  Hf  Hf7  1  0.40410640  0.79202866  0.25429378  1
  Hf  Hf8  1  0.39071434  0.40731449  0.75339326  1
  Hf  Hf9  1  -0.00023023  0.60496015  0.74665440  1
  Hf  Hf10  1  0.90614642  0.10273616  0.12450393  1
  Hf  Hf11  1  0.30422997  0.88552291  0.62719164  1
  Hf  Hf12  1  0.90125667  0.89949885  0.88124344  1
  Hf  Hf13  1  0.50422432  0.70532457  0.86013663  1
  Hf  Hf14  1  0.30100377  0.29505933  0.38829630  1
  Hf  Hf15  1  0.30836918  0.09821277  0.62487727  1
  Hf  Hf16  1  0.39925389  0.80705856  -0.01905036  1
  Hf  Hf17  1  0.20694594  0.00117268  0.00010058  1
  Hf  Hf18  1  0.70597499  0.10680459  0.88227219  1
  Hf  Hf19  1  0.90429768  0.10428170  0.89552460  1
  Hf  Hf20  1  0.10283587  0.10578408  0.88138490  1
  Hf  Hf21  1  0.89521646  0.70039205  0.88043596  1
  Hf  Hf22  1  0.30528339  0.90380475  0.12665732  1
  Hf  Hf23  1  0.50328212  0.50652637  0.12876307  1
  Hf  Hf24  1  -0.00051799  0.79784819  0.48575973  1
  Hf  Hf25  1  -0.00351157  0.19662825  0.74281945  1
  Hf  Hf26  1  0.10533835  0.29995214  0.87219486  1
  Hf  Hf27  1  0.69733903  0.10183513  0.38446452  1
  Hf  Hf28  1  0.10166398  0.49706254  0.61366226  1
  Hf  Hf29  1  0.10444934  0.69613041  0.88988431  1
  Hf  Hf30  1  0.79354701  0.59982362  0.74031822  1
  Hf  Hf31  1  0.69014949  0.48217176  0.62359366  1
  Hf  Hf32  1  0.39861741  0.19351594  -0.01528380  1
  Hf  Hf33  1  0.29816051  0.89512506  0.37794555  1
  Hf  Hf34  1  0.80093147  0.00401448  0.74942228  1
  Hf  Hf35  1  0.59054990  0.19745651  0.24259596  1
  Hf  Hf36  1  0.49242994  0.09823815  0.11538011  1
  Hf  Hf37  1  0.79745285  0.38937354  0.49068443  1
  Hf  Hf38  1  0.60045771  0.20908312  0.51744452  1
  Hf  Hf39  1  0.68898006  0.50462180  0.38039427  1
  Zr  Zr40  1  0.89861544  0.29189862  0.88162757  1
  Zr  Zr41  1  0.50403259  0.30462820  0.86672000  1
  Zr  Zr42  1  0.49113449  0.31044143  0.11546444  1
  Zr  Zr43  1  0.00065770  0.39729725  0.48403486  1
  Zr  Zr44  1  0.41935918  0.40517158  0.49245726  1
  Zr  Zr45  1  0.20094020  0.39906805  0.24837806  1
  Zr  Zr46  1  0.58444014  0.61358815  0.50111710  1
  Zr  Zr47  1  0.19696548  0.60110772  0.74204690  1
  Zr  Zr48  1  0.39458328  0.40474053  0.26337425  1
  Zr  Zr49  1  0.60819377  0.42420068  -0.01170083  1
  Zr  Zr50  1  0.09525119  0.09166582  0.36702361  1
  Zr  Zr51  1  0.90434554  0.10039328  0.36625903  1
  Zr  Zr52  1  0.09553290  0.08880372  0.62509973  1
  Zr  Zr53  1  0.61104557  -0.00097871  0.24472270  1
  Zr  Zr54  1  0.41013992  -0.00757627  0.50355795  1
  Zr  Zr55  1  -0.01282270  0.58962187  0.00981676  1
  Zr  Zr56  1  0.30377979  0.67401381  0.37416520  1
  Zr  Zr57  1  0.41408580  0.78675455  0.49814522  1
  Zr  Zr58  1  0.79477066  -0.01068949  0.01431815  1
  Zr  Zr59  1  0.70909566  0.30775476  0.86596991  1
  Zr  Zr60  1  0.09971807  0.89267262  0.87504398  1
  Zr  Zr61  1  0.10027996  0.88742826  0.62844099  1
  Zr  Zr62  1  0.89977651  0.49538366  0.62333489  1
  Zr  Zr63  1  -0.00730006  0.80437590  0.02458349  1
  Zr  Zr64  1  0.19167788  0.20052845  0.50637831  1
  Zr  Zr65  1  0.91119532  0.30666912  0.14153615  1
  Zr  Zr66  1  0.29933681  0.29557335  0.11119551  1
  Zr  Zr67  1  0.80198081  0.80019719  0.74760019  1
  Zr  Zr68  1  0.80204967  0.61062444  0.49291577  1
  Zr  Zr69  1  -0.00760604  0.20427547  0.50625370  1
  Zr  Zr70  1  0.50382193  0.89891838  0.12049942  1
  Zr  Zr71  1  0.38185926  0.61606181  0.74716870  1
  Zr  Zr72  1  0.40326525  0.60504349  -0.00702381  1
  Zr  Zr73  1  0.78595821  0.59939091  0.01004214  1
  Zr  Zr74  1  0.70455954  0.89760312  0.62110859  1
  Zr  Zr75  1  0.28996244  0.30057054  0.88042988  1
  Zr  Zr76  1  0.21318224  0.58689301  0.23151566  1
  Zr  Zr77  1  0.20541261  -0.00851856  0.75588004  1
  Zr  Zr78  1  0.69451379  0.30786105  0.12668204  1
  Zr  Zr79  1  0.80507547  0.41361315  0.01443243  1
  Ta  Ta80  1  0.09395754  0.29279380  0.35593002  1
  Ta  Ta81  1  0.20202236  0.79829574  0.24601392  1
  Ta  Ta82  1  0.60162702  -0.00076986  0.50968178  1
  Ta  Ta83  1  0.52251384  0.89260079  0.37138962  1
  Ta  Ta84  1  0.68532138  0.71658951  0.36456543  1
  Ta  Ta85  1  0.69114984  0.51110015  0.15243214  1
  Ta  Ta86  1  0.10396389  0.30989682  0.63273562  1
  Ta  Ta87  1  0.30202879  0.30601621  0.61542900  1
  Ta  Ta88  1  0.20533395  0.19596324  0.24240442  1
  Ta  Ta89  1  0.29253347  0.49614537  0.60176381  1
  Ta  Ta90  1  0.19456174  -0.01270545  0.49819845  1
  Ta  Ta91  1  0.49897101  0.10594518  0.38712405  1
  Ta  Ta92  1  0.79836094  0.60851435  0.26265351  1
  Ta  Ta93  1  0.80200457  -0.00252853  0.49318056  1
  Ta  Ta94  1  0.69166323  0.69162397  0.87261068  1
  Ta  Ta95  1  0.79662153  0.20058178  0.51186611  1
  Ta  Ta96  1  0.29001049  0.49960682  0.89068872  1
  Ta  Ta97  1  0.89458157  0.29064979  0.35691991  1
  Ta  Ta98  1  0.79621118  0.40533643  0.25811376  1
  Ta  Ta99  1  0.50844432  0.69837868  0.13091280  1
  Ta  Ta100  1  0.88810485  0.49308037  0.85958084  1
  Ta  Ta101  1  0.60289138  0.19706169  0.00004542  1
  Ta  Ta102  1  0.50551699  0.10134369  0.86166775  1
  Ta  Ta103  1  0.79778799  0.19711000  0.72787831  1
  Ta  Ta104  1  0.09958244  0.89773626  0.36432558  1
  Ta  Ta105  1  0.59071650  0.40203357  0.26916575  1
  Ta  Ta106  1  0.69604468  0.29549326  0.36905907  1
  Ta  Ta107  1  0.78918077  0.19452229  0.23771389  1
  Ta  Ta108  1  0.51234643  0.51329062  0.85974138  1
  Ta  Ta109  1  0.19479854  0.78309674  0.49422145  1
  Ta  Ta110  1  0.90683005  0.90324731  0.61288997  1
  Ta  Ta111  1  0.89831955  0.08935711  0.61500859  1
  Ta  Ta112  1  -0.00414062  0.80139823  0.24920167  1
  Ta  Ta113  1  0.90507907  0.90605177  0.36820148  1
  Ta  Ta114  1  0.60478812  0.79620824  -0.00247465  1
  Ta  Ta115  1  0.60716859  0.19793013  0.73630577  1
  Ta  Ta116  1  0.30189330  0.10259931  0.86200698  1
  Ta  Ta117  1  0.60411411  0.00184704  0.74804394  1
  Ta  Ta118  1  0.10194889  0.69488201  0.35609924  1
  Ta  Ta119  1  0.80043220  0.80100997  0.48454911  1
  Ti  Ti120  1  0.00923280  -0.00938987  0.02057608  1
  Ti  Ti121  1  0.21726008  0.78293731  0.75810150  1
  Ti  Ti122  1  0.30357388  0.10132365  0.12637210  1
  Ti  Ti123  1  -0.00016434  0.40150515  0.75478867  1
  Ti  Ti124  1  0.59884846  0.80299352  0.50595729  1
  Ti  Ti125  1  0.07375263  0.49108802  0.14846322  1
  Ti  Ti126  1  0.79347218  0.80707634  0.25278496  1
  Ti  Ti127  1  0.30584677  0.69863333  0.11789565  1
  Ti  Ti128  1  0.19401644  0.58834868  0.01303491  1
  Ti  Ti129  1  0.00266230  0.79438438  0.74646111  1
  Ti  Ti130  1  0.20096514  -0.00286959  0.24794891  1
  Ti  Ti131  1  0.48449243  0.52752890  0.36356598  1
  Ti  Ti132  1  0.69767889  0.89250349  0.87864008  1
  Ti  Ti133  1  0.18525494  0.39981133  0.01473271  1
  Ti  Ti134  1  0.20195798  0.80330454  0.00920296  1
  Ti  Ti135  1  0.20362408  0.20413478  0.73790047  1
  Ti  Ti136  1  0.51060689  0.31443710  0.63390732  1
  Ti  Ti137  1  0.60045487  0.80537052  0.75090229  1
  Ti  Ti138  1  0.11415954  0.50285402  0.37739424  1
  Ti  Ti139  1  0.90169325  0.70996168  0.62120045  1
  Ti  Ti140  1  0.10563771  0.09961586  0.13236368  1
  Ti  Ti141  1  0.39725097  0.60701905  0.51658822  1
  Ti  Ti142  1  0.89521679  0.69398311  0.14486515  1
  Ti  Ti143  1  0.49612291  0.28456899  0.37797531  1
  Ti  Ti144  1  0.31561180  0.48681139  0.10182187  1
  Ti  Ti145  1  0.59787991  -0.00404522  -0.00996703  1
  Ti  Ti146  1  0.20179595  0.40530855  0.74750532  1
  Ti  Ti147  1  0.50125757  0.89415832  0.63915269  1
  Ti  Ti148  1  0.09972788  0.49825325  0.87444409  1
  Ti  Ti149  1  0.40262070  0.20501196  0.74252791  1
  Ti  Ti150  1  0.02068708  0.20880528  0.01907888  1
  Ti  Ti151  1  0.89698467  0.30664972  0.63310991  1
  Ti  Ti152  1  0.49989418  0.09761968  0.63346203  1
  Ti  Ti153  1  0.40702832  -0.01206438  0.76388298  1
  Ti  Ti154  1  0.40207782  -0.00226125  -0.02511538  1
  Ti  Ti155  1  0.69186456  0.70231170  0.13834066  1
  Ti  Ti156  1  0.79466890  0.79659433  0.01545123  1
  Ti  Ti157  1  -0.00448562  -0.00269942  0.75395847  1
  Ti  Ti158  1  0.90533462  0.50372190  0.36144477  1
  Ti  Ti159  1  0.69124007  0.70278385  0.62475376  1
  Mo  Mo160  1  0.70221464  0.90026073  0.38901990  1
  Mo  Mo161  1  0.29437362  0.70014299  0.61193813  1
  Mo  Mo162  1  0.10727803  0.90138508  0.14044300  1
  Mo  Mo163  1  0.19546471  0.60144446  0.50471485  1
  Mo  Mo164  1  0.89542213  0.70811225  0.36039070  1
  Mo  Mo165  1  0.79349560  0.19944519  0.02117154  1
  Mo  Mo166  1  0.39463223  0.80666188  0.75984990  1
  Mo  Mo167  1  0.19886966  0.19172294  0.01543217  1
  Mo  Mo168  1  0.51137807  0.90585910  0.86740573  1
  Mo  Mo169  1  -0.00072604  0.40266769  0.26913879  1
  Mo  Mo170  1  0.59497574  0.39836025  0.47924750  1
  Mo  Mo171  1  0.39765700  0.19415254  0.24993906  1
  Mo  Mo172  1  0.29955280  0.49959126  0.39424762  1
  Mo  Mo173  1  0.10075797  0.29793564  0.13793078  1
  Mo  Mo174  1  0.09787035  0.70354949  0.62613132  1
  Mo  Mo175  1  0.60382291  0.61075945  0.00381856  1
  Mo  Mo176  1  0.60161563  0.40308649  0.76051990  1
  Mo  Mo177  1  0.70004314  0.30208976  0.62989173  1
  Mo  Mo178  1  0.00485533  0.19781284  0.24060841  1
  Mo  Mo179  1  0.70078683  0.09679468  0.61724028  1
  Mo  Mo180  1  0.69986783  0.50811911  0.85502904  1
  Mo  Mo181  1  0.41000435  0.20207023  0.52586880  1
  Mo  Mo182  1  0.39736290  0.59867050  0.22749513  1
  Mo  Mo183  1  0.40211948  0.40880755  -0.02359630  1
  Mo  Mo184  1  -0.00045786  -0.00869684  0.49674265  1
  Mo  Mo185  1  -0.00107509  0.59983065  0.26163448  1
  Mo  Mo186  1  0.80338359  0.39517933  0.74278789  1
  Mo  Mo187  1  0.89362884  0.50666266  0.15455680  1
  Mo  Mo188  1  0.59659109  0.60580033  0.25924526  1
  Mo  Mo189  1  0.00542146  -0.00729201  0.23295545  1
  Mo  Mo190  1  0.28668745  0.69855710  0.89708488  1
  Mo  Mo191  1  0.89946058  0.89471469  0.13934176  1
  Mo  Mo192  1  0.69509585  0.10158167  0.10834017  1
  Mo  Mo193  1  0.60278223  0.60998349  0.73212642  1
  Mo  Mo194  1  0.49926738  0.71338337  0.64337299  1
  Mo  Mo195  1  0.60775314  0.80490237  0.23786332  1
  Mo  Mo196  1  0.30128402  0.89775794  0.87377940  1
  Mo  Mo197  1  0.19885439  0.39912982  0.48706630  1
  Mo  Mo198  1  0.50373740  0.70223434  0.35738256  1
  Mo  Mo199  1  0.69814695  0.88935807  0.11125422  1
