# generated using pymatgen
data_HfZrTaTiMo
_symmetry_space_group_name_H-M   'P 1'
_cell_length_a   15.92472056
_cell_length_b   15.92412366
_cell_length_c   15.19235130
_cell_angle_alpha   90.03171260
_cell_angle_beta   89.99250881
_cell_angle_gamma   89.95776352
_symmetry_Int_Tables_number   1
_chemical_formula_structural   HfZrTaTiMo
_chemical_formula_sum   'Hf40 Zr40 Ta40 Ti40 Mo40'
_cell_volume   3852.58445147
_cell_formula_units_Z   40
loop_
 _symmetry_equiv_pos_site_id
 _symmetry_equiv_pos_as_xyz
  1  'x, y, z'
loop_
 _atom_site_type_symbol
 _atom_site_label
 _atom_site_symmetry_multiplicity
 _atom_site_fract_x
 _atom_site_fract_y
 _atom_site_fract_z
 _atom_site_occupancy
  Hf  Hf0  1  -0.01286799  0.61834683  0.75980229  1
  Hf  Hf1  1  0.10066862  0.49034822  0.87258843  1
  Hf  Hf2  1  0.09095163  0.50030811  0.38867193  1
  Hf  Hf3  1  0.40498078  0.60765748  0.48751718  1
  Hf  Hf4  1  0.09716787  0.10051882  0.37983703  1
  Hf  Hf5  1  0.79373259  0.60013435  0.48188042  1
  Hf  Hf6  1  0.60677281  0.80417210  -0.00620310  1
  Hf  Hf7  1  0.19806061  0.79881964  0.48202671  1
  Hf  Hf8  1  0.30043739  0.89683816  0.12931717  1
  Hf  Hf9  1  0.48226888  0.90838389  0.61739377  1
  Hf  Hf10  1  0.49798606  0.89346036  0.12998933  1
  Hf  Hf11  1  0.19210299  0.80820867  0.76609927  1
  Hf  Hf12  1  0.49627669  0.49434168  0.87236396  1
  Hf  Hf13  1  0.89810313  0.50593343  0.61495071  1
  Hf  Hf14  1  0.40361416  0.40315052  0.49754838  1
  Hf  Hf15  1  0.08227716  0.71141486  0.62353467  1
  Hf  Hf16  1  0.50243039  0.29956745  0.12544463  1
  Hf  Hf17  1  0.19533146  0.00617897  0.00893303  1
  Hf  Hf18  1  0.60652852  0.19464291  0.25497823  1
  Hf  Hf19  1  0.40025752  0.59238503  0.24800802  1
  Hf  Hf20  1  0.59691992  0.80527505  0.76031982  1
  Hf  Hf21  1  0.39097253  0.80543490  0.77232067  1
  Hf  Hf22  1  0.51766939  0.29540426  0.60617764  1
  Hf  Hf23  1  0.29672898  0.71067591  0.62486518  1
  Hf  Hf24  1  0.39492067  0.39503965  0.24930559  1
  Hf  Hf25  1  0.50767936  0.50609344  0.63644723  1
  Hf  Hf26  1  0.29924312  0.70436378  0.12319278  1
  Hf  Hf27  1  0.60961855  0.60008080  -0.00454559  1
  Hf  Hf28  1  0.29547119  0.30359476  0.87107475  1
  Hf  Hf29  1  0.80111516  0.81908831  0.24678442  1
  Hf  Hf30  1  0.70524607  0.50331676  0.13854519  1
  Hf  Hf31  1  0.10542674  0.90511593  0.61028018  1
  Hf  Hf32  1  0.71093676  0.90836517  0.86974852  1
  Hf  Hf33  1  0.20460629  0.40359431  0.02232346  1
  Hf  Hf34  1  0.40434142  0.00323878  -0.00015237  1
  Hf  Hf35  1  0.89224090  0.69508725  0.12721832  1
  Hf  Hf36  1  0.61819078  -0.00516008  0.23522219  1
  Hf  Hf37  1  0.20590988  0.39462232  0.51950034  1
  Hf  Hf38  1  0.28921638  0.49358216  0.37553819  1
  Hf  Hf39  1  0.00136626  0.40928603  0.24644156  1
  Zr  Zr40  1  0.50452254  0.88940628  0.35884424  1
  Zr  Zr41  1  0.49810496  0.30831173  0.88599426  1
  Zr  Zr42  1  0.80196092  0.01238161  0.23902925  1
  Zr  Zr43  1  0.39482117  0.20279965  0.00768202  1
  Zr  Zr44  1  0.50683827  0.48991058  0.11430250  1
  Zr  Zr45  1  0.09340622  0.11145085  0.88162780  1
  Zr  Zr46  1  0.91479622  0.89055129  0.62573871  1
  Zr  Zr47  1  0.10038041  0.29632462  0.87535025  1
  Zr  Zr48  1  0.21826004  -0.00228564  0.48386709  1
  Zr  Zr49  1  0.59556313  0.00609974  0.75256775  1
  Zr  Zr50  1  0.81603279  0.78538558  0.74805415  1
  Zr  Zr51  1  0.49316980  0.69593918  0.64038680  1
  Zr  Zr52  1  0.90791610  0.29546853  0.61142620  1
  Zr  Zr53  1  -0.00169033  0.59488937  0.00813612  1
  Zr  Zr54  1  0.89974287  0.09957685  0.85778107  1
  Zr  Zr55  1  0.89805520  0.49479625  0.86925566  1
  Zr  Zr56  1  0.09947454  0.30224897  0.38846842  1
  Zr  Zr57  1  0.80558092  0.79002548  0.49705171  1
  Zr  Zr58  1  0.90180417  0.10457643  0.39675878  1
  Zr  Zr59  1  0.61372400  0.20994847  0.76297577  1
  Zr  Zr60  1  0.20348974  0.60265871  0.75881266  1
  Zr  Zr61  1  0.09419323  0.50954956  0.61993306  1
  Zr  Zr62  1  0.39998797  -0.00228578  0.77475366  1
  Zr  Zr63  1  0.50150923  0.09253286  0.37740021  1
  Zr  Zr64  1  0.50375356  0.69940640  0.13044673  1
  Zr  Zr65  1  0.70368104  0.31025206  0.14472793  1
  Zr  Zr66  1  0.70205374  0.49692057  0.86408494  1
  Zr  Zr67  1  -0.00865922  0.00716398  0.01218918  1
  Zr  Zr68  1  0.69182903  0.68576806  0.63136764  1
  Zr  Zr69  1  0.31295189  0.08568285  0.61834497  1
  Zr  Zr70  1  0.79948562  -0.00205229  0.02014044  1
  Zr  Zr71  1  0.69101559  0.10545567  0.61366183  1
  Zr  Zr72  1  0.59214519  0.78857155  0.49899165  1
  Zr  Zr73  1  0.80616205  0.20179073  0.00747422  1
  Zr  Zr74  1  0.17943215  0.59254666  0.23129069  1
  Zr  Zr75  1  0.40788073  0.19637812  0.75189539  1
  Zr  Zr76  1  0.90674063  0.29373101  0.86310183  1
  Zr  Zr77  1  0.19750177  0.00274011  0.75420563  1
  Zr  Zr78  1  -0.01161224  -0.00466035  0.24290803  1
  Zr  Zr79  1  0.29724885  0.70122503  0.35792793  1
  Ta  Ta80  1  0.19637049  0.00109232  0.24917606  1
  Ta  Ta81  1  0.50665024  0.30479126  0.37558410  1
  Ta  Ta82  1  0.69850166  0.89845554  0.62196186  1
  Ta  Ta83  1  0.29007393  0.90121615  0.89800446  1
  Ta  Ta84  1  0.19639110  0.20045803  0.72750257  1
  Ta  Ta85  1  0.19787399  0.60595259  0.50080530  1
  Ta  Ta86  1  0.40121161  0.79524336  -0.01204289  1
  Ta  Ta87  1  0.20017547  0.20469003  0.02283161  1
  Ta  Ta88  1  0.30031428  0.10282682  0.13910389  1
  Ta  Ta89  1  0.39021060  0.59540809  -0.00503997  1
  Ta  Ta90  1  0.39112990  0.80980480  0.48703706  1
  Ta  Ta91  1  0.39075931  0.20122920  0.47841141  1
  Ta  Ta92  1  0.80428100  0.40215885  0.00107448  1
  Ta  Ta93  1  0.61190714  0.19657113  0.00276199  1
  Ta  Ta94  1  0.18476567  0.79670179  0.24832483  1
  Ta  Ta95  1  0.70381666  0.09663157  0.39172891  1
  Ta  Ta96  1  0.70417880  0.90646602  0.39013159  1
  Ta  Ta97  1  0.59452774  0.59292122  0.47759856  1
  Ta  Ta98  1  0.09359245  0.90108753  0.36837254  1
  Ta  Ta99  1  0.09432888  0.70416913  0.88622351  1
  Ta  Ta100  1  0.20462298  0.39565625  0.73289754  1
  Ta  Ta101  1  0.70168221  0.29652595  0.38433072  1
  Ta  Ta102  1  -0.00548883  0.20578763  0.24949216  1
  Ta  Ta103  1  0.50176851  0.69238997  0.87474339  1
  Ta  Ta104  1  -0.00421249  0.39355186  0.01534796  1
  Ta  Ta105  1  0.69165479  0.70668368  0.35505704  1
  Ta  Ta106  1  0.19792692  0.59929111  0.00396426  1
  Ta  Ta107  1  0.09764561  0.10633180  0.13540588  1
  Ta  Ta108  1  0.69167156  0.49240394  0.61958570  1
  Ta  Ta109  1  0.79368328  0.38747171  0.73211107  1
  Ta  Ta110  1  0.00691806  0.39419017  0.73128276  1
  Ta  Ta111  1  0.90477322  0.30349246  0.38901851  1
  Ta  Ta112  1  0.60499097  0.00599812  0.00663665  1
  Ta  Ta113  1  0.20150810  0.20607917  0.25236155  1
  Ta  Ta114  1  -0.00484571  0.80320644  0.00023676  1
  Ta  Ta115  1  0.79708505  0.40319867  0.49589453  1
  Ta  Ta116  1  -0.00139354  0.79237183  0.25079471  1
  Ta  Ta117  1  0.90683602  0.89924700  0.86939001  1
  Ta  Ta118  1  0.09685087  0.89467896  0.12738706  1
  Ta  Ta119  1  0.70190371  0.69873616  0.13662687  1
  Ti  Ti120  1  0.80206797  0.79585424  -0.00044072  1
  Ti  Ti121  1  0.09499113  0.29840981  0.12987696  1
  Ti  Ti122  1  0.30064276  0.49067856  0.87851461  1
  Ti  Ti123  1  0.89081295  0.49889505  0.12855638  1
  Ti  Ti124  1  0.89999953  0.90738690  0.38594099  1
  Ti  Ti125  1  -0.00414238  0.60305466  0.25412188  1
  Ti  Ti126  1  0.39120088  0.60330742  0.76806715  1
  Ti  Ti127  1  0.70947034  0.10267462  0.87357070  1
  Ti  Ti128  1  0.79847842  0.20074002  0.73419632  1
  Ti  Ti129  1  0.39421979  0.20229320  0.25993939  1
  Ti  Ti130  1  0.79977451  0.59573764  0.74196626  1
  Ti  Ti131  1  0.30700629  0.51175704  0.62648829  1
  Ti  Ti132  1  0.28971896  0.11074464  0.87907475  1
  Ti  Ti133  1  0.60823405  0.39170281  0.74926285  1
  Ti  Ti134  1  0.80522006  0.00376558  0.73109194  1
  Ti  Ti135  1  0.50122018  0.10269107  0.12932360  1
  Ti  Ti136  1  0.61792123  0.38911616  -0.00830653  1
  Ti  Ti137  1  0.59432658  0.59569119  0.26131898  1
  Ti  Ti138  1  0.59846342  -0.00621158  0.50170335  1
  Ti  Ti139  1  0.80642504  0.59688375  0.26896919  1
  Ti  Ti140  1  0.69126274  0.49068698  0.36857786  1
  Ti  Ti141  1  0.39881108  0.00697078  0.24992544  1
  Ti  Ti142  1  0.50913646  0.10403065  0.88751136  1
  Ti  Ti143  1  0.00821721  -0.00159689  0.74400084  1
  Ti  Ti144  1  -0.01370686  0.61420212  0.48269606  1
  Ti  Ti145  1  0.31186028  0.28975084  0.62570619  1
  Ti  Ti146  1  0.80842096  0.40184055  0.27162418  1
  Ti  Ti147  1  0.30347199  0.90117564  0.35080235  1
  Ti  Ti148  1  0.20030582  0.39764410  0.23804762  1
  Ti  Ti149  1  0.71163609  0.69349794  0.87307908  1
  Ti  Ti150  1  0.49594409  0.10390426  0.60319042  1
  Ti  Ti151  1  -0.00266277  0.79345375  0.47442827  1
  Ti  Ti152  1  0.01165658  0.18891207  0.71974132  1
  Ti  Ti153  1  0.39688999  0.39928194  0.73831529  1
  Ti  Ti154  1  0.79733229  0.20134735  0.50870320  1
  Ti  Ti155  1  0.19156394  0.79679093  0.00191830  1
  Ti  Ti156  1  0.20562651  0.19746056  0.50276895  1
  Ti  Ti157  1  0.89757079  0.30344912  0.13502749  1
  Ti  Ti158  1  0.80571414  -0.00182361  0.51826353  1
  Ti  Ti159  1  0.80378522  0.19987161  0.25768532  1
  Mo  Mo160  1  0.71230008  0.29946226  0.87686622  1
  Mo  Mo161  1  0.60300428  0.59844242  0.76519694  1
  Mo  Mo162  1  0.09996383  0.09793839  0.60628950  1
  Mo  Mo163  1  -0.00188958  0.40357055  0.50597519  1
  Mo  Mo164  1  0.09122279  0.49758820  0.12272919  1
  Mo  Mo165  1  0.29470525  0.69788968  0.89145107  1
  Mo  Mo166  1  0.09554201  0.70468265  0.11075284  1
  Mo  Mo167  1  0.60074023  0.39970653  0.26628541  1
  Mo  Mo168  1  0.50199722  0.69782224  0.35910732  1
  Mo  Mo169  1  0.90176352  0.09428028  0.62487581  1
  Mo  Mo170  1  0.29971628  0.10164002  0.35665133  1
  Mo  Mo171  1  0.89636215  0.70086648  0.35503042  1
  Mo  Mo172  1  0.09376508  0.69815996  0.37780848  1
  Mo  Mo173  1  0.39304730  0.40631919  0.01332805  1
  Mo  Mo174  1  0.29806402  0.29725599  0.37144903  1
  Mo  Mo175  1  0.00669513  0.19549228  0.50873436  1
  Mo  Mo176  1  0.50045942  0.49637250  0.36993275  1
  Mo  Mo177  1  0.70279420  0.30531880  0.60502652  1
  Mo  Mo178  1  0.89179475  0.69956860  0.89690118  1
  Mo  Mo179  1  0.50156578  0.90224981  0.89238697  1
  Mo  Mo180  1  0.79619485  0.60140457  0.00690442  1
  Mo  Mo181  1  0.90204118  0.88982867  0.11838973  1
  Mo  Mo182  1  0.00250193  -0.00664571  0.49683100  1
  Mo  Mo183  1  0.39635138  0.79947811  0.25383025  1
  Mo  Mo184  1  0.90354356  0.69455545  0.61548244  1
  Mo  Mo185  1  0.40225029  -0.00453968  0.47890360  1
  Mo  Mo186  1  0.90189847  0.11975391  0.13486799  1
  Mo  Mo187  1  0.00085970  0.20828548  0.02496544  1
  Mo  Mo188  1  0.30022111  0.50041173  0.12274583  1
  Mo  Mo189  1  0.09439735  0.90228591  0.89126711  1
  Mo  Mo190  1  0.69728060  0.10902834  0.12520938  1
  Mo  Mo191  1  0.60883392  0.79984649  0.24425104  1
  Mo  Mo192  1  0.59830786  0.19903282  0.48259052  1
  Mo  Mo193  1  0.29813637  0.29693820  0.14110914  1
  Mo  Mo194  1  0.00661425  0.80696903  0.77309503  1
  Mo  Mo195  1  0.10760875  0.29632791  0.61751031  1
  Mo  Mo196  1  0.30397092  0.89236213  0.61941852  1
  Mo  Mo197  1  0.70053451  0.89312976  0.10860131  1
  Mo  Mo198  1  0.89813786  0.49729741  0.37866037  1
  Mo  Mo199  1  0.60301480  0.40633856  0.48697431  1
