# generated using pymatgen
data_HfZrTaTiMo
_symmetry_space_group_name_H-M   'P 1'
_cell_length_a   15.92690819
_cell_length_b   15.93938162
_cell_length_c   15.20437318
_cell_angle_alpha   89.94921838
_cell_angle_beta   90.08532100
_cell_angle_gamma   90.16686038
_symmetry_Int_Tables_number   1
_chemical_formula_structural   HfZrTaTiMo
_chemical_formula_sum   'Hf40 Zr40 Ta40 Ti40 Mo40'
_cell_volume   3859.83707536
_cell_formula_units_Z   40
loop_
 _symmetry_equiv_pos_site_id
 _symmetry_equiv_pos_as_xyz
  1  'x, y, z'
loop_
 _atom_site_type_symbol
 _atom_site_label
 _atom_site_symmetry_multiplicity
 _atom_site_fract_x
 _atom_site_fract_y
 _atom_site_fract_z
 _atom_site_occupancy
  Hf  Hf0  1  0.10476126  0.71212690  0.63602404  1
  Hf  Hf1  1  0.90278236  0.10570706  0.38246726  1
  Hf  Hf2  1  0.10720932  0.89726814  0.85074796  1
  Hf  Hf3  1  0.59559814  0.78579661  0.50303942  1
  Hf  Hf4  1  0.58710283  -0.01207399  0.24244769  1
  Hf  Hf5  1  0.11949240  0.70417534  0.14150491  1
  Hf  Hf6  1  0.59782720  0.59109563  0.49840996  1
  Hf  Hf7  1  0.91415943  0.69160858  0.12846196  1
  Hf  Hf8  1  0.60850586  0.20550897  0.48949222  1
  Hf  Hf9  1  0.80328470  0.21106536  -0.00487191  1
  Hf  Hf10  1  0.79862996  0.79591016  0.75292331  1
  Hf  Hf11  1  0.31384395  0.49902026  0.87999869  1
  Hf  Hf12  1  0.69827775  0.48956545  0.64023396  1
  Hf  Hf13  1  0.90184454  0.49887505  0.87480679  1
  Hf  Hf14  1  0.40311659  0.59504149  0.51029337  1
  Hf  Hf15  1  0.81102828  0.81171603  0.23930462  1
  Hf  Hf16  1  0.09673024  0.30539659  0.37808923  1
  Hf  Hf17  1  0.80363440  0.79246573  0.00370255  1
  Hf  Hf18  1  0.69558852  0.90351053  0.61303014  1
  Hf  Hf19  1  0.79751996  0.39533464  0.49858065  1
  Hf  Hf20  1  0.49518065  0.29610433  0.13711778  1
  Hf  Hf21  1  0.80943497  0.20565196  0.24150861  1
  Hf  Hf22  1  0.90742079  0.89579003  0.87738090  1
  Hf  Hf23  1  0.09761230  0.30738865  0.85463306  1
  Hf  Hf24  1  0.29039552  0.89014612  0.62635777  1
  Hf  Hf25  1  0.79398470  0.01280699  0.50909517  1
  Hf  Hf26  1  0.49215300  0.09550475  0.37535054  1
  Hf  Hf27  1  0.69547833  0.90384430  0.11226153  1
  Hf  Hf28  1  -0.01098494  0.40733575  0.24139373  1
  Hf  Hf29  1  -0.00858146  0.00154837  0.25432923  1
  Hf  Hf30  1  0.27937298  0.88243843  0.12977675  1
  Hf  Hf31  1  0.18734235  -0.01412905  0.26698114  1
  Hf  Hf32  1  0.10761275  0.50769348  0.63082605  1
  Hf  Hf33  1  0.29823362  0.69917925  0.36050382  1
  Hf  Hf34  1  0.59534739  0.40643339  0.00380683  1
  Hf  Hf35  1  0.80115938  0.39487807  0.24425887  1
  Hf  Hf36  1  0.89819154  0.11441482  0.62850202  1
  Hf  Hf37  1  0.79760000  0.18899002  0.77383739  1
  Hf  Hf38  1  0.51258309  0.09857162  0.61478118  1
  Hf  Hf39  1  0.01555607  0.81586850  0.25538699  1
  Zr  Zr40  1  0.00019186  0.01618839  0.74910833  1
  Zr  Zr41  1  0.60680110  0.01176286  0.75376150  1
  Zr  Zr42  1  0.10135847  0.29744943  0.12108340  1
  Zr  Zr43  1  0.02052080  0.80791140  0.01025126  1
  Zr  Zr44  1  0.79915625  0.59133722  0.49739299  1
  Zr  Zr45  1  0.31586832  0.30369168  0.36523659  1
  Zr  Zr46  1  0.90936471  0.70562466  0.37921538  1
  Zr  Zr47  1  0.00030816  0.60284971  0.50530296  1
  Zr  Zr48  1  0.69700484  0.10211197  0.12186524  1
  Zr  Zr49  1  0.20375073  0.20722227  0.51054199  1
  Zr  Zr50  1  -0.00657195  0.60283015  0.75038221  1
  Zr  Zr51  1  0.49079582  0.31239178  0.87121615  1
  Zr  Zr52  1  0.49613773  0.10476477  0.12581622  1
  Zr  Zr53  1  0.59784597  0.79473353  0.74202998  1
  Zr  Zr54  1  0.49943559  0.10133513  0.88320404  1
  Zr  Zr55  1  0.19759162  0.40452758  0.24670046  1
  Zr  Zr56  1  0.70496295  0.68885966  0.12738448  1
  Zr  Zr57  1  0.39315184  0.78842986  0.50617590  1
  Zr  Zr58  1  0.00231465  0.39774201  -0.00214790  1
  Zr  Zr59  1  0.19693430  0.20032960  -0.01578290  1
  Zr  Zr60  1  0.89692424  0.50653840  0.10730911  1
  Zr  Zr61  1  0.30102351  0.69248522  0.13643103  1
  Zr  Zr62  1  0.39945965  0.78783657  0.00357174  1
  Zr  Zr63  1  0.29736236  0.10155766  0.13345819  1
  Zr  Zr64  1  0.09432991  0.09845017  0.12867580  1
  Zr  Zr65  1  0.49482425  0.48028518  0.36689416  1
  Zr  Zr66  1  0.19255988  -0.00934252  -0.00520869  1
  Zr  Zr67  1  0.19576289  0.00160842  0.49976813  1
  Zr  Zr68  1  0.70506549  0.70088803  0.36774721  1
  Zr  Zr69  1  0.10438634  0.70233924  0.86157654  1
  Zr  Zr70  1  0.00235604  0.21022349  0.51332322  1
  Zr  Zr71  1  0.49913944  0.89643676  0.88482247  1
  Zr  Zr72  1  0.09618766  0.50935786  0.37598115  1
  Zr  Zr73  1  0.79727338  -0.00062352  0.75454084  1
  Zr  Zr74  1  0.70048119  0.89845098  0.37905341  1
  Zr  Zr75  1  0.69207229  0.89772681  0.89354328  1
  Zr  Zr76  1  0.30375418  0.09572377  0.86873410  1
  Zr  Zr77  1  0.69813739  0.10152956  0.35980456  1
  Zr  Zr78  1  0.29532000  0.49824196  0.11488709  1
  Zr  Zr79  1  0.40919086  0.42053110  0.72882976  1
  Ta  Ta80  1  0.68867955  0.30393192  0.86607988  1
  Ta  Ta81  1  0.21242814  0.40083323  0.73478766  1
  Ta  Ta82  1  0.79544923  0.21244689  0.50214882  1
  Ta  Ta83  1  0.20635532  0.40169492  0.51285231  1
  Ta  Ta84  1  0.09593386  0.10559721  0.37663604  1
  Ta  Ta85  1  0.51355500  0.29741310  0.63759795  1
  Ta  Ta86  1  0.40558117  0.20575616  0.50580408  1
  Ta  Ta87  1  0.60076733  0.59273031  0.25001987  1
  Ta  Ta88  1  0.40021965  0.58880392  0.25109300  1
  Ta  Ta89  1  0.29961282  0.49820178  0.38108085  1
  Ta  Ta90  1  0.30459581  0.09854837  0.37942194  1
  Ta  Ta91  1  0.81239450  0.58640285  0.26332850  1
  Ta  Ta92  1  0.20055780  0.19883027  0.73697976  1
  Ta  Ta93  1  0.69432374  0.48581717  0.36435747  1
  Ta  Ta94  1  0.39870248  0.19983619  0.73686459  1
  Ta  Ta95  1  0.30327562  0.89335196  0.86542167  1
  Ta  Ta96  1  0.30477023  0.69594188  0.86039539  1
  Ta  Ta97  1  0.89742999  0.30971391  0.64784491  1
  Ta  Ta98  1  0.40392361  0.39157154  0.51464266  1
  Ta  Ta99  1  0.89906219  0.69866744  0.88013452  1
  Ta  Ta100  1  0.59351414  0.79828127  0.24324390  1
  Ta  Ta101  1  0.49708116  0.90446322  0.60933210  1
  Ta  Ta102  1  0.29211938  0.68768809  0.64266560  1
  Ta  Ta103  1  0.49838177  0.69667072  0.35951166  1
  Ta  Ta104  1  0.30492162  0.29614730  0.13129483  1
  Ta  Ta105  1  0.79152478  0.39611425  -0.00591204  1
  Ta  Ta106  1  0.40280877  -0.00472943  0.73743771  1
  Ta  Ta107  1  0.89992520  0.90002955  0.40037584  1
  Ta  Ta108  1  0.19917095  0.19607665  0.26230435  1
  Ta  Ta109  1  0.68988706  0.68946317  0.87682644  1
  Ta  Ta110  1  0.40457744  0.79611312  0.74127123  1
  Ta  Ta111  1  0.39754644  -0.01011796  0.01407509  1
  Ta  Ta112  1  0.49542103  0.89853561  0.38748412  1
  Ta  Ta113  1  0.89502061  0.70734301  0.62204867  1
  Ta  Ta114  1  0.09452438  0.89905867  0.62755036  1
  Ta  Ta115  1  0.60310910  0.38999531  0.50495470  1
  Ta  Ta116  1  0.49748293  0.68516278  0.86572233  1
  Ta  Ta117  1  -0.00482570  0.19796354  -0.02442533  1
  Ta  Ta118  1  0.70041341  0.29068806  0.64750343  1
  Ta  Ta119  1  0.30864874  0.09618074  0.61767623  1
  Ti  Ti120  1  0.58160374  0.58834591  0.74135120  1
  Ti  Ti121  1  0.11164132  0.49944215  0.86138598  1
  Ti  Ti122  1  0.60289293  0.20404154  -0.00829903  1
  Ti  Ti123  1  0.18598622  0.79777495  0.48342024  1
  Ti  Ti124  1  0.59486991  0.59782569  0.00538768  1
  Ti  Ti125  1  0.00615429  0.01103987  -0.01463885  1
  Ti  Ti126  1  0.90779261  0.91453137  0.10883891  1
  Ti  Ti127  1  0.49979420  0.69113175  0.13949882  1
  Ti  Ti128  1  0.00375110  0.00662597  0.51201734  1
  Ti  Ti129  1  0.90183126  0.30569224  0.37995362  1
  Ti  Ti130  1  0.59106857  0.78613037  0.01114792  1
  Ti  Ti131  1  0.69064339  0.29993507  0.13057820  1
  Ti  Ti132  1  0.80736621  -0.00122855  0.24576479  1
  Ti  Ti133  1  -0.00575893  0.40539666  0.51157707  1
  Ti  Ti134  1  0.89640095  0.49773029  0.63941296  1
  Ti  Ti135  1  0.49513263  0.49222225  0.13241884  1
  Ti  Ti136  1  0.20295608  0.60708752  0.49398911  1
  Ti  Ti137  1  0.09343870  0.30696086  0.63890317  1
  Ti  Ti138  1  0.41241673  0.59375081  0.00487388  1
  Ti  Ti139  1  0.80335347  0.01250230  -0.01191138  1
  Ti  Ti140  1  0.10030606  0.51837214  0.13023902  1
  Ti  Ti141  1  0.20356440  0.39703155  -0.00543427  1
  Ti  Ti142  1  0.78935798  0.59361055  -0.01114078  1
  Ti  Ti143  1  0.68488460  0.50112115  0.86696622  1
  Ti  Ti144  1  0.20305536  0.00845829  0.73938152  1
  Ti  Ti145  1  0.70198892  0.69246351  0.62714707  1
  Ti  Ti146  1  -0.00309137  0.20692189  0.24665873  1
  Ti  Ti147  1  0.90444724  0.10450362  0.11267451  1
  Ti  Ti148  1  0.39410974  -0.00885394  0.24405474  1
  Ti  Ti149  1  0.40756899  0.80797653  0.24863266  1
  Ti  Ti150  1  0.51004047  0.29740261  0.35315340  1
  Ti  Ti151  1  0.39255899  0.20798563  -0.00514920  1
  Ti  Ti152  1  0.79969681  0.39918989  0.76775387  1
  Ti  Ti153  1  0.79395200  0.60224393  0.75754965  1
  Ti  Ti154  1  0.30687559  0.90112102  0.38130853  1
  Ti  Ti155  1  0.01257942  0.60175704  -0.00940869  1
  Ti  Ti156  1  0.90140853  0.89477196  0.61842687  1
  Ti  Ti157  1  0.30200117  0.30482362  0.86434609  1
  Ti  Ti158  1  0.69851965  0.49945509  0.13073075  1
  Ti  Ti159  1  0.20121374  0.60761879  -0.01268330  1
  Mo  Mo160  1  0.10395536  0.70496804  0.37054475  1
  Mo  Mo161  1  0.90174148  0.09915048  0.88338601  1
  Mo  Mo162  1  -0.00033246  0.20722630  0.75592804  1
  Mo  Mo163  1  0.50071573  0.69590934  0.63802987  1
  Mo  Mo164  1  0.09885235  0.90555387  0.11968980  1
  Mo  Mo165  1  0.60408427  0.40126501  0.23273820  1
  Mo  Mo166  1  0.89655196  0.30642290  0.86489998  1
  Mo  Mo167  1  0.49201833  0.89199137  0.12049711  1
  Mo  Mo168  1  0.69708487  0.30295110  0.36282382  1
  Mo  Mo169  1  0.00148239  0.80626781  0.51007284  1
  Mo  Mo170  1  0.50364529  0.50982945  0.88862657  1
  Mo  Mo171  1  0.19906961  0.59778166  0.26568180  1
  Mo  Mo172  1  0.40415765  0.60146679  0.73784460  1
  Mo  Mo173  1  0.39946236  0.40079067  0.23720062  1
  Mo  Mo174  1  0.08628941  0.90515036  0.40288779  1
  Mo  Mo175  1  0.10190307  0.10475075  0.85639155  1
  Mo  Mo176  1  0.80046695  0.80027194  0.51416741  1
  Mo  Mo177  1  0.00075171  0.60259827  0.25382930  1
  Mo  Mo178  1  0.59681090  -0.00227520  0.48987844  1
  Mo  Mo179  1  0.20871802  0.79232132  -0.02157385  1
  Mo  Mo180  1  0.59866848  0.20161759  0.75969022  1
  Mo  Mo181  1  0.60265415  0.40413089  0.75140360  1
  Mo  Mo182  1  0.69343406  0.10223478  0.90025281  1
  Mo  Mo183  1  0.00075532  0.40687559  0.74297459  1
  Mo  Mo184  1  0.70095157  0.11095641  0.61752915  1
  Mo  Mo185  1  0.60313062  0.20142815  0.25899449  1
  Mo  Mo186  1  0.19948858  0.80744959  0.27654605  1
  Mo  Mo187  1  -0.00868886  0.80623668  0.73626143  1
  Mo  Mo188  1  0.30642735  0.29807076  0.62943944  1
  Mo  Mo189  1  0.39283682  0.39363907  0.01066167  1
  Mo  Mo190  1  0.89872982  0.49320006  0.37765479  1
  Mo  Mo191  1  0.89930296  0.29553467  0.11292242  1
  Mo  Mo192  1  0.20687182  0.80284452  0.75252835  1
  Mo  Mo193  1  0.50743909  0.49508079  0.60756784  1
  Mo  Mo194  1  0.29695905  0.50301988  0.60888531  1
  Mo  Mo195  1  0.20818226  0.59143856  0.76027368  1
  Mo  Mo196  1  0.39581829  0.19454265  0.26245540  1
  Mo  Mo197  1  0.10467411  0.10326454  0.63396690  1
  Mo  Mo198  1  0.39650117  -0.00114168  0.50657684  1
  Mo  Mo199  1  0.59262374  0.00113857  0.01130200  1
