# generated using pymatgen
data_HfZrTaTiMo
_symmetry_space_group_name_H-M   'P 1'
_cell_length_a   15.92296568
_cell_length_b   15.93918215
_cell_length_c   15.21813259
_cell_angle_alpha   89.87795980
_cell_angle_beta   90.03889220
_cell_angle_gamma   89.97461354
_symmetry_Int_Tables_number   1
_chemical_formula_structural   HfZrTaTiMo
_chemical_formula_sum   'Hf40 Zr40 Ta40 Ti40 Mo40'
_cell_volume   3862.33756586
_cell_formula_units_Z   40
loop_
 _symmetry_equiv_pos_site_id
 _symmetry_equiv_pos_as_xyz
  1  'x, y, z'
loop_
 _atom_site_type_symbol
 _atom_site_label
 _atom_site_symmetry_multiplicity
 _atom_site_fract_x
 _atom_site_fract_y
 _atom_site_fract_z
 _atom_site_occupancy
  Hf  Hf0  1  0.89303213  0.50270103  0.63626611  1
  Hf  Hf1  1  0.39483770  0.00611123  0.00140041  1
  Hf  Hf2  1  0.10320325  0.90964563  0.87294198  1
  Hf  Hf3  1  0.21249354  0.40635306  0.24682189  1
  Hf  Hf4  1  0.69345282  0.30105895  0.14260688  1
  Hf  Hf5  1  0.48167923  0.68574437  0.62425079  1
  Hf  Hf6  1  0.57369188  0.80978050  0.49380024  1
  Hf  Hf7  1  0.89860639  0.09753810  0.87199463  1
  Hf  Hf8  1  0.90439635  0.90666251  0.87945530  1
  Hf  Hf9  1  0.01660297  0.38419119  0.74144686  1
  Hf  Hf10  1  0.79351601  0.60083655  0.24650918  1
  Hf  Hf11  1  0.20317160  0.19195524  0.26135148  1
  Hf  Hf12  1  0.49367073  0.09768814  0.86433167  1
  Hf  Hf13  1  0.19648929  0.39356993  -0.01054335  1
  Hf  Hf14  1  0.40925003  -0.01712972  0.49058957  1
  Hf  Hf15  1  0.40471666  0.38595843  0.00257937  1
  Hf  Hf16  1  0.89984496  0.90436611  0.63063413  1
  Hf  Hf17  1  0.89446377  0.30502101  0.14017598  1
  Hf  Hf18  1  0.37660051  0.78829498  0.49491749  1
  Hf  Hf19  1  0.51173478  0.09052335  0.37040883  1
  Hf  Hf20  1  0.30379902  0.28993708  0.12337167  1
  Hf  Hf21  1  0.79230968  0.80365130  0.75187880  1
  Hf  Hf22  1  0.51148694  0.92309946  0.13431163  1
  Hf  Hf23  1  0.69374104  0.49972622  0.61945683  1
  Hf  Hf24  1  0.79737360  0.39166567  0.50250143  1
  Hf  Hf25  1  0.48735713  0.31074848  0.61309875  1
  Hf  Hf26  1  0.21731256  0.60635335  0.75970211  1
  Hf  Hf27  1  0.70744024  0.69942515  0.39664121  1
  Hf  Hf28  1  0.78709453  0.20551152  -0.00944604  1
  Hf  Hf29  1  0.09487944  0.29641688  0.12876487  1
  Hf  Hf30  1  0.89922114  0.10665412  0.12133262  1
  Hf  Hf31  1  0.70379932  0.68328219  0.88908304  1
  Hf  Hf32  1  -0.00509149  0.00778997  0.50859595  1
  Hf  Hf33  1  0.90082348  0.89756525  0.38056344  1
  Hf  Hf34  1  0.69765510  0.50227996  0.11185674  1
  Hf  Hf35  1  0.09394215  0.69849119  0.35467499  1
  Hf  Hf36  1  0.50139255  0.08819804  0.62745055  1
  Hf  Hf37  1  0.09815833  0.50202110  0.12845204  1
  Hf  Hf38  1  0.69761272  0.69738571  0.61738115  1
  Hf  Hf39  1  0.59431898  0.59170048  0.75497528  1
  Zr  Zr40  1  0.90649971  0.70357431  0.38120313  1
  Zr  Zr41  1  0.09875156  0.89083852  0.37941221  1
  Zr  Zr42  1  0.29151654  0.89011310  0.63675912  1
  Zr  Zr43  1  0.19579047  0.21731338  0.75525045  1
  Zr  Zr44  1  0.12460919  0.49481737  0.63603386  1
  Zr  Zr45  1  0.79688177  -0.00826373  0.24601188  1
  Zr  Zr46  1  0.90106453  0.49455808  0.12868978  1
  Zr  Zr47  1  -0.00526181  0.20464959  0.51159443  1
  Zr  Zr48  1  0.79874930  0.80022598  0.23419385  1
  Zr  Zr49  1  0.80139803  0.39482768  -0.01605993  1
  Zr  Zr50  1  0.80962057  0.19553978  0.49892646  1
  Zr  Zr51  1  0.01213361  0.60705749  0.51991808  1
  Zr  Zr52  1  0.88885912  0.50431070  0.85247022  1
  Zr  Zr53  1  0.28575802  0.69942886  0.34877864  1
  Zr  Zr54  1  0.68670432  0.90906841  0.61704122  1
  Zr  Zr55  1  -0.00059337  0.19651978  0.73354508  1
  Zr  Zr56  1  0.00730201  0.00111771  0.23915927  1
  Zr  Zr57  1  0.00228315  0.39710376  0.51106587  1
  Zr  Zr58  1  0.30259950  0.50516953  0.38371624  1
  Zr  Zr59  1  0.40425058  0.80291070  0.23890938  1
  Zr  Zr60  1  0.19242074  0.81375830  0.21749525  1
  Zr  Zr61  1  0.10565244  0.30458789  0.38130413  1
  Zr  Zr62  1  0.80219967  0.80149667  0.01461411  1
  Zr  Zr63  1  0.33133107  0.50047269  0.62056328  1
  Zr  Zr64  1  0.38599327  0.19962385  0.75257814  1
  Zr  Zr65  1  0.68166837  0.09793517  0.13117412  1
  Zr  Zr66  1  0.00260014  0.59499260  -0.01626747  1
  Zr  Zr67  1  0.89762258  0.50913229  0.38154889  1
  Zr  Zr68  1  0.20356542  0.81133954  0.00321429  1
  Zr  Zr69  1  0.00270802  0.20722180  -0.01015079  1
  Zr  Zr70  1  0.60100665  0.59578199  0.26345717  1
  Zr  Zr71  1  0.39781781  0.80880747  0.01183614  1
  Zr  Zr72  1  0.60915536  0.21243297  0.74239143  1
  Zr  Zr73  1  0.90100855  0.70139627  0.86777522  1
  Zr  Zr74  1  0.51327339  0.68623297  0.11110943  1
  Zr  Zr75  1  0.21296325  0.62589076  0.51581946  1
  Zr  Zr76  1  0.59334105  0.79513316  0.75795694  1
  Zr  Zr77  1  0.61148183  0.19441922  0.50217030  1
  Zr  Zr78  1  0.39873606  0.58193959  0.23440380  1
  Zr  Zr79  1  0.61123618  0.80060422  0.24570954  1
  Ta  Ta80  1  0.20208897  0.59486608  -0.00794131  1
  Ta  Ta81  1  0.31015249  0.30206671  0.38250335  1
  Ta  Ta82  1  0.89870136  0.70131945  0.63372331  1
  Ta  Ta83  1  0.10411688  0.70729593  0.87116133  1
  Ta  Ta84  1  0.79511661  0.00349695  0.75360190  1
  Ta  Ta85  1  0.20856205  0.01668269  0.75183199  1
  Ta  Ta86  1  0.58935623  0.59367634  0.49296388  1
  Ta  Ta87  1  0.39639189  0.58812768  -0.00075259  1
  Ta  Ta88  1  0.20069677  0.00806789  0.24685318  1
  Ta  Ta89  1  0.50404403  0.49301624  0.88645328  1
  Ta  Ta90  1  0.50805323  0.48483568  0.11277820  1
  Ta  Ta91  1  0.50221978  0.29645498  0.37224235  1
  Ta  Ta92  1  0.80370792  0.80749109  0.50923811  1
  Ta  Ta93  1  0.29371978  0.68468092  0.11836899  1
  Ta  Ta94  1  0.20782499  -0.00310544  0.49418168  1
  Ta  Ta95  1  0.00494869  0.80506002  0.01047312  1
  Ta  Ta96  1  0.10341928  0.51333635  0.36625669  1
  Ta  Ta97  1  0.80062080  0.19115624  0.26655183  1
  Ta  Ta98  1  0.60322357  0.80621146  0.00154559  1
  Ta  Ta99  1  0.60233882  -0.00299132  0.75929248  1
  Ta  Ta100  1  0.79713590  0.01168398  0.49466824  1
  Ta  Ta101  1  0.29563451  0.90137359  0.36306747  1
  Ta  Ta102  1  0.11834277  0.72414252  0.64854355  1
  Ta  Ta103  1  0.68977256  0.90928979  0.38700081  1
  Ta  Ta104  1  0.39862162  0.19713190  0.26101564  1
  Ta  Ta105  1  0.69594190  0.10191847  0.87267783  1
  Ta  Ta106  1  0.77741783  0.38247599  0.74622513  1
  Ta  Ta107  1  0.49767967  0.69643032  0.88931332  1
  Ta  Ta108  1  0.59783970  0.40022810  0.49111555  1
  Ta  Ta109  1  0.01086671  0.60733172  0.74553776  1
  Ta  Ta110  1  0.59905432  0.40661253  0.26171481  1
  Ta  Ta111  1  0.40816252  0.39186373  0.24330480  1
  Ta  Ta112  1  0.49549620  0.89839293  0.87058612  1
  Ta  Ta113  1  0.00150241  0.40304661  0.26411350  1
  Ta  Ta114  1  0.00104227  0.19447128  0.26135282  1
  Ta  Ta115  1  0.11415820  0.09873649  0.61622266  1
  Ta  Ta116  1  0.10187691  0.09716468  0.38719401  1
  Ta  Ta117  1  0.69941144  0.30101845  0.36725303  1
  Ta  Ta118  1  0.30366767  0.09652305  0.61390725  1
  Ta  Ta119  1  -0.00802467  0.80507961  0.21738758  1
  Ti  Ti120  1  0.70742459  0.10062151  0.63570568  1
  Ti  Ti121  1  0.90385582  0.68586066  0.11741338  1
  Ti  Ti122  1  0.69657332  0.49401011  0.87487472  1
  Ti  Ti123  1  0.39194605  0.00676989  0.25612037  1
  Ti  Ti124  1  0.69777317  0.90350417  0.88220227  1
  Ti  Ti125  1  0.00565420  0.00738786  0.73970698  1
  Ti  Ti126  1  0.40490719  0.59532236  0.77095341  1
  Ti  Ti127  1  0.29588518  0.30594988  0.61174789  1
  Ti  Ti128  1  0.49183946  0.49262660  0.38399728  1
  Ti  Ti129  1  0.79178645  0.00024574  0.00420214  1
  Ti  Ti130  1  0.50032555  0.29877983  0.86788708  1
  Ti  Ti131  1  0.20219556  0.19576630  -0.01108837  1
  Ti  Ti132  1  0.29970962  0.10324387  0.12314638  1
  Ti  Ti133  1  0.09642440  0.69116633  0.12009238  1
  Ti  Ti134  1  0.10963240  0.90573510  0.63241399  1
  Ti  Ti135  1  0.00905829  0.00573878  0.01143388  1
  Ti  Ti136  1  0.20701168  0.19754766  0.49666448  1
  Ti  Ti137  1  0.00944494  0.79937470  0.51908701  1
  Ti  Ti138  1  0.48890703  0.69500177  0.37196440  1
  Ti  Ti139  1  0.39792896  0.19269425  0.49087458  1
  Ti  Ti140  1  0.59764781  0.00355725  -0.01210971  1
  Ti  Ti141  1  0.30453932  0.49006699  0.87716147  1
  Ti  Ti142  1  0.39067497  0.78861055  0.76102948  1
  Ti  Ti143  1  0.58720762  0.20299840  -0.00223263  1
  Ti  Ti144  1  0.00445364  0.80644248  0.75069427  1
  Ti  Ti145  1  0.49698339  0.11432231  0.13775459  1
  Ti  Ti146  1  0.59091089  0.40055465  0.74443558  1
  Ti  Ti147  1  0.10240263  0.10039440  0.87474175  1
  Ti  Ti148  1  -0.00059831  0.39607786  -0.01942086  1
  Ti  Ti149  1  0.39615951  0.39549669  0.76097909  1
  Ti  Ti150  1  0.39879791  0.19700195  -0.00770696  1
  Ti  Ti151  1  0.48712700  0.89917388  0.64818373  1
  Ti  Ti152  1  0.19920401  0.00813554  0.01289105  1
  Ti  Ti153  1  0.30450987  0.91250942  0.86422641  1
  Ti  Ti154  1  0.30275586  0.70329337  0.88967614  1
  Ti  Ti155  1  0.10586658  0.49589745  0.86050461  1
  Ti  Ti156  1  0.89822263  0.30297774  0.36384628  1
  Ti  Ti157  1  0.89379016  0.29701580  0.85480859  1
  Ti  Ti158  1  0.20415784  0.40396629  0.49571285  1
  Ti  Ti159  1  0.60124585  0.38447152  -0.00351686  1
  Mo  Mo160  1  0.69312310  0.30097742  0.61125003  1
  Mo  Mo161  1  0.30319982  0.92071061  0.13824904  1
  Mo  Mo162  1  0.30232413  0.49423712  0.10852811  1
  Mo  Mo163  1  0.59767038  0.58997315  -0.01268190  1
  Mo  Mo164  1  0.09690330  0.30127948  0.88248988  1
  Mo  Mo165  1  0.90198409  0.90914684  0.10640010  1
  Mo  Mo166  1  0.79591268  0.19966090  0.75500200  1
  Mo  Mo167  1  0.19146113  0.80720656  0.49862833  1
  Mo  Mo168  1  0.19571566  0.59780761  0.22721952  1
  Mo  Mo169  1  0.70376805  0.69280400  0.10738671  1
  Mo  Mo170  1  0.20442157  0.80890431  0.77765763  1
  Mo  Mo171  1  0.39757057  -0.00253365  0.75326035  1
  Mo  Mo172  1  0.89398875  0.09424929  0.64244427  1
  Mo  Mo173  1  0.40371149  0.39390979  0.48768955  1
  Mo  Mo174  1  0.60010939  -0.00075858  0.25826730  1
  Mo  Mo175  1  0.79659691  0.39951022  0.26858240  1
  Mo  Mo176  1  -0.00180408  0.60350573  0.24494412  1
  Mo  Mo177  1  0.79860652  0.59622025  0.01018139  1
  Mo  Mo178  1  0.50094020  0.49736379  0.61982789  1
  Mo  Mo179  1  0.60086416  -0.00203872  0.50147075  1
  Mo  Mo180  1  0.68456049  0.30052054  0.87799407  1
  Mo  Mo181  1  0.12508981  0.29813735  0.60652654  1
  Mo  Mo182  1  0.50537377  0.29156083  0.14051055  1
  Mo  Mo183  1  0.79587105  0.59681809  0.73915455  1
  Mo  Mo184  1  0.30291384  0.09828554  0.38814388  1
  Mo  Mo185  1  0.79844160  0.60588436  0.51349085  1
  Mo  Mo186  1  0.70352336  0.09522258  0.36838839  1
  Mo  Mo187  1  0.10763202  0.10889823  0.12134287  1
  Mo  Mo188  1  0.29085046  0.09688853  0.88699633  1
  Mo  Mo189  1  0.30313871  0.70141999  0.64521225  1
  Mo  Mo190  1  0.21755686  0.39797704  0.76397440  1
  Mo  Mo191  1  0.40631826  0.60331242  0.48581015  1
  Mo  Mo192  1  0.49548330  0.89567333  0.35769598  1
  Mo  Mo193  1  0.69494363  0.90623242  0.10558170  1
  Mo  Mo194  1  0.88181676  0.29813563  0.64418437  1
  Mo  Mo195  1  0.59808046  0.20280264  0.25896781  1
  Mo  Mo196  1  0.90612587  0.09752347  0.36482729  1
  Mo  Mo197  1  0.09995519  0.91244420  0.11094343  1
  Mo  Mo198  1  0.30451690  0.29680410  0.88672112  1
  Mo  Mo199  1  0.69671258  0.49949501  0.39023885  1
