# generated using pymatgen
data_HfZrTaTiMo
_symmetry_space_group_name_H-M   'P 1'
_cell_length_a   15.93512863
_cell_length_b   15.93916258
_cell_length_c   15.19960016
_cell_angle_alpha   89.95810935
_cell_angle_beta   89.97414343
_cell_angle_gamma   90.01634598
_symmetry_Int_Tables_number   1
_chemical_formula_structural   HfZrTaTiMo
_chemical_formula_sum   'Hf40 Zr40 Ta40 Ti40 Mo40'
_cell_volume   3860.58447205
_cell_formula_units_Z   40
loop_
 _symmetry_equiv_pos_site_id
 _symmetry_equiv_pos_as_xyz
  1  'x, y, z'
loop_
 _atom_site_type_symbol
 _atom_site_label
 _atom_site_symmetry_multiplicity
 _atom_site_fract_x
 _atom_site_fract_y
 _atom_site_fract_z
 _atom_site_occupancy
  Hf  Hf0  1  0.19541064  0.59963083  -0.01547968  1
  Hf  Hf1  1  0.40458193  0.80492846  0.24465267  1
  Hf  Hf2  1  0.70708778  0.09087152  0.37824400  1
  Hf  Hf3  1  0.10407820  0.30159900  0.62266332  1
  Hf  Hf4  1  0.69918847  0.28840159  0.13448017  1
  Hf  Hf5  1  0.19221561  0.80561751  0.26064006  1
  Hf  Hf6  1  0.60420539  0.78757974  -0.01541844  1
  Hf  Hf7  1  0.87400023  0.50661540  0.38992220  1
  Hf  Hf8  1  -0.00189490  0.20386777  0.00690008  1
  Hf  Hf9  1  0.11060099  0.89603864  0.62441435  1
  Hf  Hf10  1  0.40435770  0.40164054  0.00347473  1
  Hf  Hf11  1  0.90470009  0.50931846  0.12145159  1
  Hf  Hf12  1  0.89443947  0.90305045  0.10520965  1
  Hf  Hf13  1  -0.00616726  0.79417243  0.75882779  1
  Hf  Hf14  1  0.78866489  0.41027675  0.24803203  1
  Hf  Hf15  1  0.89691333  0.89781789  0.61808038  1
  Hf  Hf16  1  0.09153594  0.29143738  0.37278886  1
  Hf  Hf17  1  0.10235834  0.09970181  0.60820888  1
  Hf  Hf18  1  0.70227670  0.68318043  0.38642192  1
  Hf  Hf19  1  0.79204068  0.61717055  -0.01563249  1
  Hf  Hf20  1  0.60440573  0.19629914  0.73660943  1
  Hf  Hf21  1  0.09047646  0.69920884  0.13571218  1
  Hf  Hf22  1  0.29606664  0.70411702  0.62445943  1
  Hf  Hf23  1  0.19525989  0.19890274  0.24216425  1
  Hf  Hf24  1  0.39727428  0.19661205  0.74409705  1
  Hf  Hf25  1  0.40744687  0.19928887  0.48702390  1
  Hf  Hf26  1  0.19479030  -0.00188595  0.23668243  1
  Hf  Hf27  1  0.51129781  0.29979205  0.87545093  1
  Hf  Hf28  1  0.10373293  0.30617161  0.87263436  1
  Hf  Hf29  1  0.69215642  0.49727659  0.10713522  1
  Hf  Hf30  1  0.20048504  0.79091919  -0.01097879  1
  Hf  Hf31  1  0.39978359  0.40184314  0.75590148  1
  Hf  Hf32  1  0.90210288  0.29794227  0.86021858  1
  Hf  Hf33  1  0.60053679  0.40512190  0.73290712  1
  Hf  Hf34  1  0.40236372  -0.00725321  0.24644739  1
  Hf  Hf35  1  0.30127128  0.10576916  0.88579392  1
  Hf  Hf36  1  -0.01196097  0.40201304  0.50189426  1
  Hf  Hf37  1  0.30122764  0.30600943  0.60327856  1
  Hf  Hf38  1  0.51527690  0.51061421  0.11815012  1
  Hf  Hf39  1  0.79965375  0.18804745  -0.00591034  1
  Zr  Zr40  1  0.80982125  0.38790045  0.00564249  1
  Zr  Zr41  1  0.09631618  0.09447599  0.39159856  1
  Zr  Zr42  1  0.00020127  0.59916196  0.50204033  1
  Zr  Zr43  1  0.90180239  0.09482619  0.13208220  1
  Zr  Zr44  1  0.89270430  0.91283581  0.39560006  1
  Zr  Zr45  1  0.69199920  0.49212760  0.87795821  1
  Zr  Zr46  1  0.00580093  0.78935696  0.49817769  1
  Zr  Zr47  1  0.00142398  0.60569322  -0.02032689  1
  Zr  Zr48  1  0.59664601  0.81169371  0.75082289  1
  Zr  Zr49  1  0.18545950  0.41718840  0.48419820  1
  Zr  Zr50  1  0.40080176  0.60630669  -0.00725250  1
  Zr  Zr51  1  0.40616001  0.59731115  0.24800177  1
  Zr  Zr52  1  0.20773147  0.00889164  0.75103700  1
  Zr  Zr53  1  0.50652447  0.69347993  0.37196330  1
  Zr  Zr54  1  0.41152024  -0.00187688  0.01210348  1
  Zr  Zr55  1  0.40382916  0.40255617  0.25300357  1
  Zr  Zr56  1  0.79950118  0.00146997  0.75838220  1
  Zr  Zr57  1  0.78816170  0.80623620  0.25791828  1
  Zr  Zr58  1  0.79791995  0.20870038  0.51575862  1
  Zr  Zr59  1  0.10144599  0.90760358  0.87861388  1
  Zr  Zr60  1  0.60485746  0.20101850  0.50262928  1
  Zr  Zr61  1  -0.00489766  0.00437335  0.75553960  1
  Zr  Zr62  1  0.90466617  0.10640357  0.37401918  1
  Zr  Zr63  1  0.29650672  0.50690218  0.60734487  1
  Zr  Zr64  1  0.29072053  0.30016978  0.88548497  1
  Zr  Zr65  1  0.29299826  0.69524355  0.13441185  1
  Zr  Zr66  1  0.30005500  0.09415151  0.60526614  1
  Zr  Zr67  1  0.29709497  0.69700030  0.37755582  1
  Zr  Zr68  1  0.29421469  0.09453736  0.38151491  1
  Zr  Zr69  1  0.41393988  0.19938528  0.01060133  1
  Zr  Zr70  1  0.39805374  0.59287742  0.75511510  1
  Zr  Zr71  1  0.50062037  0.08084147  0.62003161  1
  Zr  Zr72  1  0.52424223  0.10033131  0.14392856  1
  Zr  Zr73  1  0.59618464  0.79737733  0.50751281  1
  Zr  Zr74  1  0.89405530  0.70896171  0.12811575  1
  Zr  Zr75  1  0.08527560  0.90085961  0.11095577  1
  Zr  Zr76  1  0.31270766  0.90484301  0.87573191  1
  Zr  Zr77  1  0.90025975  0.49323285  0.86262455  1
  Zr  Zr78  1  0.40421032  0.20403135  0.25199177  1
  Zr  Zr79  1  -0.00322895  0.41143940  0.26215322  1
  Ta  Ta80  1  0.60663674  0.00313050  -0.00865518  1
  Ta  Ta81  1  0.70617915  0.29690170  0.86077246  1
  Ta  Ta82  1  0.49572828  0.30498347  0.61366327  1
  Ta  Ta83  1  0.89241754  0.70008913  0.37469687  1
  Ta  Ta84  1  0.09729638  0.30827819  0.13249739  1
  Ta  Ta85  1  0.09868211  0.50677383  0.64110009  1
  Ta  Ta86  1  0.90126388  0.29375750  0.14770335  1
  Ta  Ta87  1  0.20156890  0.40549459  0.25387509  1
  Ta  Ta88  1  -0.00928134  0.79404352  -0.02628063  1
  Ta  Ta89  1  0.19538819  0.00959291  0.00919979  1
  Ta  Ta90  1  0.69729132  0.90710475  0.61824223  1
  Ta  Ta91  1  0.40062286  0.80154254  0.50157006  1
  Ta  Ta92  1  0.70384233  0.70258301  0.63208440  1
  Ta  Ta93  1  0.51801339  0.88936568  0.11962203  1
  Ta  Ta94  1  0.10273715  0.69376649  0.64154735  1
  Ta  Ta95  1  0.79845093  0.60082899  0.74614755  1
  Ta  Ta96  1  0.29066738  0.49812862  0.12254292  1
  Ta  Ta97  1  0.68082737  0.69433571  0.12731610  1
  Ta  Ta98  1  0.70276680  0.89883625  0.10775869  1
  Ta  Ta99  1  0.61155080  0.40020100  0.50785128  1
  Ta  Ta100  1  0.79859067  0.80030697  0.75773372  1
  Ta  Ta101  1  0.10356702  0.50726118  0.13542808  1
  Ta  Ta102  1  0.09920065  0.11072761  0.88480594  1
  Ta  Ta103  1  0.60286482  0.59403969  0.52467732  1
  Ta  Ta104  1  0.49846261  0.69922921  0.86143884  1
  Ta  Ta105  1  -0.00515992  0.80929819  0.26710364  1
  Ta  Ta106  1  0.20248042  0.60095633  0.76512251  1
  Ta  Ta107  1  0.51927965  0.31121832  0.13093136  1
  Ta  Ta108  1  0.31078186  0.90188773  0.62095530  1
  Ta  Ta109  1  0.59779628  0.59726805  0.74346841  1
  Ta  Ta110  1  0.10050352  0.49086395  0.86105844  1
  Ta  Ta111  1  0.89060514  0.29525198  0.36574534  1
  Ta  Ta112  1  0.29595384  0.30413191  0.38130186  1
  Ta  Ta113  1  0.79635462  -0.00745634  0.24878746  1
  Ta  Ta114  1  0.50813346  0.08776203  0.37329088  1
  Ta  Ta115  1  0.40858875  0.79408862  0.00220501  1
  Ta  Ta116  1  0.79098709  0.60143618  0.24354419  1
  Ta  Ta117  1  -0.00114477  0.19493574  0.74415061  1
  Ta  Ta118  1  0.30048605  0.10263656  0.12256994  1
  Ta  Ta119  1  0.70490084  0.31078047  0.37413504  1
  Ti  Ti120  1  0.40673576  0.60190060  0.49656340  1
  Ti  Ti121  1  -0.00794551  0.20763794  0.51219798  1
  Ti  Ti122  1  0.19930591  0.20137580  0.74706665  1
  Ti  Ti123  1  0.51963359  0.50082007  0.37844583  1
  Ti  Ti124  1  -0.00365580  0.60695465  0.26753667  1
  Ti  Ti125  1  0.50476390  0.89978530  0.38043986  1
  Ti  Ti126  1  0.80381010  0.19303397  0.74342101  1
  Ti  Ti127  1  0.89997761  0.09363431  0.61458722  1
  Ti  Ti128  1  0.60573198  0.19660065  -0.00392372  1
  Ti  Ti129  1  0.18232159  0.60919601  0.48617131  1
  Ti  Ti130  1  0.49343283  0.70039618  0.63193913  1
  Ti  Ti131  1  0.40203386  0.80732611  0.75242773  1
  Ti  Ti132  1  0.49800225  0.90731751  0.62186842  1
  Ti  Ti133  1  0.79814292  0.79850413  -0.02437627  1
  Ti  Ti134  1  0.30008324  0.90317329  0.38986241  1
  Ti  Ti135  1  0.09929827  0.90900616  0.39121099  1
  Ti  Ti136  1  0.19856094  0.79588473  0.49427465  1
  Ti  Ti137  1  0.00019642  0.40034077  0.73853352  1
  Ti  Ti138  1  0.70586547  0.09108969  0.13236311  1
  Ti  Ti139  1  0.29916364  0.89710739  0.11450834  1
  Ti  Ti140  1  0.89228598  0.30610661  0.63663136  1
  Ti  Ti141  1  0.20801326  0.40376965  0.74166810  1
  Ti  Ti142  1  0.60314023  0.79707977  0.25322956  1
  Ti  Ti143  1  0.89314578  0.50394082  0.62989660  1
  Ti  Ti144  1  0.48967887  0.49283386  0.60891457  1
  Ti  Ti145  1  0.69759212  0.10100662  0.86934858  1
  Ti  Ti146  1  0.30175955  0.50330698  0.37672189  1
  Ti  Ti147  1  0.00285766  -0.00230146  0.25003933  1
  Ti  Ti148  1  0.29232629  0.48944995  0.88613952  1
  Ti  Ti149  1  0.69906297  0.90650570  0.87872600  1
  Ti  Ti150  1  0.79766940  0.79184011  0.50668049  1
  Ti  Ti151  1  0.61383449  -0.02154321  0.25815526  1
  Ti  Ti152  1  0.00840824  0.40243142  0.00668824  1
  Ti  Ti153  1  0.50250227  0.08535353  0.86122384  1
  Ti  Ti154  1  0.19504701  0.20430713  0.01797128  1
  Ti  Ti155  1  0.50657334  0.31100828  0.37941488  1
  Ti  Ti156  1  0.69765231  0.08544220  0.62133749  1
  Ti  Ti157  1  0.20613799  0.79498075  0.76174548  1
  Ti  Ti158  1  0.29866878  0.30624495  0.12576733  1
  Ti  Ti159  1  0.60640325  0.20497545  0.26838894  1
  Mo  Mo160  1  0.60223917  0.38491790  -0.00879300  1
  Mo  Mo161  1  0.10082760  0.69763257  0.85831182  1
  Mo  Mo162  1  0.89617834  0.69788411  0.63582242  1
  Mo  Mo163  1  0.00005208  0.59586381  0.74569228  1
  Mo  Mo164  1  0.40581632  -0.01279055  0.48333649  1
  Mo  Mo165  1  0.70207569  0.30006599  0.63841025  1
  Mo  Mo166  1  0.79866674  0.39738110  0.73631665  1
  Mo  Mo167  1  0.19511309  0.59384570  0.25938028  1
  Mo  Mo168  1  0.80095525  0.60683198  0.52728112  1
  Mo  Mo169  1  0.79172831  0.00171601  -0.00952605  1
  Mo  Mo170  1  0.09389133  0.70578471  0.36256695  1
  Mo  Mo171  1  0.40847669  -0.00840553  0.75618353  1
  Mo  Mo172  1  0.30475576  0.70460209  0.86318933  1
  Mo  Mo173  1  0.61289718  0.59210576  0.25467796  1
  Mo  Mo174  1  0.59461292  0.60198543  -0.02593648  1
  Mo  Mo175  1  0.50351519  0.90002581  0.88730171  1
  Mo  Mo176  1  0.69624578  0.69862741  0.84982987  1
  Mo  Mo177  1  0.50844145  0.70439243  0.12951670  1
  Mo  Mo178  1  -0.00003130  -0.00004950  0.51448077  1
  Mo  Mo179  1  -0.00663590  0.00650371  -0.01882825  1
  Mo  Mo180  1  0.00052307  0.19926336  0.24076308  1
  Mo  Mo181  1  0.19330087  0.40299057  0.01867881  1
  Mo  Mo182  1  0.69639527  0.50103025  0.39736845  1
  Mo  Mo183  1  0.60124291  0.40286483  0.26669425  1
  Mo  Mo184  1  0.90268409  0.10471708  0.87545129  1
  Mo  Mo185  1  0.60167962  -0.00721275  0.48856934  1
  Mo  Mo186  1  0.50209783  0.50002554  0.88224371  1
  Mo  Mo187  1  0.40889992  0.40551103  0.48034046  1
  Mo  Mo188  1  0.20263382  -0.01684461  0.50395852  1
  Mo  Mo189  1  0.79588924  0.00124661  0.51340131  1
  Mo  Mo190  1  0.79474630  0.19777881  0.25482613  1
  Mo  Mo191  1  0.60319758  -0.00091948  0.76374118  1
  Mo  Mo192  1  0.70510399  0.50099622  0.62227040  1
  Mo  Mo193  1  0.09917708  0.10321263  0.11369850  1
  Mo  Mo194  1  0.89275507  0.90290888  0.88646931  1
  Mo  Mo195  1  0.79713727  0.40018578  0.51546765  1
  Mo  Mo196  1  0.69642526  0.89526846  0.39172526  1
  Mo  Mo197  1  0.89347525  0.69828328  0.85910099  1
  Mo  Mo198  1  0.19934505  0.20771480  0.49193043  1
  Mo  Mo199  1  0.09681754  0.50822398  0.36116467  1
