# generated using pymatgen
data_HfZrTaTiMo
_symmetry_space_group_name_H-M   'P 1'
_cell_length_a   15.92481326
_cell_length_b   15.93350240
_cell_length_c   15.19750005
_cell_angle_alpha   89.97657907
_cell_angle_beta   89.98232066
_cell_angle_gamma   90.01810281
_symmetry_Int_Tables_number   1
_chemical_formula_structural   HfZrTaTiMo
_chemical_formula_sum   'Hf40 Zr40 Ta40 Ti40 Mo40'
_cell_volume   3856.18333498
_cell_formula_units_Z   40
loop_
 _symmetry_equiv_pos_site_id
 _symmetry_equiv_pos_as_xyz
  1  'x, y, z'
loop_
 _atom_site_type_symbol
 _atom_site_label
 _atom_site_symmetry_multiplicity
 _atom_site_fract_x
 _atom_site_fract_y
 _atom_site_fract_z
 _atom_site_occupancy
  Hf  Hf0  1  0.60146052  0.60193926  0.02088512  1
  Hf  Hf1  1  0.79206071  0.59399376  0.47826429  1
  Hf  Hf2  1  0.19841870  0.80200628  0.00550366  1
  Hf  Hf3  1  0.49950540  0.50052862  0.87841069  1
  Hf  Hf4  1  0.90310167  0.10194628  0.88170498  1
  Hf  Hf5  1  0.10029605  0.30292312  0.12030621  1
  Hf  Hf6  1  0.49553015  0.29926305  0.10751225  1
  Hf  Hf7  1  0.30596563  0.70810503  0.36803756  1
  Hf  Hf8  1  0.21001857  0.59476176  0.51385054  1
  Hf  Hf9  1  0.10029282  0.49676166  0.12751051  1
  Hf  Hf10  1  0.29616337  0.10768166  0.62241103  1
  Hf  Hf11  1  0.60645515  0.20518183  0.75252696  1
  Hf  Hf12  1  0.41156472  0.60109652  0.23564505  1
  Hf  Hf13  1  0.08875548  0.29833498  0.90325551  1
  Hf  Hf14  1  0.19160640  0.00140628  0.73978588  1
  Hf  Hf15  1  0.50012893  0.70250392  0.37598293  1
  Hf  Hf16  1  0.72133818  0.71020220  0.13686227  1
  Hf  Hf17  1  0.40258997  0.59886757  0.50632147  1
  Hf  Hf18  1  0.60323355  -0.00085391  0.74514333  1
  Hf  Hf19  1  0.16930434  0.20866208  0.73162127  1
  Hf  Hf20  1  0.59984117  0.39334522  0.49491981  1
  Hf  Hf21  1  0.00883776  0.38293903  0.73992624  1
  Hf  Hf22  1  0.69797781  0.09822536  0.11643751  1
  Hf  Hf23  1  0.29558253  0.30505221  0.12485277  1
  Hf  Hf24  1  0.60925831  0.59835171  0.24611091  1
  Hf  Hf25  1  0.69810883  0.09883437  0.36177924  1
  Hf  Hf26  1  0.90580832  0.69178684  0.61285760  1
  Hf  Hf27  1  0.69927882  0.71373915  0.88278998  1
  Hf  Hf28  1  0.39308353  0.60069281  0.73839101  1
  Hf  Hf29  1  0.29382242  0.70803889  0.14275248  1
  Hf  Hf30  1  0.90667958  0.29313365  0.61483425  1
  Hf  Hf31  1  0.01893020  0.79256342  0.73002946  1
  Hf  Hf32  1  0.10881018  0.90396677  0.37616912  1
  Hf  Hf33  1  0.60476117  0.79655034  0.49671896  1
  Hf  Hf34  1  0.49356797  0.90537905  0.37026426  1
  Hf  Hf35  1  0.39762515  0.40225312  0.50018690  1
  Hf  Hf36  1  0.79465207  0.20197084  0.49875506  1
  Hf  Hf37  1  0.49897364  0.10708012  0.62176173  1
  Hf  Hf38  1  0.30171175  0.89644495  0.36792631  1
  Hf  Hf39  1  0.91044852  0.48608543  0.88325409  1
  Zr  Zr40  1  0.89539434  0.30059584  0.36347502  1
  Zr  Zr41  1  0.09504280  0.88898465  0.87172261  1
  Zr  Zr42  1  0.40325915  0.80595598  0.73992671  1
  Zr  Zr43  1  0.90228220  0.90626630  0.37828640  1
  Zr  Zr44  1  0.60581035  0.80977660  0.73911375  1
  Zr  Zr45  1  0.00992075  0.59396545  0.75380132  1
  Zr  Zr46  1  0.00017421  0.39928128  0.48522012  1
  Zr  Zr47  1  0.39526655  0.20467002  0.75917354  1
  Zr  Zr48  1  0.69038139  0.49346226  0.87630924  1
  Zr  Zr49  1  0.70305959  0.68963077  0.62481295  1
  Zr  Zr50  1  0.51074607  0.49855133  0.63053864  1
  Zr  Zr51  1  0.90110558  0.29141112  0.89692873  1
  Zr  Zr52  1  0.38265897  -0.00237440  0.00088535  1
  Zr  Zr53  1  0.28220890  0.30119859  0.88442704  1
  Zr  Zr54  1  0.11061578  0.70159285  0.38033437  1
  Zr  Zr55  1  0.39804174  0.20076235  0.25208685  1
  Zr  Zr56  1  0.30184200  0.49817049  0.36037128  1
  Zr  Zr57  1  0.50928639  0.90195011  0.89137134  1
  Zr  Zr58  1  0.19728931  0.40989548  0.73530845  1
  Zr  Zr59  1  0.10552198  0.89533648  0.14676623  1
  Zr  Zr60  1  0.81174678  0.81193684  0.75156609  1
  Zr  Zr61  1  0.19794629  0.00240671  0.00360419  1
  Zr  Zr62  1  0.69190572  0.29809326  0.36421670  1
  Zr  Zr63  1  0.78879103  0.40541990  0.02453848  1
  Zr  Zr64  1  0.70427365  0.90200644  0.36189037  1
  Zr  Zr65  1  0.79589422  -0.00169333  0.75393762  1
  Zr  Zr66  1  0.50420848  0.10582842  0.88998046  1
  Zr  Zr67  1  0.79880689  0.19493878  0.74415850  1
  Zr  Zr68  1  0.00413890  0.61018096  0.00303600  1
  Zr  Zr69  1  -0.00296895  0.00097174  0.73831944  1
  Zr  Zr70  1  0.79203127  0.38770470  0.74408535  1
  Zr  Zr71  1  -0.00292716  -0.00941387  0.01515272  1
  Zr  Zr72  1  0.79961332  -0.01448575  0.00268803  1
  Zr  Zr73  1  0.20444381  0.60547361  0.00392936  1
  Zr  Zr74  1  0.59766843  0.00460197  0.50028738  1
  Zr  Zr75  1  0.80761150  0.60655199  -0.00036690  1
  Zr  Zr76  1  0.80535455  0.59881420  0.76029693  1
  Zr  Zr77  1  0.69305864  0.28637940  0.90807827  1
  Zr  Zr78  1  0.40669507  0.20525600  0.48327544  1
  Zr  Zr79  1  0.49937025  0.70247635  0.88199433  1
  Ta  Ta80  1  0.40141645  -0.00064977  0.74516014  1
  Ta  Ta81  1  0.89610875  0.10038652  0.36348724  1
  Ta  Ta82  1  0.38860758  0.41154785  -0.00740223  1
  Ta  Ta83  1  0.39633214  -0.00273231  0.50791210  1
  Ta  Ta84  1  0.50591646  0.69911487  0.61704673  1
  Ta  Ta85  1  0.88860873  0.88958634  0.15278842  1
  Ta  Ta86  1  0.49148633  0.09541287  0.11724627  1
  Ta  Ta87  1  -0.00368406  0.79462884  0.26670189  1
  Ta  Ta88  1  0.29580639  0.50859210  0.86912730  1
  Ta  Ta89  1  0.80139399  0.19913405  0.23266463  1
  Ta  Ta90  1  0.59517816  0.19960515  0.23475700  1
  Ta  Ta91  1  0.09572931  0.70056466  0.14657471  1
  Ta  Ta92  1  -0.00192247  0.59801490  0.26547866  1
  Ta  Ta93  1  0.91900020  0.71557298  0.87438390  1
  Ta  Ta94  1  0.90125594  0.50416605  0.14120685  1
  Ta  Ta95  1  0.89777457  0.49719272  0.61864934  1
  Ta  Ta96  1  0.79192834  0.40375800  0.50103097  1
  Ta  Ta97  1  0.50292096  0.48961958  0.36334306  1
  Ta  Ta98  1  0.10710465  0.49182349  0.88875270  1
  Ta  Ta99  1  0.30001951  0.30298478  0.61881792  1
  Ta  Ta100  1  0.19270388  0.19365275  0.25821017  1
  Ta  Ta101  1  0.39361050  0.79870072  0.01009297  1
  Ta  Ta102  1  0.90311988  0.30273414  0.12833349  1
  Ta  Ta103  1  0.30037001  0.08912336  0.36913011  1
  Ta  Ta104  1  0.09317979  0.10830283  0.88052752  1
  Ta  Ta105  1  0.00252267  0.00935922  0.24876773  1
  Ta  Ta106  1  0.19298551  0.61406039  0.73854072  1
  Ta  Ta107  1  0.39474783  0.60561179  0.00765107  1
  Ta  Ta108  1  0.00511537  0.19836594  0.25155024  1
  Ta  Ta109  1  0.29143360  0.70856364  0.86467760  1
  Ta  Ta110  1  0.19632759  0.20270657  0.48610733  1
  Ta  Ta111  1  0.70961428  0.90302887  0.60580535  1
  Ta  Ta112  1  0.49997823  0.30685099  0.89314917  1
  Ta  Ta113  1  0.80254468  0.79296409  0.48842351  1
  Ta  Ta114  1  0.59171557  -0.00603337  0.23038351  1
  Ta  Ta115  1  0.20043247  0.00568578  0.50100912  1
  Ta  Ta116  1  0.09116271  0.50330654  0.60996486  1
  Ta  Ta117  1  0.39856579  0.39799543  0.75397077  1
  Ta  Ta118  1  0.59888756  0.79946474  0.23902522  1
  Ta  Ta119  1  0.59763701  0.39909219  0.23369889  1
  Ti  Ti120  1  0.60823842  0.81353627  0.02427981  1
  Ti  Ti121  1  0.69711970  0.10625573  0.61486988  1
  Ti  Ti122  1  0.78911327  0.40521953  0.24137612  1
  Ti  Ti123  1  0.30150255  0.91146726  0.14890200  1
  Ti  Ti124  1  0.90922913  0.10315394  0.61814627  1
  Ti  Ti125  1  0.00408519  0.39956105  0.25620041  1
  Ti  Ti126  1  0.10142790  0.90243616  0.60870871  1
  Ti  Ti127  1  0.28608718  0.10099233  0.86252975  1
  Ti  Ti128  1  0.00443741  0.01105378  0.49491197  1
  Ti  Ti129  1  0.80485399  0.00640276  0.50148235  1
  Ti  Ti130  1  0.89072397  0.49660092  0.36183529  1
  Ti  Ti131  1  0.00949857  0.19723337  0.48047220  1
  Ti  Ti132  1  0.29858192  0.49376904  0.13113884  1
  Ti  Ti133  1  0.81381724  0.80595199  -0.00393089  1
  Ti  Ti134  1  0.90482760  0.70042501  0.14495381  1
  Ti  Ti135  1  -0.00331893  0.80059786  0.01311490  1
  Ti  Ti136  1  0.30007052  0.30337918  0.36945321  1
  Ti  Ti137  1  0.70091437  0.49605840  0.62997175  1
  Ti  Ti138  1  0.19588089  0.59655949  0.25160404  1
  Ti  Ti139  1  0.29658591  0.89687158  0.86121464  1
  Ti  Ti140  1  0.41599836  0.80804890  0.22892760  1
  Ti  Ti141  1  0.20847282  0.79569419  0.52077245  1
  Ti  Ti142  1  0.49406417  0.49259126  0.11959970  1
  Ti  Ti143  1  0.10547536  0.49709995  0.37678800  1
  Ti  Ti144  1  -0.00416318  0.59629379  0.48371676  1
  Ti  Ti145  1  0.50148627  0.29688200  0.62561331  1
  Ti  Ti146  1  0.00337885  0.79649050  0.49715911  1
  Ti  Ti147  1  0.38459670  0.19368476  -0.00055340  1
  Ti  Ti148  1  0.50225849  0.10052989  0.36793607  1
  Ti  Ti149  1  0.60065337  0.60390633  0.75294632  1
  Ti  Ti150  1  0.90114124  0.90113538  0.60644004  1
  Ti  Ti151  1  -0.00459611  0.18138195  0.03185020  1
  Ti  Ti152  1  0.59886603  0.38967891  0.74732220  1
  Ti  Ti153  1  0.60598463  0.59183590  0.48278089  1
  Ti  Ti154  1  0.29937635  0.90297643  0.62787284  1
  Ti  Ti155  1  0.19922953  0.18174262  0.01851864  1
  Ti  Ti156  1  0.20005145  0.39639412  0.50261437  1
  Ti  Ti157  1  0.40210905  0.80405497  0.51705846  1
  Ti  Ti158  1  0.19562699  0.39287863  0.25904750  1
  Ti  Ti159  1  0.69637618  0.09549156  0.89798772  1
  Mo  Mo160  1  0.49978161  0.90389240  0.61388474  1
  Mo  Mo161  1  0.09855254  0.09903843  0.37823107  1
  Mo  Mo162  1  0.09297753  0.10216671  0.60014257  1
  Mo  Mo163  1  0.70087941  0.89944945  0.88994800  1
  Mo  Mo164  1  -0.00057615  0.19416963  0.74557892  1
  Mo  Mo165  1  0.69789662  0.29865342  0.13024432  1
  Mo  Mo166  1  0.10885095  0.69872616  0.87434151  1
  Mo  Mo167  1  0.20142912  0.00748853  0.25915157  1
  Mo  Mo168  1  0.49890693  0.30343065  0.35368049  1
  Mo  Mo169  1  0.70401481  0.89561769  0.13656523  1
  Mo  Mo170  1  0.20179527  0.80077114  0.25040371  1
  Mo  Mo171  1  0.10118531  0.30072763  0.59722259  1
  Mo  Mo172  1  0.29708390  0.10008072  0.14436530  1
  Mo  Mo173  1  0.79986663  0.00139709  0.24167656  1
  Mo  Mo174  1  0.20218164  0.80071187  0.73214852  1
  Mo  Mo175  1  0.90567159  0.89188187  0.87584167  1
  Mo  Mo176  1  0.40339595  0.00263379  0.24461474  1
  Mo  Mo177  1  0.70313853  0.50355508  0.13810306  1
  Mo  Mo178  1  0.20394349  0.40762283  0.00047263  1
  Mo  Mo179  1  0.29863962  0.49655894  0.63537512  1
  Mo  Mo180  1  -0.00282925  0.40653731  0.02080705  1
  Mo  Mo181  1  0.80713785  0.59816148  0.26136447  1
  Mo  Mo182  1  0.59786783  -0.00575767  0.01312898  1
  Mo  Mo183  1  0.49809071  0.90115245  0.11778109  1
  Mo  Mo184  1  0.70027623  0.49320655  0.35897590  1
  Mo  Mo185  1  0.90478043  0.69768845  0.38325957  1
  Mo  Mo186  1  0.59104263  0.40529847  0.01541783  1
  Mo  Mo187  1  0.10724408  0.30269927  0.36982699  1
  Mo  Mo188  1  0.40113494  0.40082871  0.24750497  1
  Mo  Mo189  1  0.59477230  0.19708525  0.01253063  1
  Mo  Mo190  1  0.59744338  0.20305398  0.49750851  1
  Mo  Mo191  1  0.50078365  0.70373914  0.11493746  1
  Mo  Mo192  1  0.69055594  0.29759645  0.61286143  1
  Mo  Mo193  1  0.30084157  0.70584035  0.63050403  1
  Mo  Mo194  1  0.90026038  0.09583576  0.13968690  1
  Mo  Mo195  1  0.09877014  0.69743406  0.60028675  1
  Mo  Mo196  1  0.10167124  0.10137534  0.13564260  1
  Mo  Mo197  1  0.80566523  0.19484501  0.02031283  1
  Mo  Mo198  1  0.80361987  0.79239526  0.27164633  1
  Mo  Mo199  1  0.70043461  0.69995531  0.36385458  1
