# generated using pymatgen
data_HfZrTaTiMo
_symmetry_space_group_name_H-M   'P 1'
_cell_length_a   15.93045417
_cell_length_b   15.91981742
_cell_length_c   15.20618344
_cell_angle_alpha   89.96249393
_cell_angle_beta   90.04183093
_cell_angle_gamma   90.04909941
_symmetry_Int_Tables_number   1
_chemical_formula_structural   HfZrTaTiMo
_chemical_formula_sum   'Hf40 Zr40 Ta40 Ti40 Mo40'
_cell_volume   3856.43572447
_cell_formula_units_Z   40
loop_
 _symmetry_equiv_pos_site_id
 _symmetry_equiv_pos_as_xyz
  1  'x, y, z'
loop_
 _atom_site_type_symbol
 _atom_site_label
 _atom_site_symmetry_multiplicity
 _atom_site_fract_x
 _atom_site_fract_y
 _atom_site_fract_z
 _atom_site_occupancy
  Hf  Hf0  1  0.10127319  0.70800814  0.62941101  1
  Hf  Hf1  1  0.20259076  0.00505767  -0.00527456  1
  Hf  Hf2  1  0.29508610  0.69011397  0.87888674  1
  Hf  Hf3  1  0.70312220  0.89562980  0.36684395  1
  Hf  Hf4  1  0.39897621  0.18634582  0.00230030  1
  Hf  Hf5  1  0.09674906  0.11689023  0.37699916  1
  Hf  Hf6  1  0.49398945  0.29265581  0.87947187  1
  Hf  Hf7  1  0.90528012  0.71059354  0.39018812  1
  Hf  Hf8  1  0.09264131  0.89791078  0.37307390  1
  Hf  Hf9  1  0.39844357  0.79154592  0.23322816  1
  Hf  Hf10  1  0.39661617  0.59291995  0.23545901  1
  Hf  Hf11  1  0.69193277  0.09099708  0.86032081  1
  Hf  Hf12  1  -0.00698316  0.20432452  0.24875335  1
  Hf  Hf13  1  0.50435317  0.69709372  0.62381152  1
  Hf  Hf14  1  0.80641032  -0.00094614  0.50029303  1
  Hf  Hf15  1  0.49567481  0.29252873  0.13829516  1
  Hf  Hf16  1  0.58899441  0.38969342  0.73218082  1
  Hf  Hf17  1  0.00237463  0.40471213  0.24952802  1
  Hf  Hf18  1  0.78961782  0.19926821  -0.00181980  1
  Hf  Hf19  1  0.10136706  0.70194111  0.36977828  1
  Hf  Hf20  1  0.49489626  0.49105205  0.87709975  1
  Hf  Hf21  1  0.60658593  0.80410550  0.01547699  1
  Hf  Hf22  1  0.00758255  0.58831955  0.51875989  1
  Hf  Hf23  1  0.69436877  0.49882193  0.62251810  1
  Hf  Hf24  1  0.70165143  0.91924311  0.14085047  1
  Hf  Hf25  1  0.89298600  0.30193677  0.12213139  1
  Hf  Hf26  1  0.19905686  0.80677783  0.75737413  1
  Hf  Hf27  1  -0.00051440  0.60641285  0.23187829  1
  Hf  Hf28  1  0.11065192  0.50856071  0.86838094  1
  Hf  Hf29  1  0.80573787  0.59669147  0.51285669  1
  Hf  Hf30  1  0.48961073  0.10088568  0.59784492  1
  Hf  Hf31  1  0.10560728  0.30398349  0.12418302  1
  Hf  Hf32  1  0.20806859  0.20321444  -0.00753943  1
  Hf  Hf33  1  -0.00028611  0.41670402  -0.00139862  1
  Hf  Hf34  1  0.60158808  0.18742850  0.27263697  1
  Hf  Hf35  1  0.80702672  0.79635443  0.23629953  1
  Hf  Hf36  1  0.79817035  0.59988978  0.24965948  1
  Hf  Hf37  1  0.50019667  0.88908558  0.37203517  1
  Hf  Hf38  1  0.69485971  0.70884494  0.38966281  1
  Hf  Hf39  1  0.79502746  0.19970457  0.73419980  1
  Zr  Zr40  1  0.90148971  0.71655645  0.62397013  1
  Zr  Zr41  1  0.50205163  0.69861793  0.88448537  1
  Zr  Zr42  1  0.60752019  0.59961741  0.76544970  1
  Zr  Zr43  1  0.19727934  0.40416697  0.50997347  1
  Zr  Zr44  1  0.89300366  0.08875399  0.86549978  1
  Zr  Zr45  1  -0.01437437  0.00231670  0.25283172  1
  Zr  Zr46  1  0.60690325  0.39512395  0.00452778  1
  Zr  Zr47  1  0.60163327  0.19090411  0.00958959  1
  Zr  Zr48  1  0.28603834  0.89452082  0.12816673  1
  Zr  Zr49  1  0.30490087  0.29971275  0.14458120  1
  Zr  Zr50  1  0.58382829  0.19228686  0.73850561  1
  Zr  Zr51  1  0.20910055  0.00983544  0.48981939  1
  Zr  Zr52  1  0.01338704  0.39226187  0.50934016  1
  Zr  Zr53  1  0.41121527  0.00865962  0.75571437  1
  Zr  Zr54  1  0.20523097  0.59355217  0.50746366  1
  Zr  Zr55  1  0.11043398  0.30816160  0.87132246  1
  Zr  Zr56  1  0.59928479  0.60027514  0.24817886  1
  Zr  Zr57  1  0.60059831  0.39499261  0.26341566  1
  Zr  Zr58  1  0.80300901  0.60127160  0.75959918  1
  Zr  Zr59  1  0.79550082  0.59891287  -0.01770987  1
  Zr  Zr60  1  0.90263475  0.72227714  0.87924369  1
  Zr  Zr61  1  0.00419352  0.20018094  0.74155671  1
  Zr  Zr62  1  0.10423352  0.10104119  0.12905994  1
  Zr  Zr63  1  0.90408612  0.49897009  0.37485921  1
  Zr  Zr64  1  0.60041306  0.00206129  0.48590368  1
  Zr  Zr65  1  0.11129599  0.71726235  0.11959785  1
  Zr  Zr66  1  0.00134139  0.61136475  -0.00239193  1
  Zr  Zr67  1  0.89916986  0.30940643  0.86320079  1
  Zr  Zr68  1  0.79267250  0.40986736  -0.01016608  1
  Zr  Zr69  1  0.28953993  0.29780706  0.37461781  1
  Zr  Zr70  1  0.49858057  0.48769368  0.12449956  1
  Zr  Zr71  1  0.09613139  0.90972711  0.62327340  1
  Zr  Zr72  1  0.80707621  0.19211019  0.49435273  1
  Zr  Zr73  1  0.50949224  0.89992228  0.88363143  1
  Zr  Zr74  1  -0.00168122  0.19528932  -0.00620159  1
  Zr  Zr75  1  0.69593596  0.49392197  0.39041455  1
  Zr  Zr76  1  0.60372014  -0.01338471  0.73508654  1
  Zr  Zr77  1  0.30656321  0.69581863  0.37708848  1
  Zr  Zr78  1  0.20483156  0.80448565  0.50205249  1
  Zr  Zr79  1  0.40744369  0.80194809  0.75100564  1
  Ta  Ta80  1  0.30012127  0.10133244  0.85981783  1
  Ta  Ta81  1  0.90411502  0.29901482  0.62185405  1
  Ta  Ta82  1  0.40112424  -0.00073499  0.25713127  1
  Ta  Ta83  1  0.59687567  0.00538081  0.01220211  1
  Ta  Ta84  1  0.90167270  0.90447284  0.10925209  1
  Ta  Ta85  1  0.69830816  0.09715894  0.61726745  1
  Ta  Ta86  1  0.10473989  0.09138076  0.85868443  1
  Ta  Ta87  1  0.30808357  0.69975910  0.62902669  1
  Ta  Ta88  1  0.20214288  0.00212363  0.25983585  1
  Ta  Ta89  1  0.20553124  0.40091155  0.73270772  1
  Ta  Ta90  1  0.39781108  0.39817875  0.50356950  1
  Ta  Ta91  1  0.00184623  0.60327050  0.75354139  1
  Ta  Ta92  1  0.79681146  0.81743560  0.74422560  1
  Ta  Ta93  1  0.30093381  0.90629373  0.87676069  1
  Ta  Ta94  1  0.30084743  0.49241397  0.86550466  1
  Ta  Ta95  1  0.59496757  0.79452773  0.23300837  1
  Ta  Ta96  1  0.38602535  0.39344821  -0.00178564  1
  Ta  Ta97  1  0.30785189  0.90909734  0.62876767  1
  Ta  Ta98  1  0.09636171  0.90433462  0.12564172  1
  Ta  Ta99  1  0.61270270  0.59048250  -0.00517836  1
  Ta  Ta100  1  0.88981254  0.50262044  0.12849603  1
  Ta  Ta101  1  0.20437995  0.59934395  0.23321793  1
  Ta  Ta102  1  0.40297631  0.00024816  0.00860403  1
  Ta  Ta103  1  0.70410188  0.29691875  0.14377381  1
  Ta  Ta104  1  0.80645751  0.39595140  0.51116783  1
  Ta  Ta105  1  0.18641379  0.20757990  0.51318414  1
  Ta  Ta106  1  0.39376661  0.80018477  0.00748932  1
  Ta  Ta107  1  0.30645617  0.29083146  0.62179702  1
  Ta  Ta108  1  0.70894555  0.90022171  0.87817221  1
  Ta  Ta109  1  0.69634705  0.70936219  0.62147125  1
  Ta  Ta110  1  0.29529705  0.09855513  0.63184714  1
  Ta  Ta111  1  0.39112596  0.58890099  0.00700922  1
  Ta  Ta112  1  -0.00680123  0.80212136  0.23474770  1
  Ta  Ta113  1  0.40023775  0.80139455  0.50600632  1
  Ta  Ta114  1  0.19975858  0.41103172  0.24922001  1
  Ta  Ta115  1  0.69509538  0.29934676  0.85875141  1
  Ta  Ta116  1  0.49177352  0.50104533  0.38799798  1
  Ta  Ta117  1  0.80061452  0.19420106  0.26647756  1
  Ta  Ta118  1  0.40303311  0.19093314  0.27083804  1
  Ta  Ta119  1  0.50051651  0.69325638  0.10798118  1
  Ti  Ti120  1  0.20784594  0.41316821  0.01231301  1
  Ti  Ti121  1  0.49487839  0.49935182  0.61182640  1
  Ti  Ti122  1  0.40176524  0.59398262  0.75043287  1
  Ti  Ti123  1  0.10126410  0.09987473  0.62994448  1
  Ti  Ti124  1  0.70163394  0.89270391  0.61208869  1
  Ti  Ti125  1  0.70297906  0.68904065  0.11842500  1
  Ti  Ti126  1  0.88212909  0.09535035  0.12789938  1
  Ti  Ti127  1  0.49807369  0.69684274  0.38427685  1
  Ti  Ti128  1  0.50053690  0.29755487  0.39688718  1
  Ti  Ti129  1  0.40117127  0.20280346  0.74541434  1
  Ti  Ti130  1  0.40012653  0.39332230  0.73397910  1
  Ti  Ti131  1  0.10643376  0.50456794  0.36723284  1
  Ti  Ti132  1  0.20242532  0.60117142  0.74209289  1
  Ti  Ti133  1  0.50290344  0.89559237  0.61128645  1
  Ti  Ti134  1  0.59496241  0.59936332  0.50070467  1
  Ti  Ti135  1  0.20336473  0.20212643  0.74332765  1
  Ti  Ti136  1  0.20343539  0.59298310  0.01385791  1
  Ti  Ti137  1  0.38507657  0.18675690  0.48484292  1
  Ti  Ti138  1  0.79998554  0.80201767  0.00895287  1
  Ti  Ti139  1  0.68900378  0.29481099  0.60565521  1
  Ti  Ti140  1  0.00263734  0.41124747  0.73746100  1
  Ti  Ti141  1  0.78882430  0.00714166  0.00463662  1
  Ti  Ti142  1  0.30209432  0.30389205  0.86221811  1
  Ti  Ti143  1  0.50486247  0.08745209  0.14393882  1
  Ti  Ti144  1  0.70034026  0.29818697  0.39000531  1
  Ti  Ti145  1  0.30178522  0.89545763  0.36815634  1
  Ti  Ti146  1  0.30930796  0.50455069  0.62928635  1
  Ti  Ti147  1  -0.00087965  0.80878108  0.75705686  1
  Ti  Ti148  1  -0.01169246  -0.00469829  0.74178794  1
  Ti  Ti149  1  0.80066927  0.39430736  0.26013393  1
  Ti  Ti150  1  0.89541777  0.90818793  0.88431415  1
  Ti  Ti151  1  0.80033466  0.40233200  0.73768952  1
  Ti  Ti152  1  -0.00075262  0.00437838  -0.00061035  1
  Ti  Ti153  1  0.30112383  0.10105358  0.14398081  1
  Ti  Ti154  1  0.09159766  0.90578020  0.87564628  1
  Ti  Ti155  1  -0.00758241  0.01435254  0.50351580  1
  Ti  Ti156  1  0.19227359  0.80168476  -0.01929448  1
  Ti  Ti157  1  0.30564559  0.50031561  0.37280603  1
  Ti  Ti158  1  0.91301000  0.29433498  0.38842693  1
  Ti  Ti159  1  0.90104005  0.89501774  0.38510460  1
  Mo  Mo160  1  0.49706911  0.90132146  0.12905934  1
  Mo  Mo161  1  0.00445293  0.81863281  -0.00120903  1
  Mo  Mo162  1  0.59615926  0.79796747  0.50579129  1
  Mo  Mo163  1  0.10162077  0.50347444  0.12464994  1
  Mo  Mo164  1  0.29540396  0.09907785  0.36746454  1
  Mo  Mo165  1  0.89845713  0.70768359  0.10886003  1
  Mo  Mo166  1  0.09954598  0.30411292  0.36305088  1
  Mo  Mo167  1  0.30007690  0.49295364  0.13007820  1
  Mo  Mo168  1  0.39313717  -0.00863662  0.49067251  1
  Mo  Mo169  1  0.61277926  0.80059259  0.74434974  1
  Mo  Mo170  1  0.80260619  -0.00478813  0.72865862  1
  Mo  Mo171  1  0.19702026  0.80388989  0.25579681  1
  Mo  Mo172  1  0.69706213  0.47983117  0.85196281  1
  Mo  Mo173  1  0.49199483  0.09361804  0.38024074  1
  Mo  Mo174  1  0.69823590  0.72545116  0.87531002  1
  Mo  Mo175  1  0.10407169  0.70621783  0.86776097  1
  Mo  Mo176  1  0.90200267  0.09515855  0.63136716  1
  Mo  Mo177  1  0.40071679  0.39692368  0.28051482  1
  Mo  Mo178  1  0.90376503  0.09803642  0.37576793  1
  Mo  Mo179  1  0.60167469  0.19951723  0.48937678  1
  Mo  Mo180  1  0.70790514  0.49602143  0.13668023  1
  Mo  Mo181  1  0.19851587  0.20167327  0.25071737  1
  Mo  Mo182  1  0.90425484  0.50020270  0.85355975  1
  Mo  Mo183  1  0.29849899  0.69722650  0.10676520  1
  Mo  Mo184  1  0.79961063  0.80505380  0.51013594  1
  Mo  Mo185  1  0.10489057  0.50502893  0.64638653  1
  Mo  Mo186  1  0.59469942  -0.00245837  0.25415130  1
  Mo  Mo187  1  0.70390125  0.09307897  0.36914520  1
  Mo  Mo188  1  0.70376117  0.10308527  0.14455299  1
  Mo  Mo189  1  0.00428275  0.19848172  0.51447205  1
  Mo  Mo190  1  0.90071170  0.49486005  0.63723574  1
  Mo  Mo191  1  0.40251961  0.59681328  0.50702211  1
  Mo  Mo192  1  0.59588713  0.39545623  0.50594292  1
  Mo  Mo193  1  0.00043218  0.80598599  0.49822412  1
  Mo  Mo194  1  0.48833326  0.29405869  0.60130124  1
  Mo  Mo195  1  0.10559176  0.29790211  0.64198343  1
  Mo  Mo196  1  0.20004824  0.00195846  0.75420352  1
  Mo  Mo197  1  0.49481643  0.09448499  0.88571147  1
  Mo  Mo198  1  0.80407121  0.00300609  0.26441867  1
  Mo  Mo199  1  0.90308861  0.90199635  0.61803059  1
