# generated using pymatgen
data_HfZrTaTiMo
_symmetry_space_group_name_H-M   'P 1'
_cell_length_a   15.93483776
_cell_length_b   15.93747660
_cell_length_c   15.22436342
_cell_angle_alpha   89.97668380
_cell_angle_beta   90.05612819
_cell_angle_gamma   89.94978660
_symmetry_Int_Tables_number   1
_chemical_formula_structural   HfZrTaTiMo
_chemical_formula_sum   'Hf40 Zr40 Ta40 Ti40 Mo40'
_cell_volume   3866.39247999
_cell_formula_units_Z   40
loop_
 _symmetry_equiv_pos_site_id
 _symmetry_equiv_pos_as_xyz
  1  'x, y, z'
loop_
 _atom_site_type_symbol
 _atom_site_label
 _atom_site_symmetry_multiplicity
 _atom_site_fract_x
 _atom_site_fract_y
 _atom_site_fract_z
 _atom_site_occupancy
  Hf  Hf0  1  -0.00259120  0.40074785  0.26371888  1
  Hf  Hf1  1  0.19476637  0.00379584  0.00647861  1
  Hf  Hf2  1  0.89673764  0.50799372  0.38986072  1
  Hf  Hf3  1  0.20650996  0.39509244  0.25449066  1
  Hf  Hf4  1  0.09091196  0.10292396  0.14885280  1
  Hf  Hf5  1  0.81385928  0.78989674  0.25152929  1
  Hf  Hf6  1  0.29964476  0.89532244  0.12276660  1
  Hf  Hf7  1  0.49282255  0.29863116  0.62659079  1
  Hf  Hf8  1  0.30000632  0.48699921  0.86342109  1
  Hf  Hf9  1  0.89881181  0.50590544  0.88000387  1
  Hf  Hf10  1  0.00421183  0.62393467  0.27442204  1
  Hf  Hf11  1  0.10695869  0.51429835  0.13941193  1
  Hf  Hf12  1  0.20339591  -0.00050506  0.73670775  1
  Hf  Hf13  1  0.79829975  0.80375342  0.51471122  1
  Hf  Hf14  1  0.41201456  0.58515821  0.51043295  1
  Hf  Hf15  1  -0.00243706  0.00087647  0.00961522  1
  Hf  Hf16  1  0.70028456  0.08907451  0.36262750  1
  Hf  Hf17  1  0.50370220  0.69764856  0.87934460  1
  Hf  Hf18  1  0.70268770  0.90098672  0.36191336  1
  Hf  Hf19  1  0.80260498  -0.00206831  0.02314083  1
  Hf  Hf20  1  0.39612931  0.80716624  0.75987454  1
  Hf  Hf21  1  0.39832255  0.59667299  0.74767388  1
  Hf  Hf22  1  0.60418865  0.80094657  0.23426138  1
  Hf  Hf23  1  0.48324385  0.48981163  0.35714932  1
  Hf  Hf24  1  0.80342216  0.21135724  0.75318886  1
  Hf  Hf25  1  0.09180689  0.48580436  0.87159433  1
  Hf  Hf26  1  0.60807125  0.59264463  0.23763610  1
  Hf  Hf27  1  0.20053217  -0.00154792  0.50367463  1
  Hf  Hf28  1  0.20943032  0.20379795  0.25834252  1
  Hf  Hf29  1  0.69419363  0.28566478  0.11960463  1
  Hf  Hf30  1  0.49911959  0.90888265  0.63415939  1
  Hf  Hf31  1  0.60138801  0.80515079  0.50386238  1
  Hf  Hf32  1  0.19640495  0.59315435  -0.00989980  1
  Hf  Hf33  1  0.10138908  0.70373850  0.60692219  1
  Hf  Hf34  1  0.40445090  0.21033305  0.25672688  1
  Hf  Hf35  1  0.09799377  0.10448893  0.86453610  1
  Hf  Hf36  1  0.50809645  0.69892499  0.63103713  1
  Hf  Hf37  1  0.60883966  0.58888392  0.00727356  1
  Hf  Hf38  1  0.70554973  0.49948573  0.86402198  1
  Hf  Hf39  1  0.70358226  0.89915299  0.86085604  1
  Zr  Zr40  1  0.90568267  0.89850865  0.86139854  1
  Zr  Zr41  1  0.80664553  0.79872209  0.00744775  1
  Zr  Zr42  1  -0.01015616  0.59141718  0.73251926  1
  Zr  Zr43  1  0.68958261  0.09680794  0.63085010  1
  Zr  Zr44  1  0.50551666  0.69412924  0.37499040  1
  Zr  Zr45  1  0.30312267  0.70810687  0.61064459  1
  Zr  Zr46  1  0.40063784  0.80824827  0.25829540  1
  Zr  Zr47  1  0.40842769  -0.00140103  0.48338928  1
  Zr  Zr48  1  0.19725089  0.20313161  0.01448203  1
  Zr  Zr49  1  0.09953246  0.89803456  0.15091181  1
  Zr  Zr50  1  0.29721701  0.29854201  0.87106430  1
  Zr  Zr51  1  0.60654497  0.00165707  0.01245637  1
  Zr  Zr52  1  0.79484579  0.40379666  0.24589280  1
  Zr  Zr53  1  0.90734896  0.10733586  0.62359236  1
  Zr  Zr54  1  0.80379732  0.39316359  0.50389724  1
  Zr  Zr55  1  0.00661915  0.39690813  0.01764190  1
  Zr  Zr56  1  0.08594655  0.70628727  0.12135077  1
  Zr  Zr57  1  0.80441420  -0.00078187  0.50687946  1
  Zr  Zr58  1  0.28736071  0.70200967  0.12642903  1
  Zr  Zr59  1  0.69535139  0.29664954  0.62362733  1
  Zr  Zr60  1  0.59076175  0.19976115  0.76469053  1
  Zr  Zr61  1  0.80217060  0.19243126  0.00077015  1
  Zr  Zr62  1  0.30224667  0.69179689  0.37437364  1
  Zr  Zr63  1  0.91096349  0.09695513  0.85825541  1
  Zr  Zr64  1  0.19646350  0.59952373  0.74184489  1
  Zr  Zr65  1  0.19743544  0.19679089  0.72953299  1
  Zr  Zr66  1  0.91136259  0.51618756  0.12376198  1
  Zr  Zr67  1  0.19561484  0.80871998  0.74815949  1
  Zr  Zr68  1  0.18526560  0.38800680  0.72895064  1
  Zr  Zr69  1  0.09557667  0.10065458  0.37846385  1
  Zr  Zr70  1  0.60598556  0.80217044  0.00294547  1
  Zr  Zr71  1  0.70606656  0.68969559  0.38201961  1
  Zr  Zr72  1  0.90825762  0.31034387  0.87641579  1
  Zr  Zr73  1  0.50811428  0.48363998  0.86405818  1
  Zr  Zr74  1  0.48249551  0.69565919  0.11797765  1
  Zr  Zr75  1  0.30990464  0.51143085  0.14772651  1
  Zr  Zr76  1  0.08596512  0.70217265  0.87511752  1
  Zr  Zr77  1  0.70036910  0.09319094  0.86612744  1
  Zr  Zr78  1  0.59638378  0.39142709  0.24554164  1
  Zr  Zr79  1  0.59111693  0.40441380  0.49682748  1
  Ta  Ta80  1  0.70853697  0.69130630  0.86110039  1
  Ta  Ta81  1  0.39680785  0.00660972  0.76113054  1
  Ta  Ta82  1  -0.00277410  0.81723324  0.50508262  1
  Ta  Ta83  1  0.79485290  0.40428130  0.01603132  1
  Ta  Ta84  1  0.59310942  0.19307217  0.48298814  1
  Ta  Ta85  1  0.90351912  0.28811695  0.13747800  1
  Ta  Ta86  1  -0.01878874  0.20991145  0.48211783  1
  Ta  Ta87  1  0.49539970  0.10126504  0.63026411  1
  Ta  Ta88  1  0.40037066  0.00259837  0.00221912  1
  Ta  Ta89  1  0.69201744  0.31399682  0.88393379  1
  Ta  Ta90  1  0.10107875  0.30387554  0.38374224  1
  Ta  Ta91  1  0.29864043  0.48703142  0.61621100  1
  Ta  Ta92  1  0.50538471  0.10596814  0.12376138  1
  Ta  Ta93  1  0.80453209  0.60088686  0.24400415  1
  Ta  Ta94  1  0.31306032  0.10382724  0.61527010  1
  Ta  Ta95  1  0.40425739  0.00792818  0.24806231  1
  Ta  Ta96  1  0.29900061  0.09842733  0.87908835  1
  Ta  Ta97  1  0.39485479  0.39891521  0.01252980  1
  Ta  Ta98  1  0.39721919  0.59216908  -0.01086557  1
  Ta  Ta99  1  0.20033506  0.59512036  0.49618051  1
  Ta  Ta100  1  0.91036960  0.89653978  0.14539568  1
  Ta  Ta101  1  0.09591584  0.90219097  0.37741337  1
  Ta  Ta102  1  0.29879744  0.90372505  0.88818385  1
  Ta  Ta103  1  0.30028022  0.70649375  0.88737249  1
  Ta  Ta104  1  0.70153265  0.29249219  0.37188791  1
  Ta  Ta105  1  0.80325556  0.78998005  0.73315543  1
  Ta  Ta106  1  0.49757813  0.30172899  0.88752386  1
  Ta  Ta107  1  0.81373056  0.40715363  0.73356793  1
  Ta  Ta108  1  -0.00295550  0.80361112  0.72740870  1
  Ta  Ta109  1  0.08933618  0.49295333  0.59798016  1
  Ta  Ta110  1  0.69267251  0.90206349  0.64147904  1
  Ta  Ta111  1  0.69206771  0.50406555  0.64192870  1
  Ta  Ta112  1  0.59633383  0.19531413  0.25896805  1
  Ta  Ta113  1  0.50177293  0.29457317  0.10807110  1
  Ta  Ta114  1  0.29924776  0.49609034  0.37828768  1
  Ta  Ta115  1  0.60170215  0.79668593  0.75442558  1
  Ta  Ta116  1  -0.00045912  0.19581283  0.01085130  1
  Ta  Ta117  1  0.20420349  0.39710382  0.01790166  1
  Ta  Ta118  1  0.39780128  0.19615125  0.00098036  1
  Ta  Ta119  1  0.40782632  0.19860039  0.48522017  1
  Ti  Ti120  1  0.69867210  0.50129035  0.37902046  1
  Ti  Ti121  1  0.90160738  0.69370453  0.61436663  1
  Ti  Ti122  1  0.09611106  0.90508292  0.87008215  1
  Ti  Ti123  1  0.30455075  0.29779231  0.61188053  1
  Ti  Ti124  1  0.80930340  0.18635416  0.25112389  1
  Ti  Ti125  1  0.31419726  0.31607735  0.39070670  1
  Ti  Ti126  1  0.49771571  0.49343699  0.12511403  1
  Ti  Ti127  1  0.30581829  0.10045757  0.12785543  1
  Ti  Ti128  1  -0.00711330  0.80262372  -0.00240733  1
  Ti  Ti129  1  0.49725197  0.09907220  0.88446583  1
  Ti  Ti130  1  0.39509118  0.19784898  0.75672283  1
  Ti  Ti131  1  0.79815994  0.19962065  0.49079485  1
  Ti  Ti132  1  0.60314879  0.59424132  0.51227296  1
  Ti  Ti133  1  0.10195533  0.50181418  0.38731637  1
  Ti  Ti134  1  0.80830812  -0.00488199  0.73500113  1
  Ti  Ti135  1  0.90013082  0.90898437  0.37320277  1
  Ti  Ti136  1  0.01257970  -0.01016294  0.72065408  1
  Ti  Ti137  1  0.30452921  0.90034175  0.61538914  1
  Ti  Ti138  1  0.40590767  0.80717857  0.48934068  1
  Ti  Ti139  1  0.29392164  0.89793289  0.37387627  1
  Ti  Ti140  1  0.49440985  0.90323642  0.11981683  1
  Ti  Ti141  1  -0.01877265  0.01282130  0.26315751  1
  Ti  Ti142  1  0.80691166  0.60507927  0.00833347  1
  Ti  Ti143  1  0.09560884  0.10694418  0.60458942  1
  Ti  Ti144  1  0.30377305  0.09977512  0.37852949  1
  Ti  Ti145  1  0.19028871  0.80621914  -0.00628157  1
  Ti  Ti146  1  0.59792362  0.00288184  0.49973531  1
  Ti  Ti147  1  0.09705795  0.29687888  0.14132972  1
  Ti  Ti148  1  0.79243582  0.59668493  0.52197955  1
  Ti  Ti149  1  0.00649252  0.22269476  0.73484103  1
  Ti  Ti150  1  0.09926574  0.29828080  0.88022121  1
  Ti  Ti151  1  0.51302575  0.91199304  0.36118290  1
  Ti  Ti152  1  0.71098179  0.69616298  0.12400850  1
  Ti  Ti153  1  0.20968568  0.00074036  0.25709511  1
  Ti  Ti154  1  0.08941200  0.30335171  0.59237702  1
  Ti  Ti155  1  0.49957362  0.90453776  0.87892890  1
  Ti  Ti156  1  0.89621893  0.69743232  0.86569658  1
  Ti  Ti157  1  0.90263750  0.70371767  0.40085614  1
  Ti  Ti158  1  0.18321195  0.78569644  0.27149091  1
  Ti  Ti159  1  0.20665944  0.20311983  0.49501668  1
  Mo  Mo160  1  0.58573979  -0.00409762  0.75802780  1
  Mo  Mo161  1  0.90151850  0.10136165  0.13793390  1
  Mo  Mo162  1  0.50334925  0.09497082  0.36127712  1
  Mo  Mo163  1  0.20395871  0.80671105  0.48889930  1
  Mo  Mo164  1  0.69940452  0.69738393  0.63292911  1
  Mo  Mo165  1  -0.00242259  0.39817620  0.48722972  1
  Mo  Mo166  1  0.39714612  0.80522246  -0.01102666  1
  Mo  Mo167  1  0.69843676  0.09984038  0.14200945  1
  Mo  Mo168  1  0.59810649  -0.00087585  0.22983699  1
  Mo  Mo169  1  0.89764957  0.50036042  0.60872455  1
  Mo  Mo170  1  0.89269630  0.09974766  0.37746354  1
  Mo  Mo171  1  0.59970271  0.39803874  0.00962774  1
  Mo  Mo172  1  0.39868949  0.39024829  0.23331663  1
  Mo  Mo173  1  0.40428541  0.59863506  0.25361257  1
  Mo  Mo174  1  0.20140243  0.39556328  0.49549072  1
  Mo  Mo175  1  0.10003011  0.70738125  0.39944732  1
  Mo  Mo176  1  0.80245532  -0.00235848  0.23949435  1
  Mo  Mo177  1  0.90544698  0.30152675  0.62478430  1
  Mo  Mo178  1  0.89263509  0.29691096  0.35869087  1
  Mo  Mo179  1  0.60169098  0.60166040  0.75044310  1
  Mo  Mo180  1  0.90022697  0.90018593  0.63104349  1
  Mo  Mo181  1  0.80213820  0.60272973  0.73555839  1
  Mo  Mo182  1  0.60328598  0.39545482  0.74597956  1
  Mo  Mo183  1  0.19610249  0.60002792  0.27818580  1
  Mo  Mo184  1  0.50057194  0.29798800  0.38326423  1
  Mo  Mo185  1  0.59510792  0.19778234  -0.01104582  1
  Mo  Mo186  1  -0.00282199  0.39520961  0.72750708  1
  Mo  Mo187  1  -0.00534809  0.60920303  -0.01278619  1
  Mo  Mo188  1  -0.00158438  0.60510093  0.49676828  1
  Mo  Mo189  1  0.30412673  0.29836958  0.12250757  1
  Mo  Mo190  1  0.70528088  0.50169564  0.11821713  1
  Mo  Mo191  1  -0.00365842  0.80662953  0.27973847  1
  Mo  Mo192  1  0.90425305  0.70480082  0.12356712  1
  Mo  Mo193  1  -0.00315004  0.20567152  0.26457527  1
  Mo  Mo194  1  0.70647338  0.89780905  0.14149798  1
  Mo  Mo195  1  0.39826196  0.39707544  0.51237038  1
  Mo  Mo196  1  0.10137500  0.90416531  0.60773173  1
  Mo  Mo197  1  -0.00106340  0.00388612  0.49743449  1
  Mo  Mo198  1  0.39779899  0.39166937  0.73388636  1
  Mo  Mo199  1  0.50206105  0.49398250  0.64391067  1
