# generated using pymatgen
data_HfZrTaTiMo
_symmetry_space_group_name_H-M   'P 1'
_cell_length_a   15.92971641
_cell_length_b   15.93638819
_cell_length_c   15.20473412
_cell_angle_alpha   90.00422613
_cell_angle_beta   89.98701147
_cell_angle_gamma   89.98697755
_symmetry_Int_Tables_number   1
_chemical_formula_structural   HfZrTaTiMo
_chemical_formula_sum   'Hf40 Zr40 Ta40 Ti40 Mo40'
_cell_volume   3859.90620000
_cell_formula_units_Z   40
loop_
 _symmetry_equiv_pos_site_id
 _symmetry_equiv_pos_as_xyz
  1  'x, y, z'
loop_
 _atom_site_type_symbol
 _atom_site_label
 _atom_site_symmetry_multiplicity
 _atom_site_fract_x
 _atom_site_fract_y
 _atom_site_fract_z
 _atom_site_occupancy
  Hf  Hf0  1  0.50720847  0.70018279  0.62720566  1
  Hf  Hf1  1  -0.01245389  0.38958308  -0.00145760  1
  Hf  Hf2  1  0.20641411  0.01145200  0.25864023  1
  Hf  Hf3  1  0.80896056  -0.00119722  0.00935732  1
  Hf  Hf4  1  0.09285570  0.31368564  0.60653008  1
  Hf  Hf5  1  0.61123377  0.60436725  0.01248373  1
  Hf  Hf6  1  0.09009351  0.50377585  0.12656510  1
  Hf  Hf7  1  0.61077889  0.19858932  0.24761595  1
  Hf  Hf8  1  0.09751164  0.71584541  0.35245479  1
  Hf  Hf9  1  0.19915240  0.81077593  0.76170222  1
  Hf  Hf10  1  0.79892449  0.39836217  0.25404550  1
  Hf  Hf11  1  0.70444671  0.69649174  0.86803580  1
  Hf  Hf12  1  0.60913680  0.59771993  0.24710389  1
  Hf  Hf13  1  0.10328826  0.29789526  0.13982422  1
  Hf  Hf14  1  0.68637942  0.28441257  0.62934209  1
  Hf  Hf15  1  0.39755623  0.59262162  0.74915162  1
  Hf  Hf16  1  0.79957557  0.79361922  0.00393967  1
  Hf  Hf17  1  0.19960809  0.19356123  0.74429749  1
  Hf  Hf18  1  0.58910905  0.38661094  0.49122200  1
  Hf  Hf19  1  0.48975555  0.09835549  0.89296330  1
  Hf  Hf20  1  0.49832351  0.89708043  0.37157291  1
  Hf  Hf21  1  0.19319879  0.39555005  0.00126466  1
  Hf  Hf22  1  0.30264084  0.30831522  0.61648622  1
  Hf  Hf23  1  0.28772992  0.70907354  0.14264614  1
  Hf  Hf24  1  0.79379831  0.00014203  0.25230586  1
  Hf  Hf25  1  0.80467937  0.59053156  0.74661643  1
  Hf  Hf26  1  0.71185414  0.91898702  0.61427448  1
  Hf  Hf27  1  0.60997166  0.79954402  0.49512664  1
  Hf  Hf28  1  0.09775926  0.49412585  0.38233205  1
  Hf  Hf29  1  0.29776762  0.71008856  0.62013398  1
  Hf  Hf30  1  0.49457986  0.70952783  0.36451886  1
  Hf  Hf31  1  0.90679222  0.89268175  0.37482747  1
  Hf  Hf32  1  0.19972228  0.80103422  -0.00384076  1
  Hf  Hf33  1  0.60840844  -0.00790512  0.76533092  1
  Hf  Hf34  1  0.29795335  0.90435256  0.59884513  1
  Hf  Hf35  1  -0.00156628  0.00719793  0.25464049  1
  Hf  Hf36  1  -0.00279733  0.19363963  0.00946929  1
  Hf  Hf37  1  0.80885650  0.20251927  0.01333667  1
  Hf  Hf38  1  0.38363809  0.38442801  0.01561369  1
  Hf  Hf39  1  -0.00720595  0.40630609  0.75859506  1
  Zr  Zr40  1  0.41582557  0.21096043  0.50101694  1
  Zr  Zr41  1  -0.00526185  0.79637871  0.00116533  1
  Zr  Zr42  1  0.91079164  0.49315481  0.61000754  1
  Zr  Zr43  1  -0.01747601  0.59254413  0.26029721  1
  Zr  Zr44  1  0.29848167  0.49649230  0.61520288  1
  Zr  Zr45  1  0.39849494  0.00335454  0.74378374  1
  Zr  Zr46  1  0.60275465  0.00019827  0.25462913  1
  Zr  Zr47  1  0.30352619  0.10543436  0.38620238  1
  Zr  Zr48  1  0.80920349  0.79471273  0.50469318  1
  Zr  Zr49  1  0.49938142  0.10176398  0.10936857  1
  Zr  Zr50  1  0.19537518  0.61290243  0.49030309  1
  Zr  Zr51  1  0.59484771  0.40445956  0.75639511  1
  Zr  Zr52  1  0.10523434  0.89282910  0.13558514  1
  Zr  Zr53  1  0.68707180  0.50102679  0.61172962  1
  Zr  Zr54  1  0.50178061  0.70238758  0.87295245  1
  Zr  Zr55  1  0.09356431  0.90634053  0.60125716  1
  Zr  Zr56  1  0.39344722  0.60769931  0.01215742  1
  Zr  Zr57  1  0.51031070  0.29963620  0.12216976  1
  Zr  Zr58  1  0.79638538  0.60416701  0.49406315  1
  Zr  Zr59  1  0.79413830  0.18051581  0.51288531  1
  Zr  Zr60  1  0.19805017  0.00436929  0.74992130  1
  Zr  Zr61  1  0.49921937  0.49343864  0.89053924  1
  Zr  Zr62  1  0.51783494  0.10250920  0.62869749  1
  Zr  Zr63  1  0.39321791  0.39891562  0.24407744  1
  Zr  Zr64  1  0.29295929  0.50525735  0.88465117  1
  Zr  Zr65  1  0.80521381  0.81022122  0.75205355  1
  Zr  Zr66  1  0.50681051  0.49427077  0.12272779  1
  Zr  Zr67  1  0.40767176  0.60001867  0.49219069  1
  Zr  Zr68  1  0.30409365  0.89267717  0.37877653  1
  Zr  Zr69  1  0.40476186  0.81327492  0.75309862  1
  Zr  Zr70  1  -0.00636937  0.18745415  0.73020960  1
  Zr  Zr71  1  0.79956498  0.39216081  0.74510592  1
  Zr  Zr72  1  0.80804351  0.38042254  0.49563237  1
  Zr  Zr73  1  0.11079785  0.10283146  0.12531815  1
  Zr  Zr74  1  0.09631675  0.51032292  0.61478520  1
  Zr  Zr75  1  0.70774378  0.09518910  0.88462376  1
  Zr  Zr76  1  0.09333225  0.29265745  0.86930591  1
  Zr  Zr77  1  0.00387702  0.80625156  0.75675603  1
  Zr  Zr78  1  0.19723416  0.40693204  0.75732541  1
  Zr  Zr79  1  0.39757723  0.59726795  0.25044491  1
  Ta  Ta80  1  0.19679429  0.39899658  0.25767471  1
  Ta  Ta81  1  0.50346525  0.71285475  0.13456721  1
  Ta  Ta82  1  0.89440238  0.49474748  0.11813625  1
  Ta  Ta83  1  0.50419251  0.90551726  0.90001210  1
  Ta  Ta84  1  0.70180393  0.29746970  0.87594379  1
  Ta  Ta85  1  0.79667662  0.79683211  0.24646204  1
  Ta  Ta86  1  0.49883248  0.29756876  0.35589444  1
  Ta  Ta87  1  -0.01469339  0.20928732  0.49258696  1
  Ta  Ta88  1  0.29670063  0.10260149  0.60492092  1
  Ta  Ta89  1  -0.00155175  0.20078815  0.26292064  1
  Ta  Ta90  1  -0.01193868  0.61209480  0.48095125  1
  Ta  Ta91  1  0.89470055  0.50388055  0.89266410  1
  Ta  Ta92  1  0.19028582  0.61053438  0.75633928  1
  Ta  Ta93  1  0.27694457  0.50725635  0.12912941  1
  Ta  Ta94  1  0.10098022  0.69139979  0.13335913  1
  Ta  Ta95  1  0.21318132  0.20419591  -0.00880890  1
  Ta  Ta96  1  0.29714559  0.70501568  0.87646463  1
  Ta  Ta97  1  0.91469203  0.69495204  0.63612113  1
  Ta  Ta98  1  0.29760756  0.30503134  0.37655854  1
  Ta  Ta99  1  0.09998547  0.09844926  0.59429880  1
  Ta  Ta100  1  0.80058364  0.18499497  0.73847257  1
  Ta  Ta101  1  0.40022989  0.80276568  0.00755154  1
  Ta  Ta102  1  0.60251730  0.19104480  0.47785373  1
  Ta  Ta103  1  0.50097391  0.90288865  0.12034157  1
  Ta  Ta104  1  0.80033960  0.60021773  0.01533308  1
  Ta  Ta105  1  0.29824711  0.71147374  0.36603129  1
  Ta  Ta106  1  0.30239846  0.90978343  0.12379372  1
  Ta  Ta107  1  0.49679727  0.29606579  0.88177145  1
  Ta  Ta108  1  0.08635971  0.51577060  0.89019907  1
  Ta  Ta109  1  0.40298277  0.00671200  0.24487903  1
  Ta  Ta110  1  0.61492347  0.00962372  0.47855876  1
  Ta  Ta111  1  0.59923397  0.19517171  0.76685993  1
  Ta  Ta112  1  0.10397203  0.90284127  0.38030849  1
  Ta  Ta113  1  0.41724223  0.00710957  0.49580724  1
  Ta  Ta114  1  0.39685982  0.19792835  0.75227954  1
  Ta  Ta115  1  0.90162801  0.89688841  0.13492657  1
  Ta  Ta116  1  0.69696141  0.49397956  0.37603767  1
  Ta  Ta117  1  0.60553342  0.79980835  0.00584857  1
  Ta  Ta118  1  0.10224224  0.09334111  0.88725166  1
  Ta  Ta119  1  0.30641694  0.91733368  0.89711074  1
  Ti  Ti120  1  0.69752736  0.48217250  0.12551991  1
  Ti  Ti121  1  0.70362616  0.49623378  0.88628017  1
  Ti  Ti122  1  0.79667453  0.59637901  0.24735071  1
  Ti  Ti123  1  0.61063959  0.80416770  0.24502061  1
  Ti  Ti124  1  0.91072547  0.09526474  0.87281730  1
  Ti  Ti125  1  0.50649492  0.90029130  0.61068758  1
  Ti  Ti126  1  0.81141941  -0.00242079  0.75447129  1
  Ti  Ti127  1  0.90859713  0.68486424  0.87274401  1
  Ti  Ti128  1  0.70365335  0.70124080  0.36525259  1
  Ti  Ti129  1  0.09875706  0.70448299  0.62474206  1
  Ti  Ti130  1  0.30691774  0.29958085  0.86210700  1
  Ti  Ti131  1  0.49411659  0.30412279  0.64185007  1
  Ti  Ti132  1  0.39190474  0.19736545  0.24702794  1
  Ti  Ti133  1  0.00057737  -0.00282850  0.74571370  1
  Ti  Ti134  1  -0.00000136  0.79318251  0.50029343  1
  Ti  Ti135  1  0.79303746  0.39181399  0.00504037  1
  Ti  Ti136  1  0.09657196  0.69285652  0.88532939  1
  Ti  Ti137  1  0.50251042  0.49291901  0.36921260  1
  Ti  Ti138  1  0.30140523  0.10763380  0.11461995  1
  Ti  Ti139  1  0.90486850  0.90675508  0.88334215  1
  Ti  Ti140  1  0.89910086  0.29804237  0.14193270  1
  Ti  Ti141  1  0.90259264  0.69778722  0.13540467  1
  Ti  Ti142  1  0.29760829  0.49960662  0.37781704  1
  Ti  Ti143  1  0.88903951  0.10625167  0.37229656  1
  Ti  Ti144  1  0.70132673  0.10095586  0.11889116  1
  Ti  Ti145  1  0.09715499  0.10508050  0.38661624  1
  Ti  Ti146  1  0.89164944  0.28939751  0.86624533  1
  Ti  Ti147  1  0.09821531  0.91387977  0.88937241  1
  Ti  Ti148  1  0.69750325  0.89954875  0.11718604  1
  Ti  Ti149  1  0.69956021  0.70089095  0.63588216  1
  Ti  Ti150  1  0.48904884  0.48805161  0.61896572  1
  Ti  Ti151  1  -0.00866138  0.39421615  0.26826061  1
  Ti  Ti152  1  0.60534391  0.80996563  0.75570220  1
  Ti  Ti153  1  0.19408189  0.21052732  0.49164252  1
  Ti  Ti154  1  -0.00164446  0.00229858  0.01480760  1
  Ti  Ti155  1  0.59926402  0.60149899  0.48847653  1
  Ti  Ti156  1  0.70872124  0.28814565  0.36875050  1
  Ti  Ti157  1  0.60041062  0.59420976  0.75200937  1
  Ti  Ti158  1  0.60998062  0.20818392  -0.00167608  1
  Ti  Ti159  1  0.90055970  0.06777654  0.60768788  1
  Mo  Mo160  1  0.60715049  -0.00479702  0.00212676  1
  Mo  Mo161  1  0.61056720  0.39633372  -0.01382569  1
  Mo  Mo162  1  0.39117974  0.20419172  -0.00704159  1
  Mo  Mo163  1  0.39698792  0.00220775  0.01571180  1
  Mo  Mo164  1  0.89652002  0.29118541  0.36221824  1
  Mo  Mo165  1  -0.00548927  0.39541293  0.48031600  1
  Mo  Mo166  1  0.50027978  0.10180268  0.36527847  1
  Mo  Mo167  1  0.70305601  0.70155380  0.13613961  1
  Mo  Mo168  1  0.89398649  0.70085892  0.36014251  1
  Mo  Mo169  1  0.70568286  0.10234211  0.36235842  1
  Mo  Mo170  1  0.19125518  0.60730579  -0.00341690  1
  Mo  Mo171  1  0.80438497  0.19657982  0.23400947  1
  Mo  Mo172  1  0.20028189  0.00822682  0.48572726  1
  Mo  Mo173  1  0.20272003  0.39848406  0.48326507  1
  Mo  Mo174  1  0.20007133  0.20412850  0.26654067  1
  Mo  Mo175  1  0.90083591  0.29073540  0.63437174  1
  Mo  Mo176  1  0.40874067  0.80387510  0.51112808  1
  Mo  Mo177  1  0.19546091  0.79972485  0.49057677  1
  Mo  Mo178  1  -0.00484025  0.80048999  0.23747534  1
  Mo  Mo179  1  0.70348133  0.89433517  0.37833034  1
  Mo  Mo180  1  0.20070694  0.80818727  0.25057024  1
  Mo  Mo181  1  -0.01003726  0.60231023  0.01152981  1
  Mo  Mo182  1  0.90350913  0.09897526  0.13891973  1
  Mo  Mo183  1  0.79889984  -0.00365201  0.47859366  1
  Mo  Mo184  1  0.90726999  0.90068279  0.61358961  1
  Mo  Mo185  1  0.70399971  0.30290572  0.11825008  1
  Mo  Mo186  1  0.20018125  0.00514043  0.00031752  1
  Mo  Mo187  1  0.70227042  0.89540197  0.88829580  1
  Mo  Mo188  1  0.40140668  0.39150780  0.75686629  1
  Mo  Mo189  1  0.60673691  0.39819805  0.26758140  1
  Mo  Mo190  1  0.40320343  0.81050928  0.23106335  1
  Mo  Mo191  1  0.19849501  0.59592851  0.26152025  1
  Mo  Mo192  1  0.89254983  0.49585822  0.38311108  1
  Mo  Mo193  1  0.70094206  0.09319368  0.63760197  1
  Mo  Mo194  1  0.09837241  0.29662947  0.37645881  1
  Mo  Mo195  1  0.28943050  0.29020720  0.14470460  1
  Mo  Mo196  1  0.00292016  0.60269530  0.75815013  1
  Mo  Mo197  1  -0.00463284  0.00869833  0.47847107  1
  Mo  Mo198  1  0.40423518  0.40116989  0.48002641  1
  Mo  Mo199  1  0.29822835  0.10553311  0.88261373  1
