# generated using pymatgen
data_HfZrTaTiMo
_symmetry_space_group_name_H-M   'P 1'
_cell_length_a   15.92951364
_cell_length_b   15.91638609
_cell_length_c   15.21266771
_cell_angle_alpha   90.07164087
_cell_angle_beta   90.01703210
_cell_angle_gamma   89.96776485
_symmetry_Int_Tables_number   1
_chemical_formula_structural   HfZrTaTiMo
_chemical_formula_sum   'Hf40 Zr40 Ta40 Ti40 Mo40'
_cell_volume   3857.02037926
_cell_formula_units_Z   40
loop_
 _symmetry_equiv_pos_site_id
 _symmetry_equiv_pos_as_xyz
  1  'x, y, z'
loop_
 _atom_site_type_symbol
 _atom_site_label
 _atom_site_symmetry_multiplicity
 _atom_site_fract_x
 _atom_site_fract_y
 _atom_site_fract_z
 _atom_site_occupancy
  Hf  Hf0  1  0.69277598  0.70768955  0.87315719  1
  Hf  Hf1  1  0.49955369  0.10912567  0.63792447  1
  Hf  Hf2  1  0.20731549  0.79317317  0.01384730  1
  Hf  Hf3  1  0.59600098  0.40362259  0.00770424  1
  Hf  Hf4  1  0.49125160  0.51177729  0.86006161  1
  Hf  Hf5  1  0.70419065  0.90644098  0.11502900  1
  Hf  Hf6  1  0.60649558  0.02658606  0.50260746  1
  Hf  Hf7  1  0.30648977  0.90219643  0.62146231  1
  Hf  Hf8  1  0.40391010  0.80050510  0.01814314  1
  Hf  Hf9  1  0.29445139  0.49106482  0.88468954  1
  Hf  Hf10  1  0.40455411  0.40478684  0.02090272  1
  Hf  Hf11  1  0.80076040  0.20390847  -0.01178902  1
  Hf  Hf12  1  0.59758368  0.60923465  0.74243879  1
  Hf  Hf13  1  0.28406467  0.10784134  0.89939086  1
  Hf  Hf14  1  0.90697046  0.70357085  0.61694778  1
  Hf  Hf15  1  0.30660136  0.69725051  0.62802222  1
  Hf  Hf16  1  0.69911086  0.70167155  0.38690990  1
  Hf  Hf17  1  0.49904786  0.31105899  0.85835844  1
  Hf  Hf18  1  0.20036912  0.57786062  0.73703972  1
  Hf  Hf19  1  0.60425330  0.39148951  0.23343345  1
  Hf  Hf20  1  0.59383437  0.80285706  0.00661594  1
  Hf  Hf21  1  0.91392573  0.70126524  0.86891357  1
  Hf  Hf22  1  0.40133396  0.60462232  0.02089261  1
  Hf  Hf23  1  0.00997358  0.79734955  0.00910622  1
  Hf  Hf24  1  0.71600313  0.49328911  0.10748544  1
  Hf  Hf25  1  0.50811837  0.49595112  0.37347806  1
  Hf  Hf26  1  0.80106912  0.60188650  -0.02295386  1
  Hf  Hf27  1  0.20044458  0.80023679  0.48731264  1
  Hf  Hf28  1  0.88581643  0.30753220  0.11729058  1
  Hf  Hf29  1  0.10582708  0.68965267  0.87163553  1
  Hf  Hf30  1  0.79060891  -0.00627074  0.74606272  1
  Hf  Hf31  1  0.79861840  0.19507931  0.75310724  1
  Hf  Hf32  1  -0.01157789  0.80402523  0.25562418  1
  Hf  Hf33  1  0.10073440  0.49062508  0.88534675  1
  Hf  Hf34  1  0.59679236  0.21037364  0.01106450  1
  Hf  Hf35  1  0.51559186  0.91198364  0.87750623  1
  Hf  Hf36  1  -0.00217222  0.59659863  0.25481927  1
  Hf  Hf37  1  0.39477556  0.79958209  0.47858183  1
  Hf  Hf38  1  0.10869461  0.50603793  0.38406814  1
  Hf  Hf39  1  0.09628968  0.90157258  0.87252308  1
  Zr  Zr40  1  0.00339818  0.19319921  0.50004360  1
  Zr  Zr41  1  0.91381666  0.10224330  0.86809772  1
  Zr  Zr42  1  0.50616652  0.90846499  0.38076173  1
  Zr  Zr43  1  0.38595760  0.39670751  0.25531372  1
  Zr  Zr44  1  0.40151856  0.20347017  0.00758981  1
  Zr  Zr45  1  0.20037527  0.00872256  0.74838095  1
  Zr  Zr46  1  0.31798098  0.68866232  0.86186748  1
  Zr  Zr47  1  0.91195980  0.50472979  0.09925045  1
  Zr  Zr48  1  0.39487632  0.59232149  0.24696704  1
  Zr  Zr49  1  0.67857507  0.08948035  0.87421576  1
  Zr  Zr50  1  0.40457420  0.38886400  0.48521726  1
  Zr  Zr51  1  0.59373383  0.59678576  0.51539915  1
  Zr  Zr52  1  0.00488437  0.00885313  0.00943973  1
  Zr  Zr53  1  0.28356345  0.29594688  0.12433485  1
  Zr  Zr54  1  0.89812649  0.70338518  0.11543496  1
  Zr  Zr55  1  -0.00237509  0.40380333  0.25298130  1
  Zr  Zr56  1  0.80021876  0.40114292  0.26522283  1
  Zr  Zr57  1  0.20161339  0.38872235  0.49364098  1
  Zr  Zr58  1  0.19425324  -0.00026690  0.49711594  1
  Zr  Zr59  1  0.30559880  0.89967587  0.88348661  1
  Zr  Zr60  1  0.49590702  0.30162902  0.63659562  1
  Zr  Zr61  1  0.20235603  0.80127650  0.74963139  1
  Zr  Zr62  1  0.09803669  0.69569150  0.61603315  1
  Zr  Zr63  1  0.80252790  0.80701827  0.75110490  1
  Zr  Zr64  1  0.09194349  0.10033059  0.35426049  1
  Zr  Zr65  1  0.80436063  0.59704031  0.25875699  1
  Zr  Zr66  1  0.90288602  0.29184727  0.62477295  1
  Zr  Zr67  1  0.38011966  0.20329663  0.76476669  1
  Zr  Zr68  1  0.50053749  0.90456928  0.61484269  1
  Zr  Zr69  1  0.80602386  0.00103217  0.25602349  1
  Zr  Zr70  1  0.10283035  0.28999567  0.86974889  1
  Zr  Zr71  1  0.39889099  0.00005464  0.25284874  1
  Zr  Zr72  1  0.70640723  0.70178771  0.11898539  1
  Zr  Zr73  1  0.39919012  0.00350143  0.76032867  1
  Zr  Zr74  1  0.78404284  0.18564260  0.50451601  1
  Zr  Zr75  1  0.50835833  0.70027157  0.37149450  1
  Zr  Zr76  1  0.10328201  0.90812566  0.35257988  1
  Zr  Zr77  1  0.70338831  0.71304945  0.61450434  1
  Zr  Zr78  1  0.80913796  0.40431196  0.74782570  1
  Zr  Zr79  1  0.70482015  0.90299113  0.39288867  1
  Ta  Ta80  1  0.80426189  0.59656953  0.74782077  1
  Ta  Ta81  1  0.69509029  0.49809879  0.86841265  1
  Ta  Ta82  1  -0.00060346  0.58909352  0.74227888  1
  Ta  Ta83  1  0.90487086  0.50249180  0.61268865  1
  Ta  Ta84  1  0.69833705  0.49757190  0.38900688  1
  Ta  Ta85  1  0.09348670  0.09934157  0.63280370  1
  Ta  Ta86  1  0.10125920  0.69542342  0.37059073  1
  Ta  Ta87  1  0.60854564  0.59225637  0.24136455  1
  Ta  Ta88  1  0.50625837  0.10212840  0.13806769  1
  Ta  Ta89  1  0.39393985  0.79977900  0.25241651  1
  Ta  Ta90  1  0.20140509  0.59574283  0.02110874  1
  Ta  Ta91  1  0.10122164  0.90303784  0.14228924  1
  Ta  Ta92  1  0.40338392  0.19923788  0.25657979  1
  Ta  Ta93  1  0.10397170  0.10634294  0.14278033  1
  Ta  Ta94  1  0.70173870  0.10491413  0.12527870  1
  Ta  Ta95  1  0.80254511  0.80429788  0.26436584  1
  Ta  Ta96  1  0.49092119  0.49786453  0.63172055  1
  Ta  Ta97  1  0.19936009  -0.00202277  0.01986460  1
  Ta  Ta98  1  0.01249988  0.40000219  0.73189844  1
  Ta  Ta99  1  0.50358887  0.70200273  0.14321717  1
  Ta  Ta100  1  0.69396381  0.30748777  0.86485683  1
  Ta  Ta101  1  0.09847603  0.29813175  0.36126576  1
  Ta  Ta102  1  0.08725341  0.89766350  0.62869256  1
  Ta  Ta103  1  0.91207885  0.49570485  0.87648665  1
  Ta  Ta104  1  0.00314371  0.80875776  0.48625688  1
  Ta  Ta105  1  0.89466222  0.90082447  0.11289442  1
  Ta  Ta106  1  0.40634009  -0.00105969  0.02087954  1
  Ta  Ta107  1  0.60581224  0.80650626  0.24337193  1
  Ta  Ta108  1  0.30162389  0.28606834  0.60746140  1
  Ta  Ta109  1  0.68859073  0.29562738  0.64044001  1
  Ta  Ta110  1  0.89938105  0.89882580  0.88569541  1
  Ta  Ta111  1  0.39323452  0.59680196  0.49465042  1
  Ta  Ta112  1  0.89874127  0.70099105  0.39297969  1
  Ta  Ta113  1  0.00118534  0.39283054  0.50017401  1
  Ta  Ta114  1  0.79514505  0.39486813  0.50544188  1
  Ta  Ta115  1  0.89678639  0.29435612  0.38307240  1
  Ta  Ta116  1  0.60181383  0.81570779  0.74684142  1
  Ta  Ta117  1  0.10507464  0.69501336  0.14285069  1
  Ta  Ta118  1  0.00539197  0.20289383  0.01630690  1
  Ta  Ta119  1  0.30451875  0.10210269  0.60567603  1
  Ti  Ti120  1  0.21167154  0.20300500  0.26431522  1
  Ti  Ti121  1  0.89464219  0.09986634  0.12568940  1
  Ti  Ti122  1  0.10113011  0.30064213  0.14149924  1
  Ti  Ti123  1  0.89885055  0.08990825  0.62646335  1
  Ti  Ti124  1  0.19588215  0.19599464  0.49422482  1
  Ti  Ti125  1  0.60301745  0.39494140  0.50822152  1
  Ti  Ti126  1  0.60295550  0.00117798  0.24637740  1
  Ti  Ti127  1  0.19694615  0.20243456  0.73406767  1
  Ti  Ti128  1  0.89766408  0.89812641  0.61061438  1
  Ti  Ti129  1  0.49103450  0.70952399  0.62962012  1
  Ti  Ti130  1  0.00997121  0.39085971  0.00663873  1
  Ti  Ti131  1  0.37856196  0.40326770  0.74220179  1
  Ti  Ti132  1  0.79794097  0.59348568  0.50781515  1
  Ti  Ti133  1  0.30015929  0.09089719  0.37799154  1
  Ti  Ti134  1  -0.00503035  -0.00108476  0.49890308  1
  Ti  Ti135  1  0.59516272  0.20806079  0.49993673  1
  Ti  Ti136  1  0.20451549  0.57940425  0.23720179  1
  Ti  Ti137  1  0.70212580  0.90783416  0.60593481  1
  Ti  Ti138  1  0.69040275  0.11192106  0.35727306  1
  Ti  Ti139  1  0.30083422  0.49529679  0.60710195  1
  Ti  Ti140  1  0.79257728  0.20793961  0.24720900  1
  Ti  Ti141  1  0.90170215  0.50023044  0.39961591  1
  Ti  Ti142  1  0.49799967  0.10110841  0.88122742  1
  Ti  Ti143  1  0.51207595  0.28891550  0.36211856  1
  Ti  Ti144  1  0.69881891  0.49344848  0.63009827  1
  Ti  Ti145  1  0.69742554  0.30080120  0.38064327  1
  Ti  Ti146  1  0.89657046  0.09619790  0.37383038  1
  Ti  Ti147  1  0.58928800  0.60212325  0.00166634  1
  Ti  Ti148  1  0.40906631  0.18834895  0.47738114  1
  Ti  Ti149  1  0.09730034  0.49957276  0.60392173  1
  Ti  Ti150  1  -0.00718600  -0.00844364  0.74662825  1
  Ti  Ti151  1  0.29407965  0.89839443  0.14160092  1
  Ti  Ti152  1  -0.01690131  0.20208408  0.24465918  1
  Ti  Ti153  1  0.28268607  0.30505786  0.89261512  1
  Ti  Ti154  1  0.29504705  0.10130917  0.12871991  1
  Ti  Ti155  1  0.28643886  0.68687718  0.36393608  1
  Ti  Ti156  1  0.19985519  0.38797671  0.72779816  1
  Ti  Ti157  1  0.09890935  0.10473964  0.87086625  1
  Ti  Ti158  1  0.91419802  0.30282044  0.87035222  1
  Ti  Ti159  1  0.79630625  0.00316114  -0.00885106  1
  Mo  Mo160  1  0.60179532  0.40882404  0.74218288  1
  Mo  Mo161  1  0.10567182  0.29460270  0.62606984  1
  Mo  Mo162  1  0.41516377  0.79491812  0.75647991  1
  Mo  Mo163  1  0.50069702  0.90138580  0.13960336  1
  Mo  Mo164  1  0.29803184  0.28419701  0.38209892  1
  Mo  Mo165  1  0.20722182  0.00472601  0.23876182  1
  Mo  Mo166  1  0.70159987  0.90287302  0.88986852  1
  Mo  Mo167  1  0.69280652  0.10406995  0.64044899  1
  Mo  Mo168  1  0.59894275  0.80364852  0.51511040  1
  Mo  Mo169  1  0.01153213  0.59951860  0.00099543  1
  Mo  Mo170  1  0.29459856  0.49593200  0.11845416  1
  Mo  Mo171  1  0.60521338  -0.00036874  0.73423733  1
  Mo  Mo172  1  0.00046239  0.59984915  0.49342731  1
  Mo  Mo173  1  0.20163463  0.79313301  0.25270578  1
  Mo  Mo174  1  0.10501078  0.49292896  0.12095932  1
  Mo  Mo175  1  0.39655372  0.59271789  0.73021688  1
  Mo  Mo176  1  0.19755865  0.39730269  0.26146525  1
  Mo  Mo177  1  0.39931322  0.00937872  0.48506323  1
  Mo  Mo178  1  0.18338926  0.19302396  0.01306217  1
  Mo  Mo179  1  0.29643689  0.70110815  0.14347400  1
  Mo  Mo180  1  0.29941871  0.89964874  0.36546876  1
  Mo  Mo181  1  0.29729871  0.50373762  0.38608723  1
  Mo  Mo182  1  0.80245260  0.39775814  -0.03078112  1
  Mo  Mo183  1  0.50991831  0.10755079  0.36165564  1
  Mo  Mo184  1  0.50692415  0.50596967  0.13421624  1
  Mo  Mo185  1  0.59576966  0.20221532  0.76249024  1
  Mo  Mo186  1  0.80118443  0.80806484  -0.01561231  1
  Mo  Mo187  1  0.80748522  0.00776534  0.50640150  1
  Mo  Mo188  1  0.90254767  0.90664121  0.38840833  1
  Mo  Mo189  1  0.59268882  0.00744896  0.02208772  1
  Mo  Mo190  1  0.19373800  0.39655355  0.01405628  1
  Mo  Mo191  1  -0.00103899  0.80639267  0.74549917  1
  Mo  Mo192  1  0.00292038  0.19489549  0.73952426  1
  Mo  Mo193  1  0.50043602  0.70772020  0.86232846  1
  Mo  Mo194  1  0.20692034  0.59976821  0.50215805  1
  Mo  Mo195  1  -0.01034643  0.00521590  0.23216127  1
  Mo  Mo196  1  0.80732284  0.80645132  0.49469953  1
  Mo  Mo197  1  0.60831564  0.20300802  0.24015705  1
  Mo  Mo198  1  0.70667693  0.29756141  0.11077755  1
  Mo  Mo199  1  0.49741973  0.29587561  0.14251977  1
