# generated using pymatgen
data_HfZrTaTiMo
_symmetry_space_group_name_H-M   'P 1'
_cell_length_a   15.93565183
_cell_length_b   15.93416101
_cell_length_c   15.21601061
_cell_angle_alpha   90.01352179
_cell_angle_beta   90.04472524
_cell_angle_gamma   89.98245919
_symmetry_Int_Tables_number   1
_chemical_formula_structural   HfZrTaTiMo
_chemical_formula_sum   'Hf40 Zr40 Ta40 Ti40 Mo40'
_cell_volume   3863.66684758
_cell_formula_units_Z   40
loop_
 _symmetry_equiv_pos_site_id
 _symmetry_equiv_pos_as_xyz
  1  'x, y, z'
loop_
 _atom_site_type_symbol
 _atom_site_label
 _atom_site_symmetry_multiplicity
 _atom_site_fract_x
 _atom_site_fract_y
 _atom_site_fract_z
 _atom_site_occupancy
  Hf  Hf0  1  0.80341735  0.00927679  0.49069386  1
  Hf  Hf1  1  0.79929192  0.20546245  -0.00014033  1
  Hf  Hf2  1  0.59909266  0.39434932  0.01090635  1
  Hf  Hf3  1  0.51208347  0.68110729  0.88172322  1
  Hf  Hf4  1  0.38767603  0.38216516  0.72940593  1
  Hf  Hf5  1  0.30876540  0.90277554  0.63763829  1
  Hf  Hf6  1  0.38935910  0.19150500  0.24883029  1
  Hf  Hf7  1  0.50092075  0.09779669  0.37641662  1
  Hf  Hf8  1  0.90169261  0.90759926  0.85605517  1
  Hf  Hf9  1  0.70003556  0.89515914  0.87139038  1
  Hf  Hf10  1  0.81545528  0.39521238  0.25959482  1
  Hf  Hf11  1  0.89504865  0.70081883  0.86748721  1
  Hf  Hf12  1  0.20799642  0.39480105  0.50739645  1
  Hf  Hf13  1  0.00583728  0.79395377  0.73651395  1
  Hf  Hf14  1  0.49091552  0.09529073  0.61712191  1
  Hf  Hf15  1  0.70008733  0.49685077  0.14015941  1
  Hf  Hf16  1  0.51082512  0.49665936  0.37253036  1
  Hf  Hf17  1  0.20039229  0.60725690  0.50213336  1
  Hf  Hf18  1  0.50241273  0.50156911  0.13603501  1
  Hf  Hf19  1  0.00386793  0.41424490  0.00664633  1
  Hf  Hf20  1  0.90284189  0.10965509  0.13651721  1
  Hf  Hf21  1  0.68815572  0.50767926  0.88471486  1
  Hf  Hf22  1  0.77863642  0.60195137  0.74162986  1
  Hf  Hf23  1  0.59193098  0.00186608  0.24172818  1
  Hf  Hf24  1  0.01555928  0.60975798  -0.00807721  1
  Hf  Hf25  1  0.49886687  0.50657748  0.61311311  1
  Hf  Hf26  1  0.89695694  0.90807687  0.62312030  1
  Hf  Hf27  1  0.89668430  0.49966001  0.61404587  1
  Hf  Hf28  1  0.50020921  0.30098490  0.36970078  1
  Hf  Hf29  1  -0.01041134  0.60546142  0.26595852  1
  Hf  Hf30  1  0.59773979  0.40073864  0.73523732  1
  Hf  Hf31  1  0.79507432  0.60030733  0.27922049  1
  Hf  Hf32  1  0.20634521  0.80537464  0.51291249  1
  Hf  Hf33  1  0.58520721  0.20825481  0.75008585  1
  Hf  Hf34  1  0.80661757  0.00256585  0.00509344  1
  Hf  Hf35  1  0.70028973  0.68646694  0.11992631  1
  Hf  Hf36  1  0.30588198  0.49438281  0.37601923  1
  Hf  Hf37  1  0.00980861  0.80026069  0.51023050  1
  Hf  Hf38  1  0.40078671  0.00861306  0.76903876  1
  Hf  Hf39  1  0.29594374  0.89927870  0.87652895  1
  Zr  Zr40  1  0.39701827  0.79188889  -0.00460061  1
  Zr  Zr41  1  0.91251652  0.30247664  0.87348502  1
  Zr  Zr42  1  0.79933424  0.00306211  0.25889795  1
  Zr  Zr43  1  0.79656150  0.40530695  0.75169937  1
  Zr  Zr44  1  -0.00251131  0.40593476  0.25475500  1
  Zr  Zr45  1  0.70687652  0.10383187  0.62517111  1
  Zr  Zr46  1  0.80609771  0.80086857  0.00078282  1
  Zr  Zr47  1  0.10057636  0.10814588  0.36702691  1
  Zr  Zr48  1  0.49329403  0.48791530  0.87435932  1
  Zr  Zr49  1  0.90961771  0.29940428  0.62129084  1
  Zr  Zr50  1  0.10092932  0.29917716  0.13171304  1
  Zr  Zr51  1  0.09354816  0.90860128  0.86231817  1
  Zr  Zr52  1  0.29588342  0.10185719  0.62121395  1
  Zr  Zr53  1  0.29292013  0.68861164  0.11432803  1
  Zr  Zr54  1  0.59953711  0.78173879  0.25476702  1
  Zr  Zr55  1  0.10367707  0.90741152  0.36465825  1
  Zr  Zr56  1  0.69498442  0.89537442  0.61595615  1
  Zr  Zr57  1  0.59468158  -0.00173440  0.74874896  1
  Zr  Zr58  1  0.39100631  0.38719223  0.24573237  1
  Zr  Zr59  1  0.70277598  0.88884333  0.13112878  1
  Zr  Zr60  1  0.69762360  0.89402349  0.38132872  1
  Zr  Zr61  1  0.00161546  0.80792833  0.00085127  1
  Zr  Zr62  1  0.11637871  0.31343688  0.87649761  1
  Zr  Zr63  1  0.29446665  0.90011930  0.11523157  1
  Zr  Zr64  1  0.09437317  0.11664446  0.86419562  1
  Zr  Zr65  1  0.39442886  0.79284594  0.25120146  1
  Zr  Zr66  1  0.60384985  0.00589506  0.00987821  1
  Zr  Zr67  1  0.69648365  0.29736064  0.35893758  1
  Zr  Zr68  1  0.49684198  0.89342134  0.38495135  1
  Zr  Zr69  1  0.28892768  0.48206843  0.87229580  1
  Zr  Zr70  1  0.08877770  0.50169719  0.61110952  1
  Zr  Zr71  1  0.31416682  0.70248811  0.63284145  1
  Zr  Zr72  1  0.50927799  0.88913808  0.88787370  1
  Zr  Zr73  1  0.10466035  0.71396803  0.36457891  1
  Zr  Zr74  1  0.89946688  0.68892043  0.61375516  1
  Zr  Zr75  1  0.90819061  0.09942674  0.86629362  1
  Zr  Zr76  1  0.29528440  0.68505792  0.87211848  1
  Zr  Zr77  1  0.60271748  0.20320156  0.50750898  1
  Zr  Zr78  1  0.79599446  0.20528749  0.75428228  1
  Zr  Zr79  1  0.19177463  0.00859194  -0.00293149  1
  Ta  Ta80  1  0.49529022  0.89571062  0.11710184  1
  Ta  Ta81  1  0.19638683  0.58801208  0.73655290  1
  Ta  Ta82  1  0.90629837  0.11028765  0.37464980  1
  Ta  Ta83  1  0.40268468  0.59110626  0.74323459  1
  Ta  Ta84  1  0.80825696  0.59358501  -0.00270237  1
  Ta  Ta85  1  0.00070517  0.39592778  0.48297729  1
  Ta  Ta86  1  0.00566629  0.59710721  0.76038322  1
  Ta  Ta87  1  0.49433102  0.29062266  0.11823260  1
  Ta  Ta88  1  0.50262541  0.69609874  0.39734411  1
  Ta  Ta89  1  0.18222358  0.78537843  -0.00686763  1
  Ta  Ta90  1  0.09840271  0.11003828  0.63047136  1
  Ta  Ta91  1  0.10501672  0.50137973  0.37406795  1
  Ta  Ta92  1  0.10448809  0.29865223  0.37338325  1
  Ta  Ta93  1  0.20796539  0.00692448  0.24140343  1
  Ta  Ta94  1  0.29364637  0.89672982  0.36927792  1
  Ta  Ta95  1  0.60624844  0.40022125  0.50770690  1
  Ta  Ta96  1  0.21550204  0.21862409  0.74758301  1
  Ta  Ta97  1  0.70392684  0.29642643  0.13419047  1
  Ta  Ta98  1  0.69424296  0.10371276  0.87442122  1
  Ta  Ta99  1  0.21179436  0.60583896  0.26375592  1
  Ta  Ta100  1  0.11064822  0.51572100  0.14093417  1
  Ta  Ta101  1  0.39449855  -0.00094698  0.24807643  1
  Ta  Ta102  1  0.38957531  -0.00508427  0.48943965  1
  Ta  Ta103  1  0.09932887  0.70599168  0.14271533  1
  Ta  Ta104  1  0.90011559  0.70004440  0.13051377  1
  Ta  Ta105  1  0.69023839  0.30295496  0.88281295  1
  Ta  Ta106  1  0.00361136  0.00808650  0.50366735  1
  Ta  Ta107  1  0.20551205  0.40395650  0.01788537  1
  Ta  Ta108  1  0.20217905  0.01355268  0.75517526  1
  Ta  Ta109  1  0.90552939  0.89697660  0.14611994  1
  Ta  Ta110  1  0.09990095  0.10449596  0.13560410  1
  Ta  Ta111  1  0.79748838  0.40383592  0.48546801  1
  Ta  Ta112  1  0.90882811  0.89750739  0.37620822  1
  Ta  Ta113  1  0.40489446  0.60670374  0.26028366  1
  Ta  Ta114  1  0.30026631  0.49945094  0.13339758  1
  Ta  Ta115  1  0.60357588  0.77892359  0.73467798  1
  Ta  Ta116  1  0.69252798  0.70043822  0.88727636  1
  Ta  Ta117  1  0.50473179  0.69029503  0.11396464  1
  Ta  Ta118  1  0.79085628  0.79431305  0.74032282  1
  Ta  Ta119  1  0.39116260  0.20348927  0.49053218  1
  Ti  Ti120  1  0.70782990  0.30520492  0.61925051  1
  Ti  Ti121  1  0.19747954  0.20147294  0.49855190  1
  Ti  Ti122  1  0.69900856  0.10820759  0.36711973  1
  Ti  Ti123  1  0.50472621  0.69882923  0.61093730  1
  Ti  Ti124  1  0.79627334  0.00459452  0.74614745  1
  Ti  Ti125  1  0.39587318  0.58088554  0.00114200  1
  Ti  Ti126  1  0.70399214  0.10751042  0.13275820  1
  Ti  Ti127  1  -0.01547861  0.21876051  0.25328304  1
  Ti  Ti128  1  0.10540078  0.91510653  0.63550635  1
  Ti  Ti129  1  0.20980229  0.20617256  0.24757513  1
  Ti  Ti130  1  0.39612448  0.20164851  0.75934758  1
  Ti  Ti131  1  0.29577194  0.10317409  0.11230479  1
  Ti  Ti132  1  0.01461445  0.40855917  0.75464472  1
  Ti  Ti133  1  0.48862543  0.29975847  0.89124480  1
  Ti  Ti134  1  0.39361199  0.60218577  0.49553050  1
  Ti  Ti135  1  0.40088373  0.39057241  0.50737771  1
  Ti  Ti136  1  0.60109701  0.19939060  0.00482564  1
  Ti  Ti137  1  -0.00118864  0.00251688  0.01456187  1
  Ti  Ti138  1  0.41339271  0.79401493  0.75899468  1
  Ti  Ti139  1  0.80962453  0.78701607  0.26967749  1
  Ti  Ti140  1  0.48456887  0.09520017  0.11163443  1
  Ti  Ti141  1  0.38306094  0.20110581  -0.00563506  1
  Ti  Ti142  1  0.29353605  0.09513738  0.37726603  1
  Ti  Ti143  1  0.79837754  0.78997157  0.49476440  1
  Ti  Ti144  1  0.49364290  0.88897312  0.61387358  1
  Ti  Ti145  1  0.59304436  0.19725836  0.23461691  1
  Ti  Ti146  1  0.09918370  0.89884632  0.13706473  1
  Ti  Ti147  1  0.80841556  0.20658688  0.48968521  1
  Ti  Ti148  1  0.59872853  -0.00019069  0.50036312  1
  Ti  Ti149  1  0.19703407  0.00140127  0.50147688  1
  Ti  Ti150  1  0.91047230  0.10780076  0.62543312  1
  Ti  Ti151  1  0.00284792  0.20487573  0.00987387  1
  Ti  Ti152  1  0.90099280  0.50075247  0.87224953  1
  Ti  Ti153  1  0.20442390  0.39551137  0.25071334  1
  Ti  Ti154  1  0.19545936  0.79249211  0.74888108  1
  Ti  Ti155  1  0.00139659  0.00369313  0.25160346  1
  Ti  Ti156  1  0.80491562  0.39986788  0.00564524  1
  Ti  Ti157  1  0.90001749  0.51021948  0.12445077  1
  Ti  Ti158  1  0.10043975  0.29846911  0.62602447  1
  Ti  Ti159  1  0.49603499  0.10478483  0.89217469  1
  Mo  Mo160  1  0.90267581  0.50256234  0.39385160  1
  Mo  Mo161  1  0.00679282  0.20041966  0.50213343  1
  Mo  Mo162  1  0.60513094  0.59732354  0.49735632  1
  Mo  Mo163  1  0.89989992  0.70703414  0.39159496  1
  Mo  Mo164  1  0.10404707  0.69784441  0.63613449  1
  Mo  Mo165  1  0.30356204  0.50081321  0.62031946  1
  Mo  Mo166  1  0.39601488  0.39382262  0.01525190  1
  Mo  Mo167  1  0.69630166  0.69703943  0.39488175  1
  Mo  Mo168  1  0.59599366  0.60287630  0.73071538  1
  Mo  Mo169  1  0.59862406  0.59927655  0.27090935  1
  Mo  Mo170  1  0.59760719  0.79673382  0.51254071  1
  Mo  Mo171  1  0.39922986  0.00827789  -0.00395250  1
  Mo  Mo172  1  0.00071109  0.00589571  0.72555565  1
  Mo  Mo173  1  0.89694871  0.30685412  0.11229106  1
  Mo  Mo174  1  0.00924177  0.21099154  0.73624689  1
  Mo  Mo175  1  0.19750634  0.20302968  0.00825656  1
  Mo  Mo176  1  0.10395249  0.50138266  0.87054759  1
  Mo  Mo177  1  0.20064246  0.80519775  0.23728141  1
  Mo  Mo178  1  0.29721802  0.11084911  0.87745068  1
  Mo  Mo179  1  -0.00597150  0.80315196  0.24747485  1
  Mo  Mo180  1  0.69569344  0.69392121  0.60615267  1
  Mo  Mo181  1  0.60031245  0.79411304  0.01296185  1
  Mo  Mo182  1  0.90501653  0.29386247  0.39012483  1
  Mo  Mo183  1  0.20062537  0.39955654  0.72777833  1
  Mo  Mo184  1  0.10724020  0.69692731  0.85768731  1
  Mo  Mo185  1  0.29269023  0.29253862  0.38513224  1
  Mo  Mo186  1  0.79504319  0.59615451  0.49089576  1
  Mo  Mo187  1  0.00055492  0.60089275  0.48139813  1
  Mo  Mo188  1  0.69620339  0.49594378  0.37482190  1
  Mo  Mo189  1  0.49841274  0.29689840  0.60925270  1
  Mo  Mo190  1  0.39774038  0.80030996  0.49599504  1
  Mo  Mo191  1  0.80268787  0.20145756  0.25069231  1
  Mo  Mo192  1  0.60409369  0.59291228  0.00648681  1
  Mo  Mo193  1  0.29752455  0.29479826  0.11107591  1
  Mo  Mo194  1  0.30672265  0.70341409  0.38068435  1
  Mo  Mo195  1  0.59862853  0.39052082  0.23394528  1
  Mo  Mo196  1  0.69986503  0.50005474  0.60644364  1
  Mo  Mo197  1  0.19425556  0.59205261  0.00673239  1
  Mo  Mo198  1  0.30286620  0.29920213  0.88849584  1
  Mo  Mo199  1  0.29953912  0.29246498  0.60970091  1
