# generated using pymatgen
data_HfZrTaTiMo
_symmetry_space_group_name_H-M   'P 1'
_cell_length_a   15.92130189
_cell_length_b   15.93984601
_cell_length_c   15.19169685
_cell_angle_alpha   90.01954484
_cell_angle_beta   89.99705899
_cell_angle_gamma   89.97428369
_symmetry_Int_Tables_number   1
_chemical_formula_structural   HfZrTaTiMo
_chemical_formula_sum   'Hf40 Zr40 Ta40 Ti40 Mo40'
_cell_volume   3855.39530900
_cell_formula_units_Z   40
loop_
 _symmetry_equiv_pos_site_id
 _symmetry_equiv_pos_as_xyz
  1  'x, y, z'
loop_
 _atom_site_type_symbol
 _atom_site_label
 _atom_site_symmetry_multiplicity
 _atom_site_fract_x
 _atom_site_fract_y
 _atom_site_fract_z
 _atom_site_occupancy
  Hf  Hf0  1  0.09119190  0.29774704  0.13346564  1
  Hf  Hf1  1  0.90498524  0.10551026  0.12803044  1
  Hf  Hf2  1  0.10234471  0.50403906  0.63188387  1
  Hf  Hf3  1  0.70300007  0.51111380  0.37998426  1
  Hf  Hf4  1  0.70584305  0.91075629  0.62221446  1
  Hf  Hf5  1  0.40425557  0.79976280  0.23722663  1
  Hf  Hf6  1  -0.00683437  0.59186057  0.24167895  1
  Hf  Hf7  1  0.20172843  0.18083881  0.24175458  1
  Hf  Hf8  1  0.50578429  0.69691358  0.37389606  1
  Hf  Hf9  1  0.50185591  0.50183203  0.89180641  1
  Hf  Hf10  1  0.30764584  0.89279018  0.62664366  1
  Hf  Hf11  1  0.00155142  0.19278999  0.49823810  1
  Hf  Hf12  1  0.30571204  0.29964285  0.11360497  1
  Hf  Hf13  1  0.20539368  0.60435031  0.24648972  1
  Hf  Hf14  1  0.20092879  0.81102392  0.24747586  1
  Hf  Hf15  1  0.10147560  0.90391916  0.63712555  1
  Hf  Hf16  1  0.70502990  0.69965523  0.86979686  1
  Hf  Hf17  1  0.10314765  0.70751584  0.64209585  1
  Hf  Hf18  1  0.88795028  0.09892936  0.87378074  1
  Hf  Hf19  1  0.90297911  0.30206835  0.36204148  1
  Hf  Hf20  1  0.89857441  0.49789570  0.10601353  1
  Hf  Hf21  1  0.71200012  0.10632747  0.14008875  1
  Hf  Hf22  1  0.10223075  0.09998014  0.87477086  1
  Hf  Hf23  1  0.40768165  0.19858262  0.49119204  1
  Hf  Hf24  1  0.19818154  0.79999699  0.49906472  1
  Hf  Hf25  1  0.10630285  0.92671516  0.38212045  1
  Hf  Hf26  1  0.69962822  0.89417171  0.37366113  1
  Hf  Hf27  1  0.89646438  0.09439049  0.63609764  1
  Hf  Hf28  1  0.60179024  0.79599742  0.73294986  1
  Hf  Hf29  1  0.19909881  0.39641503  0.49734935  1
  Hf  Hf30  1  0.39868937  0.19750857  0.75152253  1
  Hf  Hf31  1  0.60337983  0.19812771  0.49167507  1
  Hf  Hf32  1  0.40126884  0.18958206  0.24159618  1
  Hf  Hf33  1  0.49237883  0.91345056  0.62413235  1
  Hf  Hf34  1  0.50354890  0.29958296  0.63039901  1
  Hf  Hf35  1  0.29354273  0.51767137  0.88901650  1
  Hf  Hf36  1  0.30283608  0.49551040  0.10626124  1
  Hf  Hf37  1  0.39106539  -0.00134553  0.24060373  1
  Hf  Hf38  1  0.70270635  0.29904349  0.13075520  1
  Hf  Hf39  1  0.39486535  0.60744163  0.74967284  1
  Zr  Zr40  1  0.10181152  0.50367547  0.10970135  1
  Zr  Zr41  1  0.59928451  0.79723059  0.50611845  1
  Zr  Zr42  1  0.79598899  0.18959317  0.49303618  1
  Zr  Zr43  1  0.20428945  0.39562126  0.76087125  1
  Zr  Zr44  1  0.21072168  -0.00039376  0.76193429  1
  Zr  Zr45  1  0.29555789  0.89804058  0.10401390  1
  Zr  Zr46  1  0.60097851  -0.00741206  0.02188750  1
  Zr  Zr47  1  0.88165690  0.51753978  0.88478059  1
  Zr  Zr48  1  0.89240880  0.69496330  0.36340939  1
  Zr  Zr49  1  0.80406591  0.41701136  0.24906048  1
  Zr  Zr50  1  0.59334827  -0.00467632  0.24731811  1
  Zr  Zr51  1  0.30853976  0.70419867  0.38396572  1
  Zr  Zr52  1  0.50198876  0.49543012  0.11822996  1
  Zr  Zr53  1  0.29733263  0.29194240  0.37096884  1
  Zr  Zr54  1  0.30915650  0.08914307  0.61798173  1
  Zr  Zr55  1  0.60679298  0.38961455  0.75926380  1
  Zr  Zr56  1  0.79808256  -0.00731351  0.00243976  1
  Zr  Zr57  1  0.81054708  0.79845769  0.50080275  1
  Zr  Zr58  1  -0.00076353  0.39091997  -0.02174828  1
  Zr  Zr59  1  0.10094201  0.51483470  0.87286379  1
  Zr  Zr60  1  0.89547987  0.29371103  0.12654467  1
  Zr  Zr61  1  0.88747482  0.30281236  0.62742986  1
  Zr  Zr62  1  0.09015642  0.50172464  0.38008533  1
  Zr  Zr63  1  -0.00197428  0.39680803  0.50793409  1
  Zr  Zr64  1  0.19083086  0.19129941  0.49878718  1
  Zr  Zr65  1  0.50258278  0.70776580  0.87541176  1
  Zr  Zr66  1  0.40137536  0.40315506  0.75864450  1
  Zr  Zr67  1  -0.00890914  0.40253929  0.75644307  1
  Zr  Zr68  1  0.59887355  0.58588465  0.73272183  1
  Zr  Zr69  1  0.59403280  0.39830777  0.48860172  1
  Zr  Zr70  1  0.70044746  0.89611751  0.86514409  1
  Zr  Zr71  1  0.09639913  0.70091202  0.37279979  1
  Zr  Zr72  1  0.20624140  0.40821139  0.25497378  1
  Zr  Zr73  1  0.78639601  0.40515251  0.76101420  1
  Zr  Zr74  1  0.50038848  0.90470792  0.86753395  1
  Zr  Zr75  1  0.91559095  0.90429561  0.13039797  1
  Zr  Zr76  1  -0.00176331  0.62890315  -0.00712287  1
  Zr  Zr77  1  0.40449207  0.40774566  0.48457699  1
  Zr  Zr78  1  0.50702112  0.10118534  0.87371297  1
  Zr  Zr79  1  -0.00444839  0.80917363  0.49755134  1
  Ta  Ta80  1  0.31109752  0.89087123  0.87794682  1
  Ta  Ta81  1  0.59261552  0.59306307  0.51053970  1
  Ta  Ta82  1  0.10136744  0.29202441  0.64146594  1
  Ta  Ta83  1  0.30527638  0.90630699  0.39145518  1
  Ta  Ta84  1  0.69911463  0.69457858  0.37298505  1
  Ta  Ta85  1  0.40161550  0.61444944  0.00697639  1
  Ta  Ta86  1  0.70485512  0.30011514  0.36520854  1
  Ta  Ta87  1  -0.01049208  0.60710974  0.74500643  1
  Ta  Ta88  1  0.49170769  0.89634256  0.38655897  1
  Ta  Ta89  1  0.59648036  0.40220514  0.25482738  1
  Ta  Ta90  1  0.40524300  0.59651286  0.50586670  1
  Ta  Ta91  1  -0.00036724  0.19721717  -0.01144047  1
  Ta  Ta92  1  0.30606295  0.28889272  0.89328586  1
  Ta  Ta93  1  0.29932367  0.29970857  0.62172056  1
  Ta  Ta94  1  0.60065707  0.79744812  0.23805575  1
  Ta  Ta95  1  0.61045141  0.79828967  0.02601165  1
  Ta  Ta96  1  0.49853810  0.29272840  0.89482007  1
  Ta  Ta97  1  0.90247894  0.89702523  0.64603458  1
  Ta  Ta98  1  0.59672555  0.20040091  0.25636445  1
  Ta  Ta99  1  0.49930644  0.30170739  0.12262777  1
  Ta  Ta100  1  0.60463121  0.39393646  0.00105751  1
  Ta  Ta101  1  0.39921738  0.59522653  0.24626489  1
  Ta  Ta102  1  0.77589975  0.20216702  0.74533531  1
  Ta  Ta103  1  0.20652232  0.20035091  0.75768606  1
  Ta  Ta104  1  0.09158975  0.29459131  0.35570048  1
  Ta  Ta105  1  0.09250322  0.09015551  0.11536574  1
  Ta  Ta106  1  0.30075705  0.50280299  0.62177010  1
  Ta  Ta107  1  0.30873162  0.09498038  0.89296731  1
  Ta  Ta108  1  0.09742010  0.09905146  0.64189066  1
  Ta  Ta109  1  0.40507149  0.40465265  0.26294418  1
  Ta  Ta110  1  0.19514928  0.38867574  -0.01367506  1
  Ta  Ta111  1  0.60753762  0.01066179  0.49365857  1
  Ta  Ta112  1  0.80021999  0.79817450  0.01506927  1
  Ta  Ta113  1  -0.01178820  0.61094561  0.51810468  1
  Ta  Ta114  1  0.19401412  0.79267925  -0.01239835  1
  Ta  Ta115  1  -0.00287963  -0.00167375  0.76209193  1
  Ta  Ta116  1  0.80772115  -0.00260687  0.26354173  1
  Ta  Ta117  1  0.70882004  0.69037347  0.61545476  1
  Ta  Ta118  1  0.81095787  -0.00013384  0.48489277  1
  Ta  Ta119  1  0.88540624  0.28826731  0.87469468  1
  Ti  Ti120  1  0.88794402  0.50458130  0.61563446  1
  Ti  Ti121  1  0.48748192  0.70580819  0.62048063  1
  Ti  Ti122  1  0.19346510  -0.00783229  -0.00470079  1
  Ti  Ti123  1  0.20321493  0.59807631  0.50269422  1
  Ti  Ti124  1  0.89369809  0.89258057  0.86292372  1
  Ti  Ti125  1  0.89211848  0.71435004  0.85904265  1
  Ti  Ti126  1  0.79165354  0.00321073  0.75151398  1
  Ti  Ti127  1  0.49725134  0.09089684  0.37266913  1
  Ti  Ti128  1  0.41288705  0.79919025  0.01097284  1
  Ti  Ti129  1  0.90418495  0.71058974  0.13159502  1
  Ti  Ti130  1  0.00178333  -0.00672708  -0.01528161  1
  Ti  Ti131  1  0.79432489  0.60497267  0.23478122  1
  Ti  Ti132  1  0.50956865  0.09622756  0.63368300  1
  Ti  Ti133  1  0.11626576  0.69746351  0.85695373  1
  Ti  Ti134  1  0.79840412  0.60104509  0.73752324  1
  Ti  Ti135  1  0.19582717  0.19512073  0.00221919  1
  Ti  Ti136  1  0.29762015  0.70246504  0.62839191  1
  Ti  Ti137  1  -0.00274134  0.20240194  0.75864993  1
  Ti  Ti138  1  0.59454433  0.19085110  0.02123023  1
  Ti  Ti139  1  0.28636495  0.08126843  0.38581012  1
  Ti  Ti140  1  0.29541746  0.69963751  0.11452547  1
  Ti  Ti141  1  0.79132519  0.61991116  0.01590596  1
  Ti  Ti142  1  0.00536822  0.81655335  0.25834167  1
  Ti  Ti143  1  0.91857401  0.09496138  0.35900620  1
  Ti  Ti144  1  0.09579009  0.71648402  0.12614471  1
  Ti  Ti145  1  0.69937018  0.49971024  0.11637089  1
  Ti  Ti146  1  0.70669921  0.48608979  0.60673697  1
  Ti  Ti147  1  0.00036296  0.80772882  -0.01373503  1
  Ti  Ti148  1  0.40712720  0.00725422  0.01482388  1
  Ti  Ti149  1  0.60055638  0.60102289  0.23938076  1
  Ti  Ti150  1  0.19611979  -0.00208644  0.23112666  1
  Ti  Ti151  1  0.89509932  0.50199508  0.39250417  1
  Ti  Ti152  1  0.69459223  0.51141794  0.89313186  1
  Ti  Ti153  1  0.68954256  0.27903245  0.89123702  1
  Ti  Ti154  1  -0.00159373  0.00496740  0.50657309  1
  Ti  Ti155  1  0.79108147  0.39189194  -0.00927217  1
  Ti  Ti156  1  0.60159066  0.61347258  0.01703773  1
  Ti  Ti157  1  0.10266701  0.89087272  0.86558597  1
  Ti  Ti158  1  0.79840689  0.80302124  0.24458440  1
  Ti  Ti159  1  0.69106237  0.09937001  0.87288460  1
  Mo  Mo160  1  0.70900703  0.89735411  0.14340079  1
  Mo  Mo161  1  0.80085448  0.79603729  0.73681527  1
  Mo  Mo162  1  0.90586495  0.90541798  0.36366532  1
  Mo  Mo163  1  0.09969236  0.89803388  0.10715609  1
  Mo  Mo164  1  0.40185464  0.39962079  -0.01050122  1
  Mo  Mo165  1  0.69873433  0.29952139  0.61136411  1
  Mo  Mo166  1  0.79315235  0.19707275  -0.01167298  1
  Mo  Mo167  1  0.50333599  0.51006572  0.35807233  1
  Mo  Mo168  1  0.40317456  0.00167650  0.76494609  1
  Mo  Mo169  1  0.10027393  0.28851816  0.86678214  1
  Mo  Mo170  1  0.40688251  0.00360946  0.48706899  1
  Mo  Mo171  1  0.79587637  0.39907588  0.49153655  1
  Mo  Mo172  1  0.21187815  0.79567015  0.76664081  1
  Mo  Mo173  1  0.20489009  0.60130499  0.73609210  1
  Mo  Mo174  1  0.50035979  0.69589161  0.12983718  1
  Mo  Mo175  1  0.50263396  0.29646625  0.35673795  1
  Mo  Mo176  1  0.00130017  0.80225910  0.76682878  1
  Mo  Mo177  1  0.49577341  0.50236217  0.62914631  1
  Mo  Mo178  1  0.50080611  0.10327715  0.13139053  1
  Mo  Mo179  1  0.79935592  0.59875045  0.50788174  1
  Mo  Mo180  1  0.19773204  0.61257660  0.01353713  1
  Mo  Mo181  1  0.69625880  0.09854033  0.62745100  1
  Mo  Mo182  1  0.39858594  0.79830764  0.74487448  1
  Mo  Mo183  1  0.00401727  0.19376377  0.25094718  1
  Mo  Mo184  1  0.40053274  0.79562710  0.50550869  1
  Mo  Mo185  1  0.60238920  0.19984404  0.74532515  1
  Mo  Mo186  1  0.30367407  0.50976340  0.38827154  1
  Mo  Mo187  1  0.49956306  0.89705649  0.12036187  1
  Mo  Mo188  1  0.70483949  0.69849752  0.13815418  1
  Mo  Mo189  1  0.70182899  0.09595440  0.36310949  1
  Mo  Mo190  1  0.30212006  0.70743411  0.88521492  1
  Mo  Mo191  1  0.90039925  0.70188592  0.63909286  1
  Mo  Mo192  1  0.79945517  0.19311140  0.26816277  1
  Mo  Mo193  1  0.10080828  0.10003329  0.36306341  1
  Mo  Mo194  1  0.40380010  0.19364436  0.01421878  1
  Mo  Mo195  1  0.19763130  0.00209055  0.51452984  1
  Mo  Mo196  1  0.60634881  0.00816112  0.73748417  1
  Mo  Mo197  1  -0.00063692  0.40422808  0.25347826  1
  Mo  Mo198  1  0.29302050  0.09574861  0.10190859  1
  Mo  Mo199  1  0.01172664  0.00268147  0.24543777  1
