# generated using pymatgen
data_HfZrTaTiMo
_symmetry_space_group_name_H-M   'P 1'
_cell_length_a   15.93545347
_cell_length_b   15.94349566
_cell_length_c   15.24556647
_cell_angle_alpha   89.95757986
_cell_angle_beta   89.98269502
_cell_angle_gamma   89.91705387
_symmetry_Int_Tables_number   1
_chemical_formula_structural   HfZrTaTiMo
_chemical_formula_sum   'Hf40 Zr40 Ta40 Ti40 Mo40'
_cell_volume   3873.38749674
_cell_formula_units_Z   40
loop_
 _symmetry_equiv_pos_site_id
 _symmetry_equiv_pos_as_xyz
  1  'x, y, z'
loop_
 _atom_site_type_symbol
 _atom_site_label
 _atom_site_symmetry_multiplicity
 _atom_site_fract_x
 _atom_site_fract_y
 _atom_site_fract_z
 _atom_site_occupancy
  Hf  Hf0  1  0.58269286  0.81055002  0.25720651  1
  Hf  Hf1  1  0.38965883  0.20366786  0.76049684  1
  Hf  Hf2  1  -0.01183147  0.83112510  -0.00497258  1
  Hf  Hf3  1  0.31091580  0.09121986  0.13432837  1
  Hf  Hf4  1  0.69493271  0.33078996  0.63113744  1
  Hf  Hf5  1  0.00393149  0.20164865  0.49983368  1
  Hf  Hf6  1  0.78718938  0.79730171  0.50769661  1
  Hf  Hf7  1  0.49942317  0.70090452  0.62303193  1
  Hf  Hf8  1  0.18149146  0.38690096  0.24633197  1
  Hf  Hf9  1  0.40441710  -0.00336872  0.49779322  1
  Hf  Hf10  1  0.89397108  0.70414367  0.88008368  1
  Hf  Hf11  1  0.79746765  0.20262955  0.51317893  1
  Hf  Hf12  1  0.39992535  0.19346078  -0.01155535  1
  Hf  Hf13  1  0.60166864  0.20343183  0.50779602  1
  Hf  Hf14  1  0.71085663  0.30776644  0.88105155  1
  Hf  Hf15  1  0.80254720  0.00146569  0.52207838  1
  Hf  Hf16  1  0.21412296  -0.01368305  0.26770138  1
  Hf  Hf17  1  0.48921031  0.70501951  0.10879381  1
  Hf  Hf18  1  0.29284059  0.10118361  0.61251444  1
  Hf  Hf19  1  0.59770678  0.41473656  -0.00197521  1
  Hf  Hf20  1  0.49474748  0.30254262  0.62741315  1
  Hf  Hf21  1  0.11383842  0.10426321  0.14902670  1
  Hf  Hf22  1  0.60573701  0.20147941  0.74676579  1
  Hf  Hf23  1  0.00538391  0.40034993  0.75001923  1
  Hf  Hf24  1  0.81049005  0.39335468  0.24597950  1
  Hf  Hf25  1  0.48414919  0.70850485  0.38969121  1
  Hf  Hf26  1  0.50719609  0.09030244  0.12498906  1
  Hf  Hf27  1  0.08642533  0.90503161  0.14983079  1
  Hf  Hf28  1  0.51960712  0.08791946  0.36985196  1
  Hf  Hf29  1  0.10803380  0.50228649  0.87834344  1
  Hf  Hf30  1  0.00448121  0.60361886  0.01208846  1
  Hf  Hf31  1  0.90489273  0.09871678  0.36606848  1
  Hf  Hf32  1  0.10905393  0.10182514  0.37960151  1
  Hf  Hf33  1  0.70015041  0.88946629  0.11272926  1
  Hf  Hf34  1  0.01245697  0.18884591  0.00261446  1
  Hf  Hf35  1  0.78436320  0.59794251  -0.00334098  1
  Hf  Hf36  1  0.50282497  0.30883023  0.87562583  1
  Hf  Hf37  1  0.49591357  0.89660650  0.10811244  1
  Hf  Hf38  1  0.00771800  0.39692352  0.02065766  1
  Hf  Hf39  1  0.59321011  0.60729767  0.25349677  1
  Zr  Zr40  1  0.71098690  0.09556690  0.87590530  1
  Zr  Zr41  1  0.80885027  0.20282331  0.23353091  1
  Zr  Zr42  1  0.00990742  0.23066927  0.24893836  1
  Zr  Zr43  1  0.69262294  0.89421599  0.64067698  1
  Zr  Zr44  1  0.89475439  0.90215687  0.36890467  1
  Zr  Zr45  1  0.70297580  0.30341918  0.10778211  1
  Zr  Zr46  1  0.68800474  0.91489187  0.37199312  1
  Zr  Zr47  1  0.00854031  0.19777478  0.75047751  1
  Zr  Zr48  1  0.30023294  0.28811941  0.13474863  1
  Zr  Zr49  1  0.20960834  0.39360882  0.74387599  1
  Zr  Zr50  1  0.90003589  0.31444856  0.61726464  1
  Zr  Zr51  1  0.60991894  0.59922082  0.49524228  1
  Zr  Zr52  1  0.09087562  0.70017435  0.60738901  1
  Zr  Zr53  1  0.38498720  0.61731696  0.25126147  1
  Zr  Zr54  1  0.48680903  0.90171884  0.64387025  1
  Zr  Zr55  1  0.39460386  0.59700969  0.73562056  1
  Zr  Zr56  1  0.10236516  0.70571259  0.87568394  1
  Zr  Zr57  1  0.40545259  0.39906899  0.48411987  1
  Zr  Zr58  1  0.69385829  0.50578505  0.13285503  1
  Zr  Zr59  1  0.30161676  0.88782702  0.12401651  1
  Zr  Zr60  1  0.61193638  0.19897374  0.24401734  1
  Zr  Zr61  1  0.19059597  0.00116727  -0.00406133  1
  Zr  Zr62  1  -0.00560366  0.59605536  0.74620655  1
  Zr  Zr63  1  0.80186428  0.61698034  0.25263254  1
  Zr  Zr64  1  0.80785632  0.20185678  0.74773677  1
  Zr  Zr65  1  0.09014830  0.68494575  0.37593024  1
  Zr  Zr66  1  0.09759069  0.88519116  0.38091152  1
  Zr  Zr67  1  0.51854292  0.49176948  0.63345508  1
  Zr  Zr68  1  0.10167937  0.70821966  0.13811023  1
  Zr  Zr69  1  0.19502454  0.40130930  0.48962994  1
  Zr  Zr70  1  0.82117905  -0.01960463  -0.00181823  1
  Zr  Zr71  1  -0.00546887  0.80889558  0.73772226  1
  Zr  Zr72  1  0.28957464  0.69497882  0.87710621  1
  Zr  Zr73  1  0.49855035  0.30084899  0.12457344  1
  Zr  Zr74  1  0.70889216  0.10140760  0.37667338  1
  Zr  Zr75  1  0.20053713  0.18164645  0.76675146  1
  Zr  Zr76  1  0.30403525  0.50302553  0.88021010  1
  Zr  Zr77  1  0.11475883  0.29048187  0.61553793  1
  Zr  Zr78  1  0.88072515  0.72063918  0.11106575  1
  Zr  Zr79  1  0.91085711  0.50702984  0.37476198  1
  Ta  Ta80  1  0.20146982  0.40138678  0.01929533  1
  Ta  Ta81  1  0.10726697  0.30201683  0.88904621  1
  Ta  Ta82  1  0.92008444  0.08456514  0.13199721  1
  Ta  Ta83  1  0.39403813  0.80295667  -0.02569151  1
  Ta  Ta84  1  0.29625309  0.29339667  0.37078931  1
  Ta  Ta85  1  0.89893118  0.50237938  0.12602855  1
  Ta  Ta86  1  0.81373320  -0.00396668  0.74343759  1
  Ta  Ta87  1  0.39765456  0.41226737  0.00941650  1
  Ta  Ta88  1  0.69651251  0.50116533  0.85988184  1
  Ta  Ta89  1  0.22488937  0.77927846  0.27282157  1
  Ta  Ta90  1  0.20125715  0.59124112  0.02546914  1
  Ta  Ta91  1  0.79692496  0.79388310  0.74960462  1
  Ta  Ta92  1  0.40717636  0.19333655  0.26757414  1
  Ta  Ta93  1  0.81592406  0.18962420  0.00584202  1
  Ta  Ta94  1  0.59614435  0.39942825  0.26392146  1
  Ta  Ta95  1  0.19811647  0.59177381  0.50336002  1
  Ta  Ta96  1  0.92101487  0.08359334  0.87082488  1
  Ta  Ta97  1  0.28704164  0.89989993  0.86020462  1
  Ta  Ta98  1  0.29710073  0.70453287  0.61327095  1
  Ta  Ta99  1  0.19653802  0.59826751  0.72562439  1
  Ta  Ta100  1  0.60128409  0.00683685  0.52591491  1
  Ta  Ta101  1  0.28928357  0.50490674  0.36222481  1
  Ta  Ta102  1  0.50173410  0.09467886  0.86565120  1
  Ta  Ta103  1  0.60071450  -0.00386385  -0.01304045  1
  Ta  Ta104  1  0.59197835  0.80883491  0.50340428  1
  Ta  Ta105  1  0.49454739  0.10183280  0.63769489  1
  Ta  Ta106  1  0.49110385  0.69015395  0.87517057  1
  Ta  Ta107  1  0.59348477  0.79218080  0.76186053  1
  Ta  Ta108  1  0.79281705  0.00305510  0.22779379  1
  Ta  Ta109  1  0.39708852  -0.00371508  -0.02147006  1
  Ta  Ta110  1  0.00168135  -0.00260785  0.51116363  1
  Ta  Ta111  1  0.90521602  0.30084753  0.88900101  1
  Ta  Ta112  1  0.89988307  0.50549030  0.60944062  1
  Ta  Ta113  1  0.89650303  0.49415833  0.89174716  1
  Ta  Ta114  1  0.71557415  0.52471683  0.64285314  1
  Ta  Ta115  1  0.41456803  -0.01928173  0.26678129  1
  Ta  Ta116  1  0.87776959  0.68766864  0.61971430  1
  Ta  Ta117  1  0.59904836  0.79830215  -0.02743580  1
  Ta  Ta118  1  0.70765719  0.30678072  0.37951736  1
  Ta  Ta119  1  0.19575679  0.80712890  0.73038116  1
  Ti  Ti120  1  0.89843628  0.69457930  0.39471601  1
  Ti  Ti121  1  0.81210580  0.41125930  0.75642742  1
  Ti  Ti122  1  0.20459280  0.19409082  -0.00908746  1
  Ti  Ti123  1  0.29967315  0.49993543  0.14200092  1
  Ti  Ti124  1  0.79242088  0.41714469  0.49490733  1
  Ti  Ti125  1  0.49347129  0.50407679  0.36763316  1
  Ti  Ti126  1  0.49867188  0.50505797  0.86680552  1
  Ti  Ti127  1  0.01829284  0.00142106  0.72379477  1
  Ti  Ti128  1  0.49116616  0.50422430  0.13328475  1
  Ti  Ti129  1  0.39183213  0.59225599  0.49993234  1
  Ti  Ti130  1  0.29837422  0.30943637  0.88978402  1
  Ti  Ti131  1  -0.01548243  0.80645523  0.51157208  1
  Ti  Ti132  1  0.19283853  0.80590862  -0.00368681  1
  Ti  Ti133  1  0.69481625  0.70655928  0.37665149  1
  Ti  Ti134  1  0.69318495  0.68903591  0.86109427  1
  Ti  Ti135  1  0.38932931  0.79665838  0.75541576  1
  Ti  Ti136  1  0.08921498  0.49970701  0.35906772  1
  Ti  Ti137  1  0.30540451  0.29303868  0.60642099  1
  Ti  Ti138  1  0.90845664  0.10093483  0.63076776  1
  Ti  Ti139  1  0.40857455  0.19813186  0.48514451  1
  Ti  Ti140  1  0.30001518  0.49213113  0.61774874  1
  Ti  Ti141  1  0.70698689  0.89633209  0.86667178  1
  Ti  Ti142  1  0.60514235  0.19087173  -0.00453748  1
  Ti  Ti143  1  0.40322513  0.39482143  0.25866411  1
  Ti  Ti144  1  0.60371631  0.00312087  0.75300430  1
  Ti  Ti145  1  0.09251766  0.91559939  0.86162709  1
  Ti  Ti146  1  0.58871223  0.60046311  -0.00621452  1
  Ti  Ti147  1  0.39770306  0.39954270  0.75140919  1
  Ti  Ti148  1  0.70473934  0.50323442  0.36498216  1
  Ti  Ti149  1  0.38434245  0.81182037  0.50148146  1
  Ti  Ti150  1  0.79001417  0.80381708  0.25719710  1
  Ti  Ti151  1  0.68573033  0.70719971  0.11478690  1
  Ti  Ti152  1  0.30034610  0.70376461  0.11118639  1
  Ti  Ti153  1  0.30437986  0.09725400  0.37856500  1
  Ti  Ti154  1  0.49513711  0.90147042  0.86352352  1
  Ti  Ti155  1  0.90902458  0.31694517  0.38986554  1
  Ti  Ti156  1  0.20570129  -0.01879601  0.50348216  1
  Ti  Ti157  1  0.38122176  0.00657588  0.75645608  1
  Ti  Ti158  1  -0.02006607  0.78888035  0.25493833  1
  Ti  Ti159  1  0.60056205  0.40360763  0.47891361  1
  Mo  Mo160  1  0.60354620  0.40430804  0.76073576  1
  Mo  Mo161  1  0.69862052  0.10008911  0.63915340  1
  Mo  Mo162  1  0.78440248  0.79716980  -0.02911279  1
  Mo  Mo163  1  0.59825249  0.60500600  0.75381113  1
  Mo  Mo164  1  0.29460128  0.69302909  0.40257566  1
  Mo  Mo165  1  0.00130959  0.00210847  0.26856228  1
  Mo  Mo166  1  0.00538884  0.40757440  0.50539833  1
  Mo  Mo167  1  0.10249774  0.89867037  0.60697185  1
  Mo  Mo168  1  0.21090995  0.19490712  0.26762118  1
  Mo  Mo169  1  0.39622346  0.80324724  0.26148911  1
  Mo  Mo170  1  -0.00339564  0.40403069  0.23473198  1
  Mo  Mo171  1  0.21035186  0.19586396  0.48405452  1
  Mo  Mo172  1  0.60367581  -0.00398422  0.22658013  1
  Mo  Mo173  1  0.30643939  0.89183307  0.37935459  1
  Mo  Mo174  1  0.80496532  0.40151016  -0.00029993  1
  Mo  Mo175  1  0.79516629  0.60238528  0.48869852  1
  Mo  Mo176  1  0.20313570  0.79728812  0.50144262  1
  Mo  Mo177  1  0.90385019  0.90464189  0.84834339  1
  Mo  Mo178  1  0.89989254  0.90055040  0.14925701  1
  Mo  Mo179  1  0.70511493  0.09219444  0.09922408  1
  Mo  Mo180  1  0.10051204  0.49852186  0.62674967  1
  Mo  Mo181  1  0.69373085  0.69877776  0.63959575  1
  Mo  Mo182  1  0.10036190  0.09340274  0.87440586  1
  Mo  Mo183  1  0.50400998  0.29652038  0.37207295  1
  Mo  Mo184  1  0.10697412  0.09273700  0.60323125  1
  Mo  Mo185  1  0.29832984  0.89919780  0.63772679  1
  Mo  Mo186  1  0.80576668  0.59738089  0.76575478  1
  Mo  Mo187  1  0.00544087  0.00029747  0.00195875  1
  Mo  Mo188  1  0.50304070  0.90181816  0.39282421  1
  Mo  Mo189  1  0.11134162  0.29324858  0.10894362  1
  Mo  Mo190  1  0.90244983  0.29650642  0.10715188  1
  Mo  Mo191  1  0.19916116  0.59653053  0.24583471  1
  Mo  Mo192  1  0.39689392  0.59654062  0.01372992  1
  Mo  Mo193  1  0.09424360  0.30765449  0.38871601  1
  Mo  Mo194  1  -0.00469700  0.60395724  0.23374144  1
  Mo  Mo195  1  0.19546127  -0.00666680  0.73924315  1
  Mo  Mo196  1  0.09907914  0.50425294  0.14202035  1
  Mo  Mo197  1  -0.00150728  0.59670370  0.51051913  1
  Mo  Mo198  1  0.89975072  0.89673776  0.62807103  1
  Mo  Mo199  1  0.30031968  0.09140757  0.87820403  1
