# generated using pymatgen
data_HfZrTaTiMo
_symmetry_space_group_name_H-M   'P 1'
_cell_length_a   15.92134401
_cell_length_b   15.93356023
_cell_length_c   15.20571869
_cell_angle_alpha   89.98197927
_cell_angle_beta   89.94517997
_cell_angle_gamma   89.96093805
_symmetry_Int_Tables_number   1
_chemical_formula_structural   HfZrTaTiMo
_chemical_formula_sum   'Hf40 Zr40 Ta40 Ti40 Mo40'
_cell_volume   3857.44002895
_cell_formula_units_Z   40
loop_
 _symmetry_equiv_pos_site_id
 _symmetry_equiv_pos_as_xyz
  1  'x, y, z'
loop_
 _atom_site_type_symbol
 _atom_site_label
 _atom_site_symmetry_multiplicity
 _atom_site_fract_x
 _atom_site_fract_y
 _atom_site_fract_z
 _atom_site_occupancy
  Hf  Hf0  1  0.69993120  0.70403612  0.62266847  1
  Hf  Hf1  1  0.29540389  0.50709979  0.88697891  1
  Hf  Hf2  1  0.10244910  0.09927285  0.61989149  1
  Hf  Hf3  1  0.78365583  0.79536406  0.01797496  1
  Hf  Hf4  1  0.60182514  0.19494268  0.23851463  1
  Hf  Hf5  1  0.48636878  0.70962971  0.13648180  1
  Hf  Hf6  1  0.91194079  0.50588462  0.86477029  1
  Hf  Hf7  1  0.79334066  0.19753649  0.74647749  1
  Hf  Hf8  1  -0.00278319  0.77682681  0.00946012  1
  Hf  Hf9  1  0.90126085  0.08726118  0.87373908  1
  Hf  Hf10  1  0.39215887  0.60122939  0.73582198  1
  Hf  Hf11  1  -0.01157937  -0.00221246  0.49474022  1
  Hf  Hf12  1  0.51552133  0.29818160  0.62482899  1
  Hf  Hf13  1  0.59335089  0.58487835  0.74016767  1
  Hf  Hf14  1  0.49733637  0.29231474  0.38236850  1
  Hf  Hf15  1  0.39783056  0.20208584  0.23718276  1
  Hf  Hf16  1  0.80357627  0.59457870  0.72689773  1
  Hf  Hf17  1  0.60106119  0.80410694  0.25215134  1
  Hf  Hf18  1  0.89996492  0.70175616  0.85621795  1
  Hf  Hf19  1  0.09022813  0.28782317  0.13096202  1
  Hf  Hf20  1  0.81152383  0.61058224  0.00253812  1
  Hf  Hf21  1  0.19714805  0.39698348  0.24369570  1
  Hf  Hf22  1  0.50473739  0.31337885  0.09801160  1
  Hf  Hf23  1  0.69223703  0.10642117  0.39046228  1
  Hf  Hf24  1  0.38666201  -0.00601435  0.74900286  1
  Hf  Hf25  1  0.10077232  0.90591908  0.11881939  1
  Hf  Hf26  1  0.60214848  -0.00521676  0.01309201  1
  Hf  Hf27  1  0.90424890  0.29851508  0.86323457  1
  Hf  Hf28  1  0.10366431  0.48844653  0.39175654  1
  Hf  Hf29  1  0.60254347  0.39566662  0.25820245  1
  Hf  Hf30  1  0.49782107  0.09513353  0.62521243  1
  Hf  Hf31  1  0.40628151  0.40945485  0.24004049  1
  Hf  Hf32  1  0.70455258  0.49562790  0.12571474  1
  Hf  Hf33  1  0.78892957  0.00593197  0.23854278  1
  Hf  Hf34  1  0.50621372  0.70677015  0.62906407  1
  Hf  Hf35  1  0.49734454  0.09040215  0.87649743  1
  Hf  Hf36  1  0.39638438  0.20220337  -0.00940486  1
  Hf  Hf37  1  0.10076050  0.69770634  0.86479491  1
  Hf  Hf38  1  0.19505626  0.00302608  0.25855701  1
  Hf  Hf39  1  0.91926844  0.47238948  0.62407493  1
  Zr  Zr40  1  0.30426790  0.30885727  0.86942689  1
  Zr  Zr41  1  0.89932330  0.89502446  0.87182437  1
  Zr  Zr42  1  0.61208014  0.39315591  0.48951278  1
  Zr  Zr43  1  0.10820089  0.50638439  0.87245603  1
  Zr  Zr44  1  0.30275318  0.89488480  0.13010963  1
  Zr  Zr45  1  0.69069323  0.89460847  0.86735020  1
  Zr  Zr46  1  0.19259123  0.60254501  0.25132673  1
  Zr  Zr47  1  0.27924169  0.30534664  0.64545457  1
  Zr  Zr48  1  0.59553959  0.79690386  0.48245672  1
  Zr  Zr49  1  0.08603074  0.50122305  0.12047504  1
  Zr  Zr50  1  0.89987633  0.49475804  0.13008575  1
  Zr  Zr51  1  0.20662268  0.80835188  0.74671611  1
  Zr  Zr52  1  0.90659246  0.70354711  0.38255173  1
  Zr  Zr53  1  0.91197701  0.10624680  0.11336212  1
  Zr  Zr54  1  0.90426058  0.30168648  0.12210097  1
  Zr  Zr55  1  0.90775141  0.90172292  0.11935145  1
  Zr  Zr56  1  0.00520485  0.59819353  0.50646436  1
  Zr  Zr57  1  0.49643324  0.09471404  0.38371191  1
  Zr  Zr58  1  0.70332107  0.29910160  0.10559928  1
  Zr  Zr59  1  0.19830202  0.79611161  0.00273407  1
  Zr  Zr60  1  0.41255954  0.41100962  0.73954742  1
  Zr  Zr61  1  0.39681266  0.40671730  0.51186800  1
  Zr  Zr62  1  0.49590318  0.49172175  0.89899930  1
  Zr  Zr63  1  0.80037158  0.20210081  0.25304541  1
  Zr  Zr64  1  0.60895190  0.61437754  0.01517358  1
  Zr  Zr65  1  0.81668575  0.38473040  0.49227203  1
  Zr  Zr66  1  0.30096659  0.10289900  0.37859902  1
  Zr  Zr67  1  0.30457787  0.50345450  0.37720104  1
  Zr  Zr68  1  0.70239593  0.50643758  0.87615078  1
  Zr  Zr69  1  0.38835359  0.20205309  0.51453342  1
  Zr  Zr70  1  0.39179815  0.80087870  0.50240696  1
  Zr  Zr71  1  0.80387308  0.80164139  0.25047451  1
  Zr  Zr72  1  -0.01138011  0.21814373  0.50321693  1
  Zr  Zr73  1  0.60249409  0.20081420  0.76308420  1
  Zr  Zr74  1  -0.00557444  -0.00204470  0.26800213  1
  Zr  Zr75  1  0.80395702  0.81211066  0.49416976  1
  Zr  Zr76  1  0.01635428  0.60439568  0.72143916  1
  Zr  Zr77  1  0.39807735  0.80969800  0.75206795  1
  Zr  Zr78  1  0.59585003  0.59806950  0.24671204  1
  Zr  Zr79  1  0.50384436  0.70762754  0.87697221  1
  Ta  Ta80  1  0.29914921  0.69666613  0.88420366  1
  Ta  Ta81  1  0.19627554  0.39404097  0.00618796  1
  Ta  Ta82  1  0.89708857  0.09780532  0.62864185  1
  Ta  Ta83  1  0.69613759  0.91219929  0.37086814  1
  Ta  Ta84  1  0.29243643  0.30294842  0.37032146  1
  Ta  Ta85  1  0.70029611  0.70545317  0.85516334  1
  Ta  Ta86  1  0.00469796  0.19246396  0.75008692  1
  Ta  Ta87  1  0.09954432  0.09655942  0.11019486  1
  Ta  Ta88  1  0.70643778  0.50516462  0.37698530  1
  Ta  Ta89  1  -0.00239923  0.59496915  0.27027718  1
  Ta  Ta90  1  0.49236315  0.90827396  0.36778887  1
  Ta  Ta91  1  0.31069554  0.70046479  0.36507383  1
  Ta  Ta92  1  0.39953880  -0.00398365  0.00680719  1
  Ta  Ta93  1  0.10361110  0.90188846  0.60906776  1
  Ta  Ta94  1  0.21387786  0.60673196  0.50806606  1
  Ta  Ta95  1  0.70330907  0.69137034  0.37269695  1
  Ta  Ta96  1  0.39499346  0.60871413  0.01528329  1
  Ta  Ta97  1  0.29817439  0.70383394  0.14014170  1
  Ta  Ta98  1  0.18866539  0.21524451  0.49865795  1
  Ta  Ta99  1  0.10916504  0.30322446  0.85726161  1
  Ta  Ta100  1  0.79245505  -0.00204424  0.01083168  1
  Ta  Ta101  1  0.79425539  0.39258763  0.74727597  1
  Ta  Ta102  1  0.19492803  0.20076888  -0.01014716  1
  Ta  Ta103  1  0.69202147  0.90177388  0.62785519  1
  Ta  Ta104  1  0.80351272  0.40005773  -0.01894668  1
  Ta  Ta105  1  0.19529871  0.80260451  0.26307435  1
  Ta  Ta106  1  0.09709878  0.10735639  0.38509723  1
  Ta  Ta107  1  0.49928133  0.51426221  0.38261872  1
  Ta  Ta108  1  0.28881016  0.09939194  0.11411555  1
  Ta  Ta109  1  0.80105996  0.39839738  0.27044553  1
  Ta  Ta110  1  0.00939456  0.20040279  -0.02263514  1
  Ta  Ta111  1  0.29471764  0.29736371  0.11973063  1
  Ta  Ta112  1  0.90116447  0.90375472  0.63074625  1
  Ta  Ta113  1  0.00489556  0.39488451  -0.01568441  1
  Ta  Ta114  1  0.30343644  0.90457660  0.37458295  1
  Ta  Ta115  1  0.40283694  0.00571729  0.23400885  1
  Ta  Ta116  1  0.79141825  0.00180617  0.73989134  1
  Ta  Ta117  1  0.59761604  -0.00645527  0.50360429  1
  Ta  Ta118  1  0.80209277  0.59176160  0.50390295  1
  Ta  Ta119  1  0.29985264  0.50232317  0.11708166  1
  Ti  Ti120  1  0.59856505  0.00436116  0.23390049  1
  Ti  Ti121  1  0.39833904  0.19735842  0.75485975  1
  Ti  Ti122  1  -0.00566508  0.39173540  0.27393435  1
  Ti  Ti123  1  0.19731140  -0.00755296  0.75125153  1
  Ti  Ti124  1  0.49886951  0.90280663  0.61928801  1
  Ti  Ti125  1  0.90638956  0.68613277  0.14581469  1
  Ti  Ti126  1  0.79602568  0.00109960  0.50646895  1
  Ti  Ti127  1  0.09416515  0.90366002  0.88420519  1
  Ti  Ti128  1  0.59322844  -0.00996508  0.75079036  1
  Ti  Ti129  1  0.49240028  0.89663620  0.12877177  1
  Ti  Ti130  1  0.21039986  0.60447785  0.72478712  1
  Ti  Ti131  1  0.19861149  0.18491960  0.75873736  1
  Ti  Ti132  1  0.69078849  0.09997673  0.61855546  1
  Ti  Ti133  1  0.79845099  0.80591865  0.73761745  1
  Ti  Ti134  1  0.09585645  0.89186836  0.39124447  1
  Ti  Ti135  1  0.10217842  0.08777382  0.87968452  1
  Ti  Ti136  1  0.11863199  0.48183753  0.61579763  1
  Ti  Ti137  1  0.49944639  0.10672711  0.11004445  1
  Ti  Ti138  1  0.69768216  0.48619213  0.61836857  1
  Ti  Ti139  1  0.10506071  0.70427936  0.38711672  1
  Ti  Ti140  1  0.00485718  -0.00398871  0.74522392  1
  Ti  Ti141  1  0.60110953  0.59796819  0.49949270  1
  Ti  Ti142  1  0.00732318  0.79728878  0.25439953  1
  Ti  Ti143  1  0.90550145  0.71114107  0.61654149  1
  Ti  Ti144  1  0.59969475  0.80315584  0.01477063  1
  Ti  Ti145  1  0.79248064  0.20677910  0.51274457  1
  Ti  Ti146  1  0.09023805  0.31064097  0.64297457  1
  Ti  Ti147  1  0.40560656  0.60624305  0.51146084  1
  Ti  Ti148  1  0.89190835  0.10586843  0.38293503  1
  Ti  Ti149  1  0.11274007  0.71799319  0.60676749  1
  Ti  Ti150  1  0.20346377  -0.00093689  0.49311945  1
  Ti  Ti151  1  0.29147473  0.09350147  0.62222205  1
  Ti  Ti152  1  0.60801089  0.39153536  0.76135286  1
  Ti  Ti153  1  0.79819134  0.19609786  -0.01118916  1
  Ti  Ti154  1  0.00822942  0.80745167  0.73542926  1
  Ti  Ti155  1  0.19402738  0.19602593  0.25110462  1
  Ti  Ti156  1  0.29259497  0.09056206  0.88309639  1
  Ti  Ti157  1  0.18731360  0.61130730  0.01843890  1
  Ti  Ti158  1  0.30144825  0.89986009  0.89383189  1
  Ti  Ti159  1  0.69882107  0.09449917  0.88281054  1
  Mo  Mo160  1  0.90330350  0.29136812  0.64668264  1
  Mo  Mo161  1  0.00459792  0.19244436  0.26466028  1
  Mo  Mo162  1  0.39897355  0.80547873  0.26793424  1
  Mo  Mo163  1  0.69324319  0.90224492  0.13770649  1
  Mo  Mo164  1  0.01241990  0.38684873  0.49376562  1
  Mo  Mo165  1  0.60691008  0.40090553  -0.01304591  1
  Mo  Mo166  1  0.70095492  0.29505536  0.37617063  1
  Mo  Mo167  1  0.00227106  -0.00187385  -0.01267701  1
  Mo  Mo168  1  0.39657102  -0.00509651  0.51335301  1
  Mo  Mo169  1  0.69849338  0.10400203  0.10640795  1
  Mo  Mo170  1  0.00164874  0.60102739  0.00539683  1
  Mo  Mo171  1  0.90310367  0.49706645  0.38217720  1
  Mo  Mo172  1  0.51012487  0.50408141  0.60709608  1
  Mo  Mo173  1  0.00298633  0.80526942  0.51003550  1
  Mo  Mo174  1  0.10252898  0.29212363  0.36014422  1
  Mo  Mo175  1  0.29978287  0.50568016  0.61334200  1
  Mo  Mo176  1  0.89430217  0.90740778  0.37757619  1
  Mo  Mo177  1  0.49431197  0.89997300  0.89251308  1
  Mo  Mo178  1  0.39869086  0.59929156  0.23822909  1
  Mo  Mo179  1  0.29003172  0.91142590  0.60801046  1
  Mo  Mo180  1  0.00756326  0.39731761  0.75866798  1
  Mo  Mo181  1  0.20088072  0.00197996  -0.00881519  1
  Mo  Mo182  1  0.90183567  0.29112731  0.36315592  1
  Mo  Mo183  1  0.49586119  0.69407698  0.37285956  1
  Mo  Mo184  1  0.70732930  0.69799111  0.14808412  1
  Mo  Mo185  1  0.40106697  0.80074976  -0.00828324  1
  Mo  Mo186  1  0.80425446  0.59450461  0.26598969  1
  Mo  Mo187  1  0.59987543  0.80540517  0.74551542  1
  Mo  Mo188  1  0.29858146  0.70642075  0.61754355  1
  Mo  Mo189  1  0.20211042  0.41830491  0.74839393  1
  Mo  Mo190  1  0.70259849  0.29979583  0.88541301  1
  Mo  Mo191  1  0.39338132  0.40499945  0.01015908  1
  Mo  Mo192  1  0.60520781  0.19457636  0.50913623  1
  Mo  Mo193  1  0.70443673  0.30020922  0.62650509  1
  Mo  Mo194  1  0.20091396  0.80083075  0.48317030  1
  Mo  Mo195  1  0.60167731  0.19661736  -0.01485845  1
  Mo  Mo196  1  0.50488018  0.29813293  0.88023429  1
  Mo  Mo197  1  0.19986190  0.39184440  0.50034173  1
  Mo  Mo198  1  0.09375171  0.70221162  0.14826160  1
  Mo  Mo199  1  0.49762829  0.50348893  0.11384236  1
