# generated using pymatgen
data_HfZrTaTiMo
_symmetry_space_group_name_H-M   'P 1'
_cell_length_a   15.92562691
_cell_length_b   15.92338987
_cell_length_c   15.21019479
_cell_angle_alpha   90.06434002
_cell_angle_beta   90.02798119
_cell_angle_gamma   89.93111625
_symmetry_Int_Tables_number   1
_chemical_formula_structural   HfZrTaTiMo
_chemical_formula_sum   'Hf40 Zr40 Ta40 Ti40 Mo40'
_cell_volume   3857.14710597
_cell_formula_units_Z   40
loop_
 _symmetry_equiv_pos_site_id
 _symmetry_equiv_pos_as_xyz
  1  'x, y, z'
loop_
 _atom_site_type_symbol
 _atom_site_label
 _atom_site_symmetry_multiplicity
 _atom_site_fract_x
 _atom_site_fract_y
 _atom_site_fract_z
 _atom_site_occupancy
  Hf  Hf0  1  0.79479930  -0.00847107  -0.00035900  1
  Hf  Hf1  1  0.48792578  0.71056086  0.61267078  1
  Hf  Hf2  1  0.19292195  0.81479451  0.49288592  1
  Hf  Hf3  1  0.80505056  0.60646872  0.49212972  1
  Hf  Hf4  1  0.68475886  0.10245673  0.13818017  1
  Hf  Hf5  1  0.00362375  0.40661484  0.49409510  1
  Hf  Hf6  1  0.90120307  0.09865467  0.12937193  1
  Hf  Hf7  1  0.50005515  0.48908142  0.12766521  1
  Hf  Hf8  1  0.40752464  0.60289685  0.75599370  1
  Hf  Hf9  1  0.89566449  0.50132303  0.63857208  1
  Hf  Hf10  1  0.78078785  0.41107852  0.76223985  1
  Hf  Hf11  1  0.92410962  0.88689565  0.35023398  1
  Hf  Hf12  1  0.00107627  0.21276411  0.00373108  1
  Hf  Hf13  1  0.40674990  0.38621743  0.26420632  1
  Hf  Hf14  1  0.29742387  0.69539399  0.37552118  1
  Hf  Hf15  1  0.89907348  0.10159777  0.87168399  1
  Hf  Hf16  1  0.69594539  0.08793337  0.61586725  1
  Hf  Hf17  1  0.10477653  0.29458923  0.36731139  1
  Hf  Hf18  1  0.80068024  0.40000822  -0.01300154  1
  Hf  Hf19  1  0.30795988  0.71199389  0.88498261  1
  Hf  Hf20  1  0.59663039  -0.01115759  0.01547322  1
  Hf  Hf21  1  0.10560588  0.49318920  0.12091777  1
  Hf  Hf22  1  0.21114287  0.19105829  0.23231482  1
  Hf  Hf23  1  0.10521592  0.10890079  0.88914463  1
  Hf  Hf24  1  0.49527292  0.50445484  0.61138945  1
  Hf  Hf25  1  0.68729783  0.09789602  0.38023834  1
  Hf  Hf26  1  0.49582946  0.90372345  0.86286455  1
  Hf  Hf27  1  -0.00201709  0.60526890  0.49590627  1
  Hf  Hf28  1  0.70251139  0.49164096  0.13451173  1
  Hf  Hf29  1  0.68819011  0.08965511  0.86748144  1
  Hf  Hf30  1  0.40200179  0.20637267  0.74366931  1
  Hf  Hf31  1  0.80236130  0.20176832  0.50046643  1
  Hf  Hf32  1  0.58707821  0.39774197  0.75561158  1
  Hf  Hf33  1  0.09941140  0.49201466  0.64556935  1
  Hf  Hf34  1  0.79282361  0.80362342  -0.00060917  1
  Hf  Hf35  1  0.69778171  0.70293620  0.36928911  1
  Hf  Hf36  1  0.39940188  0.39861159  -0.01234118  1
  Hf  Hf37  1  0.29741954  0.08555718  0.37340437  1
  Hf  Hf38  1  0.79501919  0.20039010  0.73916904  1
  Hf  Hf39  1  0.29664751  0.69814163  0.61801609  1
  Zr  Zr40  1  0.90025886  0.31275004  0.62813249  1
  Zr  Zr41  1  0.09166651  0.71137029  0.36555417  1
  Zr  Zr42  1  0.90279845  0.09084904  0.61952825  1
  Zr  Zr43  1  0.90299535  0.29807349  0.37204592  1
  Zr  Zr44  1  0.31571254  0.88809228  0.63831770  1
  Zr  Zr45  1  0.80197784  0.59788176  -0.00692709  1
  Zr  Zr46  1  0.89678321  0.31246240  0.13753959  1
  Zr  Zr47  1  0.00898370  0.00247674  0.75167659  1
  Zr  Zr48  1  0.29529830  0.92021514  0.13739157  1
  Zr  Zr49  1  0.62185532  0.59723629  0.74212825  1
  Zr  Zr50  1  0.69644949  0.30088808  0.13678232  1
  Zr  Zr51  1  0.10317838  0.09835106  0.37976411  1
  Zr  Zr52  1  0.29589858  0.49993746  0.36414670  1
  Zr  Zr53  1  -0.00132929  0.60679092  0.77506505  1
  Zr  Zr54  1  0.20574655  0.00024219  0.74620106  1
  Zr  Zr55  1  0.39896618  0.80066268  0.25011597  1
  Zr  Zr56  1  0.79206976  -0.00679715  0.25372333  1
  Zr  Zr57  1  0.79604820  0.19813198  0.00160026  1
  Zr  Zr58  1  0.19974771  0.60062321  0.76574192  1
  Zr  Zr59  1  0.49926389  0.69473380  0.37471063  1
  Zr  Zr60  1  0.20080242  0.19515251  0.73172710  1
  Zr  Zr61  1  0.60410597  0.81269342  0.49560891  1
  Zr  Zr62  1  0.38468081  0.20027638  0.50458026  1
  Zr  Zr63  1  0.90505508  0.70446552  0.12623211  1
  Zr  Zr64  1  0.59937289  0.79514334  0.73512379  1
  Zr  Zr65  1  0.91397081  0.09510640  0.37308096  1
  Zr  Zr66  1  0.50936713  0.70528151  0.88624639  1
  Zr  Zr67  1  0.41278455  0.80635653  0.01971159  1
  Zr  Zr68  1  0.80294879  -0.02340904  0.48510749  1
  Zr  Zr69  1  0.79799361  0.60333388  0.24935042  1
  Zr  Zr70  1  0.30015984  0.09915181  0.88751474  1
  Zr  Zr71  1  0.90273145  0.88722204  0.64191435  1
  Zr  Zr72  1  0.30345783  0.49036472  0.63156660  1
  Zr  Zr73  1  0.18966493  0.59247589  0.50191214  1
  Zr  Zr74  1  0.50665335  0.10684200  0.87353674  1
  Zr  Zr75  1  0.30532032  0.30227287  0.12099561  1
  Zr  Zr76  1  0.00676649  0.60320600  0.24241988  1
  Zr  Zr77  1  0.89414261  0.70150902  0.64406157  1
  Zr  Zr78  1  0.49445230  0.31023396  0.61036187  1
  Zr  Zr79  1  0.68315618  0.28308049  0.87860649  1
  Ta  Ta80  1  0.39805302  0.81406371  0.47940898  1
  Ta  Ta81  1  0.40061725  0.00188693  0.00699018  1
  Ta  Ta82  1  0.89789473  0.49724431  0.36473130  1
  Ta  Ta83  1  0.09515055  0.71018525  0.63595091  1
  Ta  Ta84  1  0.69751983  0.49890092  0.37906660  1
  Ta  Ta85  1  -0.00230231  -0.00421343  -0.00131207  1
  Ta  Ta86  1  0.39940048  0.59663869  0.01194235  1
  Ta  Ta87  1  0.50207240  0.50477386  0.88178354  1
  Ta  Ta88  1  0.20492871  0.00180858  0.51833932  1
  Ta  Ta89  1  0.11333952  0.09417512  0.10746268  1
  Ta  Ta90  1  0.59797788  0.59991519  0.01395650  1
  Ta  Ta91  1  0.00599916  0.20314666  0.74172068  1
  Ta  Ta92  1  0.59511757  0.39942343  0.27068613  1
  Ta  Ta93  1  -0.00361557  0.79953715  0.50035154  1
  Ta  Ta94  1  -0.00001860  0.79983982  -0.00175856  1
  Ta  Ta95  1  0.19939498  0.38962309  0.49527066  1
  Ta  Ta96  1  0.09902487  0.90264075  0.11946556  1
  Ta  Ta97  1  0.10606190  0.70597401  0.89161629  1
  Ta  Ta98  1  0.01016245  0.19712672  0.23345403  1
  Ta  Ta99  1  0.79444872  -0.01106239  0.75805920  1
  Ta  Ta100  1  0.49997234  0.09247855  0.61339332  1
  Ta  Ta101  1  0.50527733  0.29330008  0.11864144  1
  Ta  Ta102  1  0.69795248  0.30091129  0.38360593  1
  Ta  Ta103  1  0.20583100  0.59562552  0.00076267  1
  Ta  Ta104  1  0.70291025  0.49392404  0.60317966  1
  Ta  Ta105  1  0.59623072  0.20033702  0.72537988  1
  Ta  Ta106  1  0.00437240  0.59803435  -0.00417117  1
  Ta  Ta107  1  0.10914930  0.90080607  0.88801455  1
  Ta  Ta108  1  0.10670954  0.30575099  0.12294756  1
  Ta  Ta109  1  0.90332732  0.89006076  0.86902916  1
  Ta  Ta110  1  0.39995057  0.59974356  0.23130469  1
  Ta  Ta111  1  0.58357835  0.20996488  0.26785542  1
  Ta  Ta112  1  0.70597217  0.89233578  0.63280294  1
  Ta  Ta113  1  0.19562764  0.79892082  0.23888687  1
  Ta  Ta114  1  0.59871199  0.39729485  -0.00902980  1
  Ta  Ta115  1  0.49308360  0.10107946  0.37831850  1
  Ta  Ta116  1  0.90567519  0.30180073  0.86094803  1
  Ta  Ta117  1  0.01687500  -0.01883844  0.50746183  1
  Ta  Ta118  1  0.90437064  0.90083355  0.12911630  1
  Ta  Ta119  1  0.48591784  0.10452329  0.14174836  1
  Ti  Ti120  1  0.60241988  0.80717567  0.24415606  1
  Ti  Ti121  1  0.29537311  0.29800457  0.87001644  1
  Ti  Ti122  1  0.59463426  0.40031776  0.48482673  1
  Ti  Ti123  1  0.20555712  0.80763056  0.00783504  1
  Ti  Ti124  1  0.40424543  0.20117429  -0.00338364  1
  Ti  Ti125  1  0.79743515  0.80026686  0.24713823  1
  Ti  Ti126  1  0.29408225  0.31251943  0.63071232  1
  Ti  Ti127  1  0.30051820  0.49547733  0.86939061  1
  Ti  Ti128  1  0.60520904  0.60729878  0.50569295  1
  Ti  Ti129  1  0.10041510  0.88963505  0.63956984  1
  Ti  Ti130  1  0.39866691  -0.01052425  0.50036980  1
  Ti  Ti131  1  0.00423888  0.39973107  0.25108852  1
  Ti  Ti132  1  0.10217846  0.30787414  0.63289875  1
  Ti  Ti133  1  0.29232881  0.29091107  0.37240289  1
  Ti  Ti134  1  0.29610693  0.49177166  0.13129033  1
  Ti  Ti135  1  0.69458698  0.30690692  0.60684451  1
  Ti  Ti136  1  0.68992126  0.70750132  0.12378505  1
  Ti  Ti137  1  0.40258996  0.00580151  0.74309094  1
  Ti  Ti138  1  0.10988795  0.91145513  0.35083731  1
  Ti  Ti139  1  0.10618192  0.49646851  0.36009409  1
  Ti  Ti140  1  0.00081531  0.40600188  -0.01155113  1
  Ti  Ti141  1  0.20141261  0.60447862  0.23403706  1
  Ti  Ti142  1  0.20236029  0.80123446  0.76329394  1
  Ti  Ti143  1  0.01361730  0.19910712  0.51602037  1
  Ti  Ti144  1  0.90161976  0.49478700  0.13024965  1
  Ti  Ti145  1  0.50485508  0.90821466  0.14408167  1
  Ti  Ti146  1  0.39234860  0.40235302  0.48259547  1
  Ti  Ti147  1  0.59397847  0.60016330  0.24286078  1
  Ti  Ti148  1  0.80545564  0.79596361  0.48925785  1
  Ti  Ti149  1  0.59255801  -0.01088565  0.49718627  1
  Ti  Ti150  1  0.69436479  0.69709047  0.88835326  1
  Ti  Ti151  1  0.79139975  0.78201808  0.76515188  1
  Ti  Ti152  1  0.90021502  0.49918382  0.86794319  1
  Ti  Ti153  1  0.68851555  0.89295955  0.86529556  1
  Ti  Ti154  1  0.49613227  0.91524976  0.35636052  1
  Ti  Ti155  1  0.10179235  0.30704188  0.86672168  1
  Ti  Ti156  1  0.19853639  0.39898582  -0.01415649  1
  Ti  Ti157  1  0.79739675  0.20064068  0.25984469  1
  Ti  Ti158  1  0.49616218  0.51171060  0.38110621  1
  Ti  Ti159  1  0.29843334  0.69911462  0.12051058  1
  Mo  Mo160  1  0.30534394  0.10584872  0.10963314  1
  Mo  Mo161  1  0.59692968  0.19863434  0.50102909  1
  Mo  Mo162  1  0.30673301  0.09532432  0.61596922  1
  Mo  Mo163  1  0.50196977  0.90938180  0.62887430  1
  Mo  Mo164  1  0.49397329  0.29852450  0.88192747  1
  Mo  Mo165  1  0.30571928  0.89962294  0.87447785  1
  Mo  Mo166  1  0.20157243  0.21091546  0.00413224  1
  Mo  Mo167  1  0.59907368  -0.00215987  0.73388500  1
  Mo  Mo168  1  0.00808704  0.00404224  0.22719869  1
  Mo  Mo169  1  0.89925414  0.70304148  0.88038099  1
  Mo  Mo170  1  0.19671163  0.20509261  0.51472001  1
  Mo  Mo171  1  0.20250652  -0.00350531  -0.00531855  1
  Mo  Mo172  1  0.90131862  0.70481328  0.36523531  1
  Mo  Mo173  1  0.10260808  0.49657538  0.89006902  1
  Mo  Mo174  1  0.49870743  0.29909136  0.39328091  1
  Mo  Mo175  1  0.69108067  0.50434230  0.89031025  1
  Mo  Mo176  1  0.70640605  0.70062803  0.60904258  1
  Mo  Mo177  1  0.19584019  0.00404519  0.24144197  1
  Mo  Mo178  1  0.01020330  0.80237292  0.22443207  1
  Mo  Mo179  1  0.40207921  0.20098381  0.26277690  1
  Mo  Mo180  1  0.69282945  0.89536284  0.35866783  1
  Mo  Mo181  1  0.19814890  0.39671173  0.25543399  1
  Mo  Mo182  1  0.50530195  0.69617543  0.12950833  1
  Mo  Mo183  1  0.69937264  0.89485539  0.13870385  1
  Mo  Mo184  1  0.79604345  0.40123650  0.26903358  1
  Mo  Mo185  1  0.00117976  0.39822924  0.76458760  1
  Mo  Mo186  1  0.20187845  0.39379987  0.76567649  1
  Mo  Mo187  1  0.39694881  0.80162599  0.75986756  1
  Mo  Mo188  1  0.59089846  0.00307901  0.25338503  1
  Mo  Mo189  1  0.79163267  0.60041846  0.76372905  1
  Mo  Mo190  1  0.10114296  0.09987220  0.61105083  1
  Mo  Mo191  1  0.40099561  0.60180583  0.49892969  1
  Mo  Mo192  1  0.79707417  0.40542709  0.49046731  1
  Mo  Mo193  1  0.60626034  0.80442004  0.01585603  1
  Mo  Mo194  1  0.58878714  0.19464657  0.01532735  1
  Mo  Mo195  1  0.11194825  0.70107671  0.10473458  1
  Mo  Mo196  1  0.01347155  0.79933069  0.77479279  1
  Mo  Mo197  1  0.29415554  0.90189275  0.36704340  1
  Mo  Mo198  1  0.39698774  0.00863327  0.24941206  1
  Mo  Mo199  1  0.39786072  0.40008728  0.76972579  1
