# generated using pymatgen
data_HfZrTaTiMo
_symmetry_space_group_name_H-M   'P 1'
_cell_length_a   15.93301218
_cell_length_b   15.92736585
_cell_length_c   15.21494739
_cell_angle_alpha   90.04204194
_cell_angle_beta   89.98020821
_cell_angle_gamma   89.91864461
_symmetry_Int_Tables_number   1
_chemical_formula_structural   HfZrTaTiMo
_chemical_formula_sum   'Hf40 Zr40 Ta40 Ti40 Mo40'
_cell_volume   3861.10594399
_cell_formula_units_Z   40
loop_
 _symmetry_equiv_pos_site_id
 _symmetry_equiv_pos_as_xyz
  1  'x, y, z'
loop_
 _atom_site_type_symbol
 _atom_site_label
 _atom_site_symmetry_multiplicity
 _atom_site_fract_x
 _atom_site_fract_y
 _atom_site_fract_z
 _atom_site_occupancy
  Hf  Hf0  1  0.10767480  0.70059364  0.63817189  1
  Hf  Hf1  1  0.09932543  0.49638811  0.36429194  1
  Hf  Hf2  1  0.50669648  0.89608439  0.38996636  1
  Hf  Hf3  1  0.10048928  0.90565180  0.87604519  1
  Hf  Hf4  1  0.28624058  0.12372660  0.13031494  1
  Hf  Hf5  1  -0.00361623  0.19682496  0.25689494  1
  Hf  Hf6  1  0.39527205  0.00025148  0.02246869  1
  Hf  Hf7  1  0.29562916  0.69285448  0.63511563  1
  Hf  Hf8  1  0.29522478  0.30450562  0.36720394  1
  Hf  Hf9  1  0.70148455  0.91071331  0.38956971  1
  Hf  Hf10  1  0.79874376  0.79691440  0.25686704  1
  Hf  Hf11  1  0.78227559  0.60556221  0.00533791  1
  Hf  Hf12  1  0.00197030  0.80489587  -0.00069695  1
  Hf  Hf13  1  0.40281565  0.59273325  -0.00188770  1
  Hf  Hf14  1  0.21741246  0.01349530  0.76097724  1
  Hf  Hf15  1  0.50025155  0.89403687  0.89499398  1
  Hf  Hf16  1  0.39355863  0.17745762  0.75246046  1
  Hf  Hf17  1  -0.00348230  0.40156807  0.22980008  1
  Hf  Hf18  1  0.69867772  0.50064253  0.61679329  1
  Hf  Hf19  1  0.29313840  0.49996585  0.35759865  1
  Hf  Hf20  1  0.40262715  -0.00529922  0.24317088  1
  Hf  Hf21  1  0.79642957  0.40907831  0.23493244  1
  Hf  Hf22  1  0.29875746  0.90574945  0.38078997  1
  Hf  Hf23  1  0.91405289  0.29786912  0.87815611  1
  Hf  Hf24  1  0.29633864  0.50502685  0.13197051  1
  Hf  Hf25  1  0.89258628  0.90665781  0.87068810  1
  Hf  Hf26  1  0.89242916  0.10408486  0.11647148  1
  Hf  Hf27  1  0.09027212  0.70217478  0.35149083  1
  Hf  Hf28  1  0.39821244  0.41144074  0.73382603  1
  Hf  Hf29  1  0.01708657  0.39264413  0.01068022  1
  Hf  Hf30  1  0.51182921  0.70403971  0.60656511  1
  Hf  Hf31  1  0.00288592  0.60632264  0.50554013  1
  Hf  Hf32  1  0.79433867  0.00608655  0.73581938  1
  Hf  Hf33  1  0.10872716  0.11064734  0.62972545  1
  Hf  Hf34  1  0.19875652  0.00603993  0.24577261  1
  Hf  Hf35  1  0.60404279  0.20593031  0.27854722  1
  Hf  Hf36  1  0.89570104  0.31147962  0.38578823  1
  Hf  Hf37  1  0.09052832  0.11733145  0.86952781  1
  Hf  Hf38  1  -0.00401866  0.79208789  0.75350511  1
  Hf  Hf39  1  0.89786192  0.29012637  0.11352370  1
  Zr  Zr40  1  0.68512146  0.89095192  0.61877087  1
  Zr  Zr41  1  0.59794015  0.40405475  -0.00871454  1
  Zr  Zr42  1  0.69259641  0.09584916  0.86385673  1
  Zr  Zr43  1  0.21617633  0.79786910  0.24211947  1
  Zr  Zr44  1  0.60823727  0.00093464  0.24124389  1
  Zr  Zr45  1  0.90244257  0.50208460  0.38325317  1
  Zr  Zr46  1  0.89494130  0.90613510  0.12937470  1
  Zr  Zr47  1  0.19428945  0.20404577  0.49106036  1
  Zr  Zr48  1  0.39498208  0.58658412  0.49853492  1
  Zr  Zr49  1  0.11537121  0.69159731  0.11720406  1
  Zr  Zr50  1  0.59863120  0.79276177  0.25200230  1
  Zr  Zr51  1  0.40279125  0.19677339  0.26490646  1
  Zr  Zr52  1  0.39093353  0.78768016  0.48806744  1
  Zr  Zr53  1  0.60168534  0.37689156  0.49212469  1
  Zr  Zr54  1  0.21478701  0.80762228  0.76491751  1
  Zr  Zr55  1  0.40195710  -0.01896639  0.74316850  1
  Zr  Zr56  1  0.49974611  0.08840099  0.88297606  1
  Zr  Zr57  1  0.51339986  0.11102755  0.12138283  1
  Zr  Zr58  1  0.81302442  0.39715885  0.74417123  1
  Zr  Zr59  1  -0.00731197  0.00899469  0.73584067  1
  Zr  Zr60  1  0.79935013  0.00785796  0.51516961  1
  Zr  Zr61  1  0.69292999  0.69341482  0.39184844  1
  Zr  Zr62  1  0.70862898  0.70355367  0.62673382  1
  Zr  Zr63  1  0.40412943  0.61421014  0.25758633  1
  Zr  Zr64  1  0.29790784  0.28978796  0.63146846  1
  Zr  Zr65  1  0.10798603  0.68570243  0.88341740  1
  Zr  Zr66  1  0.19756648  0.00711941  0.00379308  1
  Zr  Zr67  1  0.90044113  0.70413746  0.12228525  1
  Zr  Zr68  1  0.70561839  0.50269714  0.86366219  1
  Zr  Zr69  1  0.20671668  0.41090756  0.51319419  1
  Zr  Zr70  1  0.60003612  0.21249562  -0.01705809  1
  Zr  Zr71  1  0.19479214  0.40957549  0.74400463  1
  Zr  Zr72  1  0.69402113  0.29486974  0.13034164  1
  Zr  Zr73  1  0.51536473  0.68603300  0.11505844  1
  Zr  Zr74  1  0.89770349  0.69070384  0.87756171  1
  Zr  Zr75  1  -0.00042894  -0.00501388  0.51102054  1
  Zr  Zr76  1  0.58953368  0.60604252  0.75882330  1
  Zr  Zr77  1  0.39233601  0.21194425  -0.00435037  1
  Zr  Zr78  1  0.00120114  0.79698407  0.50215602  1
  Zr  Zr79  1  0.78068466  0.20790457  0.50123945  1
  Ta  Ta80  1  0.59923681  0.40511201  0.26289933  1
  Ta  Ta81  1  0.90030900  0.10556942  0.88046292  1
  Ta  Ta82  1  0.90682276  0.90105347  0.36412719  1
  Ta  Ta83  1  0.09686925  0.30494416  0.36708897  1
  Ta  Ta84  1  0.49623219  0.30973419  0.13722832  1
  Ta  Ta85  1  0.50618294  0.28424322  0.63381383  1
  Ta  Ta86  1  0.29631757  0.30269818  0.86384995  1
  Ta  Ta87  1  0.29531054  0.89673547  0.61273117  1
  Ta  Ta88  1  0.88899238  0.87971002  0.63505120  1
  Ta  Ta89  1  0.79363987  0.20695989  -0.02161931  1
  Ta  Ta90  1  0.30109450  0.09396511  0.60765328  1
  Ta  Ta91  1  0.58933142  0.80272322  0.76113747  1
  Ta  Ta92  1  0.09553278  0.09774352  0.37641006  1
  Ta  Ta93  1  0.79484690  0.59891540  0.24401644  1
  Ta  Ta94  1  0.79187221  0.00237325  -0.00490403  1
  Ta  Ta95  1  0.69247537  0.90243646  0.87014444  1
  Ta  Ta96  1  0.09876505  0.89917781  0.12707581  1
  Ta  Ta97  1  0.61207213  0.77939285  -0.01267296  1
  Ta  Ta98  1  0.80166661  0.19997398  0.74352473  1
  Ta  Ta99  1  0.81211014  0.60700938  0.50477443  1
  Ta  Ta100  1  0.10886049  0.89944051  0.63522971  1
  Ta  Ta101  1  0.91011156  0.49701920  0.88458801  1
  Ta  Ta102  1  0.40960067  0.20226381  0.49563125  1
  Ta  Ta103  1  0.50908221  0.09110668  0.39365937  1
  Ta  Ta104  1  0.79032370  0.80175629  -0.00911731  1
  Ta  Ta105  1  -0.00538630  0.20233515  0.50503222  1
  Ta  Ta106  1  0.20114190  0.61272526  0.48421770  1
  Ta  Ta107  1  0.00104041  0.58568174  0.74566678  1
  Ta  Ta108  1  0.70929736  0.49467663  0.39021493  1
  Ta  Ta109  1  -0.00242395  0.00673342  0.00290082  1
  Ta  Ta110  1  0.01004898  0.39447830  0.52027123  1
  Ta  Ta111  1  0.49563314  0.30376627  0.85206390  1
  Ta  Ta112  1  0.30399491  0.69917368  0.88822166  1
  Ta  Ta113  1  0.79897167  0.40242316  -0.00064195  1
  Ta  Ta114  1  0.49353863  0.49725250  0.87210153  1
  Ta  Ta115  1  -0.01134130  0.59621927  0.23423346  1
  Ta  Ta116  1  0.79658990  0.19570784  0.26695870  1
  Ta  Ta117  1  0.81522945  0.79551993  0.48837753  1
  Ta  Ta118  1  0.89867229  0.09603365  0.38201754  1
  Ta  Ta119  1  0.40237268  0.80105857  0.24259083  1
  Ti  Ti120  1  -0.00192805  0.00221277  0.24603250  1
  Ti  Ti121  1  0.00233471  0.40118083  0.73349860  1
  Ti  Ti122  1  0.11363903  0.50121578  0.13050234  1
  Ti  Ti123  1  0.90143026  0.50007524  0.61672375  1
  Ti  Ti124  1  0.68346294  0.51018600  0.12146806  1
  Ti  Ti125  1  0.40754751  0.79486040  0.75141028  1
  Ti  Ti126  1  0.70416167  0.10368813  0.11572487  1
  Ti  Ti127  1  0.39815259  0.39580301  -0.00319107  1
  Ti  Ti128  1  0.69347128  0.29547212  0.63918950  1
  Ti  Ti129  1  0.50770420  0.50062533  0.38590106  1
  Ti  Ti130  1  0.19195327  0.79994413  0.49222195  1
  Ti  Ti131  1  0.11820312  0.28638049  0.13882962  1
  Ti  Ti132  1  0.40297178  0.39442634  0.50693390  1
  Ti  Ti133  1  0.40773303  -0.00279117  0.51409361  1
  Ti  Ti134  1  0.30122644  0.09565220  0.38603581  1
  Ti  Ti135  1  0.59974207  0.39837035  0.74980103  1
  Ti  Ti136  1  0.50590455  0.49852772  0.61821477  1
  Ti  Ti137  1  0.29889747  0.31115198  0.14143060  1
  Ti  Ti138  1  0.51148259  0.89304821  0.11467123  1
  Ti  Ti139  1  0.19454921  0.21281785  -0.01330077  1
  Ti  Ti140  1  -0.01163958  0.21168000  0.72456843  1
  Ti  Ti141  1  0.81183869  0.60271538  0.74346634  1
  Ti  Ti142  1  0.11374824  0.51472677  0.62638301  1
  Ti  Ti143  1  0.58504116  0.00215240  0.72783525  1
  Ti  Ti144  1  0.10092045  0.49633480  0.87871679  1
  Ti  Ti145  1  -0.00006576  0.58556516  0.01309079  1
  Ti  Ti146  1  0.19350547  -0.00486165  0.49965142  1
  Ti  Ti147  1  0.10124911  0.30166608  0.85803537  1
  Ti  Ti148  1  0.79664159  0.00855268  0.25390506  1
  Ti  Ti149  1  0.09524318  0.90170764  0.36188678  1
  Ti  Ti150  1  0.41166881  0.40361504  0.25793699  1
  Ti  Ti151  1  0.29565880  0.50124912  0.87416059  1
  Ti  Ti152  1  0.39593613  0.79477031  0.01971651  1
  Ti  Ti153  1  0.30469169  0.89677110  0.89747209  1
  Ti  Ti154  1  0.39893814  0.60342053  0.75553580  1
  Ti  Ti155  1  0.20748444  0.39740543  0.00102282  1
  Ti  Ti156  1  0.50247899  0.49381190  0.12513643  1
  Ti  Ti157  1  0.60357539  0.59288061  0.26388664  1
  Ti  Ti158  1  0.09176160  0.10848519  0.12266213  1
  Ti  Ti159  1  0.69910083  0.89390634  0.11430236  1
  Mo  Mo160  1  0.60942830  -0.01380688  0.01402351  1
  Mo  Mo161  1  0.00791988  0.19869635  0.00605313  1
  Mo  Mo162  1  0.19395901  0.19655743  0.26758445  1
  Mo  Mo163  1  0.49751083  0.09978586  0.61301127  1
  Mo  Mo164  1  0.60060944  0.58954033  0.49423918  1
  Mo  Mo165  1  0.70146053  0.09669255  0.37690029  1
  Mo  Mo166  1  0.89701848  0.30331861  0.61425212  1
  Mo  Mo167  1  0.20297633  0.58429272  -0.01204484  1
  Mo  Mo168  1  0.79274977  0.80038047  0.76506967  1
  Mo  Mo169  1  0.09583608  0.30159634  0.63425432  1
  Mo  Mo170  1  0.50071320  0.69351846  0.37840647  1
  Mo  Mo171  1  0.19673744  0.59946274  0.25753190  1
  Mo  Mo172  1  0.30224922  0.89850746  0.12342242  1
  Mo  Mo173  1  0.20452006  0.59735487  0.76882157  1
  Mo  Mo174  1  0.69898023  0.69659581  0.13339658  1
  Mo  Mo175  1  0.59588045  0.20124925  0.75404265  1
  Mo  Mo176  1  0.49490017  0.30490396  0.37419019  1
  Mo  Mo177  1  0.60009884  0.79793182  0.49171273  1
  Mo  Mo178  1  0.20226813  0.20155155  0.76032933  1
  Mo  Mo179  1  0.29659546  0.10557564  0.89692869  1
  Mo  Mo180  1  0.59680462  0.19542497  0.49555838  1
  Mo  Mo181  1  0.59736876  0.59674221  -0.01609254  1
  Mo  Mo182  1  0.19626247  0.39573241  0.23835996  1
  Mo  Mo183  1  0.89835647  0.69829447  0.35611895  1
  Mo  Mo184  1  0.00240852  0.80686665  0.24203886  1
  Mo  Mo185  1  0.80385004  0.40410256  0.51707015  1
  Mo  Mo186  1  0.90151523  0.69470325  0.63778982  1
  Mo  Mo187  1  0.89562447  0.10721572  0.61564383  1
  Mo  Mo188  1  0.30119839  0.51022288  0.62710321  1
  Mo  Mo189  1  0.70111324  0.70404252  0.85578981  1
  Mo  Mo190  1  0.49409623  0.89206402  0.61648166  1
  Mo  Mo191  1  0.20999306  0.80118321  0.00601252  1
  Mo  Mo192  1  0.29343292  0.70223068  0.37386026  1
  Mo  Mo193  1  0.89587435  0.49844078  0.10645916  1
  Mo  Mo194  1  0.30266192  0.69786623  0.10887619  1
  Mo  Mo195  1  0.70648473  0.30964210  0.36550421  1
  Mo  Mo196  1  0.59620943  0.00535219  0.51737709  1
  Mo  Mo197  1  0.49313021  0.70119834  0.88333232  1
  Mo  Mo198  1  0.70426331  0.30343499  0.85602212  1
  Mo  Mo199  1  0.68399494  0.11252504  0.63899810  1
