# generated using pymatgen
data_HfZrTaTiMo
_symmetry_space_group_name_H-M   'P 1'
_cell_length_a   15.92994333
_cell_length_b   15.93995341
_cell_length_c   15.22465079
_cell_angle_alpha   89.99984831
_cell_angle_beta   89.97017955
_cell_angle_gamma   90.07054242
_symmetry_Int_Tables_number   1
_chemical_formula_structural   HfZrTaTiMo
_chemical_formula_sum   'Hf40 Zr40 Ta40 Ti40 Mo40'
_cell_volume   3865.87876611
_cell_formula_units_Z   40
loop_
 _symmetry_equiv_pos_site_id
 _symmetry_equiv_pos_as_xyz
  1  'x, y, z'
loop_
 _atom_site_type_symbol
 _atom_site_label
 _atom_site_symmetry_multiplicity
 _atom_site_fract_x
 _atom_site_fract_y
 _atom_site_fract_z
 _atom_site_occupancy
  Hf  Hf0  1  0.70509348  0.50008934  0.86521492  1
  Hf  Hf1  1  -0.00278394  0.21183687  0.74398180  1
  Hf  Hf2  1  0.40150606  -0.01102840  0.51889057  1
  Hf  Hf3  1  0.81381289  0.80757172  0.74168957  1
  Hf  Hf4  1  0.41515780  0.19675230  0.24269156  1
  Hf  Hf5  1  0.29665026  0.50429456  0.61164074  1
  Hf  Hf6  1  0.69727399  0.09931504  0.88916472  1
  Hf  Hf7  1  0.50401235  0.89721892  0.88100547  1
  Hf  Hf8  1  0.80292372  0.60284635  0.00588192  1
  Hf  Hf9  1  0.10558792  0.09638655  0.37951478  1
  Hf  Hf10  1  0.79255002  0.20088118  0.73749576  1
  Hf  Hf11  1  0.40483675  -0.00879440  0.74199931  1
  Hf  Hf12  1  0.51557874  0.11729890  0.10333590  1
  Hf  Hf13  1  0.10156737  0.30795023  0.12746857  1
  Hf  Hf14  1  0.00299387  0.79274185  -0.00742604  1
  Hf  Hf15  1  0.09910984  0.30234214  0.36420315  1
  Hf  Hf16  1  0.39653769  0.80932677  0.24216894  1
  Hf  Hf17  1  0.50983977  0.70758021  0.37045596  1
  Hf  Hf18  1  0.40270158  0.79410379  0.49311225  1
  Hf  Hf19  1  0.80082924  0.19364165  0.50117068  1
  Hf  Hf20  1  0.88299292  0.89989604  0.38638761  1
  Hf  Hf21  1  0.38404247  0.40185156  0.75458501  1
  Hf  Hf22  1  0.49345433  0.50555569  0.61379513  1
  Hf  Hf23  1  0.31245833  0.09362671  0.38555916  1
  Hf  Hf24  1  -0.01321721  -0.01784756  0.75216428  1
  Hf  Hf25  1  0.09292159  0.48038509  0.88607742  1
  Hf  Hf26  1  0.60399402  0.00404711  0.73293315  1
  Hf  Hf27  1  0.09579643  0.49859771  0.12158470  1
  Hf  Hf28  1  0.29499007  0.29940050  0.60248719  1
  Hf  Hf29  1  0.29666684  0.49164144  0.12686643  1
  Hf  Hf30  1  0.77794811  0.79866907  0.51917942  1
  Hf  Hf31  1  0.11050768  0.69462755  0.60861229  1
  Hf  Hf32  1  0.50417088  0.49671846  0.88109813  1
  Hf  Hf33  1  0.18988498  -0.01279556  0.75366182  1
  Hf  Hf34  1  0.10314607  0.10654726  0.62259909  1
  Hf  Hf35  1  0.21256647  -0.01010581  0.24611794  1
  Hf  Hf36  1  0.49872564  0.12146200  0.61746599  1
  Hf  Hf37  1  0.29045903  0.70292639  0.13019631  1
  Hf  Hf38  1  0.80599869  0.80090645  0.00375498  1
  Hf  Hf39  1  0.59150534  0.39160704  0.74202917  1
  Zr  Zr40  1  0.49905352  0.91377388  0.36091187  1
  Zr  Zr41  1  0.61227239  0.59843560  0.25156979  1
  Zr  Zr42  1  0.20479366  0.18796045  0.24007134  1
  Zr  Zr43  1  0.78927735  0.40950345  0.24913282  1
  Zr  Zr44  1  0.50417467  0.09936987  0.88250447  1
  Zr  Zr45  1  0.80231344  0.40122863  0.01167904  1
  Zr  Zr46  1  0.30600574  0.30000035  0.12170396  1
  Zr  Zr47  1  0.49019310  0.31824298  0.39547745  1
  Zr  Zr48  1  0.00389769  0.60201676  0.73999504  1
  Zr  Zr49  1  0.70064879  0.90029375  0.87529522  1
  Zr  Zr50  1  0.30592635  0.69336078  0.63383414  1
  Zr  Zr51  1  0.09484635  0.10249665  0.86821940  1
  Zr  Zr52  1  -0.00128349  0.20290740  0.49736398  1
  Zr  Zr53  1  0.29171996  0.10651544  0.62335119  1
  Zr  Zr54  1  0.89159965  0.10220110  0.87521662  1
  Zr  Zr55  1  0.30021997  0.29378815  0.37368570  1
  Zr  Zr56  1  0.29396518  0.87885537  0.63837867  1
  Zr  Zr57  1  0.19612306  0.60328818  -0.00794800  1
  Zr  Zr58  1  0.19578822  0.59109741  0.26724517  1
  Zr  Zr59  1  0.20125544  0.19765424  -0.00315500  1
  Zr  Zr60  1  0.57801250  0.40742836  0.24442325  1
  Zr  Zr61  1  0.08660452  0.88083761  0.61382743  1
  Zr  Zr62  1  0.68616672  0.28501858  0.12321435  1
  Zr  Zr63  1  0.60399601  -0.01494999  0.51812296  1
  Zr  Zr64  1  0.09178926  0.09125773  0.12658688  1
  Zr  Zr65  1  0.90330269  0.49734889  0.86799717  1
  Zr  Zr66  1  0.30132843  0.10218041  0.87050973  1
  Zr  Zr67  1  0.89666431  0.09720499  0.12477967  1
  Zr  Zr68  1  0.61039426  0.62065807  0.50914435  1
  Zr  Zr69  1  -0.00763366  0.80040714  0.26097525  1
  Zr  Zr70  1  0.09980672  0.89144041  0.13301801  1
  Zr  Zr71  1  0.80834903  0.39571738  0.73618600  1
  Zr  Zr72  1  0.20223630  0.58324141  0.76458987  1
  Zr  Zr73  1  0.41707770  0.58754951  0.24505181  1
  Zr  Zr74  1  0.79952610  0.19719847  0.25890237  1
  Zr  Zr75  1  0.50450714  0.70119673  0.11679265  1
  Zr  Zr76  1  0.32423745  0.48789890  0.37705116  1
  Zr  Zr77  1  -0.01126605  0.41076420  0.25553478  1
  Zr  Zr78  1  0.40147816  0.21538533  0.75550573  1
  Zr  Zr79  1  0.70351483  0.08321229  0.38085306  1
  Ta  Ta80  1  0.19112597  0.40438518  0.48457020  1
  Ta  Ta81  1  0.40159143  0.59886225  -0.00483005  1
  Ta  Ta82  1  0.09842929  0.69804435  0.13841938  1
  Ta  Ta83  1  0.39722025  0.80002275  -0.00079117  1
  Ta  Ta84  1  0.69124833  0.89124759  0.36331066  1
  Ta  Ta85  1  0.88961259  0.50692877  0.39207699  1
  Ta  Ta86  1  0.19909569  -0.00818224  -0.00390149  1
  Ta  Ta87  1  0.70015609  0.50146053  0.62518582  1
  Ta  Ta88  1  -0.00758131  0.59933030  0.26292057  1
  Ta  Ta89  1  0.19595781  0.79886085  -0.01312654  1
  Ta  Ta90  1  0.59991990  0.60281568  0.74881573  1
  Ta  Ta91  1  0.80417608  0.60873502  0.73136750  1
  Ta  Ta92  1  -0.00390862  -0.01068688  -0.01279562  1
  Ta  Ta93  1  0.90944771  0.30668824  0.88167442  1
  Ta  Ta94  1  0.70172637  0.90639430  0.12552279  1
  Ta  Ta95  1  0.19800229  -0.01128653  0.50033529  1
  Ta  Ta96  1  0.60049542  0.20088604  0.49002116  1
  Ta  Ta97  1  0.68825959  0.30124738  0.60828860  1
  Ta  Ta98  1  0.18654869  0.78715715  0.77358519  1
  Ta  Ta99  1  0.60017270  0.01111160  0.23388656  1
  Ta  Ta100  1  0.40599144  0.59876615  0.76852164  1
  Ta  Ta101  1  0.79730714  0.00042173  0.73255469  1
  Ta  Ta102  1  -0.00335423  0.20540827  0.00015088  1
  Ta  Ta103  1  0.19268745  0.23442316  0.75881972  1
  Ta  Ta104  1  0.30589407  0.70063477  0.87624860  1
  Ta  Ta105  1  0.20653470  0.79618484  0.47813303  1
  Ta  Ta106  1  0.09664963  0.70080847  0.37698542  1
  Ta  Ta107  1  0.70081193  0.70040434  0.86464449  1
  Ta  Ta108  1  0.60610725  0.60331029  -0.00719462  1
  Ta  Ta109  1  0.60046449  0.20129271  0.26840702  1
  Ta  Ta110  1  0.69573330  0.31093671  0.38522198  1
  Ta  Ta111  1  0.79737558  0.79810923  0.24195116  1
  Ta  Ta112  1  0.39563773  0.00092299  0.00771451  1
  Ta  Ta113  1  0.80706647  0.60190149  0.25055613  1
  Ta  Ta114  1  0.50092453  0.29878249  0.89584274  1
  Ta  Ta115  1  0.60391845  0.80576362  0.23343579  1
  Ta  Ta116  1  0.89615209  0.69584449  0.87122203  1
  Ta  Ta117  1  0.30320863  0.89574717  0.87595945  1
  Ta  Ta118  1  -0.00685035  -0.00204330  0.49679942  1
  Ta  Ta119  1  0.89145336  0.30691591  0.38274783  1
  Ti  Ti120  1  0.21080236  0.60275815  0.47736610  1
  Ti  Ti121  1  0.70659420  0.70893583  0.36856037  1
  Ti  Ti122  1  0.59861964  0.79933936  0.73936934  1
  Ti  Ti123  1  0.60259409  0.20693476  0.75097989  1
  Ti  Ti124  1  0.70339434  0.70212371  0.12557226  1
  Ti  Ti125  1  0.79710446  -0.00308027  0.52259448  1
  Ti  Ti126  1  0.90573893  0.50104058  0.61647986  1
  Ti  Ti127  1  0.69689850  0.50347207  0.39151689  1
  Ti  Ti128  1  0.60056021  0.40067725  0.00636198  1
  Ti  Ti129  1  0.49982314  0.09784160  0.38081324  1
  Ti  Ti130  1  0.50596778  0.70455843  0.87754399  1
  Ti  Ti131  1  0.49422176  0.70469849  0.63241329  1
  Ti  Ti132  1  0.30240620  0.90026101  0.37102493  1
  Ti  Ti133  1  0.70334632  0.30222176  0.87812993  1
  Ti  Ti134  1  0.00049606  0.40491059  0.49535907  1
  Ti  Ti135  1  0.10632173  0.49396419  0.61395160  1
  Ti  Ti136  1  0.90353600  0.30296915  0.12720851  1
  Ti  Ti137  1  0.90286811  0.90245992  0.12938656  1
  Ti  Ti138  1  0.79701989  0.40486648  0.50553142  1
  Ti  Ti139  1  0.89258240  0.70011884  0.38711322  1
  Ti  Ti140  1  0.80145445  0.60673436  0.51801447  1
  Ti  Ti141  1  -0.00598363  0.59863151  0.00435435  1
  Ti  Ti142  1  -0.01005343  0.00294245  0.26805386  1
  Ti  Ti143  1  0.00222986  0.59804436  0.49310691  1
  Ti  Ti144  1  0.79803916  -0.00192887  0.24600174  1
  Ti  Ti145  1  0.91834466  0.71569484  0.61284389  1
  Ti  Ti146  1  0.90321740  0.09623400  0.62540181  1
  Ti  Ti147  1  0.50228548  0.90833744  0.11618940  1
  Ti  Ti148  1  0.90421887  0.30727789  0.61119130  1
  Ti  Ti149  1  -0.01172011  0.19557605  0.25891284  1
  Ti  Ti150  1  0.09977422  0.89681835  0.37722698  1
  Ti  Ti151  1  0.80145201  -0.00347449  0.00710108  1
  Ti  Ti152  1  0.39848268  0.40112379  0.00042456  1
  Ti  Ti153  1  0.00230437  0.79734198  0.77038320  1
  Ti  Ti154  1  0.69608609  0.50635281  0.12089773  1
  Ti  Ti155  1  0.02096751  0.39011104  0.73365766  1
  Ti  Ti156  1  0.60683832  0.80027543  0.00546741  1
  Ti  Ti157  1  0.29864689  0.89874135  0.11472399  1
  Ti  Ti158  1  0.90629217  0.69629076  0.13109249  1
  Ti  Ti159  1  0.80117502  0.20393211  0.00387564  1
  Mo  Mo160  1  0.50231135  0.49963509  0.09844897  1
  Mo  Mo161  1  0.89869035  0.51126576  0.12968224  1
  Mo  Mo162  1  0.30338010  0.49785556  0.88791202  1
  Mo  Mo163  1  0.40571992  0.39714650  0.22826671  1
  Mo  Mo164  1  0.89628815  0.89857833  0.88361979  1
  Mo  Mo165  1  0.90079600  0.09327919  0.37555603  1
  Mo  Mo166  1  0.60399809  -0.00381645  0.01379390  1
  Mo  Mo167  1  0.30894942  0.08972104  0.11607619  1
  Mo  Mo168  1  0.09050979  0.50384152  0.38792268  1
  Mo  Mo169  1  0.40263707  0.20317484  -0.00536881  1
  Mo  Mo170  1  0.09297623  0.69060855  0.88096944  1
  Mo  Mo171  1  0.49714934  0.88226399  0.63623440  1
  Mo  Mo172  1  0.39907824  0.40136125  0.51809885  1
  Mo  Mo173  1  0.19731066  0.39804556  0.75396802  1
  Mo  Mo174  1  0.69833214  0.89826987  0.64109472  1
  Mo  Mo175  1  0.60515065  0.40844663  0.50727541  1
  Mo  Mo176  1  0.40484948  0.60483510  0.48534037  1
  Mo  Mo177  1  0.20114008  0.79710926  0.26672836  1
  Mo  Mo178  1  -0.00327292  0.79487961  0.48312757  1
  Mo  Mo179  1  0.20221170  0.39749207  -0.01321014  1
  Mo  Mo180  1  0.19691038  0.19578479  0.49035817  1
  Mo  Mo181  1  0.49977376  0.30354875  0.10864423  1
  Mo  Mo182  1  0.10327385  0.30981342  0.60891911  1
  Mo  Mo183  1  0.09194212  0.30237692  0.88814473  1
  Mo  Mo184  1  0.70321011  0.09574729  0.11881452  1
  Mo  Mo185  1  0.50091127  0.30439459  0.61210975  1
  Mo  Mo186  1  0.19864059  0.40184736  0.26625164  1
  Mo  Mo187  1  0.69650954  0.69910518  0.64681617  1
  Mo  Mo188  1  0.30232111  0.70244215  0.36283639  1
  Mo  Mo189  1  0.29904237  0.30808862  0.89111041  1
  Mo  Mo190  1  0.40275434  0.00475126  0.22301866  1
  Mo  Mo191  1  0.50868626  0.50842205  0.39849362  1
  Mo  Mo192  1  0.70033871  0.10775386  0.61995879  1
  Mo  Mo193  1  0.09999390  0.89723652  0.87970866  1
  Mo  Mo194  1  0.40386095  0.19587419  0.49486617  1
  Mo  Mo195  1  -0.00636791  0.39546399  0.01814692  1
  Mo  Mo196  1  0.59470070  0.80430444  0.51479297  1
  Mo  Mo197  1  0.90053259  0.90129547  0.60793174  1
  Mo  Mo198  1  0.61107893  0.20871174  -0.01638675  1
  Mo  Mo199  1  0.40564705  0.79029763  0.77205613  1
