# generated using pymatgen
data_HfZrTaTiMo
_symmetry_space_group_name_H-M   'P 1'
_cell_length_a   15.93371828
_cell_length_b   15.92639840
_cell_length_c   15.19821331
_cell_angle_alpha   90.03282505
_cell_angle_beta   90.04980051
_cell_angle_gamma   90.00066060
_symmetry_Int_Tables_number   1
_chemical_formula_structural   HfZrTaTiMo
_chemical_formula_sum   'Hf40 Zr40 Ta40 Ti40 Mo40'
_cell_volume   3856.79903776
_cell_formula_units_Z   40
loop_
 _symmetry_equiv_pos_site_id
 _symmetry_equiv_pos_as_xyz
  1  'x, y, z'
loop_
 _atom_site_type_symbol
 _atom_site_label
 _atom_site_symmetry_multiplicity
 _atom_site_fract_x
 _atom_site_fract_y
 _atom_site_fract_z
 _atom_site_occupancy
  Hf  Hf0  1  0.00464412  0.80122330  0.49285998  1
  Hf  Hf1  1  0.01239750  0.00874906  0.49874413  1
  Hf  Hf2  1  0.80378341  0.40505280  0.26536336  1
  Hf  Hf3  1  0.69197719  0.49571844  0.13772165  1
  Hf  Hf4  1  0.20390496  0.59277069  0.76088627  1
  Hf  Hf5  1  0.29732487  0.30192050  0.88645971  1
  Hf  Hf6  1  0.79363694  0.01014938  0.74272064  1
  Hf  Hf7  1  0.89412809  0.10799513  0.12923771  1
  Hf  Hf8  1  0.20752557  0.79444665  0.76689725  1
  Hf  Hf9  1  0.49169465  0.29504511  0.87635862  1
  Hf  Hf10  1  0.48746839  0.50921255  0.86644956  1
  Hf  Hf11  1  0.78937628  0.41089667  0.49991574  1
  Hf  Hf12  1  0.29586064  0.49314336  0.89530701  1
  Hf  Hf13  1  0.10238569  0.49793151  0.60544074  1
  Hf  Hf14  1  0.62071760  -0.01708124  0.51444359  1
  Hf  Hf15  1  0.90011441  0.69726754  0.61991079  1
  Hf  Hf16  1  0.68871064  0.29430766  0.14712234  1
  Hf  Hf17  1  0.20198645  0.21606750  0.73641736  1
  Hf  Hf18  1  0.50680047  0.10666397  0.60791393  1
  Hf  Hf19  1  0.59544284  0.79960873  0.75351921  1
  Hf  Hf20  1  0.51431477  0.69167513  0.36408083  1
  Hf  Hf21  1  0.20719283  0.00989200  0.00281130  1
  Hf  Hf22  1  0.60102852  0.00765915  -0.00436163  1
  Hf  Hf23  1  0.59411942  0.79906522  -0.01591266  1
  Hf  Hf24  1  0.90343898  0.09968287  0.37776362  1
  Hf  Hf25  1  0.41171078  0.00130380  0.00833769  1
  Hf  Hf26  1  0.40672094  0.80370251  0.24717465  1
  Hf  Hf27  1  0.91168525  0.30689978  0.39497251  1
  Hf  Hf28  1  0.49816055  0.49566520  0.14173686  1
  Hf  Hf29  1  0.40453075  0.39695926  0.47833979  1
  Hf  Hf30  1  0.10622214  0.31522415  0.39386487  1
  Hf  Hf31  1  -0.00296426  0.21098517  0.00369678  1
  Hf  Hf32  1  0.79937719  0.20419460  0.26570119  1
  Hf  Hf33  1  0.29515788  0.49866155  0.11951500  1
  Hf  Hf34  1  0.30905629  0.09669729  0.62496689  1
  Hf  Hf35  1  0.59582982  0.38846086  -0.00288871  1
  Hf  Hf36  1  -0.00011406  0.00271926  -0.00001057  1
  Hf  Hf37  1  0.00251720  0.59663822  0.75964835  1
  Hf  Hf38  1  0.59802553  0.38843896  0.74862008  1
  Hf  Hf39  1  0.39965446  0.79248337  0.49725220  1
  Zr  Zr40  1  0.39911667  0.59552688  0.48812072  1
  Zr  Zr41  1  0.88677083  0.70006761  0.38564060  1
  Zr  Zr42  1  0.88993285  0.11012666  0.87557360  1
  Zr  Zr43  1  0.11165661  0.90214432  0.63292648  1
  Zr  Zr44  1  0.20679551  0.19922682  0.49614489  1
  Zr  Zr45  1  0.01096390  0.22063337  0.24093480  1
  Zr  Zr46  1  0.10169406  0.89866219  0.12196376  1
  Zr  Zr47  1  0.79475362  0.39235224  0.00346174  1
  Zr  Zr48  1  0.28406936  0.48922295  0.36547252  1
  Zr  Zr49  1  0.59725847  0.60258163  0.00132237  1
  Zr  Zr50  1  -0.00126381  0.00281377  0.75980471  1
  Zr  Zr51  1  0.09093709  0.50049976  0.11480644  1
  Zr  Zr52  1  0.21083429  0.79364893  0.24145750  1
  Zr  Zr53  1  0.60100831  0.00081743  0.74960635  1
  Zr  Zr54  1  0.00229507  0.79986382  0.76722179  1
  Zr  Zr55  1  0.10655282  0.10524309  0.36353214  1
  Zr  Zr56  1  0.21062008  0.78536870  -0.00076717  1
  Zr  Zr57  1  0.49576352  0.67902424  0.64284297  1
  Zr  Zr58  1  0.80240262  0.80183554  0.74984561  1
  Zr  Zr59  1  0.31052751  0.11391872  0.87651245  1
  Zr  Zr60  1  0.10588878  0.69752308  0.62380938  1
  Zr  Zr61  1  0.90582532  0.50527350  0.12021119  1
  Zr  Zr62  1  -0.00616419  0.21512134  0.73941363  1
  Zr  Zr63  1  0.89289482  0.90141793  0.36998454  1
  Zr  Zr64  1  0.10883061  0.11579248  0.87440671  1
  Zr  Zr65  1  0.31384228  0.91644344  0.37461179  1
  Zr  Zr66  1  0.68965940  0.89376609  0.13051013  1
  Zr  Zr67  1  0.07129908  0.70118910  0.11079922  1
  Zr  Zr68  1  0.00437530  0.39909662  0.74682336  1
  Zr  Zr69  1  0.50003604  0.08380559  0.38410593  1
  Zr  Zr70  1  0.68627886  0.29868467  0.60623825  1
  Zr  Zr71  1  0.40713154  -0.00566235  0.75499900  1
  Zr  Zr72  1  0.20785953  0.79782351  0.48931456  1
  Zr  Zr73  1  0.90136568  0.90905129  0.61433678  1
  Zr  Zr74  1  0.60691788  0.78363850  0.51351361  1
  Zr  Zr75  1  0.19489125  0.60609681  0.24438015  1
  Zr  Zr76  1  0.79744063  -0.00015233  0.00433556  1
  Zr  Zr77  1  0.38707244  0.39786192  0.73568802  1
  Zr  Zr78  1  0.70015691  0.49269394  0.86801819  1
  Zr  Zr79  1  0.10119576  0.90271682  0.35613189  1
  Ta  Ta80  1  0.60557340  0.19403448  0.75337185  1
  Ta  Ta81  1  0.70327301  0.08789603  0.37696046  1
  Ta  Ta82  1  0.20515247  0.21264281  0.02712004  1
  Ta  Ta83  1  0.70293291  0.89388167  0.36234440  1
  Ta  Ta84  1  0.69899845  0.69029957  0.86201397  1
  Ta  Ta85  1  0.10533764  0.10223847  0.62832778  1
  Ta  Ta86  1  0.39497684  0.60473576  0.24994122  1
  Ta  Ta87  1  0.78273701  0.20294545  0.00297315  1
  Ta  Ta88  1  0.10563585  0.89913484  0.88558457  1
  Ta  Ta89  1  0.41019951  -0.00210541  0.23220055  1
  Ta  Ta90  1  0.20150738  0.60663696  0.48080408  1
  Ta  Ta91  1  0.78207507  0.80919788  0.51495419  1
  Ta  Ta92  1  0.30644552  0.90010878  0.88476819  1
  Ta  Ta93  1  0.50432473  0.29527750  0.14805737  1
  Ta  Ta94  1  0.89822258  0.50224816  0.61460129  1
  Ta  Ta95  1  0.40762072  0.20269582  0.02559055  1
  Ta  Ta96  1  0.08562195  0.49960345  0.37412918  1
  Ta  Ta97  1  0.89577411  0.49907649  0.87724601  1
  Ta  Ta98  1  0.80406574  0.78972352  0.23151971  1
  Ta  Ta99  1  -0.00273893  0.00125727  0.23637459  1
  Ta  Ta100  1  0.80140793  0.59415024  0.74425800  1
  Ta  Ta101  1  0.51284763  0.70702475  0.13822287  1
  Ta  Ta102  1  0.79068244  0.20567558  0.73460706  1
  Ta  Ta103  1  0.30539485  0.10378444  0.13554852  1
  Ta  Ta104  1  0.80540583  0.39473064  0.73513321  1
  Ta  Ta105  1  0.21159409  0.00332769  0.49979002  1
  Ta  Ta106  1  0.89665110  0.69409397  0.88634565  1
  Ta  Ta107  1  0.70511384  0.90109737  0.87356342  1
  Ta  Ta108  1  0.79638104  0.60597702  0.23879913  1
  Ta  Ta109  1  0.40108108  0.79567528  0.76675390  1
  Ta  Ta110  1  0.90951199  0.88317090  0.12068699  1
  Ta  Ta111  1  0.20554992  -0.00121252  0.75959871  1
  Ta  Ta112  1  0.69297322  0.10356897  0.14542405  1
  Ta  Ta113  1  0.18559211  0.38803404  0.23541422  1
  Ta  Ta114  1  0.40147000  0.19696440  0.26031193  1
  Ta  Ta115  1  0.79493410  0.79342585  0.00006462  1
  Ta  Ta116  1  0.79410269  0.60330378  0.00615600  1
  Ta  Ta117  1  0.50040489  0.29522335  0.59937037  1
  Ta  Ta118  1  0.69055941  0.51462299  0.37097871  1
  Ta  Ta119  1  0.79748907  0.19473294  0.50181498  1
  Ti  Ti120  1  -0.00422815  0.39774156  -0.01064741  1
  Ti  Ti121  1  0.80170293  -0.00499042  0.23931816  1
  Ti  Ti122  1  0.30119768  0.30694181  0.60460168  1
  Ti  Ti123  1  0.10473708  0.49994821  0.89441514  1
  Ti  Ti124  1  0.00064399  0.60274571  0.49307094  1
  Ti  Ti125  1  0.51315537  0.10815950  0.13753504  1
  Ti  Ti126  1  0.89671317  0.50863495  0.38503129  1
  Ti  Ti127  1  0.50955163  0.89559737  0.38372503  1
  Ti  Ti128  1  0.09297099  0.70104577  0.36256390  1
  Ti  Ti129  1  0.59075661  0.39771888  0.27743187  1
  Ti  Ti130  1  0.11153748  0.31201238  0.88982865  1
  Ti  Ti131  1  0.19584527  0.39979444  0.73647726  1
  Ti  Ti132  1  0.90109055  0.31177003  0.13090697  1
  Ti  Ti133  1  0.31516869  0.68496978  0.88145606  1
  Ti  Ti134  1  0.77916261  0.61091832  0.51239433  1
  Ti  Ti135  1  0.49974703  0.10738779  0.87450794  1
  Ti  Ti136  1  0.70007510  0.70297417  0.36129056  1
  Ti  Ti137  1  0.90181345  0.10837925  0.61496015  1
  Ti  Ti138  1  0.68807973  0.29702165  0.38620268  1
  Ti  Ti139  1  0.29816954  0.50514399  0.61275681  1
  Ti  Ti140  1  0.39496820  0.19785467  0.47560948  1
  Ti  Ti141  1  0.20941813  0.20865492  0.24527244  1
  Ti  Ti142  1  0.39350287  0.39026200  0.25895275  1
  Ti  Ti143  1  0.60291620  0.19943340  -0.00516125  1
  Ti  Ti144  1  0.30154691  0.69422996  0.63284549  1
  Ti  Ti145  1  0.30464963  0.89704001  0.62880494  1
  Ti  Ti146  1  0.40556363  0.60988283  0.01580929  1
  Ti  Ti147  1  0.30787614  0.89740608  0.11660857  1
  Ti  Ti148  1  0.88546489  0.30402501  0.87282191  1
  Ti  Ti149  1  0.21004821  0.00430078  0.24169113  1
  Ti  Ti150  1  0.40770350  0.20810994  0.73645185  1
  Ti  Ti151  1  -0.01635555  0.60871942  0.25536494  1
  Ti  Ti152  1  0.59722074  0.58624559  0.50237058  1
  Ti  Ti153  1  0.59493847  -0.00865132  0.25059252  1
  Ti  Ti154  1  0.68940958  0.50523080  0.63156465  1
  Ti  Ti155  1  0.49932188  0.49020124  0.62716719  1
  Ti  Ti156  1  0.49213488  0.89544386  0.62191052  1
  Ti  Ti157  1  0.41081059  0.79622286  -0.00201268  1
  Ti  Ti158  1  0.10349655  0.10608037  0.13054446  1
  Ti  Ti159  1  0.40098810  0.38981795  0.01855218  1
  Mo  Mo160  1  0.89491024  0.30344907  0.61122659  1
  Mo  Mo161  1  0.30209665  0.09596718  0.35655319  1
  Mo  Mo162  1  0.60360297  0.80332799  0.25777053  1
  Mo  Mo163  1  0.70027959  0.89570294  0.64543569  1
  Mo  Mo164  1  0.00160999  0.20346141  0.51882294  1
  Mo  Mo165  1  -0.00380109  0.41223841  0.26099711  1
  Mo  Mo166  1  0.59913648  0.19363256  0.27159967  1
  Mo  Mo167  1  0.69841453  0.69916961  0.12805788  1
  Mo  Mo168  1  0.69968283  0.68746989  0.64079745  1
  Mo  Mo169  1  0.80204569  0.00096734  0.50728763  1
  Mo  Mo170  1  -0.00393471  0.59604155  -0.02208007  1
  Mo  Mo171  1  0.50083303  0.29439238  0.37280617  1
  Mo  Mo172  1  0.10029319  0.30279116  0.60867288  1
  Mo  Mo173  1  0.30600477  0.30185715  0.14004391  1
  Mo  Mo174  1  0.40303069  -0.01008315  0.51327638  1
  Mo  Mo175  1  0.20195022  0.60079697  -0.00529060  1
  Mo  Mo176  1  0.89529008  0.69822306  0.10882294  1
  Mo  Mo177  1  0.20512410  0.40567628  0.50737250  1
  Mo  Mo178  1  0.70449421  0.10145636  0.60791142  1
  Mo  Mo179  1  0.60001579  0.59079421  0.74941013  1
  Mo  Mo180  1  -0.00542039  0.80210898  -0.02013854  1
  Mo  Mo181  1  0.39056551  0.59346599  0.74355631  1
  Mo  Mo182  1  -0.00543192  0.40924118  0.50679294  1
  Mo  Mo183  1  0.49954508  0.50105756  0.35929980  1
  Mo  Mo184  1  0.59367753  0.40900517  0.48838563  1
  Mo  Mo185  1  0.69684778  0.10689799  0.87768990  1
  Mo  Mo186  1  0.50033483  0.90034819  0.11915170  1
  Mo  Mo187  1  0.60199462  0.60049135  0.24406578  1
  Mo  Mo188  1  0.49802087  0.89845437  0.88240761  1
  Mo  Mo189  1  0.59975677  0.19601240  0.48135703  1
  Mo  Mo190  1  0.19719591  0.39543384  0.01437888  1
  Mo  Mo191  1  0.09498367  0.30768072  0.11669737  1
  Mo  Mo192  1  0.10270077  0.69227449  0.88668712  1
  Mo  Mo193  1  0.89651237  0.89745723  0.89273843  1
  Mo  Mo194  1  0.29690865  0.29656266  0.36065823  1
  Mo  Mo195  1  0.30330121  0.70006218  0.36756397  1
  Mo  Mo196  1  0.31566306  0.69725966  0.11680486  1
  Mo  Mo197  1  -0.00888975  0.79641773  0.25777330  1
  Mo  Mo198  1  0.70164675  0.29085117  0.86486329  1
  Mo  Mo199  1  0.49357703  0.69439985  0.86740375  1
