# generated using pymatgen
data_HfZrTaTiMo
_symmetry_space_group_name_H-M   'P 1'
_cell_length_a   15.93011624
_cell_length_b   15.93140824
_cell_length_c   15.20277392
_cell_angle_alpha   90.03727145
_cell_angle_beta   89.91962341
_cell_angle_gamma   90.08440697
_symmetry_Int_Tables_number   1
_chemical_formula_structural   HfZrTaTiMo
_chemical_formula_sum   'Hf40 Zr40 Ta40 Ti40 Mo40'
_cell_volume   3858.29080923
_cell_formula_units_Z   40
loop_
 _symmetry_equiv_pos_site_id
 _symmetry_equiv_pos_as_xyz
  1  'x, y, z'
loop_
 _atom_site_type_symbol
 _atom_site_label
 _atom_site_symmetry_multiplicity
 _atom_site_fract_x
 _atom_site_fract_y
 _atom_site_fract_z
 _atom_site_occupancy
  Hf  Hf0  1  0.29954974  0.90220448  0.13303112  1
  Hf  Hf1  1  0.60428395  0.59109727  -0.00586845  1
  Hf  Hf2  1  0.50403175  0.30093564  0.61748178  1
  Hf  Hf3  1  0.19183846  0.40023200  0.74416905  1
  Hf  Hf4  1  0.79419846  0.80117237  0.50456141  1
  Hf  Hf5  1  0.30415255  0.50429536  0.13345886  1
  Hf  Hf6  1  0.09816832  0.30087129  0.12158892  1
  Hf  Hf7  1  0.39656455  0.61688940  0.73842902  1
  Hf  Hf8  1  0.49823878  0.30187549  0.85495728  1
  Hf  Hf9  1  -0.00447062  0.59838737  0.25553711  1
  Hf  Hf10  1  0.57510021  0.20518805  0.01840850  1
  Hf  Hf11  1  0.50088185  0.90221279  0.12723051  1
  Hf  Hf12  1  -0.00785523  -0.00532538  0.75662076  1
  Hf  Hf13  1  0.39931078  0.20686639  0.24725679  1
  Hf  Hf14  1  0.49403573  0.10352406  0.87974956  1
  Hf  Hf15  1  0.30132134  0.11420261  0.89045205  1
  Hf  Hf16  1  -0.00594799  0.18806500  0.23794355  1
  Hf  Hf17  1  0.10132822  0.89750245  0.62876775  1
  Hf  Hf18  1  0.78543501  0.19656793  0.00156356  1
  Hf  Hf19  1  0.80982976  0.59751477  0.75152073  1
  Hf  Hf20  1  0.89200394  0.30941137  0.12504186  1
  Hf  Hf21  1  0.80122543  -0.00291280  0.75307869  1
  Hf  Hf22  1  0.49540411  0.90001283  0.37869761  1
  Hf  Hf23  1  0.71744717  0.50052119  0.14133282  1
  Hf  Hf24  1  0.69223336  0.70298500  0.63730454  1
  Hf  Hf25  1  0.00956930  0.58995134  0.75690012  1
  Hf  Hf26  1  0.70163466  0.69025960  0.12095872  1
  Hf  Hf27  1  0.51565661  0.50091441  0.14544439  1
  Hf  Hf28  1  0.31428698  0.90995228  0.89229445  1
  Hf  Hf29  1  0.70301032  0.10065103  0.63252898  1
  Hf  Hf30  1  0.19906773  0.59993202  0.25759088  1
  Hf  Hf31  1  0.80401239  -0.00102366  0.23844393  1
  Hf  Hf32  1  0.60929123  0.20495123  0.48666989  1
  Hf  Hf33  1  0.29347717  0.10022243  0.60041194  1
  Hf  Hf34  1  0.39966755  0.00428441  0.74273569  1
  Hf  Hf35  1  0.50737651  0.71178184  0.87085377  1
  Hf  Hf36  1  0.51419086  0.51935738  0.37591917  1
  Hf  Hf37  1  -0.00887603  -0.00551778  0.00765538  1
  Hf  Hf38  1  0.09131429  0.50166431  0.10881846  1
  Hf  Hf39  1  0.32096142  0.89662339  0.60048988  1
  Zr  Zr40  1  0.10175963  0.69407372  0.61929666  1
  Zr  Zr41  1  0.29307831  0.09777656  0.37615003  1
  Zr  Zr42  1  0.30505408  0.29363644  0.87258861  1
  Zr  Zr43  1  0.69073544  0.49252591  0.85310839  1
  Zr  Zr44  1  0.18112997  0.21561471  0.48802226  1
  Zr  Zr45  1  0.40492516  0.40827933  0.49701614  1
  Zr  Zr46  1  0.20323297  0.40214803  -0.00698503  1
  Zr  Zr47  1  0.68476511  0.30739044  0.14653265  1
  Zr  Zr48  1  0.60678801  0.00291778  0.49640881  1
  Zr  Zr49  1  0.09980326  0.69822475  0.11317080  1
  Zr  Zr50  1  0.58613985  -0.00852268  0.73976249  1
  Zr  Zr51  1  0.80027707  0.79134855  0.24882253  1
  Zr  Zr52  1  0.01502353  0.38124560  0.50021600  1
  Zr  Zr53  1  0.19680013  0.39755190  0.26232978  1
  Zr  Zr54  1  0.40622307  0.60021056  -0.00085908  1
  Zr  Zr55  1  0.19363845  0.00313357  0.01164062  1
  Zr  Zr56  1  0.41758960  0.38782578  0.01503874  1
  Zr  Zr57  1  0.81010324  0.80823669  0.75094735  1
  Zr  Zr58  1  0.31101466  0.49756723  0.87194343  1
  Zr  Zr59  1  0.20501333  0.00283200  0.74916084  1
  Zr  Zr60  1  0.70462285  0.30334478  0.64116871  1
  Zr  Zr61  1  0.20184742  0.59727074  0.75637906  1
  Zr  Zr62  1  0.91212277  0.48903483  0.62333057  1
  Zr  Zr63  1  0.78366526  0.58350255  0.52069014  1
  Zr  Zr64  1  0.70047148  0.89660246  0.36794164  1
  Zr  Zr65  1  0.78635565  0.39963051  -0.01497062  1
  Zr  Zr66  1  0.80293556  0.19694018  0.49552121  1
  Zr  Zr67  1  0.58318691  0.78315110  0.24503157  1
  Zr  Zr68  1  0.90082785  0.68512834  0.10827891  1
  Zr  Zr69  1  0.68637747  0.90354356  0.88172230  1
  Zr  Zr70  1  0.39451132  0.61864239  0.50359259  1
  Zr  Zr71  1  0.89407231  0.69365396  0.39284606  1
  Zr  Zr72  1  0.90789447  0.29766781  0.87894214  1
  Zr  Zr73  1  0.22224582  0.79413906  0.75670474  1
  Zr  Zr74  1  0.20826546  0.79176344  0.48922722  1
  Zr  Zr75  1  0.10097213  0.10610080  0.88090862  1
  Zr  Zr76  1  0.89652968  0.49261515  0.38263294  1
  Zr  Zr77  1  0.19509448  0.79820638  0.25828370  1
  Zr  Zr78  1  0.80067049  0.80838621  -0.00373966  1
  Zr  Zr79  1  0.90589038  0.08883130  0.38224698  1
  Ta  Ta80  1  0.09275938  0.69498477  0.38451096  1
  Ta  Ta81  1  0.19566165  0.20330897  0.73495924  1
  Ta  Ta82  1  -0.00271657  0.19084989  0.01366833  1
  Ta  Ta83  1  0.30623388  0.70468487  0.12761317  1
  Ta  Ta84  1  0.90480110  0.28894607  0.63804487  1
  Ta  Ta85  1  0.61499455  0.41746309  0.50532706  1
  Ta  Ta86  1  0.39336274  0.19793738  0.72571707  1
  Ta  Ta87  1  0.90143713  0.49930800  0.11020805  1
  Ta  Ta88  1  0.90104133  0.29650973  0.36391373  1
  Ta  Ta89  1  0.68443467  0.68343189  0.38136821  1
  Ta  Ta90  1  0.50201745  0.72779763  0.61571345  1
  Ta  Ta91  1  0.09149891  0.09851227  0.61844489  1
  Ta  Ta92  1  0.20501690  0.79906950  -0.00406449  1
  Ta  Ta93  1  0.30463788  0.50700399  0.37522809  1
  Ta  Ta94  1  0.80367258  0.19246802  0.76393368  1
  Ta  Ta95  1  0.39891310  0.40727632  0.72566175  1
  Ta  Ta96  1  0.70757606  0.30870753  0.36461216  1
  Ta  Ta97  1  0.79623347  0.19216538  0.24899247  1
  Ta  Ta98  1  -0.00226259  0.79925320  0.25620887  1
  Ta  Ta99  1  0.09978937  0.70027314  0.88295867  1
  Ta  Ta100  1  0.68824331  0.09830194  0.12934194  1
  Ta  Ta101  1  0.40336241  0.20589728  0.48994774  1
  Ta  Ta102  1  0.19257623  0.19630412  0.24920542  1
  Ta  Ta103  1  0.80243911  -0.00464364  0.50601662  1
  Ta  Ta104  1  0.09804734  0.89547914  0.13160375  1
  Ta  Ta105  1  0.00178214  0.19387825  0.75020476  1
  Ta  Ta106  1  0.50240279  0.10372619  0.36863918  1
  Ta  Ta107  1  0.89320592  0.09598741  0.88788958  1
  Ta  Ta108  1  0.41220902  0.62324745  0.25383331  1
  Ta  Ta109  1  0.50931667  0.30834104  0.36968334  1
  Ta  Ta110  1  0.09996890  0.89353082  0.87531985  1
  Ta  Ta111  1  0.29351576  0.50514015  0.61509675  1
  Ta  Ta112  1  0.69869657  0.69913795  0.86737359  1
  Ta  Ta113  1  0.91077887  0.70079128  0.61818487  1
  Ta  Ta114  1  0.30001321  0.90412244  0.36809053  1
  Ta  Ta115  1  0.90680897  0.90085074  0.37880178  1
  Ta  Ta116  1  0.39900461  0.00513716  0.24974349  1
  Ta  Ta117  1  0.70442917  0.50114889  0.36030467  1
  Ta  Ta118  1  0.29603692  0.30239071  0.61388230  1
  Ta  Ta119  1  0.90365501  0.69771829  0.88247064  1
  Ti  Ti120  1  0.59087556  0.18992242  0.74234591  1
  Ti  Ti121  1  0.80044528  0.38932579  0.50574010  1
  Ti  Ti122  1  0.09742555  0.50072474  0.38661435  1
  Ti  Ti123  1  0.20748622  0.60588331  -0.01182325  1
  Ti  Ti124  1  0.90902911  0.89994912  0.61171429  1
  Ti  Ti125  1  0.10319686  0.29281191  0.88585761  1
  Ti  Ti126  1  0.90070237  0.89062567  0.12765333  1
  Ti  Ti127  1  0.41342378  0.81568535  0.75149187  1
  Ti  Ti128  1  0.60124065  0.00340726  0.24800009  1
  Ti  Ti129  1  0.50133209  0.49345864  0.85717576  1
  Ti  Ti130  1  0.50195015  0.91006525  0.89661560  1
  Ti  Ti131  1  0.00018752  0.40131023  0.25444910  1
  Ti  Ti132  1  0.58947594  0.59646314  0.73431163  1
  Ti  Ti133  1  -0.00163617  0.79701460  0.75770984  1
  Ti  Ti134  1  0.90301552  0.09678962  0.62217707  1
  Ti  Ti135  1  -0.00003571  -0.00140197  0.23280492  1
  Ti  Ti136  1  0.60083753  0.80082999  0.01075631  1
  Ti  Ti137  1  0.40238566  0.79577467  0.00539321  1
  Ti  Ti138  1  0.29789637  0.29896253  0.12443645  1
  Ti  Ti139  1  0.41292189  0.02357863  0.02680106  1
  Ti  Ti140  1  0.80973419  0.39669951  0.75451435  1
  Ti  Ti141  1  0.00292638  0.80371639  -0.00530637  1
  Ti  Ti142  1  0.18759569  -0.00572943  0.49265857  1
  Ti  Ti143  1  0.20151626  0.59916793  0.49416788  1
  Ti  Ti144  1  -0.00029610  0.19750669  0.50087160  1
  Ti  Ti145  1  0.79187113  -0.00149145  0.01163164  1
  Ti  Ti146  1  0.68438381  0.89120319  0.62477530  1
  Ti  Ti147  1  0.59770052  0.39656198  -0.00168100  1
  Ti  Ti148  1  0.19907327  0.40299537  0.49731078  1
  Ti  Ti149  1  0.40192501  0.40489272  0.25805519  1
  Ti  Ti150  1  0.09351439  0.09192468  0.37114809  1
  Ti  Ti151  1  0.00446010  0.80493683  0.49254583  1
  Ti  Ti152  1  0.30020615  0.30486059  0.37817015  1
  Ti  Ti153  1  0.29061356  0.10515867  0.13065566  1
  Ti  Ti154  1  0.01146421  0.39506751  0.75525672  1
  Ti  Ti155  1  0.91031822  0.49814843  0.88954660  1
  Ti  Ti156  1  0.09228590  0.90870888  0.36683186  1
  Ti  Ti157  1  0.68681307  0.09829447  0.88092148  1
  Ti  Ti158  1  0.68594862  0.29370667  0.85795407  1
  Ti  Ti159  1  0.49139545  0.09559444  0.60200914  1
  Mo  Mo160  1  0.81183127  0.39834462  0.25409952  1
  Mo  Mo161  1  0.00296170  -0.00521844  0.50747521  1
  Mo  Mo162  1  0.30529756  0.70697051  0.62738943  1
  Mo  Mo163  1  0.49784076  0.70034451  0.10664956  1
  Mo  Mo164  1  0.39978391  0.80259043  0.47876993  1
  Mo  Mo165  1  0.60162749  0.79611838  0.49296048  1
  Mo  Mo166  1  0.10935068  0.49525108  0.60750549  1
  Mo  Mo167  1  0.39514641  0.20163530  0.02648713  1
  Mo  Mo168  1  0.90482309  0.89929362  0.88492526  1
  Mo  Mo169  1  0.09801474  0.09522256  0.13129511  1
  Mo  Mo170  1  0.09505194  0.29492524  0.63697755  1
  Mo  Mo171  1  0.70159310  0.10114545  0.35714862  1
  Mo  Mo172  1  0.39983810  0.00812080  0.48006075  1
  Mo  Mo173  1  0.00768680  0.59511609  0.50268358  1
  Mo  Mo174  1  0.09114994  0.29479859  0.35316202  1
  Mo  Mo175  1  0.19188586  0.00250326  0.24957960  1
  Mo  Mo176  1  0.60400283  0.60530769  0.24371873  1
  Mo  Mo177  1  0.59199364  0.40085531  0.73343481  1
  Mo  Mo178  1  0.30487032  0.70979907  0.88778185  1
  Mo  Mo179  1  0.89001985  0.09903793  0.11244014  1
  Mo  Mo180  1  -0.00141927  0.39524006  -0.00775497  1
  Mo  Mo181  1  0.59296137  0.80218934  0.75551492  1
  Mo  Mo182  1  0.59781023  0.59847771  0.52153739  1
  Mo  Mo183  1  0.60239615  0.40385539  0.26898853  1
  Mo  Mo184  1  0.49540188  0.30803008  0.15212619  1
  Mo  Mo185  1  0.70079175  0.49426778  0.64206760  1
  Mo  Mo186  1  0.30110831  0.69930424  0.35863019  1
  Mo  Mo187  1  0.50363479  0.70479870  0.39266852  1
  Mo  Mo188  1  0.79982791  0.59822649  -0.02488022  1
  Mo  Mo189  1  0.19756490  0.20223226  0.02311266  1
  Mo  Mo190  1  0.60153676  0.19816254  0.26158859  1
  Mo  Mo191  1  0.80398631  0.59873370  0.25737968  1
  Mo  Mo192  1  0.39579884  0.80037269  0.25557852  1
  Mo  Mo193  1  0.50131551  0.50814061  0.62194319  1
  Mo  Mo194  1  0.09737634  0.49528996  0.88864857  1
  Mo  Mo195  1  0.49883208  0.10249551  0.14853588  1
  Mo  Mo196  1  0.00337457  0.59715948  -0.01647703  1
  Mo  Mo197  1  0.50178533  0.90187416  0.60545391  1
  Mo  Mo198  1  0.69474459  0.90320220  0.12292802  1
  Mo  Mo199  1  0.60059442  0.00576724  0.01586606  1
