# generated using pymatgen
data_HfZrTaTiMo
_symmetry_space_group_name_H-M   'P 1'
_cell_length_a   15.92700263
_cell_length_b   15.93222617
_cell_length_c   15.20350831
_cell_angle_alpha   89.94796121
_cell_angle_beta   90.02009946
_cell_angle_gamma   89.91398049
_symmetry_Int_Tables_number   1
_chemical_formula_structural   HfZrTaTiMo
_chemical_formula_sum   'Hf40 Zr40 Ta40 Ti40 Mo40'
_cell_volume   3857.92370924
_cell_formula_units_Z   40
loop_
 _symmetry_equiv_pos_site_id
 _symmetry_equiv_pos_as_xyz
  1  'x, y, z'
loop_
 _atom_site_type_symbol
 _atom_site_label
 _atom_site_symmetry_multiplicity
 _atom_site_fract_x
 _atom_site_fract_y
 _atom_site_fract_z
 _atom_site_occupancy
  Hf  Hf0  1  -0.00540383  0.20893938  0.24693712  1
  Hf  Hf1  1  0.20068209  0.60897563  -0.00271728  1
  Hf  Hf2  1  0.19915326  0.80635377  -0.01227397  1
  Hf  Hf3  1  0.91299453  0.89916518  0.12821669  1
  Hf  Hf4  1  0.39680636  0.40236612  0.27341552  1
  Hf  Hf5  1  0.70777434  0.50119275  0.38133869  1
  Hf  Hf6  1  0.90679747  0.69581223  0.85532671  1
  Hf  Hf7  1  0.39564083  0.60137540  0.50057805  1
  Hf  Hf8  1  0.00368249  0.00552304  0.25629657  1
  Hf  Hf9  1  0.09610279  0.49411275  0.10092483  1
  Hf  Hf10  1  0.40765668  0.20802952  0.50211500  1
  Hf  Hf11  1  0.30135271  0.89249318  0.38419743  1
  Hf  Hf12  1  0.80088310  0.20617955  0.74802965  1
  Hf  Hf13  1  0.19407962  -0.00163850  0.51017074  1
  Hf  Hf14  1  0.89026519  0.10361025  0.11579973  1
  Hf  Hf15  1  0.69259441  0.10610010  0.12959586  1
  Hf  Hf16  1  0.41396425  0.00361508  0.72904558  1
  Hf  Hf17  1  0.71087767  0.29359460  0.37274845  1
  Hf  Hf18  1  0.49760491  0.50655152  0.88247799  1
  Hf  Hf19  1  0.09025408  0.50768744  0.87153975  1
  Hf  Hf20  1  0.09485712  0.11812485  0.40192493  1
  Hf  Hf21  1  0.30574922  0.49836515  0.86470917  1
  Hf  Hf22  1  0.69648358  0.89809960  0.88493371  1
  Hf  Hf23  1  0.29974938  0.89388461  0.62561495  1
  Hf  Hf24  1  0.00477717  0.59749660  0.24071945  1
  Hf  Hf25  1  0.49659866  0.28163668  0.15238026  1
  Hf  Hf26  1  0.31337431  0.90143195  0.86676979  1
  Hf  Hf27  1  -0.01735973  0.00239623  0.51135682  1
  Hf  Hf28  1  0.79491633  0.79833530  0.23788112  1
  Hf  Hf29  1  0.29742104  0.29682686  0.13606266  1
  Hf  Hf30  1  0.69217959  0.09352517  0.88608949  1
  Hf  Hf31  1  0.59873329  0.19221522  0.73366550  1
  Hf  Hf32  1  0.91191570  0.49785996  0.63376639  1
  Hf  Hf33  1  -0.00741979  -0.00790974  -0.02241013  1
  Hf  Hf34  1  0.82181627  0.61454140  0.50642171  1
  Hf  Hf35  1  0.59512839  0.39109250  0.00521655  1
  Hf  Hf36  1  0.90701250  0.30094182  0.39162412  1
  Hf  Hf37  1  0.70656198  0.69372913  0.88484179  1
  Hf  Hf38  1  0.30452407  0.10308350  0.13300372  1
  Hf  Hf39  1  0.62256167  0.58744143  0.02054837  1
  Zr  Zr40  1  0.18978699  0.19837653  0.25494521  1
  Zr  Zr41  1  0.29514002  0.90048592  0.12579388  1
  Zr  Zr42  1  0.09323795  0.29846954  0.10340461  1
  Zr  Zr43  1  0.90201943  0.49498800  0.11247973  1
  Zr  Zr44  1  0.59674025  0.40664758  0.25710852  1
  Zr  Zr45  1  0.20378763  0.59684119  0.24023925  1
  Zr  Zr46  1  0.70603054  0.49820707  0.60032278  1
  Zr  Zr47  1  0.59886147  0.61128514  0.74798161  1
  Zr  Zr48  1  0.31509108  0.69569643  0.87434975  1
  Zr  Zr49  1  0.79469151  -0.00030641  0.74812659  1
  Zr  Zr50  1  0.18599192  0.40556390  0.25786501  1
  Zr  Zr51  1  0.70591605  0.71064496  0.38454305  1
  Zr  Zr52  1  0.60102868  0.61074951  0.25009997  1
  Zr  Zr53  1  0.78306846  0.41239805  -0.00844981  1
  Zr  Zr54  1  0.70675780  0.29086434  0.13652965  1
  Zr  Zr55  1  0.79028185  -0.00449191  0.25748994  1
  Zr  Zr56  1  0.28586375  0.29466166  0.39209077  1
  Zr  Zr57  1  0.80779417  0.18638483  0.51404322  1
  Zr  Zr58  1  0.10215776  0.69429610  0.37319885  1
  Zr  Zr59  1  0.09437160  0.30301655  0.62691641  1
  Zr  Zr60  1  0.19683703  -0.00064934  0.26190084  1
  Zr  Zr61  1  0.19307929  0.78478158  0.51613563  1
  Zr  Zr62  1  0.49829460  0.09653116  0.86958948  1
  Zr  Zr63  1  0.60831220  0.40736645  0.75660170  1
  Zr  Zr64  1  0.51022239  0.50387709  0.60981940  1
  Zr  Zr65  1  0.50630700  0.70532938  0.89508387  1
  Zr  Zr66  1  0.19977389  0.38765266  -0.02201888  1
  Zr  Zr67  1  0.10010725  0.09622519  0.10289104  1
  Zr  Zr68  1  0.20478340  0.00255478  0.74534149  1
  Zr  Zr69  1  0.41931412  0.79248132  0.73326916  1
  Zr  Zr70  1  0.40174249  0.59686666  0.26195249  1
  Zr  Zr71  1  0.59621325  0.82427046  0.25121897  1
  Zr  Zr72  1  0.08406297  0.68803286  0.65061332  1
  Zr  Zr73  1  0.70461319  0.31216669  0.60967463  1
  Zr  Zr74  1  0.39828523  0.19560596  -0.00505242  1
  Zr  Zr75  1  0.09035923  0.88964085  0.38309578  1
  Zr  Zr76  1  0.90498615  0.50256617  0.37296980  1
  Zr  Zr77  1  0.81602854  0.79469329  0.00481202  1
  Zr  Zr78  1  0.41357587  -0.01473579  0.25808876  1
  Zr  Zr79  1  0.39923325  0.39050565  0.00031226  1
  Ta  Ta80  1  0.09550866  0.71595273  0.12541818  1
  Ta  Ta81  1  0.30310662  0.09896165  0.38958484  1
  Ta  Ta82  1  0.41014839  -0.00094892  0.50381382  1
  Ta  Ta83  1  0.60369254  0.80586798  0.73458478  1
  Ta  Ta84  1  0.19924552  0.20173523  0.74534893  1
  Ta  Ta85  1  0.40672002  0.79791582  0.50407179  1
  Ta  Ta86  1  0.49669146  0.70071871  0.12121348  1
  Ta  Ta87  1  -0.00495239  0.20309035  -0.02801236  1
  Ta  Ta88  1  0.90096045  0.29916644  0.10503679  1
  Ta  Ta89  1  0.79878451  0.60357851  0.22973566  1
  Ta  Ta90  1  0.69276895  0.70163336  0.60762248  1
  Ta  Ta91  1  0.89582041  0.89344262  0.37565459  1
  Ta  Ta92  1  0.89394173  0.10427617  0.37099307  1
  Ta  Ta93  1  0.40395602  0.79349873  0.25485102  1
  Ta  Ta94  1  0.69206232  0.29453005  0.87435778  1
  Ta  Ta95  1  0.39393165  0.40506563  0.50356253  1
  Ta  Ta96  1  -0.00853277  0.38970202  0.77138907  1
  Ta  Ta97  1  0.69956616  0.89775314  0.60811266  1
  Ta  Ta98  1  0.59930403  0.19728679  0.49437138  1
  Ta  Ta99  1  0.90814063  0.70924171  0.35892598  1
  Ta  Ta100  1  0.79167138  0.79470949  0.73968524  1
  Ta  Ta101  1  0.30482086  0.70231221  0.12356524  1
  Ta  Ta102  1  0.49588421  0.29780766  0.85640974  1
  Ta  Ta103  1  0.40063833  0.40226633  0.73304346  1
  Ta  Ta104  1  0.59763554  -0.00874816  0.73009924  1
  Ta  Ta105  1  0.50605652  0.09548521  0.37493698  1
  Ta  Ta106  1  -0.01529801  0.79031835  0.51587480  1
  Ta  Ta107  1  0.09803543  0.10000039  0.86102259  1
  Ta  Ta108  1  0.49303138  0.49989368  0.12314972  1
  Ta  Ta109  1  0.00851437  0.79914602  -0.01994938  1
  Ta  Ta110  1  0.29785760  0.70100486  0.37857612  1
  Ta  Ta111  1  0.89819216  0.89722618  0.63749234  1
  Ta  Ta112  1  0.08890015  0.10367914  0.63337719  1
  Ta  Ta113  1  0.70378951  0.91291592  0.10747021  1
  Ta  Ta114  1  0.79447661  0.59631712  0.73962738  1
  Ta  Ta115  1  0.29858319  0.10929067  0.61421955  1
  Ta  Ta116  1  0.09546307  0.89900302  0.85331173  1
  Ta  Ta117  1  0.08778959  0.89705607  0.63996536  1
  Ta  Ta118  1  0.40181200  -0.00098042  0.00572461  1
  Ta  Ta119  1  0.30457509  0.29583758  0.84843468  1
  Ti  Ti120  1  0.20149356  0.19537652  -0.02437075  1
  Ti  Ti121  1  0.01139556  0.41633469  0.50071156  1
  Ti  Ti122  1  0.00807463  0.60266222  0.50077295  1
  Ti  Ti123  1  0.80777906  0.80567129  0.50578869  1
  Ti  Ti124  1  0.50323392  0.70593331  0.38602416  1
  Ti  Ti125  1  0.79775774  0.20193080  -0.01445771  1
  Ti  Ti126  1  0.40531606  0.80736333  0.01129477  1
  Ti  Ti127  1  0.19368854  0.58654975  0.51375690  1
  Ti  Ti128  1  0.30574537  0.10197789  0.86204566  1
  Ti  Ti129  1  0.00392374  0.39772648  0.25416363  1
  Ti  Ti130  1  0.30391051  0.49911193  0.11622477  1
  Ti  Ti131  1  0.81123364  0.39661172  0.24354226  1
  Ti  Ti132  1  0.60260931  0.80094007  0.01952914  1
  Ti  Ti133  1  -0.00721337  0.61680091  0.00081975  1
  Ti  Ti134  1  0.58466706  0.39295582  0.47638160  1
  Ti  Ti135  1  0.09884232  0.30539062  0.40268486  1
  Ti  Ti136  1  0.20175726  0.79824591  0.24824994  1
  Ti  Ti137  1  -0.01056195  0.20082121  0.75587657  1
  Ti  Ti138  1  0.58569061  0.00143448  0.01556412  1
  Ti  Ti139  1  0.10130263  0.90130157  0.12099951  1
  Ti  Ti140  1  0.69635816  0.09609871  0.37128339  1
  Ti  Ti141  1  0.20369277  0.00265574  -0.01887224  1
  Ti  Ti142  1  0.89060098  0.50777385  0.88058659  1
  Ti  Ti143  1  0.20342763  0.59826683  0.75403280  1
  Ti  Ti144  1  0.80101774  0.40142923  0.76267730  1
  Ti  Ti145  1  0.10664245  0.49149313  0.64729519  1
  Ti  Ti146  1  0.19866960  0.79110557  0.75635616  1
  Ti  Ti147  1  0.40530491  0.59798199  0.73083684  1
  Ti  Ti148  1  0.50229596  0.09748864  0.14919754  1
  Ti  Ti149  1  0.50735921  0.90044983  0.88219538  1
  Ti  Ti150  1  0.50471014  0.30596225  0.62336279  1
  Ti  Ti151  1  0.29849023  0.69189312  0.62847993  1
  Ti  Ti152  1  0.28344716  0.50150724  0.39086652  1
  Ti  Ti153  1  0.40100850  0.20136908  0.72906161  1
  Ti  Ti154  1  0.90414323  0.30667432  0.61760442  1
  Ti  Ti155  1  0.58847893  0.20179607  -0.00061377  1
  Ti  Ti156  1  0.89286174  0.09535481  0.87028296  1
  Ti  Ti157  1  0.79798200  -0.00331733  0.49692348  1
  Ti  Ti158  1  0.69622586  0.09144273  0.61549893  1
  Ti  Ti159  1  0.29037209  0.31178287  0.62566958  1
  Mo  Mo160  1  0.10110814  0.49651502  0.38416466  1
  Mo  Mo161  1  0.88968357  0.29854794  0.88122333  1
  Mo  Mo162  1  0.59923934  0.60454828  0.48231618  1
  Mo  Mo163  1  0.60180980  -0.00040613  0.24622916  1
  Mo  Mo164  1  0.80714634  0.19973539  0.25535611  1
  Mo  Mo165  1  0.50422850  0.10424579  0.60830482  1
  Mo  Mo166  1  0.19924807  0.20213441  0.52274028  1
  Mo  Mo167  1  0.50519348  0.89919795  0.39368597  1
  Mo  Mo168  1  0.89718532  0.89637926  0.85838690  1
  Mo  Mo169  1  0.70228477  0.70624848  0.11910290  1
  Mo  Mo170  1  0.80709301  0.60404081  0.01494859  1
  Mo  Mo171  1  0.50633263  0.70108374  0.60880027  1
  Mo  Mo172  1  0.29653196  0.50256735  0.63285442  1
  Mo  Mo173  1  0.70413447  0.50262179  0.86708083  1
  Mo  Mo174  1  0.60564430  0.00408073  0.50186242  1
  Mo  Mo175  1  0.81403079  0.40437075  0.49820598  1
  Mo  Mo176  1  -0.00986369  0.39363119  -0.02413321  1
  Mo  Mo177  1  -0.00596669  0.80238773  0.75306476  1
  Mo  Mo178  1  0.09847785  0.29304499  0.86078568  1
  Mo  Mo179  1  -0.00337578  0.19971479  0.51624851  1
  Mo  Mo180  1  0.49857283  0.29499810  0.37371979  1
  Mo  Mo181  1  -0.00576783  0.58873670  0.75672716  1
  Mo  Mo182  1  0.89362113  0.70018694  0.63794112  1
  Mo  Mo183  1  0.50778591  0.90035927  0.60801166  1
  Mo  Mo184  1  0.00289306  0.80415058  0.24821457  1
  Mo  Mo185  1  0.19978870  0.39988137  0.75204831  1
  Mo  Mo186  1  0.79875579  0.00167139  -0.00689784  1
  Mo  Mo187  1  0.70226349  0.90601258  0.39472204  1
  Mo  Mo188  1  -0.00559239  0.00447579  0.75298624  1
  Mo  Mo189  1  0.49676203  0.50232841  0.39075075  1
  Mo  Mo190  1  0.40247298  0.59976901  0.01655391  1
  Mo  Mo191  1  0.60144367  0.19301651  0.27299926  1
  Mo  Mo192  1  0.10252047  0.70142019  0.86766784  1
  Mo  Mo193  1  0.19841930  0.40911164  0.51302790  1
  Mo  Mo194  1  0.70012234  0.49603019  0.14944386  1
  Mo  Mo195  1  0.91145053  0.70254383  0.13157327  1
  Mo  Mo196  1  0.90014884  0.09782663  0.64058806  1
  Mo  Mo197  1  0.59983836  0.80503465  0.49930363  1
  Mo  Mo198  1  0.39882542  0.19300854  0.27608999  1
  Mo  Mo199  1  0.50038581  0.89968888  0.11403712  1
