# generated using pymatgen
data_HfZrTaTiMo
_symmetry_space_group_name_H-M   'P 1'
_cell_length_a   15.92835241
_cell_length_b   15.93286186
_cell_length_c   15.21059113
_cell_angle_alpha   90.03184347
_cell_angle_beta   89.91805690
_cell_angle_gamma   89.92836846
_symmetry_Int_Tables_number   1
_chemical_formula_structural   HfZrTaTiMo
_chemical_formula_sum   'Hf40 Zr40 Ta40 Ti40 Mo40'
_cell_volume   3860.20072496
_cell_formula_units_Z   40
loop_
 _symmetry_equiv_pos_site_id
 _symmetry_equiv_pos_as_xyz
  1  'x, y, z'
loop_
 _atom_site_type_symbol
 _atom_site_label
 _atom_site_symmetry_multiplicity
 _atom_site_fract_x
 _atom_site_fract_y
 _atom_site_fract_z
 _atom_site_occupancy
  Hf  Hf0  1  0.29838258  0.50385109  0.62742943  1
  Hf  Hf1  1  0.60022276  0.80198298  0.00459165  1
  Hf  Hf2  1  0.09632188  0.91372161  0.61847389  1
  Hf  Hf3  1  0.70633627  0.49093627  0.10935036  1
  Hf  Hf4  1  0.69558234  0.90192607  0.85541503  1
  Hf  Hf5  1  0.39275755  0.20793862  0.00458862  1
  Hf  Hf6  1  -0.01022455  0.19381210  0.26803281  1
  Hf  Hf7  1  0.11053753  0.48446541  0.13682384  1
  Hf  Hf8  1  0.50816906  0.49575118  0.88242678  1
  Hf  Hf9  1  0.28426054  0.31413409  0.13553027  1
  Hf  Hf10  1  -0.00040617  0.79469707  0.25748993  1
  Hf  Hf11  1  0.51087613  0.10618302  0.13036405  1
  Hf  Hf12  1  0.30459770  0.29187270  0.37271560  1
  Hf  Hf13  1  0.09692549  0.10132011  0.12612806  1
  Hf  Hf14  1  0.70570946  0.09811899  0.85176608  1
  Hf  Hf15  1  0.11671400  0.08585428  0.38247046  1
  Hf  Hf16  1  0.30103168  0.69989811  0.37579239  1
  Hf  Hf17  1  0.79536840  0.57437705  0.26174496  1
  Hf  Hf18  1  0.89229476  0.49019446  0.61634225  1
  Hf  Hf19  1  0.89931346  0.09398579  0.63280785  1
  Hf  Hf20  1  0.87933320  0.09135847  0.13293868  1
  Hf  Hf21  1  -0.00319407  0.39972322  0.76183790  1
  Hf  Hf22  1  0.19741845  0.19889335  0.73734987  1
  Hf  Hf23  1  0.10661607  0.09965088  0.87764221  1
  Hf  Hf24  1  0.40249919  0.00199886  -0.00014644  1
  Hf  Hf25  1  0.79491524  0.79839042  0.26109929  1
  Hf  Hf26  1  0.60705187  0.19853627  0.00184945  1
  Hf  Hf27  1  0.89720692  0.69283837  0.38191293  1
  Hf  Hf28  1  0.49806242  0.90256192  0.13616161  1
  Hf  Hf29  1  0.58863275  0.78541344  0.24945429  1
  Hf  Hf30  1  -0.00075212  0.59320855  0.25520992  1
  Hf  Hf31  1  0.10669367  0.69876230  0.87391567  1
  Hf  Hf32  1  -0.00584116  0.79354801  0.51082121  1
  Hf  Hf33  1  0.00807894  0.79041978  0.74018316  1
  Hf  Hf34  1  0.69128032  0.29947047  0.37744750  1
  Hf  Hf35  1  0.49497132  0.12061491  0.37685632  1
  Hf  Hf36  1  0.80729864  0.39081412  -0.01885668  1
  Hf  Hf37  1  0.89123540  0.29826693  0.13734696  1
  Hf  Hf38  1  0.49633341  0.90389249  0.62389976  1
  Hf  Hf39  1  0.79036516  0.40535674  0.76301961  1
  Zr  Zr40  1  0.41155214  0.61270222  0.75012724  1
  Zr  Zr41  1  0.40415404  0.80580740  0.49485534  1
  Zr  Zr42  1  0.50777086  0.30691248  0.35718241  1
  Zr  Zr43  1  -0.00812685  0.20468647  -0.01023548  1
  Zr  Zr44  1  0.79514084  0.59683623  0.50324799  1
  Zr  Zr45  1  0.39732944  0.41924078  0.24551648  1
  Zr  Zr46  1  -0.00837109  0.79356067  -0.00910179  1
  Zr  Zr47  1  0.00772741  0.39381546  -0.00927136  1
  Zr  Zr48  1  0.50387764  0.10013147  0.87073356  1
  Zr  Zr49  1  0.80064971  0.79447780  -0.01213429  1
  Zr  Zr50  1  0.89394314  0.29187600  0.63297205  1
  Zr  Zr51  1  0.29460079  0.50171580  0.85583899  1
  Zr  Zr52  1  0.61837890  0.59390606  0.74961409  1
  Zr  Zr53  1  0.40163613  0.19791804  0.74679350  1
  Zr  Zr54  1  0.39445951  0.80654587  -0.00382329  1
  Zr  Zr55  1  0.49512353  0.48995429  0.63627883  1
  Zr  Zr56  1  -0.00118571  0.38274510  0.48697518  1
  Zr  Zr57  1  0.41387090  0.39930909  0.49103990  1
  Zr  Zr58  1  -0.01103768  0.00203981  -0.01385286  1
  Zr  Zr59  1  0.38584327  0.01856979  0.25185875  1
  Zr  Zr60  1  0.11252030  0.89738995  0.87014655  1
  Zr  Zr61  1  -0.00807661  -0.00382736  0.26705784  1
  Zr  Zr62  1  0.61618353  0.01155038  0.26125266  1
  Zr  Zr63  1  0.08830853  0.51322167  0.61674664  1
  Zr  Zr64  1  0.68086292  0.68552714  0.37502663  1
  Zr  Zr65  1  0.39758657  0.60820113  0.00319690  1
  Zr  Zr66  1  -0.00354276  0.59353658  -0.00778002  1
  Zr  Zr67  1  0.59625955  0.00494137  0.50078728  1
  Zr  Zr68  1  0.70218698  0.90169448  0.62437280  1
  Zr  Zr69  1  0.80434346  0.78242838  0.73839635  1
  Zr  Zr70  1  0.28637686  0.91485699  0.37374396  1
  Zr  Zr71  1  0.09810984  0.89875933  0.12403212  1
  Zr  Zr72  1  0.39656913  0.81236590  0.75003398  1
  Zr  Zr73  1  0.20598181  0.59614859  0.00910205  1
  Zr  Zr74  1  0.00037527  0.19017713  0.49337841  1
  Zr  Zr75  1  0.20057409  0.39633372  0.50269805  1
  Zr  Zr76  1  0.11050823  0.69200137  0.38862292  1
  Zr  Zr77  1  -0.01269148  0.40046344  0.26708124  1
  Zr  Zr78  1  0.89434623  0.89598261  0.12787172  1
  Zr  Zr79  1  0.70849309  0.91038198  0.13045348  1
  Ta  Ta80  1  0.49954180  0.30662229  0.87567353  1
  Ta  Ta81  1  0.40589954  0.60607676  0.50359734  1
  Ta  Ta82  1  0.89649982  0.49617612  0.11746667  1
  Ta  Ta83  1  0.10149441  0.29545608  0.14360678  1
  Ta  Ta84  1  0.68967439  0.29858360  0.87367110  1
  Ta  Ta85  1  0.59264366  0.78982093  0.74305054  1
  Ta  Ta86  1  0.31087020  0.30542348  0.62702458  1
  Ta  Ta87  1  0.50552480  0.70534097  0.88088893  1
  Ta  Ta88  1  0.20913232  0.00296205  0.73633121  1
  Ta  Ta89  1  0.19261612  0.20624346  0.51937436  1
  Ta  Ta90  1  0.78497474  0.18637486  0.26254523  1
  Ta  Ta91  1  0.58469440  0.21281816  0.52438759  1
  Ta  Ta92  1  0.30118117  0.51305044  0.37854886  1
  Ta  Ta93  1  0.10961680  0.50080222  0.37940245  1
  Ta  Ta94  1  0.29973868  0.70429981  0.62573216  1
  Ta  Ta95  1  0.89373014  0.90622529  0.84902503  1
  Ta  Ta96  1  0.59292613  0.59413301  0.51830818  1
  Ta  Ta97  1  0.10101727  0.89683185  0.38935379  1
  Ta  Ta98  1  0.20847874  0.00212516  0.01149941  1
  Ta  Ta99  1  0.30424782  0.09911980  0.61130776  1
  Ta  Ta100  1  0.60221520  0.20813007  0.73376085  1
  Ta  Ta101  1  0.50623137  0.50554597  0.11816844  1
  Ta  Ta102  1  0.11766427  0.29021897  0.35610165  1
  Ta  Ta103  1  0.19822569  0.79849370  0.24673486  1
  Ta  Ta104  1  0.39348275  0.40570385  0.00413871  1
  Ta  Ta105  1  0.29043515  0.71133857  0.86081778  1
  Ta  Ta106  1  0.80268836  0.00429185  0.49789906  1
  Ta  Ta107  1  0.89245463  0.68672606  0.13231694  1
  Ta  Ta108  1  0.80281648  0.19458273  -0.01830052  1
  Ta  Ta109  1  0.60864142  0.00080474  0.00018087  1
  Ta  Ta110  1  0.70295534  0.29374624  0.12990701  1
  Ta  Ta111  1  0.60213183  0.39621071  0.74550776  1
  Ta  Ta112  1  0.70389394  0.68958271  0.12798751  1
  Ta  Ta113  1  0.29741839  0.90360080  0.13744590  1
  Ta  Ta114  1  0.20323452  0.80391322  0.51635831  1
  Ta  Ta115  1  0.60694389  0.60405950  0.00001700  1
  Ta  Ta116  1  0.50841821  0.31284861  0.12183718  1
  Ta  Ta117  1  0.51350253  0.51843639  0.36879980  1
  Ta  Ta118  1  0.29417547  0.09991052  0.88091619  1
  Ta  Ta119  1  0.10021630  0.69643001  0.12833616  1
  Ti  Ti120  1  0.39928383  0.20693201  0.23101321  1
  Ti  Ti121  1  0.19441645  0.39348667  0.73742448  1
  Ti  Ti122  1  0.59421712  0.79037453  0.50186456  1
  Ti  Ti123  1  0.21138750  0.59539262  0.24147041  1
  Ti  Ti124  1  0.21525952  0.17715644  0.24208729  1
  Ti  Ti125  1  0.00435319  0.00613949  0.75494992  1
  Ti  Ti126  1  0.70616459  0.11083514  0.62342200  1
  Ti  Ti127  1  0.10586843  0.50307016  0.86387363  1
  Ti  Ti128  1  0.69340234  0.10917127  0.39394119  1
  Ti  Ti129  1  0.70407292  0.31145857  0.61370856  1
  Ti  Ti130  1  0.50682470  0.90474947  0.86653464  1
  Ti  Ti131  1  0.29292803  0.90590792  0.87148135  1
  Ti  Ti132  1  0.69469523  0.48549235  0.39340478  1
  Ti  Ti133  1  0.00277117  0.19989506  0.75420471  1
  Ti  Ti134  1  0.80490856  0.59901087  -0.01739166  1
  Ti  Ti135  1  0.50118651  0.90375017  0.37117540  1
  Ti  Ti136  1  0.81114106  0.59071325  0.76384648  1
  Ti  Ti137  1  0.61107230  0.41292996  0.24242683  1
  Ti  Ti138  1  0.19816816  0.20703509  0.00438850  1
  Ti  Ti139  1  0.80367856  0.20412142  0.49103192  1
  Ti  Ti140  1  0.29915160  0.30400089  0.86962557  1
  Ti  Ti141  1  0.69952919  0.69804702  0.87234736  1
  Ti  Ti142  1  0.91919829  0.67319206  0.62795447  1
  Ti  Ti143  1  0.79737316  0.79705535  0.50636566  1
  Ti  Ti144  1  0.59306213  0.00969236  0.73151431  1
  Ti  Ti145  1  0.39534351  0.00528142  0.74809650  1
  Ti  Ti146  1  0.30434746  0.70583125  0.13655666  1
  Ti  Ti147  1  0.20629465  0.79869470  0.01283779  1
  Ti  Ti148  1  0.69901711  0.89674947  0.38613316  1
  Ti  Ti149  1  0.41684984  0.61437846  0.24300007  1
  Ti  Ti150  1  0.89904053  0.90526033  0.62701493  1
  Ti  Ti151  1  0.18824349  0.61609978  0.73341892  1
  Ti  Ti152  1  0.29876430  0.10958771  0.39750203  1
  Ti  Ti153  1  0.20296799  0.39971751  -0.00625689  1
  Ti  Ti154  1  0.40054625  0.79909859  0.25739399  1
  Ti  Ti155  1  0.79891298  0.00373532  -0.01797280  1
  Ti  Ti156  1  0.69793561  0.69475734  0.62210087  1
  Ti  Ti157  1  0.89681708  0.90082244  0.39037144  1
  Ti  Ti158  1  0.40117465  0.00570711  0.49972487  1
  Ti  Ti159  1  0.10935452  0.29888906  0.86973341  1
  Mo  Mo160  1  0.60310281  0.40214963  0.51355386  1
  Mo  Mo161  1  0.50504087  0.70337947  0.61644929  1
  Mo  Mo162  1  0.00095533  0.59149917  0.48562201  1
  Mo  Mo163  1  0.71031366  0.10194749  0.11404375  1
  Mo  Mo164  1  -0.00509303  -0.00612445  0.49401265  1
  Mo  Mo165  1  0.90149274  0.49987853  0.88043896  1
  Mo  Mo166  1  0.59793225  0.59385460  0.23124172  1
  Mo  Mo167  1  0.20373749  0.80396814  0.73405964  1
  Mo  Mo168  1  0.29790612  0.10781891  0.10908628  1
  Mo  Mo169  1  0.89833767  0.49277641  0.39286268  1
  Mo  Mo170  1  0.69990952  0.50102716  0.89110383  1
  Mo  Mo171  1  0.79889688  -0.00172865  0.73080299  1
  Mo  Mo172  1  0.89544346  0.28906165  0.85871521  1
  Mo  Mo173  1  0.20068262  0.00523155  0.51599243  1
  Mo  Mo174  1  0.09744065  0.10134939  0.62834828  1
  Mo  Mo175  1  0.79399608  0.39401284  0.26181250  1
  Mo  Mo176  1  0.20029308  0.40585383  0.26919552  1
  Mo  Mo177  1  0.50191989  0.70071317  0.11159031  1
  Mo  Mo178  1  0.10248919  0.69983490  0.61601904  1
  Mo  Mo179  1  0.89850775  0.09668501  0.85307548  1
  Mo  Mo180  1  0.20908960  0.60231718  0.51030982  1
  Mo  Mo181  1  0.79426271  0.20477552  0.75277870  1
  Mo  Mo182  1  0.60295218  0.20600888  0.23571616  1
  Mo  Mo183  1  0.19618287  -0.00252358  0.23598788  1
  Mo  Mo184  1  0.79300971  -0.00032922  0.28273402  1
  Mo  Mo185  1  0.79977630  0.39157128  0.48634398  1
  Mo  Mo186  1  0.30057180  0.90883604  0.62016856  1
  Mo  Mo187  1  -0.00371920  0.59713372  0.76296821  1
  Mo  Mo188  1  0.88757461  0.09340323  0.38237620  1
  Mo  Mo189  1  0.49794089  0.30291594  0.64084435  1
  Mo  Mo190  1  0.39578632  0.39647993  0.76750165  1
  Mo  Mo191  1  0.59982288  0.39612855  0.00361945  1
  Mo  Mo192  1  0.88594510  0.29259971  0.36720872  1
  Mo  Mo193  1  0.30458078  0.50659228  0.13541608  1
  Mo  Mo194  1  0.49809558  0.10093782  0.62559851  1
  Mo  Mo195  1  0.10100314  0.30042140  0.63740558  1
  Mo  Mo196  1  0.70116089  0.49174275  0.61517485  1
  Mo  Mo197  1  0.39828426  0.20358543  0.51251989  1
  Mo  Mo198  1  0.49678343  0.69583149  0.38497801  1
  Mo  Mo199  1  0.90002894  0.69747450  0.85921123  1
