# generated using pymatgen
data_HfZrTaTiMo
_symmetry_space_group_name_H-M   'P 1'
_cell_length_a   15.91704793
_cell_length_b   15.93419755
_cell_length_c   15.18090423
_cell_angle_alpha   90.03401819
_cell_angle_beta   90.02073708
_cell_angle_gamma   90.02858651
_symmetry_Int_Tables_number   1
_chemical_formula_structural   HfZrTaTiMo
_chemical_formula_sum   'Hf40 Zr40 Ta40 Ti40 Mo40'
_cell_volume   3850.26128585
_cell_formula_units_Z   40
loop_
 _symmetry_equiv_pos_site_id
 _symmetry_equiv_pos_as_xyz
  1  'x, y, z'
loop_
 _atom_site_type_symbol
 _atom_site_label
 _atom_site_symmetry_multiplicity
 _atom_site_fract_x
 _atom_site_fract_y
 _atom_site_fract_z
 _atom_site_occupancy
  Hf  Hf0  1  0.28902178  0.10006522  0.62548412  1
  Hf  Hf1  1  0.48841733  0.07953810  0.60968702  1
  Hf  Hf2  1  -0.00731435  0.80458594  -0.02417512  1
  Hf  Hf3  1  -0.00189857  0.60802120  0.25129613  1
  Hf  Hf4  1  0.89630527  0.89156562  0.62275094  1
  Hf  Hf5  1  -0.00221587  0.80232026  0.26783527  1
  Hf  Hf6  1  0.50434322  0.30033042  0.60621833  1
  Hf  Hf7  1  0.70099091  0.69473461  0.86687683  1
  Hf  Hf8  1  0.29377364  0.90175040  0.11972129  1
  Hf  Hf9  1  0.50112992  0.69800522  0.87888435  1
  Hf  Hf10  1  0.80132864  0.80763778  -0.02557739  1
  Hf  Hf11  1  0.38672844  0.19831890  0.49095227  1
  Hf  Hf12  1  0.08567730  0.11335893  0.86676303  1
  Hf  Hf13  1  0.19821004  0.20511701  0.25234785  1
  Hf  Hf14  1  0.19750312  0.40110742  -0.00072345  1
  Hf  Hf15  1  0.49688878  0.69137720  0.37984343  1
  Hf  Hf16  1  0.60765604  0.19324553  0.25607332  1
  Hf  Hf17  1  0.30010837  0.49539265  0.63019191  1
  Hf  Hf18  1  0.49900089  0.91363187  0.12114151  1
  Hf  Hf19  1  0.50971894  0.30043330  0.12365075  1
  Hf  Hf20  1  0.80130386  0.80407305  0.27218528  1
  Hf  Hf21  1  0.50777062  0.10061372  0.39291962  1
  Hf  Hf22  1  0.78875122  -0.00315709  0.74719139  1
  Hf  Hf23  1  0.41155104  0.18106107  0.01095410  1
  Hf  Hf24  1  0.39823157  0.60105722  0.23042121  1
  Hf  Hf25  1  0.90536472  0.29429902  0.85640025  1
  Hf  Hf26  1  0.89571300  0.10300812  0.39545484  1
  Hf  Hf27  1  -0.00208019  0.59339806  0.74507448  1
  Hf  Hf28  1  0.39778493  0.79676237  0.23841281  1
  Hf  Hf29  1  0.59752214  -0.01282022  0.73970143  1
  Hf  Hf30  1  -0.00344605  0.59272101  0.50757502  1
  Hf  Hf31  1  -0.00691414  0.40096620  0.00912485  1
  Hf  Hf32  1  0.30384766  0.69227781  0.87833511  1
  Hf  Hf33  1  0.60986549  0.57847733  0.75509045  1
  Hf  Hf34  1  0.69904548  0.30549766  0.61067882  1
  Hf  Hf35  1  0.80579742  0.39143973  0.00193168  1
  Hf  Hf36  1  0.39601078  0.00250891  0.26889509  1
  Hf  Hf37  1  0.01351105  -0.00801909  0.50763573  1
  Hf  Hf38  1  0.10072809  0.49901668  0.36963676  1
  Hf  Hf39  1  0.29894213  0.70563025  0.37891879  1
  Zr  Zr40  1  0.19657884  0.82315802  0.50842322  1
  Zr  Zr41  1  0.30992718  0.29582777  0.87915644  1
  Zr  Zr42  1  0.19312452  0.79872690  -0.02025000  1
  Zr  Zr43  1  0.79740236  0.00393555  -0.02241781  1
  Zr  Zr44  1  0.78982509  0.40792175  0.76075940  1
  Zr  Zr45  1  0.60218594  0.01509508  -0.00547585  1
  Zr  Zr46  1  0.39849524  0.20163719  0.25576452  1
  Zr  Zr47  1  0.09483076  0.90141848  0.12246363  1
  Zr  Zr48  1  0.30064461  0.09370098  0.12468904  1
  Zr  Zr49  1  0.70381497  0.27001603  0.87950505  1
  Zr  Zr50  1  0.49687041  0.49733674  0.89361731  1
  Zr  Zr51  1  0.09683065  0.91397142  0.85646946  1
  Zr  Zr52  1  0.29907246  0.30604164  0.62250852  1
  Zr  Zr53  1  0.69766373  0.49206851  0.13371359  1
  Zr  Zr54  1  0.10067814  0.12024799  0.39020919  1
  Zr  Zr55  1  0.41246945  0.81125042  0.74679842  1
  Zr  Zr56  1  0.89480455  0.90663919  0.12870442  1
  Zr  Zr57  1  0.59589282  0.59128541  0.49909742  1
  Zr  Zr58  1  0.60817774  0.19033686  0.72973066  1
  Zr  Zr59  1  0.20373347  0.80471221  0.74750843  1
  Zr  Zr60  1  0.39679671  0.80606491  0.52012561  1
  Zr  Zr61  1  0.49689295  0.49103616  0.12036771  1
  Zr  Zr62  1  0.09951863  0.51089023  0.11872001  1
  Zr  Zr63  1  0.51123101  0.69373874  0.63503203  1
  Zr  Zr64  1  0.70355921  0.90068538  0.12731310  1
  Zr  Zr65  1  0.20428263  0.40441385  0.24055586  1
  Zr  Zr66  1  0.70568404  0.49862050  0.60880736  1
  Zr  Zr67  1  0.60364276  0.79345419  0.25431064  1
  Zr  Zr68  1  0.79604325  0.60847876  0.25466629  1
  Zr  Zr69  1  0.09609426  0.70387135  0.62798211  1
  Zr  Zr70  1  0.30473419  0.50729647  0.37686669  1
  Zr  Zr71  1  0.19965302  0.00908443  -0.01735653  1
  Zr  Zr72  1  0.50216711  0.10401017  0.86357782  1
  Zr  Zr73  1  -0.00780916  0.00117502  0.26982676  1
  Zr  Zr74  1  -0.01306546  0.20141102  0.01350216  1
  Zr  Zr75  1  0.30165979  0.50392629  0.88725815  1
  Zr  Zr76  1  0.19979338  0.59959081  0.51206613  1
  Zr  Zr77  1  0.49793055  0.89597258  0.38897894  1
  Zr  Zr78  1  0.09366078  0.09435943  0.12646905  1
  Zr  Zr79  1  0.19312190  0.20587317  0.75079468  1
  Ta  Ta80  1  0.80429010  0.59518300  -0.00542852  1
  Ta  Ta81  1  0.50434103  0.30489892  0.37935486  1
  Ta  Ta82  1  -0.00622793  0.79953491  0.75173052  1
  Ta  Ta83  1  0.70751183  0.70344705  0.11322088  1
  Ta  Ta84  1  0.80848773  0.39903981  0.48338655  1
  Ta  Ta85  1  0.20161808  0.61212469  0.23857773  1
  Ta  Ta86  1  0.40956218  0.39733184  0.75562084  1
  Ta  Ta87  1  0.19789172  -0.00417224  0.27288588  1
  Ta  Ta88  1  0.40429218  0.59150876  0.74304308  1
  Ta  Ta89  1  -0.00839047  0.20594644  0.24544491  1
  Ta  Ta90  1  -0.01958443  0.00612473  -0.01458557  1
  Ta  Ta91  1  0.40331088  0.40841052  0.48856209  1
  Ta  Ta92  1  0.00006444  0.80045639  0.49671352  1
  Ta  Ta93  1  0.89665751  0.50310817  0.13380523  1
  Ta  Ta94  1  0.59651314  0.39105408  0.76338237  1
  Ta  Ta95  1  0.19237077  0.40749784  0.75723137  1
  Ta  Ta96  1  0.09614876  0.70720822  0.11758470  1
  Ta  Ta97  1  0.80298880  0.38757753  0.25886427  1
  Ta  Ta98  1  0.89858363  0.70420565  0.11555546  1
  Ta  Ta99  1  0.71639894  0.69672107  0.62802814  1
  Ta  Ta100  1  0.50492592  0.29409664  0.88760881  1
  Ta  Ta101  1  0.29298116  0.69797411  0.10666995  1
  Ta  Ta102  1  -0.00442092  0.60772296  -0.00918467  1
  Ta  Ta103  1  0.09517365  0.50509170  0.87630981  1
  Ta  Ta104  1  0.60674500  0.79730363  0.50750755  1
  Ta  Ta105  1  0.60829253  -0.00101280  0.26674144  1
  Ta  Ta106  1  0.30748421  0.30632019  0.11356311  1
  Ta  Ta107  1  0.88971171  0.11116827  0.84873121  1
  Ta  Ta108  1  0.28761696  0.30532505  0.38522565  1
  Ta  Ta109  1  0.89636650  0.10261551  0.61960438  1
  Ta  Ta110  1  -0.00255096  0.39396484  0.24591871  1
  Ta  Ta111  1  0.69924467  0.49462034  0.36931575  1
  Ta  Ta112  1  0.90015734  0.49694867  0.36918913  1
  Ta  Ta113  1  0.19744045  0.20480249  -0.00244053  1
  Ta  Ta114  1  0.70309145  0.29456726  0.13026546  1
  Ta  Ta115  1  0.10332793  0.70096825  0.38075235  1
  Ta  Ta116  1  0.60603483  0.60283600  0.00817771  1
  Ta  Ta117  1  0.40428536  0.80201907  0.00209653  1
  Ta  Ta118  1  0.80258441  0.18730430  0.01868138  1
  Ta  Ta119  1  -0.00068585  0.40005589  0.50765682  1
  Ti  Ti120  1  0.31052420  0.91052919  0.87035448  1
  Ti  Ti121  1  0.30512294  0.09682471  0.86151709  1
  Ti  Ti122  1  0.50816307  0.49466117  0.35923461  1
  Ti  Ti123  1  0.69751721  0.29566140  0.38157907  1
  Ti  Ti124  1  0.00162361  0.00625070  0.73265818  1
  Ti  Ti125  1  0.60251013  0.80203341  -0.00033333  1
  Ti  Ti126  1  0.61114887  0.80571670  0.74387973  1
  Ti  Ti127  1  0.19676972  0.80183218  0.25321347  1
  Ti  Ti128  1  -0.00110815  0.20268518  0.72503726  1
  Ti  Ti129  1  0.70894144  0.88881046  0.61222787  1
  Ti  Ti130  1  0.30295435  0.69619446  0.63611185  1
  Ti  Ti131  1  0.79244973  0.00062697  0.28051144  1
  Ti  Ti132  1  0.00543113  0.21263656  0.51571195  1
  Ti  Ti133  1  0.40201610  0.59722058  0.51464888  1
  Ti  Ti134  1  0.18982227  0.39876164  0.50210321  1
  Ti  Ti135  1  0.40695818  0.20340120  0.74148283  1
  Ti  Ti136  1  0.70607734  0.09751942  0.60084183  1
  Ti  Ti137  1  0.89161476  0.49857003  0.62632811  1
  Ti  Ti138  1  0.30811249  0.92331079  0.63984216  1
  Ti  Ti139  1  0.39685711  0.39744755  0.25501880  1
  Ti  Ti140  1  0.80068715  0.20551725  0.50097166  1
  Ti  Ti141  1  0.61104228  0.39342940  -0.01047556  1
  Ti  Ti142  1  0.89579000  0.69487037  0.85847207  1
  Ti  Ti143  1  0.61599171  -0.00827396  0.49529952  1
  Ti  Ti144  1  0.80507293  0.19321160  0.25267796  1
  Ti  Ti145  1  0.91010256  0.29791832  0.37706968  1
  Ti  Ti146  1  0.10064079  0.29823857  0.12324017  1
  Ti  Ti147  1  0.89383293  0.30680611  0.62976068  1
  Ti  Ti148  1  0.09858168  0.31088020  0.62933141  1
  Ti  Ti149  1  0.70447202  0.09352194  0.13650048  1
  Ti  Ti150  1  0.59897539  0.60686930  0.23917794  1
  Ti  Ti151  1  0.50104140  0.90248096  0.88326176  1
  Ti  Ti152  1  0.09047886  0.30885945  0.87021990  1
  Ti  Ti153  1  0.20508925  0.00459051  0.48929674  1
  Ti  Ti154  1  0.19662086  0.59862025  0.75120054  1
  Ti  Ti155  1  0.88771354  0.69693684  0.62468775  1
  Ti  Ti156  1  0.50430104  0.48504668  0.62438231  1
  Ti  Ti157  1  0.89737910  0.69646008  0.39432047  1
  Ti  Ti158  1  0.90110097  0.49781916  0.87067476  1
  Ti  Ti159  1  0.70256125  0.69471430  0.39442463  1
  Mo  Mo160  1  0.29605762  0.89785874  0.36762984  1
  Mo  Mo161  1  0.60961682  0.19589609  0.02231387  1
  Mo  Mo162  1  0.40196739  0.60436707  0.01581171  1
  Mo  Mo163  1  0.20029436  0.00755000  0.75378492  1
  Mo  Mo164  1  0.60352346  0.39403577  0.26382834  1
  Mo  Mo165  1  0.10215146  0.89528280  0.37360618  1
  Mo  Mo166  1  0.29371796  0.10372092  0.38384365  1
  Mo  Mo167  1  0.40136943  0.00105250  0.75960421  1
  Mo  Mo168  1  0.50831070  0.90053074  0.61172136  1
  Mo  Mo169  1  0.60485281  0.19564100  0.49518961  1
  Mo  Mo170  1  0.37987524  -0.00439012  0.48657395  1
  Mo  Mo171  1  0.00093090  0.40118637  0.73739327  1
  Mo  Mo172  1  0.70198481  0.89764077  0.38959241  1
  Mo  Mo173  1  0.19257606  0.60354715  0.00306033  1
  Mo  Mo174  1  0.70119251  0.49569267  0.89355264  1
  Mo  Mo175  1  0.18994948  0.21201060  0.50689966  1
  Mo  Mo176  1  0.89295692  0.29956278  0.14188885  1
  Mo  Mo177  1  0.70621716  0.10177915  0.38727007  1
  Mo  Mo178  1  0.88741270  0.09619046  0.14358866  1
  Mo  Mo179  1  0.30203488  0.50200956  0.11410125  1
  Mo  Mo180  1  0.40316637  0.39091177  -0.00154610  1
  Mo  Mo181  1  0.09408328  0.69314192  0.86717903  1
  Mo  Mo182  1  0.09879272  0.49223436  0.63377739  1
  Mo  Mo183  1  0.80185993  -0.00377632  0.50492127  1
  Mo  Mo184  1  0.79840275  0.79773156  0.75208729  1
  Mo  Mo185  1  0.68881171  0.89331069  0.86807194  1
  Mo  Mo186  1  0.80123046  0.79315461  0.49412604  1
  Mo  Mo187  1  0.80434908  0.59434661  0.48855516  1
  Mo  Mo188  1  0.09723819  0.10648497  0.61990085  1
  Mo  Mo189  1  0.80302604  0.19752980  0.72223134  1
  Mo  Mo190  1  0.51122822  0.09413625  0.14284122  1
  Mo  Mo191  1  0.50470970  0.70484236  0.10900722  1
  Mo  Mo192  1  0.09159409  0.30917798  0.38115737  1
  Mo  Mo193  1  0.70439338  0.10053118  0.86873080  1
  Mo  Mo194  1  0.80437173  0.59747484  0.75939409  1
  Mo  Mo195  1  0.40095008  -0.00586895  -0.01535607  1
  Mo  Mo196  1  0.60134616  0.39860443  0.47973932  1
  Mo  Mo197  1  0.89703091  0.89856720  0.39769232  1
  Mo  Mo198  1  0.90016345  0.90655286  0.84852619  1
  Mo  Mo199  1  0.10335247  0.91000448  0.63925566  1
