# generated using pymatgen
data_HfZrTaTiMo
_symmetry_space_group_name_H-M   'P 1'
_cell_length_a   15.92268953
_cell_length_b   15.92555867
_cell_length_c   15.20812305
_cell_angle_alpha   90.11229824
_cell_angle_beta   90.00657032
_cell_angle_gamma   90.08662937
_symmetry_Int_Tables_number   1
_chemical_formula_structural   HfZrTaTiMo
_chemical_formula_sum   'Hf40 Zr40 Ta40 Ti40 Mo40'
_cell_volume   3856.42942253
_cell_formula_units_Z   40
loop_
 _symmetry_equiv_pos_site_id
 _symmetry_equiv_pos_as_xyz
  1  'x, y, z'
loop_
 _atom_site_type_symbol
 _atom_site_label
 _atom_site_symmetry_multiplicity
 _atom_site_fract_x
 _atom_site_fract_y
 _atom_site_fract_z
 _atom_site_occupancy
  Hf  Hf0  1  0.29026459  0.69725130  0.11694917  1
  Hf  Hf1  1  0.20941515  0.40598176  0.23671716  1
  Hf  Hf2  1  0.40226505  -0.00802434  0.01153889  1
  Hf  Hf3  1  0.50802543  0.10044490  0.62206049  1
  Hf  Hf4  1  0.81560619  0.20270094  0.00015689  1
  Hf  Hf5  1  0.60869764  0.19530648  -0.00934957  1
  Hf  Hf6  1  0.69143428  0.49583783  0.10527779  1
  Hf  Hf7  1  0.01131601  0.19149064  0.76635775  1
  Hf  Hf8  1  0.30769224  0.50675933  0.37926578  1
  Hf  Hf9  1  0.90098723  0.10230349  0.62351878  1
  Hf  Hf10  1  0.19897493  0.00476735  0.48959018  1
  Hf  Hf11  1  0.00611758  0.38875581  0.00223898  1
  Hf  Hf12  1  0.89088797  0.49208498  0.86957078  1
  Hf  Hf13  1  0.59581975  0.60269803  0.75460850  1
  Hf  Hf14  1  0.90847112  0.30809676  0.85692029  1
  Hf  Hf15  1  0.58555856  0.58577473  0.25867161  1
  Hf  Hf16  1  0.10335436  0.10475600  0.61693441  1
  Hf  Hf17  1  0.10106770  0.51097297  0.12214785  1
  Hf  Hf18  1  0.39376994  0.59125117  0.74773828  1
  Hf  Hf19  1  0.39819350  -0.00027049  0.75114609  1
  Hf  Hf20  1  0.39813654  0.21343002  0.23151402  1
  Hf  Hf21  1  0.00537944  0.60811626  0.25685826  1
  Hf  Hf22  1  0.20559243  0.41078902  0.51260905  1
  Hf  Hf23  1  0.60118613  -0.00152671  0.48229095  1
  Hf  Hf24  1  0.70106757  0.70745021  0.87200586  1
  Hf  Hf25  1  0.51717232  0.31319208  0.11831186  1
  Hf  Hf26  1  0.70625843  0.88559645  0.36525572  1
  Hf  Hf27  1  0.19273311  0.59204419  -0.01877911  1
  Hf  Hf28  1  0.60981797  0.00573387  0.76307597  1
  Hf  Hf29  1  0.80633098  -0.00807602  0.49723253  1
  Hf  Hf30  1  0.18605931  -0.03099256  0.24583584  1
  Hf  Hf31  1  0.50389632  0.29694517  0.63354241  1
  Hf  Hf32  1  0.49459853  0.69796264  0.62265828  1
  Hf  Hf33  1  0.70235144  0.88472164  0.12774269  1
  Hf  Hf34  1  0.71431666  0.31933825  0.87876985  1
  Hf  Hf35  1  0.39891282  0.20254746  0.00592430  1
  Hf  Hf36  1  -0.00088784  0.20223630  0.48467108  1
  Hf  Hf37  1  0.49693527  0.10028191  0.36174459  1
  Hf  Hf38  1  0.39010146  0.79351799  0.24589186  1
  Hf  Hf39  1  0.59929285  0.40501749  0.75302360  1
  Zr  Zr40  1  0.81139064  0.39451271  0.51014865  1
  Zr  Zr41  1  0.89935015  0.30426734  0.36384051  1
  Zr  Zr42  1  0.80792466  0.62559569  0.52224386  1
  Zr  Zr43  1  0.89835197  0.71077491  0.13238693  1
  Zr  Zr44  1  0.19884827  0.21301463  -0.00554481  1
  Zr  Zr45  1  0.39566802  0.19564571  0.50393336  1
  Zr  Zr46  1  0.71103739  0.89326219  0.88007711  1
  Zr  Zr47  1  0.30172150  0.89452870  0.87997076  1
  Zr  Zr48  1  0.49564506  0.49358866  0.88594707  1
  Zr  Zr49  1  0.80702645  0.00009983  0.25006637  1
  Zr  Zr50  1  0.50114064  0.31350272  0.36687598  1
  Zr  Zr51  1  0.80159997  0.61203282  -0.00832524  1
  Zr  Zr52  1  0.60544385  0.79649471  0.50343808  1
  Zr  Zr53  1  0.39229814  0.60610485  -0.01204817  1
  Zr  Zr54  1  -0.02527561  0.81314277  -0.01122078  1
  Zr  Zr55  1  0.50372296  0.90107741  0.63020228  1
  Zr  Zr56  1  0.09944894  0.30400822  0.63444497  1
  Zr  Zr57  1  0.29984603  0.09463227  0.36001211  1
  Zr  Zr58  1  0.39645662  0.19067827  0.75776110  1
  Zr  Zr59  1  0.60344712  -0.00095825  0.00209051  1
  Zr  Zr60  1  0.29854499  0.89614803  0.62034768  1
  Zr  Zr61  1  0.48373039  0.69089482  0.38669033  1
  Zr  Zr62  1  0.70573232  0.28996094  0.63006731  1
  Zr  Zr63  1  0.81915465  -0.01028534  0.00834045  1
  Zr  Zr64  1  0.70266873  0.69660119  0.37052973  1
  Zr  Zr65  1  0.09158038  0.09662640  0.12517637  1
  Zr  Zr66  1  0.09897960  0.90271104  0.87905201  1
  Zr  Zr67  1  0.69932445  0.49555409  0.38093641  1
  Zr  Zr68  1  0.70127296  0.50038689  0.62234554  1
  Zr  Zr69  1  0.29182699  0.88061705  0.37826188  1
  Zr  Zr70  1  0.50512641  0.50747303  0.10361434  1
  Zr  Zr71  1  0.30306087  0.30913942  0.37584308  1
  Zr  Zr72  1  0.29689228  0.09371344  0.13316948  1
  Zr  Zr73  1  0.71124509  0.30510728  0.12468445  1
  Zr  Zr74  1  0.09354836  0.90309498  0.62363887  1
  Zr  Zr75  1  0.20096515  0.01240052  0.75110542  1
  Zr  Zr76  1  0.89948578  0.50813437  0.37527896  1
  Zr  Zr77  1  -0.02224215  0.80001680  0.51322079  1
  Zr  Zr78  1  0.89960756  0.49898732  0.11685779  1
  Zr  Zr79  1  0.00850117  0.60591093  0.50233888  1
  Ta  Ta80  1  0.59791671  -0.00524148  0.24957359  1
  Ta  Ta81  1  0.19247314  0.20215141  0.25623616  1
  Ta  Ta82  1  0.09209514  0.29375645  0.13830202  1
  Ta  Ta83  1  0.60643976  0.19460701  0.77235616  1
  Ta  Ta84  1  0.50169809  0.88928899  0.12938736  1
  Ta  Ta85  1  0.60769086  0.19840830  0.25017215  1
  Ta  Ta86  1  0.00796619  0.40669806  0.50825414  1
  Ta  Ta87  1  0.29928102  0.29924552  0.63721566  1
  Ta  Ta88  1  0.28480736  0.68779566  0.62654236  1
  Ta  Ta89  1  0.39233132  0.59727835  0.24095853  1
  Ta  Ta90  1  -0.00434272  -0.00027735  0.76195565  1
  Ta  Ta91  1  0.40571347  0.41650861  0.23280445  1
  Ta  Ta92  1  0.00235446  0.00569155  0.27176716  1
  Ta  Ta93  1  0.00417050  0.40320238  0.24727122  1
  Ta  Ta94  1  0.40262634  -0.00599516  0.49272819  1
  Ta  Ta95  1  0.70101908  0.09972399  0.62117710  1
  Ta  Ta96  1  0.10785354  0.50249477  0.37468823  1
  Ta  Ta97  1  0.37879899  0.39575820  0.01320507  1
  Ta  Ta98  1  0.39795335  0.79086593  0.75180312  1
  Ta  Ta99  1  0.01270728  0.81800862  0.24825773  1
  Ta  Ta100  1  0.79730170  0.18906284  0.76120316  1
  Ta  Ta101  1  0.79881564  0.60242393  0.75040969  1
  Ta  Ta102  1  0.70493209  0.10100979  0.13117466  1
  Ta  Ta103  1  0.79241495  0.60088948  0.24019432  1
  Ta  Ta104  1  -0.00226363  0.00120227  0.47885669  1
  Ta  Ta105  1  0.50240210  0.88870543  0.87420198  1
  Ta  Ta106  1  0.49449778  0.30335443  0.87867061  1
  Ta  Ta107  1  0.89214662  0.71276817  0.36010107  1
  Ta  Ta108  1  0.80292909  0.00003535  0.74823502  1
  Ta  Ta109  1  0.91157564  0.10893669  0.13166793  1
  Ta  Ta110  1  -0.00645623  0.80104415  0.75179449  1
  Ta  Ta111  1  0.19597780  -0.00649410  0.01125937  1
  Ta  Ta112  1  0.19740962  0.79337211  0.74763791  1
  Ta  Ta113  1  0.09583045  0.70779946  0.11590533  1
  Ta  Ta114  1  0.70220842  0.30096948  0.36589305  1
  Ta  Ta115  1  0.20356835  0.19986272  0.76459821  1
  Ta  Ta116  1  0.60826322  0.19939121  0.48424271  1
  Ta  Ta117  1  0.10166947  0.31042709  0.37102560  1
  Ta  Ta118  1  0.59505099  0.39715827  0.49987459  1
  Ta  Ta119  1  0.11278708  0.51289662  0.64274477  1
  Ti  Ti120  1  0.80221295  0.40594909  0.24196947  1
  Ti  Ti121  1  0.70478734  0.90043857  0.62467385  1
  Ti  Ti122  1  0.89661452  0.88820458  0.36523166  1
  Ti  Ti123  1  0.09640064  0.48398277  0.85676825  1
  Ti  Ti124  1  0.80674571  0.79790479  0.72884432  1
  Ti  Ti125  1  0.50304038  0.69681584  0.11958327  1
  Ti  Ti126  1  0.29639924  0.09484314  0.89154345  1
  Ti  Ti127  1  0.68920705  0.69603814  0.12233707  1
  Ti  Ti128  1  0.29140471  0.48705380  0.85870127  1
  Ti  Ti129  1  0.19904088  0.39755561  0.00449741  1
  Ti  Ti130  1  0.40106340  0.79731451  0.00053280  1
  Ti  Ti131  1  0.18773129  0.78934509  0.51096351  1
  Ti  Ti132  1  0.58816904  0.79307248  0.25445755  1
  Ti  Ti133  1  0.59224336  0.78961431  -0.00244974  1
  Ti  Ti134  1  0.10372858  0.71294190  0.37224910  1
  Ti  Ti135  1  0.39007299  0.58857124  0.51898835  1
  Ti  Ti136  1  0.00682729  0.19922865  -0.01336770  1
  Ti  Ti137  1  -0.00199391  0.60526653  0.76303032  1
  Ti  Ti138  1  0.29325174  0.70266946  0.86829135  1
  Ti  Ti139  1  0.39712016  0.80008568  0.50210779  1
  Ti  Ti140  1  0.49738655  0.09559574  0.88191757  1
  Ti  Ti141  1  0.30182476  0.31178492  0.86175896  1
  Ti  Ti142  1  0.09790127  0.70458137  0.87254320  1
  Ti  Ti143  1  0.91276244  0.49992966  0.64055426  1
  Ti  Ti144  1  0.90257291  0.30034686  0.64010655  1
  Ti  Ti145  1  0.40230597  -0.01604006  0.24423273  1
  Ti  Ti146  1  0.60084822  0.79987120  0.74553819  1
  Ti  Ti147  1  -0.00136418  0.60580080  -0.01749457  1
  Ti  Ti148  1  0.90175080  0.09201202  0.87963222  1
  Ti  Ti149  1  0.19605160  0.80219216  0.00386703  1
  Ti  Ti150  1  0.59169297  0.59137014  0.50563781  1
  Ti  Ti151  1  0.20106603  0.60761843  0.25170952  1
  Ti  Ti152  1  0.70614268  0.10364447  0.36474053  1
  Ti  Ti153  1  0.80938983  0.20024525  0.24680891  1
  Ti  Ti154  1  0.09761337  0.69444813  0.63915596  1
  Ti  Ti155  1  0.28844279  0.69297854  0.38784746  1
  Ti  Ti156  1  0.40401279  0.40656948  0.52074150  1
  Ti  Ti157  1  0.80008339  0.19518884  0.49202210  1
  Ti  Ti158  1  0.50836916  0.09604284  0.13240219  1
  Ti  Ti159  1  0.20136181  0.20347163  0.49084705  1
  Mo  Mo160  1  0.19608854  0.60600992  0.49673075  1
  Mo  Mo161  1  0.49108610  0.49952624  0.39272961  1
  Mo  Mo162  1  0.91015030  0.29429090  0.13876203  1
  Mo  Mo163  1  -0.00107674  0.00990241  -0.01237972  1
  Mo  Mo164  1  0.91196143  0.91244870  0.14236402  1
  Mo  Mo165  1  0.29726680  0.49959079  0.63441514  1
  Mo  Mo166  1  0.90609000  0.69451285  0.64775416  1
  Mo  Mo167  1  0.79991449  0.80522602  0.51975975  1
  Mo  Mo168  1  0.00325399  0.40523065  0.73757320  1
  Mo  Mo169  1  0.80372374  0.40141097  0.73246664  1
  Mo  Mo170  1  0.20436165  0.40159931  0.74461771  1
  Mo  Mo171  1  0.80039290  0.79615487  0.23585336  1
  Mo  Mo172  1  0.79498164  0.79953746  0.01286278  1
  Mo  Mo173  1  0.19050866  0.78575382  0.24236521  1
  Mo  Mo174  1  0.49895450  0.49812185  0.61743930  1
  Mo  Mo175  1  0.60254909  0.39910982  -0.02128637  1
  Mo  Mo176  1  0.71081914  0.10249173  0.88095686  1
  Mo  Mo177  1  0.49688869  0.89767929  0.35882633  1
  Mo  Mo178  1  0.00205964  0.19993767  0.26450362  1
  Mo  Mo179  1  0.60214396  0.40156465  0.26240811  1
  Mo  Mo180  1  0.29558317  0.50627132  0.12245369  1
  Mo  Mo181  1  0.80975877  0.39958726  0.01153641  1
  Mo  Mo182  1  0.10339171  0.09970639  0.89057728  1
  Mo  Mo183  1  0.89763795  0.70182752  0.85896017  1
  Mo  Mo184  1  0.29906260  0.10699576  0.61166469  1
  Mo  Mo185  1  0.09214363  0.89679059  0.10894803  1
  Mo  Mo186  1  0.69681522  0.70605794  0.64080039  1
  Mo  Mo187  1  0.29521339  0.30243595  0.13072402  1
  Mo  Mo188  1  0.10887645  0.30718988  0.86615969  1
  Mo  Mo189  1  0.60055387  0.60915069  -0.01695188  1
  Mo  Mo190  1  0.29899102  0.88956890  0.11734259  1
  Mo  Mo191  1  0.89761194  0.90644154  0.63652008  1
  Mo  Mo192  1  0.70015418  0.50434733  0.88176734  1
  Mo  Mo193  1  0.49574532  0.70999308  0.86808907  1
  Mo  Mo194  1  0.10117335  0.10465424  0.37162857  1
  Mo  Mo195  1  0.19507992  0.60435877  0.76853660  1
  Mo  Mo196  1  0.89412118  0.89824730  0.85538819  1
  Mo  Mo197  1  0.89509563  0.10182419  0.37459119  1
  Mo  Mo198  1  0.09319874  0.89199087  0.39123374  1
  Mo  Mo199  1  0.39950614  0.39666215  0.74339782  1
