# generated using pymatgen
data_HfZrTaTiMo
_symmetry_space_group_name_H-M   'P 1'
_cell_length_a   15.92365759
_cell_length_b   15.92813304
_cell_length_c   15.19415287
_cell_angle_alpha   89.97085078
_cell_angle_beta   90.03004591
_cell_angle_gamma   89.88360768
_symmetry_Int_Tables_number   1
_chemical_formula_structural   HfZrTaTiMo
_chemical_formula_sum   'Hf40 Zr40 Ta40 Ti40 Mo40'
_cell_volume   3853.74686095
_cell_formula_units_Z   40
loop_
 _symmetry_equiv_pos_site_id
 _symmetry_equiv_pos_as_xyz
  1  'x, y, z'
loop_
 _atom_site_type_symbol
 _atom_site_label
 _atom_site_symmetry_multiplicity
 _atom_site_fract_x
 _atom_site_fract_y
 _atom_site_fract_z
 _atom_site_occupancy
  Hf  Hf0  1  0.80624443  0.20380550  0.02225860  1
  Hf  Hf1  1  0.30511184  0.89643954  0.39142817  1
  Hf  Hf2  1  0.89739083  0.50159738  0.59980629  1
  Hf  Hf3  1  0.30534243  0.30248028  0.13221047  1
  Hf  Hf4  1  0.20363989  0.20079823  0.50285837  1
  Hf  Hf5  1  0.89447894  0.49946730  0.88093171  1
  Hf  Hf6  1  0.68835889  0.52427896  0.12049358  1
  Hf  Hf7  1  0.00220888  0.58446480  0.74394733  1
  Hf  Hf8  1  0.00947390  0.38659622  0.72125721  1
  Hf  Hf9  1  0.90636727  0.30061688  0.87748663  1
  Hf  Hf10  1  0.80398006  0.00629102  0.23738306  1
  Hf  Hf11  1  0.49888159  0.70847613  0.62429018  1
  Hf  Hf12  1  0.28983593  0.30648184  0.87754998  1
  Hf  Hf13  1  0.80284648  0.40430592  0.24309544  1
  Hf  Hf14  1  0.90929774  0.90550797  0.11699508  1
  Hf  Hf15  1  0.50319789  0.68645949  0.11676366  1
  Hf  Hf16  1  0.69654202  0.50766950  0.88594196  1
  Hf  Hf17  1  0.40415512  0.59392612  -0.01822857  1
  Hf  Hf18  1  -0.00349304  0.80669124  0.49741095  1
  Hf  Hf19  1  0.70243959  0.70455353  0.37588023  1
  Hf  Hf20  1  0.80131792  0.40337999  0.02459155  1
  Hf  Hf21  1  0.49645561  0.09733060  0.36611668  1
  Hf  Hf22  1  0.60499576  0.59162589  0.73967850  1
  Hf  Hf23  1  0.60089253  0.19889582  0.49433282  1
  Hf  Hf24  1  0.30435326  0.70388930  0.11778781  1
  Hf  Hf25  1  0.39780784  0.00445661  0.51199088  1
  Hf  Hf26  1  0.39862618  0.20439869  0.74784049  1
  Hf  Hf27  1  0.00576888  0.20264168  0.48680197  1
  Hf  Hf28  1  0.70806995  0.70899825  0.62798546  1
  Hf  Hf29  1  0.19024809  0.20680872  0.73204898  1
  Hf  Hf30  1  0.19168209  0.60849623  -0.00140656  1
  Hf  Hf31  1  0.59588587  0.79981057  0.23706571  1
  Hf  Hf32  1  0.50005869  0.30810716  0.37309128  1
  Hf  Hf33  1  0.29159997  0.10108049  0.87348943  1
  Hf  Hf34  1  0.80118555  0.00392318  0.76666712  1
  Hf  Hf35  1  0.80215876  0.78507265  0.00721067  1
  Hf  Hf36  1  0.09200662  0.52147176  0.14203429  1
  Hf  Hf37  1  0.49546758  0.09870649  0.11193479  1
  Hf  Hf38  1  0.91483365  0.68699619  0.13392691  1
  Hf  Hf39  1  0.39789484  0.60027765  0.27128400  1
  Zr  Zr40  1  0.30484917  0.08920403  0.12179640  1
  Zr  Zr41  1  -0.00015465  0.41372954  0.26940770  1
  Zr  Zr42  1  0.89008620  0.69673724  0.62823715  1
  Zr  Zr43  1  0.49463633  0.30716482  0.13620625  1
  Zr  Zr44  1  0.69488327  0.31492386  0.87834463  1
  Zr  Zr45  1  -0.00159140  0.20546009  0.24787327  1
  Zr  Zr46  1  0.10360762  0.48720747  0.87411829  1
  Zr  Zr47  1  0.10003573  0.29405297  0.87644352  1
  Zr  Zr48  1  0.48352970  0.90196191  0.10078195  1
  Zr  Zr49  1  0.00472001  0.80824394  0.75048078  1
  Zr  Zr50  1  0.20905693  0.79575798  0.25280208  1
  Zr  Zr51  1  0.30388405  0.49781103  0.12642625  1
  Zr  Zr52  1  0.89404804  0.90368617  0.62968449  1
  Zr  Zr53  1  0.70203899  0.89964964  0.37046331  1
  Zr  Zr54  1  0.10971859  0.09357766  0.36439339  1
  Zr  Zr55  1  0.00673738  0.20003610  0.02839154  1
  Zr  Zr56  1  0.59721191  0.19223735  0.76373372  1
  Zr  Zr57  1  0.39631374  0.20133902  0.50894837  1
  Zr  Zr58  1  0.90619254  0.90490715  0.88843236  1
  Zr  Zr59  1  0.69438659  0.49438435  0.38022985  1
  Zr  Zr60  1  0.10616279  0.89666713  0.13379106  1
  Zr  Zr61  1  0.71064484  0.10138534  0.62021522  1
  Zr  Zr62  1  0.60139497  0.78775562  -0.00507714  1
  Zr  Zr63  1  0.59925892  0.60032042  0.50179870  1
  Zr  Zr64  1  0.49543332  0.71557562  0.39555871  1
  Zr  Zr65  1  0.29357330  0.49344173  0.86829898  1
  Zr  Zr66  1  0.59641202  0.82077143  0.76568326  1
  Zr  Zr67  1  0.69333540  0.30549196  0.61576001  1
  Zr  Zr68  1  0.80216045  0.19749827  0.76423293  1
  Zr  Zr69  1  0.59649727  -0.00106313  0.24252915  1
  Zr  Zr70  1  0.89079728  0.29005032  0.60570366  1
  Zr  Zr71  1  0.01967313  0.79140996  -0.00601955  1
  Zr  Zr72  1  0.70055695  0.90351401  0.62598503  1
  Zr  Zr73  1  0.60213866  -0.00020527  0.48997300  1
  Zr  Zr74  1  0.20111062  0.59926320  0.27388019  1
  Zr  Zr75  1  0.79765053  0.41048671  0.74126630  1
  Zr  Zr76  1  -0.00029670  0.39766133  0.03202770  1
  Zr  Zr77  1  0.09725886  0.69405718  0.61644255  1
  Zr  Zr78  1  0.59651250  0.20894284  -0.00272327  1
  Zr  Zr79  1  0.42020792  -0.00233144  0.76156646  1
  Ta  Ta80  1  0.20512704  0.80016052  -0.01260745  1
  Ta  Ta81  1  0.89588766  0.69279972  0.86464449  1
  Ta  Ta82  1  0.69784097  0.29735152  0.36748275  1
  Ta  Ta83  1  0.39458543  0.59456689  0.73510755  1
  Ta  Ta84  1  0.29480104  0.69735298  0.85336441  1
  Ta  Ta85  1  0.90092286  0.09643398  0.61133191  1
  Ta  Ta86  1  0.50062813  0.49010419  0.85338790  1
  Ta  Ta87  1  0.20008256  0.80520610  0.51717537  1
  Ta  Ta88  1  0.30144562  0.70358831  0.40728020  1
  Ta  Ta89  1  0.10459046  0.89878196  0.37756004  1
  Ta  Ta90  1  0.70113235  0.90303221  0.10948612  1
  Ta  Ta91  1  0.00109218  -0.00144520  0.49144501  1
  Ta  Ta92  1  0.10620299  0.69436153  0.85370045  1
  Ta  Ta93  1  0.39183878  0.39772257  0.73103711  1
  Ta  Ta94  1  0.49284452  0.50072784  0.13466796  1
  Ta  Ta95  1  0.09269002  0.09287162  0.62373275  1
  Ta  Ta96  1  0.59404387  0.60116600  0.26416948  1
  Ta  Ta97  1  -0.00462540  0.18949372  0.74131108  1
  Ta  Ta98  1  0.29849700  0.90210597  0.63848149  1
  Ta  Ta99  1  0.20228460  0.59036907  0.72465639  1
  Ta  Ta100  1  0.39814832  0.79898792  0.75081322  1
  Ta  Ta101  1  0.20189433  0.40253970  0.26825049  1
  Ta  Ta102  1  0.80271020  0.79812298  0.23802509  1
  Ta  Ta103  1  0.10349222  0.70281940  0.39001302  1
  Ta  Ta104  1  0.79853927  0.19972625  0.24122784  1
  Ta  Ta105  1  0.39784203  0.80208875  0.24801082  1
  Ta  Ta106  1  0.39628366  0.19868754  0.25544537  1
  Ta  Ta107  1  0.19833944  -0.00101799  0.51201968  1
  Ta  Ta108  1  0.51156098  0.09631048  0.63254431  1
  Ta  Ta109  1  0.09763678  0.09423745  0.87487735  1
  Ta  Ta110  1  0.50033887  0.48975531  0.61855764  1
  Ta  Ta111  1  0.50013621  0.69026203  0.86160769  1
  Ta  Ta112  1  0.30098825  0.09577897  0.36751952  1
  Ta  Ta113  1  0.29345833  0.90064441  0.86314150  1
  Ta  Ta114  1  0.80699056  0.59792665  0.25604233  1
  Ta  Ta115  1  0.19646657  -0.00786654  -0.00398172  1
  Ta  Ta116  1  0.70907565  0.69464002  0.86187103  1
  Ta  Ta117  1  0.19547805  0.19806591  0.01750295  1
  Ta  Ta118  1  0.91047286  0.09839198  0.89755752  1
  Ta  Ta119  1  -0.00115455  0.60193315  -0.01015489  1
  Ti  Ti120  1  0.50511532  0.90238726  0.62103957  1
  Ti  Ti121  1  0.79897999  0.39679668  0.48532670  1
  Ti  Ti122  1  0.21338740  -0.01028856  0.24651557  1
  Ti  Ti123  1  0.39743021  0.20342508  -0.01096554  1
  Ti  Ti124  1  0.60198929  0.19714202  0.24537842  1
  Ti  Ti125  1  0.49643604  0.31087172  0.86618197  1
  Ti  Ti126  1  0.00297202  0.59055726  0.48261275  1
  Ti  Ti127  1  -0.00012235  0.00045648  0.25492857  1
  Ti  Ti128  1  0.39653061  -0.01285627  0.25018161  1
  Ti  Ti129  1  0.50024838  0.30329912  0.62153402  1
  Ti  Ti130  1  0.39218672  0.59863947  0.51289945  1
  Ti  Ti131  1  0.70123714  0.09308487  0.89815485  1
  Ti  Ti132  1  0.59303562  0.41096673  0.25062453  1
  Ti  Ti133  1  0.29805890  0.09287990  0.64085436  1
  Ti  Ti134  1  0.80363603  0.80415024  0.48883558  1
  Ti  Ti135  1  0.19592925  0.80425723  0.74099003  1
  Ti  Ti136  1  0.29677008  0.49272827  0.60464801  1
  Ti  Ti137  1  0.18984339  0.39807859  0.49233130  1
  Ti  Ti138  1  0.70209175  0.90566331  0.89380846  1
  Ti  Ti139  1  0.89649684  0.10046971  0.37466221  1
  Ti  Ti140  1  0.48865405  0.49175925  0.39358694  1
  Ti  Ti141  1  0.69577381  0.09297189  0.11206494  1
  Ti  Ti142  1  0.19647481  0.39874636  0.71823919  1
  Ti  Ti143  1  0.80787987  0.00015903  0.48711558  1
  Ti  Ti144  1  0.00681470  0.00149714  0.75103884  1
  Ti  Ti145  1  0.68937368  0.30536511  0.13544543  1
  Ti  Ti146  1  0.89301940  0.30001821  0.37455293  1
  Ti  Ti147  1  0.40250718  0.39958542  -0.00670470  1
  Ti  Ti148  1  0.90096881  0.69772519  0.37308000  1
  Ti  Ti149  1  0.19005712  0.39328916  0.02233717  1
  Ti  Ti150  1  0.70489831  0.50211070  0.60903007  1
  Ti  Ti151  1  0.30453600  0.30609379  0.37550689  1
  Ti  Ti152  1  0.39392456  0.79873639  -0.02547094  1
  Ti  Ti153  1  0.20277130  0.20408965  0.24913154  1
  Ti  Ti154  1  0.90193189  0.89851500  0.36277874  1
  Ti  Ti155  1  0.49553624  0.89418485  0.38579151  1
  Ti  Ti156  1  0.00679659  0.79203962  0.25727302  1
  Ti  Ti157  1  0.58502149  0.41245714  0.00699480  1
  Ti  Ti158  1  0.70595648  0.10509722  0.36823003  1
  Ti  Ti159  1  0.10344997  0.09009097  0.13303790  1
  Mo  Mo160  1  0.09653301  0.29555159  0.60688443  1
  Mo  Mo161  1  0.39278619  -0.00268103  -0.02184928  1
  Mo  Mo162  1  0.90424214  0.09529641  0.12438309  1
  Mo  Mo163  1  0.30346854  0.49805558  0.39881344  1
  Mo  Mo164  1  0.59850531  -0.00069727  -0.01014431  1
  Mo  Mo165  1  0.80096459  0.00326809  0.00832457  1
  Mo  Mo166  1  0.29985655  0.70044171  0.63117045  1
  Mo  Mo167  1  0.80349106  0.60439467  0.48208302  1
  Mo  Mo168  1  0.59799579  0.39623941  0.50504088  1
  Mo  Mo169  1  0.89777442  0.51042510  0.12031900  1
  Mo  Mo170  1  0.70239165  0.69965966  0.14312309  1
  Mo  Mo171  1  0.19278922  0.00042629  0.74450351  1
  Mo  Mo172  1  0.01255696  0.00407929  0.00122062  1
  Mo  Mo173  1  0.59209179  0.40091210  0.73593949  1
  Mo  Mo174  1  0.79896558  0.80394813  0.77482822  1
  Mo  Mo175  1  0.10065269  0.49492131  0.60053475  1
  Mo  Mo176  1  0.39502772  0.39773396  0.50532585  1
  Mo  Mo177  1  0.20216159  0.59789202  0.50426829  1
  Mo  Mo178  1  0.80052298  0.59824692  0.74555580  1
  Mo  Mo179  1  0.11034479  0.90288165  0.86857404  1
  Mo  Mo180  1  0.89797427  0.30258546  0.14816032  1
  Mo  Mo181  1  0.89528663  0.50307972  0.38825032  1
  Mo  Mo182  1  0.49882030  0.10039873  0.89079877  1
  Mo  Mo183  1  -0.00010501  0.60918138  0.27640606  1
  Mo  Mo184  1  0.49569817  0.89660049  0.88600389  1
  Mo  Mo185  1  0.09952680  0.90659430  0.61759072  1
  Mo  Mo186  1  0.11115632  0.30154369  0.37204755  1
  Mo  Mo187  1  0.39652746  0.80735689  0.52755673  1
  Mo  Mo188  1  0.60142678  0.80774346  0.50677434  1
  Mo  Mo189  1  0.39521092  0.40532004  0.27111287  1
  Mo  Mo190  1  0.11249348  0.30427728  0.15091029  1
  Mo  Mo191  1  0.60630158  0.00726258  0.77516326  1
  Mo  Mo192  1  0.59400527  0.59850009  -0.01724137  1
  Mo  Mo193  1  0.00312335  0.39678512  0.48696877  1
  Mo  Mo194  1  0.80191415  0.60675794  0.00598480  1
  Mo  Mo195  1  0.10240067  0.50143375  0.38849724  1
  Mo  Mo196  1  0.29783954  0.30581389  0.62008889  1
  Mo  Mo197  1  0.10168454  0.70079204  0.13236533  1
  Mo  Mo198  1  0.30348924  0.89555446  0.10772237  1
  Mo  Mo199  1  0.80060926  0.19535472  0.47171054  1
