# generated using pymatgen
data_HfZrTaTiMo
_symmetry_space_group_name_H-M   'P 1'
_cell_length_a   15.92642663
_cell_length_b   15.93145187
_cell_length_c   15.20475622
_cell_angle_alpha   90.00111952
_cell_angle_beta   90.00217328
_cell_angle_gamma   90.11642209
_symmetry_Int_Tables_number   1
_chemical_formula_structural   HfZrTaTiMo
_chemical_formula_sum   'Hf40 Zr40 Ta40 Ti40 Mo40'
_cell_volume   3857.91154391
_cell_formula_units_Z   40
loop_
 _symmetry_equiv_pos_site_id
 _symmetry_equiv_pos_as_xyz
  1  'x, y, z'
loop_
 _atom_site_type_symbol
 _atom_site_label
 _atom_site_symmetry_multiplicity
 _atom_site_fract_x
 _atom_site_fract_y
 _atom_site_fract_z
 _atom_site_occupancy
  Hf  Hf0  1  0.20674625  0.38719698  0.50606398  1
  Hf  Hf1  1  0.50441394  0.91313752  0.39012143  1
  Hf  Hf2  1  0.89437538  0.49830935  0.87782045  1
  Hf  Hf3  1  0.40701841  0.40910813  0.23376072  1
  Hf  Hf4  1  0.40055913  0.19720212  0.00729815  1
  Hf  Hf5  1  0.40603538  0.39219463  0.50266452  1
  Hf  Hf6  1  0.09557075  0.67871086  0.37115435  1
  Hf  Hf7  1  0.09683553  0.89844274  0.85471157  1
  Hf  Hf8  1  0.50474470  0.70691285  0.86963220  1
  Hf  Hf9  1  0.68195162  0.29781251  0.61909524  1
  Hf  Hf10  1  0.00971408  0.38290016  0.75453785  1
  Hf  Hf11  1  -0.00324696  0.39892099  0.00099759  1
  Hf  Hf12  1  0.10943162  0.70106030  0.62471806  1
  Hf  Hf13  1  0.30252583  0.50119937  0.62303801  1
  Hf  Hf14  1  0.41481906  0.60732082  0.73521849  1
  Hf  Hf15  1  0.41604525  0.39333057  0.75992646  1
  Hf  Hf16  1  0.60462721  0.80387178  0.00864149  1
  Hf  Hf17  1  0.10085386  0.29215795  0.12448613  1
  Hf  Hf18  1  0.59956062  0.00897527  0.24688928  1
  Hf  Hf19  1  0.00642849  0.80786896  0.49257719  1
  Hf  Hf20  1  0.70366704  0.29960929  0.12216677  1
  Hf  Hf21  1  0.89348482  0.90695494  0.38088468  1
  Hf  Hf22  1  0.39070835  0.00494729  0.74070676  1
  Hf  Hf23  1  0.89652098  0.09133251  0.87199536  1
  Hf  Hf24  1  0.09550925  0.70692883  0.86660876  1
  Hf  Hf25  1  0.90260484  0.28123166  0.62651087  1
  Hf  Hf26  1  0.79123391  0.19450501  0.26000669  1
  Hf  Hf27  1  0.80749646  0.41214027  0.25837183  1
  Hf  Hf28  1  0.19768959  0.41348966  0.23353546  1
  Hf  Hf29  1  0.39321493  0.79833622  0.49567275  1
  Hf  Hf30  1  0.69730329  0.69288155  0.86073465  1
  Hf  Hf31  1  0.20762690  0.39545877  0.00186478  1
  Hf  Hf32  1  0.09813613  0.48798406  0.38572314  1
  Hf  Hf33  1  0.78800229  -0.01286624  0.00273940  1
  Hf  Hf34  1  0.89754075  0.09769935  0.11695758  1
  Hf  Hf35  1  0.18766442  0.81425444  0.01037616  1
  Hf  Hf36  1  0.19169702  0.20645259  0.75456763  1
  Hf  Hf37  1  0.80567806  0.79655320  0.00151244  1
  Hf  Hf38  1  0.91577421  0.30290677  0.37877456  1
  Hf  Hf39  1  0.60362326  0.40091837  -0.00659001  1
  Zr  Zr40  1  0.20618966  0.60058276  0.74792207  1
  Zr  Zr41  1  0.50353398  0.11738897  0.61601376  1
  Zr  Zr42  1  0.50339839  0.49958348  0.38172895  1
  Zr  Zr43  1  0.80121620  0.39138938  0.49789970  1
  Zr  Zr44  1  -0.01920458  -0.00004291  0.73191021  1
  Zr  Zr45  1  0.69808632  0.89072486  0.84980009  1
  Zr  Zr46  1  0.90068785  0.30489933  0.13337692  1
  Zr  Zr47  1  0.00596208  0.80623038  0.25588747  1
  Zr  Zr48  1  0.90739534  0.69918513  0.62325359  1
  Zr  Zr49  1  0.49842800  0.90007042  0.13649959  1
  Zr  Zr50  1  0.89789056  0.09758117  0.39456644  1
  Zr  Zr51  1  0.39688973  0.79957727  0.26293578  1
  Zr  Zr52  1  0.38734387  0.00126183  -0.00305712  1
  Zr  Zr53  1  0.70443475  0.10819719  0.62572938  1
  Zr  Zr54  1  0.29957091  0.70520720  0.12349120  1
  Zr  Zr55  1  0.51357408  0.49529069  0.61794115  1
  Zr  Zr56  1  0.69596868  0.49537485  0.61506777  1
  Zr  Zr57  1  0.58772017  -0.00220726  -0.00943705  1
  Zr  Zr58  1  0.30067229  0.70761472  0.87861125  1
  Zr  Zr59  1  0.69227322  0.09366021  0.40175430  1
  Zr  Zr60  1  0.70079060  0.70278785  0.36759856  1
  Zr  Zr61  1  0.18653159  0.00336324  0.51066939  1
  Zr  Zr62  1  0.71009445  0.70625305  0.14097176  1
  Zr  Zr63  1  0.39585482  0.01191763  0.24712060  1
  Zr  Zr64  1  0.58661305  -0.00102008  0.74702994  1
  Zr  Zr65  1  0.10215293  0.50536024  0.88321101  1
  Zr  Zr66  1  0.79487674  0.58896205  0.74119923  1
  Zr  Zr67  1  0.30285617  0.30116858  0.35831758  1
  Zr  Zr68  1  0.31513331  0.51349239  0.88871244  1
  Zr  Zr69  1  0.80313432  0.20667855  -0.01254642  1
  Zr  Zr70  1  0.40321419  0.81060587  -0.00127352  1
  Zr  Zr71  1  0.00044026  -0.01867045  0.00299141  1
  Zr  Zr72  1  0.00528626  0.18354802  0.25121942  1
  Zr  Zr73  1  0.91425028  0.50658625  0.39295426  1
  Zr  Zr74  1  0.29261416  0.11135236  0.37828832  1
  Zr  Zr75  1  0.11042820  0.28719180  0.36848825  1
  Zr  Zr76  1  0.90316156  0.70322270  0.86227417  1
  Zr  Zr77  1  0.20476712  0.39567005  0.75601122  1
  Zr  Zr78  1  0.59445674  0.59435118  0.23734668  1
  Zr  Zr79  1  0.89496560  0.69263662  0.36803465  1
  Ta  Ta80  1  0.79125437  -0.00201042  0.24475514  1
  Ta  Ta81  1  0.69427241  0.90146406  0.62343222  1
  Ta  Ta82  1  0.79216085  0.79875777  0.50746024  1
  Ta  Ta83  1  0.59107148  0.21636505  0.76714526  1
  Ta  Ta84  1  0.10232634  0.09443195  0.11129334  1
  Ta  Ta85  1  0.09879940  0.09634169  0.87470091  1
  Ta  Ta86  1  0.79719028  0.60553217  0.51215821  1
  Ta  Ta87  1  0.19818878  0.80489259  0.26564766  1
  Ta  Ta88  1  0.19944980  0.80027121  0.48165712  1
  Ta  Ta89  1  0.89071587  0.89054330  0.14033389  1
  Ta  Ta90  1  0.69207126  0.10342584  0.11451181  1
  Ta  Ta91  1  0.39840893  0.60847193  0.49865662  1
  Ta  Ta92  1  0.40013725  0.60269529  0.24512034  1
  Ta  Ta93  1  0.09859153  0.89215062  0.63409830  1
  Ta  Ta94  1  0.50112828  0.70093283  0.37674913  1
  Ta  Ta95  1  0.18896017  0.00326044  0.24859858  1
  Ta  Ta96  1  0.40847259  0.39916784  0.00728409  1
  Ta  Ta97  1  0.69740523  0.09978121  0.86473795  1
  Ta  Ta98  1  0.70387217  0.50606338  0.38068727  1
  Ta  Ta99  1  0.90758198  0.48893023  0.61983744  1
  Ta  Ta100  1  0.89817807  0.69301729  0.14498889  1
  Ta  Ta101  1  0.71259467  0.49666559  0.11650356  1
  Ta  Ta102  1  0.49310781  0.10529287  0.87165505  1
  Ta  Ta103  1  0.60754060  0.39741721  0.24995805  1
  Ta  Ta104  1  0.50043752  0.29476244  0.36524318  1
  Ta  Ta105  1  0.50932142  0.29768436  0.12548563  1
  Ta  Ta106  1  0.29066283  0.89645144  0.62238515  1
  Ta  Ta107  1  0.60084058  0.60329603  0.01064361  1
  Ta  Ta108  1  0.09867845  0.69632257  0.13889229  1
  Ta  Ta109  1  0.29351403  0.91143366  0.38066987  1
  Ta  Ta110  1  0.59620812  0.19583829  0.25260950  1
  Ta  Ta111  1  -0.00350451  0.60554825  0.01457279  1
  Ta  Ta112  1  0.59818283  0.79759833  0.50793882  1
  Ta  Ta113  1  0.00402205  0.58915052  0.73886602  1
  Ta  Ta114  1  0.79905888  0.39120668  0.75494464  1
  Ta  Ta115  1  -0.00186976  0.79470016  0.01870566  1
  Ta  Ta116  1  0.09903979  0.49611617  0.61202306  1
  Ta  Ta117  1  0.60620448  0.40730897  0.77239846  1
  Ta  Ta118  1  0.40745746  0.19481469  0.23352252  1
  Ta  Ta119  1  0.20374823  0.19275971  -0.00397704  1
  Ti  Ti120  1  0.68530445  0.70056261  0.63754466  1
  Ti  Ti121  1  0.30807735  0.29601955  0.87992751  1
  Ti  Ti122  1  0.60049027  0.60946579  0.49922659  1
  Ti  Ti123  1  0.00014998  -0.00334065  0.24310441  1
  Ti  Ti124  1  0.69367992  0.29829582  0.38200007  1
  Ti  Ti125  1  0.38928705  0.00912544  0.51460661  1
  Ti  Ti126  1  0.20934988  0.60565869  0.49711554  1
  Ti  Ti127  1  0.00323018  0.20132866  -0.01645264  1
  Ti  Ti128  1  0.30013476  0.70952644  0.62639971  1
  Ti  Ti129  1  0.80677514  0.81064691  0.72601195  1
  Ti  Ti130  1  0.20205865  0.19655703  0.52347957  1
  Ti  Ti131  1  0.69888646  0.90358530  0.39036790  1
  Ti  Ti132  1  0.49633545  0.89786973  0.61711702  1
  Ti  Ti133  1  0.80675216  -0.00291133  0.52485373  1
  Ti  Ti134  1  0.30897010  0.29423211  0.63554777  1
  Ti  Ti135  1  0.80236895  0.19675457  0.75634356  1
  Ti  Ti136  1  0.30808289  0.51139948  0.11017021  1
  Ti  Ti137  1  -0.00092756  0.56721127  0.22760902  1
  Ti  Ti138  1  0.50659731  0.51322625  0.88517263  1
  Ti  Ti139  1  0.39512981  0.20698309  0.50610346  1
  Ti  Ti140  1  0.59762668  0.20018481  -0.01264348  1
  Ti  Ti141  1  0.19139504  0.60731230  0.00974721  1
  Ti  Ti142  1  0.49649365  0.10591590  0.39272189  1
  Ti  Ti143  1  0.60191953  0.80824494  0.25467531  1
  Ti  Ti144  1  0.00889734  0.19359440  0.50430051  1
  Ti  Ti145  1  0.19943902  -0.00083055  0.00127577  1
  Ti  Ti146  1  0.19848003  0.00868234  0.73644447  1
  Ti  Ti147  1  0.29355802  0.09933101  0.86800420  1
  Ti  Ti148  1  0.70611092  0.30212333  0.87451495  1
  Ti  Ti149  1  0.30085891  0.50809443  0.37504873  1
  Ti  Ti150  1  0.29202687  0.90087218  0.85765521  1
  Ti  Ti151  1  0.08578641  0.10993373  0.63609233  1
  Ti  Ti152  1  0.89957094  0.89091113  0.86284173  1
  Ti  Ti153  1  0.40194530  0.20270362  0.75270787  1
  Ti  Ti154  1  0.40475490  0.80694499  0.74172089  1
  Ti  Ti155  1  0.80205633  0.59976248  0.00461095  1
  Ti  Ti156  1  0.09685903  0.09057007  0.37939154  1
  Ti  Ti157  1  0.30041228  0.29254143  0.13049067  1
  Ti  Ti158  1  0.28911177  0.90683631  0.13774699  1
  Ti  Ti159  1  0.20513398  0.59841396  0.24509974  1
  Mo  Mo160  1  0.29734171  0.10647631  0.62847243  1
  Mo  Mo161  1  0.59422920  -0.00417201  0.51315964  1
  Mo  Mo162  1  0.90169873  0.29518736  0.86004807  1
  Mo  Mo163  1  0.50141568  0.30123637  0.62728783  1
  Mo  Mo164  1  0.41702149  0.60334710  0.02080338  1
  Mo  Mo165  1  0.10124045  0.29403886  0.61677142  1
  Mo  Mo166  1  0.50592641  0.10900821  0.11398891  1
  Mo  Mo167  1  0.20787269  0.80774090  0.74615475  1
  Mo  Mo168  1  0.00000590  0.00278271  0.51727177  1
  Mo  Mo169  1  0.00126566  0.19650879  0.76469512  1
  Mo  Mo170  1  0.79848827  0.40300157  -0.01726157  1
  Mo  Mo171  1  0.79639069  0.81039332  0.26226134  1
  Mo  Mo172  1  0.49890929  0.29959027  0.88814579  1
  Mo  Mo173  1  0.10631121  0.50445815  0.11360369  1
  Mo  Mo174  1  0.59808494  0.59547047  0.75737889  1
  Mo  Mo175  1  0.80176106  0.59209296  0.24457825  1
  Mo  Mo176  1  0.10050881  0.91034448  0.37037872  1
  Mo  Mo177  1  -0.00071186  0.79830403  0.73737023  1
  Mo  Mo178  1  0.50299134  0.69940023  0.13386941  1
  Mo  Mo179  1  0.00435271  0.59703469  0.51529673  1
  Mo  Mo180  1  0.10032349  0.89881469  0.13905405  1
  Mo  Mo181  1  0.60068566  0.39723030  0.47674653  1
  Mo  Mo182  1  0.70109029  0.50231675  0.88844235  1
  Mo  Mo183  1  0.29233782  0.09882447  0.12500822  1
  Mo  Mo184  1  0.70218073  0.90422100  0.13558171  1
  Mo  Mo185  1  0.20635643  0.18968661  0.22773202  1
  Mo  Mo186  1  0.50055108  0.70299524  0.61451604  1
  Mo  Mo187  1  0.00875317  0.38768691  0.51810726  1
  Mo  Mo188  1  0.10483200  0.29223222  0.89578274  1
  Mo  Mo189  1  0.89762936  0.10370686  0.61883238  1
  Mo  Mo190  1  0.89548144  0.50143302  0.10914367  1
  Mo  Mo191  1  0.79457639  -0.00212438  0.74369057  1
  Mo  Mo192  1  0.50618795  0.49709607  0.11728888  1
  Mo  Mo193  1  0.29698503  0.69320265  0.37033035  1
  Mo  Mo194  1  0.58828827  0.79574316  0.72737116  1
  Mo  Mo195  1  0.89764498  0.89753949  0.61139465  1
  Mo  Mo196  1  0.79939123  0.20088856  0.49217569  1
  Mo  Mo197  1  0.00460266  0.40068168  0.23326902  1
  Mo  Mo198  1  0.59027892  0.20780551  0.48443755  1
  Mo  Mo199  1  0.49022548  0.89920062  0.85424055  1
