# generated using pymatgen
data_HfZrTaTiMo
_symmetry_space_group_name_H-M   'P 1'
_cell_length_a   15.93912624
_cell_length_b   15.92675043
_cell_length_c   15.19966467
_cell_angle_alpha   90.04255747
_cell_angle_beta   90.03991775
_cell_angle_gamma   89.92847976
_symmetry_Int_Tables_number   1
_chemical_formula_structural   HfZrTaTiMo
_chemical_formula_sum   'Hf40 Zr40 Ta40 Ti40 Mo40'
_cell_volume   3858.55885065
_cell_formula_units_Z   40
loop_
 _symmetry_equiv_pos_site_id
 _symmetry_equiv_pos_as_xyz
  1  'x, y, z'
loop_
 _atom_site_type_symbol
 _atom_site_label
 _atom_site_symmetry_multiplicity
 _atom_site_fract_x
 _atom_site_fract_y
 _atom_site_fract_z
 _atom_site_occupancy
  Hf  Hf0  1  0.20320143  0.59512794  0.74176314  1
  Hf  Hf1  1  -0.00343144  0.60214863  0.74170754  1
  Hf  Hf2  1  0.11136564  0.10439184  0.88696827  1
  Hf  Hf3  1  0.50494359  0.50427267  0.13134164  1
  Hf  Hf4  1  0.39528094  0.20118092  0.73748575  1
  Hf  Hf5  1  0.19933545  0.59046657  0.01801944  1
  Hf  Hf6  1  0.89510846  0.90540095  0.63751875  1
  Hf  Hf7  1  -0.00520697  0.20401773  0.76170582  1
  Hf  Hf8  1  0.67823524  0.51270934  0.35877475  1
  Hf  Hf9  1  0.31046628  0.69321584  0.60366674  1
  Hf  Hf10  1  0.30176562  0.49204281  0.87785550  1
  Hf  Hf11  1  0.30449804  0.09654942  0.88650924  1
  Hf  Hf12  1  0.78919240  0.41087390  0.76159305  1
  Hf  Hf13  1  0.68953530  0.30879375  0.35995337  1
  Hf  Hf14  1  0.50210245  0.09162294  0.62856982  1
  Hf  Hf15  1  0.10940502  0.49968333  0.36475128  1
  Hf  Hf16  1  0.20689216  -0.00844217  0.25259934  1
  Hf  Hf17  1  0.41437120  0.80463457  0.48293765  1
  Hf  Hf18  1  0.19557956  0.39399469  0.01265126  1
  Hf  Hf19  1  0.51648324  0.68652570  0.36303597  1
  Hf  Hf20  1  0.31205805  0.50027882  0.61769804  1
  Hf  Hf21  1  0.00388538  0.80184668  0.75511093  1
  Hf  Hf22  1  0.49579352  0.09367445  0.86096799  1
  Hf  Hf23  1  0.61345754  0.79407392  0.23074142  1
  Hf  Hf24  1  0.30439273  0.89256956  0.61264830  1
  Hf  Hf25  1  0.89308723  0.29670182  0.12080279  1
  Hf  Hf26  1  0.80295432  0.80828554  0.00447976  1
  Hf  Hf27  1  0.78936947  0.19815861  0.48121161  1
  Hf  Hf28  1  0.01289707  0.59258236  0.50809062  1
  Hf  Hf29  1  0.80876102  0.80542275  0.23550206  1
  Hf  Hf30  1  0.59855183  -0.00083531  0.48014005  1
  Hf  Hf31  1  0.09665884  0.68540985  0.88291125  1
  Hf  Hf32  1  0.69525219  0.90095328  0.87076704  1
  Hf  Hf33  1  0.59565301  0.00177554  -0.00063970  1
  Hf  Hf34  1  0.00108939  0.39340295  0.49287831  1
  Hf  Hf35  1  -0.00007060  0.39986925  0.24145444  1
  Hf  Hf36  1  0.79671320  0.60646691  0.23137706  1
  Hf  Hf37  1  0.09824245  0.89437565  0.13778283  1
  Hf  Hf38  1  0.20072803  -0.00560864  0.74354638  1
  Hf  Hf39  1  0.90246643  0.51555628  0.89649882  1
  Zr  Zr40  1  0.88989901  0.11325083  0.89464002  1
  Zr  Zr41  1  0.40774184  0.38443867  0.74718881  1
  Zr  Zr42  1  0.89340365  0.70560532  0.61519070  1
  Zr  Zr43  1  0.50155957  0.29148053  0.13675754  1
  Zr  Zr44  1  0.88771210  0.49995405  0.62205327  1
  Zr  Zr45  1  0.28785493  0.09511280  0.39205747  1
  Zr  Zr46  1  0.50893642  0.69799800  0.62454226  1
  Zr  Zr47  1  0.31329133  0.90518583  0.88626609  1
  Zr  Zr48  1  0.78933538  0.21309112  0.75647282  1
  Zr  Zr49  1  0.89451808  0.50451023  0.37219967  1
  Zr  Zr50  1  0.09017594  0.08797844  0.61923933  1
  Zr  Zr51  1  0.50890372  0.49392935  0.87953047  1
  Zr  Zr52  1  0.70263925  0.69811862  0.62382063  1
  Zr  Zr53  1  0.29870568  0.50454768  0.39464946  1
  Zr  Zr54  1  -0.00252887  0.80048554  -0.00835303  1
  Zr  Zr55  1  0.90974836  0.70274479  0.37073896  1
  Zr  Zr56  1  0.00992198  0.81192152  0.49780642  1
  Zr  Zr57  1  0.89309420  0.09925569  0.63119640  1
  Zr  Zr58  1  -0.01078619  -0.00608003  0.47697729  1
  Zr  Zr59  1  0.88643564  0.30317506  0.62019851  1
  Zr  Zr60  1  0.20383469  0.79572534  0.00649010  1
  Zr  Zr61  1  0.09073869  0.10174968  0.35627832  1
  Zr  Zr62  1  -0.01076693  0.19949949  0.48452890  1
  Zr  Zr63  1  0.20301488  0.20255827  0.73963800  1
  Zr  Zr64  1  0.20812035  0.79431771  0.75425668  1
  Zr  Zr65  1  0.79620271  0.00289353  0.47609651  1
  Zr  Zr66  1  0.38999094  0.60958111  0.24192010  1
  Zr  Zr67  1  0.69393287  0.10058227  0.63449790  1
  Zr  Zr68  1  0.00762215  0.21073416  0.00442139  1
  Zr  Zr69  1  0.29866518  0.09111439  0.60584496  1
  Zr  Zr70  1  0.49752571  0.90239409  0.12792628  1
  Zr  Zr71  1  0.69114874  0.10437683  0.13375461  1
  Zr  Zr72  1  0.69549017  0.89933883  0.64074783  1
  Zr  Zr73  1  0.30253064  0.09671630  0.12241239  1
  Zr  Zr74  1  -0.00458384  -0.00571386  0.00477929  1
  Zr  Zr75  1  0.38663298  0.40357417  0.25034824  1
  Zr  Zr76  1  0.51688000  0.49325659  0.64075630  1
  Zr  Zr77  1  0.18347974  0.21761406  0.49796415  1
  Zr  Zr78  1  0.38805523  0.19944680  0.27255277  1
  Zr  Zr79  1  0.69736737  0.30383571  0.90023898  1
  Ta  Ta80  1  0.69452570  0.30242962  0.13131857  1
  Ta  Ta81  1  0.59038224  0.22071332  0.74922417  1
  Ta  Ta82  1  0.11318436  0.69377279  0.37145925  1
  Ta  Ta83  1  0.60249027  0.80010965  0.00055972  1
  Ta  Ta84  1  0.89682562  0.30073544  0.35833324  1
  Ta  Ta85  1  0.39876451  -0.00712592  0.26796497  1
  Ta  Ta86  1  0.39983468  0.59939139  0.00473076  1
  Ta  Ta87  1  0.08901823  0.30665662  0.63846436  1
  Ta  Ta88  1  0.49790319  0.09641447  0.14721436  1
  Ta  Ta89  1  0.41037807  -0.00558031  0.48272296  1
  Ta  Ta90  1  0.30806127  0.69578043  0.88676410  1
  Ta  Ta91  1  0.40674207  0.20478265  0.49529111  1
  Ta  Ta92  1  0.68195930  0.31434939  0.61321089  1
  Ta  Ta93  1  0.70361467  0.70240663  0.37770820  1
  Ta  Ta94  1  0.49548862  0.70603863  0.11612267  1
  Ta  Ta95  1  0.59450265  0.19859215  0.48528436  1
  Ta  Ta96  1  0.89952742  0.09979371  0.13167138  1
  Ta  Ta97  1  0.79757979  -0.00194079  0.00811165  1
  Ta  Ta98  1  0.31500310  0.88947194  0.12552115  1
  Ta  Ta99  1  0.00523614  0.59844803  0.23494166  1
  Ta  Ta100  1  0.79734032  0.19912036  0.25051672  1
  Ta  Ta101  1  0.40468912  0.60572570  0.76222663  1
  Ta  Ta102  1  0.79655977  0.40698116  0.23970522  1
  Ta  Ta103  1  0.10560768  0.30755386  0.87265339  1
  Ta  Ta104  1  0.80056707  0.81324449  0.48301729  1
  Ta  Ta105  1  0.10011715  0.10320304  0.13422442  1
  Ta  Ta106  1  0.49818796  0.31255306  0.37488880  1
  Ta  Ta107  1  0.78818546  0.40228776  0.48533425  1
  Ta  Ta108  1  0.29700281  0.69709666  0.39074350  1
  Ta  Ta109  1  -0.00542759  0.40258251  0.75965858  1
  Ta  Ta110  1  0.09966248  0.49398187  0.87149603  1
  Ta  Ta111  1  0.90819946  0.69669225  0.11366778  1
  Ta  Ta112  1  0.20648480  0.59773878  0.23226095  1
  Ta  Ta113  1  0.10512183  0.90521006  0.87531459  1
  Ta  Ta114  1  0.49835487  0.90012783  0.86651162  1
  Ta  Ta115  1  0.11228062  0.70684765  0.61402923  1
  Ta  Ta116  1  0.60784557  0.80527911  0.49126239  1
  Ta  Ta117  1  0.80150122  0.00363211  0.77280055  1
  Ta  Ta118  1  0.29867574  0.29150007  0.88979466  1
  Ta  Ta119  1  0.20229484  0.39632788  0.74459273  1
  Ti  Ti120  1  0.43193240  0.58255618  0.48879377  1
  Ti  Ti121  1  0.50863679  0.89294593  0.35322646  1
  Ti  Ti122  1  0.30413467  0.30667666  0.60462319  1
  Ti  Ti123  1  -0.00215200  -0.00058604  0.76663140  1
  Ti  Ti124  1  -0.01295946  -0.00825907  0.24998298  1
  Ti  Ti125  1  0.59631433  0.39935263  0.01307061  1
  Ti  Ti126  1  0.69938116  0.89913461  0.35698732  1
  Ti  Ti127  1  0.89757877  0.31252143  0.89468679  1
  Ti  Ti128  1  0.79627796  -0.00191359  0.24369077  1
  Ti  Ti129  1  0.79958551  0.40994947  0.01580483  1
  Ti  Ti130  1  0.69510082  0.50645082  0.11921143  1
  Ti  Ti131  1  0.79871595  0.60634614  0.76387093  1
  Ti  Ti132  1  0.20002881  -0.00387919  0.01383709  1
  Ti  Ti133  1  0.69406064  0.10774074  0.87929587  1
  Ti  Ti134  1  0.58724918  0.41466794  0.48987131  1
  Ti  Ti135  1  0.28748825  0.31603969  0.39177734  1
  Ti  Ti136  1  0.10087266  0.70174555  0.13331559  1
  Ti  Ti137  1  0.59971617  0.78872001  0.76320438  1
  Ti  Ti138  1  0.79112249  0.59946556  0.49303512  1
  Ti  Ti139  1  0.18374114  0.41257921  0.52026608  1
  Ti  Ti140  1  0.00770454  0.41204209  0.01278113  1
  Ti  Ti141  1  0.22103736  0.78720996  0.24800565  1
  Ti  Ti142  1  0.20350419  0.40242685  0.23492395  1
  Ti  Ti143  1  0.10060274  0.88056584  0.35166686  1
  Ti  Ti144  1  0.59352157  0.19746061  0.00210359  1
  Ti  Ti145  1  0.40486916  0.79341491  0.75569009  1
  Ti  Ti146  1  0.39766106  0.39636755  0.00984122  1
  Ti  Ti147  1  0.29807399  0.28845179  0.11708221  1
  Ti  Ti148  1  0.10241199  0.29189769  0.13544336  1
  Ti  Ti149  1  0.49803525  0.29899031  0.88611981  1
  Ti  Ti150  1  0.19764684  0.21214796  0.25849409  1
  Ti  Ti151  1  0.50384606  0.90136871  0.64081234  1
  Ti  Ti152  1  0.69755714  0.50540505  0.89669306  1
  Ti  Ti153  1  0.70442388  0.69015931  0.89506170  1
  Ti  Ti154  1  0.60967870  0.59874695  0.76687503  1
  Ti  Ti155  1  0.81042134  0.79198622  0.77487681  1
  Ti  Ti156  1  0.50277124  0.69913328  0.88875052  1
  Ti  Ti157  1  0.69609698  0.50212855  0.62184873  1
  Ti  Ti158  1  0.40732948  0.19290252  0.00421931  1
  Ti  Ti159  1  0.18481645  -0.02993757  0.49131007  1
  Mo  Mo160  1  0.10138818  0.49602881  0.13800289  1
  Mo  Mo161  1  0.19537382  0.59992098  0.51195572  1
  Mo  Mo162  1  0.89813716  0.89931193  0.35344122  1
  Mo  Mo163  1  0.89609453  0.69778406  0.88678688  1
  Mo  Mo164  1  0.60091411  -0.00174156  0.25768522  1
  Mo  Mo165  1  0.50150140  0.49749521  0.35728642  1
  Mo  Mo166  1  0.59395480  0.19946940  0.26585434  1
  Mo  Mo167  1  0.70055734  0.90559944  0.11841191  1
  Mo  Mo168  1  0.40497544  0.39697330  0.49675410  1
  Mo  Mo169  1  0.30700222  0.70421707  0.11336582  1
  Mo  Mo170  1  0.60153964  0.00405227  0.76271843  1
  Mo  Mo171  1  0.50531353  0.29634293  0.60211546  1
  Mo  Mo172  1  0.79955371  0.60236743  0.00885134  1
  Mo  Mo173  1  0.10413885  0.30891094  0.35818800  1
  Mo  Mo174  1  0.00754813  0.79067268  0.24730419  1
  Mo  Mo175  1  0.30458012  0.49396539  0.11345462  1
  Mo  Mo176  1  0.60419950  0.60812262  0.22207186  1
  Mo  Mo177  1  0.89939069  0.50073232  0.11714712  1
  Mo  Mo178  1  0.00644684  0.59527969  0.01835586  1
  Mo  Mo179  1  -0.00224544  0.19999389  0.24125426  1
  Mo  Mo180  1  0.69965468  0.69912538  0.10309963  1
  Mo  Mo181  1  0.49661142  0.10152311  0.36985354  1
  Mo  Mo182  1  0.90107207  0.90448709  0.13520155  1
  Mo  Mo183  1  0.09873478  0.49538117  0.64271804  1
  Mo  Mo184  1  0.39847135  0.79927064  0.26486783  1
  Mo  Mo185  1  0.69289048  0.10026041  0.35500176  1
  Mo  Mo186  1  0.40172170  -0.00969730  0.73460174  1
  Mo  Mo187  1  0.10110851  0.90045680  0.64035443  1
  Mo  Mo188  1  0.61015525  0.39440112  0.75704339  1
  Mo  Mo189  1  0.60831175  0.60194299  0.50242323  1
  Mo  Mo190  1  0.89184609  0.10125788  0.34600916  1
  Mo  Mo191  1  0.20095096  0.79989560  0.48946429  1
  Mo  Mo192  1  0.59851426  0.40342839  0.23804623  1
  Mo  Mo193  1  0.20213663  0.20190601  0.00886170  1
  Mo  Mo194  1  0.89871302  0.90410191  0.86436581  1
  Mo  Mo195  1  0.59999649  0.60305401  0.00114021  1
  Mo  Mo196  1  0.40919871  0.79905587  -0.01293098  1
  Mo  Mo197  1  0.40543759  0.00281325  0.01466310  1
  Mo  Mo198  1  0.30084598  0.89083510  0.37463620  1
  Mo  Mo199  1  0.79264545  0.19848126  0.01846668  1
