# generated using pymatgen
data_HfZrTaTiMo
_symmetry_space_group_name_H-M   'P 1'
_cell_length_a   15.93311454
_cell_length_b   15.92969030
_cell_length_c   15.17000280
_cell_angle_alpha   89.98751760
_cell_angle_beta   89.94808033
_cell_angle_gamma   89.97194261
_symmetry_Int_Tables_number   1
_chemical_formula_structural   HfZrTaTiMo
_chemical_formula_sum   'Hf40 Zr40 Ta40 Ti40 Mo40'
_cell_volume   3850.28990564
_cell_formula_units_Z   40
loop_
 _symmetry_equiv_pos_site_id
 _symmetry_equiv_pos_as_xyz
  1  'x, y, z'
loop_
 _atom_site_type_symbol
 _atom_site_label
 _atom_site_symmetry_multiplicity
 _atom_site_fract_x
 _atom_site_fract_y
 _atom_site_fract_z
 _atom_site_occupancy
  Hf  Hf0  1  0.00191693  0.00442595  0.24948545  1
  Hf  Hf1  1  0.20170013  0.61508077  -0.00072187  1
  Hf  Hf2  1  0.60296969  0.39490101  0.49232852  1
  Hf  Hf3  1  0.70113083  0.51489749  0.36589047  1
  Hf  Hf4  1  0.29932790  0.48870621  0.89506380  1
  Hf  Hf5  1  0.28293212  0.09893510  0.13633513  1
  Hf  Hf6  1  0.00913543  0.40482419  0.49661210  1
  Hf  Hf7  1  0.80010922  0.20874076  0.25246171  1
  Hf  Hf8  1  0.19587496  0.79600913  0.76684269  1
  Hf  Hf9  1  0.49958028  0.89916233  0.12941291  1
  Hf  Hf10  1  0.90236208  0.50161417  0.11322626  1
  Hf  Hf11  1  0.39647521  0.79580003  0.25514363  1
  Hf  Hf12  1  0.79893622  -0.00393133  0.76409953  1
  Hf  Hf13  1  0.79656197  0.62092006  0.52230682  1
  Hf  Hf14  1  0.00671904  0.39036519  0.75515402  1
  Hf  Hf15  1  0.01086149  -0.00526460  0.51164171  1
  Hf  Hf16  1  0.60922207  -0.00195005  0.00161980  1
  Hf  Hf17  1  0.68788425  0.50248944  0.88276753  1
  Hf  Hf18  1  0.58167671  0.40584437  0.75217696  1
  Hf  Hf19  1  0.90351155  0.49492367  0.88715975  1
  Hf  Hf20  1  0.50206847  0.10405660  0.87329105  1
  Hf  Hf21  1  0.69968441  0.49196403  0.63158245  1
  Hf  Hf22  1  0.50987298  0.69499959  0.36565281  1
  Hf  Hf23  1  0.90226201  0.90540065  0.11984066  1
  Hf  Hf24  1  0.50220489  0.09561426  0.61239438  1
  Hf  Hf25  1  0.69702609  0.29715586  0.87398993  1
  Hf  Hf26  1  0.28160851  0.89919713  0.37755770  1
  Hf  Hf27  1  0.60835313  0.40330023  0.22977582  1
  Hf  Hf28  1  0.30235545  0.68784313  0.63471409  1
  Hf  Hf29  1  0.80254314  0.59881450  0.75142416  1
  Hf  Hf30  1  0.89861656  0.89189220  0.38741906  1
  Hf  Hf31  1  0.40274667  0.00394703  0.26747518  1
  Hf  Hf32  1  0.90559277  0.10707342  0.39403528  1
  Hf  Hf33  1  0.20776937  0.21537216  0.73656086  1
  Hf  Hf34  1  0.70760802  0.70883629  0.34829980  1
  Hf  Hf35  1  0.08616064  0.11906641  0.86374939  1
  Hf  Hf36  1  0.50151707  0.50334575  0.36387586  1
  Hf  Hf37  1  0.39988378  0.19837798  0.47439006  1
  Hf  Hf38  1  0.50292746  0.89217921  0.87997295  1
  Hf  Hf39  1  0.89420175  0.29466496  0.61720561  1
  Zr  Zr40  1  0.29830502  0.89571436  0.12182659  1
  Zr  Zr41  1  0.11788509  0.30373483  0.89746583  1
  Zr  Zr42  1  0.01494218  0.80790434  -0.01158130  1
  Zr  Zr43  1  0.20156945  0.40936606  0.24944749  1
  Zr  Zr44  1  0.80138446  0.00503477  -0.01092406  1
  Zr  Zr45  1  0.30769597  0.10161455  0.61834897  1
  Zr  Zr46  1  0.89414208  0.09762805  0.61426557  1
  Zr  Zr47  1  0.29658951  0.11714414  0.87964012  1
  Zr  Zr48  1  0.69097468  0.69625075  0.87906015  1
  Zr  Zr49  1  0.18305763  -0.00129438  -0.01299163  1
  Zr  Zr50  1  0.18693848  0.79408241  0.51384959  1
  Zr  Zr51  1  0.48856174  0.29811103  0.61087218  1
  Zr  Zr52  1  0.40149319  0.58506000  0.76843881  1
  Zr  Zr53  1  0.40052369  0.00462779  0.00144931  1
  Zr  Zr54  1  0.80385401  0.00867004  0.25928124  1
  Zr  Zr55  1  0.10539297  0.29107392  0.12111211  1
  Zr  Zr56  1  0.89797007  0.51213597  0.36796791  1
  Zr  Zr57  1  0.49818589  0.90260158  0.61904287  1
  Zr  Zr58  1  0.61187701  0.78774246  0.51202699  1
  Zr  Zr59  1  -0.00032127  0.40047231  0.25914896  1
  Zr  Zr60  1  0.90759595  0.29919082  0.11777006  1
  Zr  Zr61  1  0.20115058  0.58732337  0.50262428  1
  Zr  Zr62  1  0.39814816  0.79451242  0.49065231  1
  Zr  Zr63  1  0.79596217  0.39567942  0.49334822  1
  Zr  Zr64  1  0.00076319  0.60452106  0.51494132  1
  Zr  Zr65  1  0.89765006  0.70309412  0.36393127  1
  Zr  Zr66  1  0.48206532  0.49882193  0.61200624  1
  Zr  Zr67  1  0.60895505  0.20154669  0.02068389  1
  Zr  Zr68  1  0.37973019  0.40114478  0.47267323  1
  Zr  Zr69  1  0.60259513  0.20473973  0.73884143  1
  Zr  Zr70  1  0.70337306  0.88877594  0.14709938  1
  Zr  Zr71  1  0.70588736  0.10772382  0.60901439  1
  Zr  Zr72  1  -0.00601230  -0.00392370  0.75106678  1
  Zr  Zr73  1  0.09651741  0.70413927  0.37061219  1
  Zr  Zr74  1  0.49214262  0.30102699  0.89147168  1
  Zr  Zr75  1  0.88478853  0.70039631  0.11977066  1
  Zr  Zr76  1  0.30272370  0.89998144  0.62636397  1
  Zr  Zr77  1  0.79724729  0.80902398  -0.02030835  1
  Zr  Zr78  1  0.79106883  0.38887715  0.00256378  1
  Zr  Zr79  1  0.80352392  0.80323121  0.74417786  1
  Ta  Ta80  1  0.80704410  0.19043010  -0.00007068  1
  Ta  Ta81  1  0.91826271  0.28399953  0.88309332  1
  Ta  Ta82  1  0.59124923  0.60451821  0.74160748  1
  Ta  Ta83  1  0.10882332  0.10025360  0.37028585  1
  Ta  Ta84  1  0.40096260  0.00039073  0.75776981  1
  Ta  Ta85  1  0.80248929  0.39099165  0.75551885  1
  Ta  Ta86  1  0.39368700  0.59924306  0.48317553  1
  Ta  Ta87  1  0.48905401  0.70245621  0.11354087  1
  Ta  Ta88  1  0.39854398  0.40206885  0.24230264  1
  Ta  Ta89  1  0.60417580  -0.00510491  0.74961854  1
  Ta  Ta90  1  0.10523409  0.49669022  0.63867859  1
  Ta  Ta91  1  0.10228334  0.28827471  0.37471631  1
  Ta  Ta92  1  0.59858147  0.79845106  0.74424657  1
  Ta  Ta93  1  0.01803745  0.19820283  0.51078381  1
  Ta  Ta94  1  0.38493874  0.38578775  0.75841771  1
  Ta  Ta95  1  0.70772236  0.90807678  0.61135634  1
  Ta  Ta96  1  0.09631589  0.89881984  0.37300045  1
  Ta  Ta97  1  0.40064683  0.19841734  0.25314887  1
  Ta  Ta98  1  0.70458663  0.89472427  0.37812159  1
  Ta  Ta99  1  0.90570703  0.49614194  0.63544236  1
  Ta  Ta100  1  0.20269131  0.79691726  -0.00985820  1
  Ta  Ta101  1  0.81094036  0.19817899  0.76284617  1
  Ta  Ta102  1  0.19754875  0.59265405  0.76679232  1
  Ta  Ta103  1  0.00909480  0.60518927  0.23032422  1
  Ta  Ta104  1  0.40320767  0.79165008  0.76204226  1
  Ta  Ta105  1  0.59991967  0.60050948  0.51244140  1
  Ta  Ta106  1  0.30460544  0.89832625  0.87580779  1
  Ta  Ta107  1  0.49608268  0.29723807  0.13370265  1
  Ta  Ta108  1  0.39351692  0.59704050  0.23876229  1
  Ta  Ta109  1  0.00397086  0.80331623  0.23575953  1
  Ta  Ta110  1  0.60079065  0.00595332  0.26470932  1
  Ta  Ta111  1  0.59951104  0.79712643  0.00851110  1
  Ta  Ta112  1  0.29102453  0.69130560  0.36165819  1
  Ta  Ta113  1  0.09780582  0.49783798  0.10738697  1
  Ta  Ta114  1  -0.00411660  0.80006303  0.75872980  1
  Ta  Ta115  1  0.59935353  0.60567890  0.22155070  1
  Ta  Ta116  1  0.30024929  0.29747100  0.12428868  1
  Ta  Ta117  1  0.19995517  0.00306754  0.75266473  1
  Ta  Ta118  1  0.50495634  0.30040944  0.35641455  1
  Ta  Ta119  1  0.49702898  0.68969562  0.89445994  1
  Ti  Ti120  1  0.71068089  0.51679395  0.11225144  1
  Ti  Ti121  1  0.60136738  0.00223110  0.48193627  1
  Ti  Ti122  1  0.00426142  0.59726489  0.75938891  1
  Ti  Ti123  1  0.29965250  0.50302057  0.11700815  1
  Ti  Ti124  1  0.19757805  0.60597158  0.22984956  1
  Ti  Ti125  1  0.19339750  0.79584609  0.23679304  1
  Ti  Ti126  1  0.79803448  0.40240612  0.24637764  1
  Ti  Ti127  1  0.70544746  0.09855155  0.13387973  1
  Ti  Ti128  1  0.10605610  0.90807867  0.12999910  1
  Ti  Ti129  1  0.09993361  0.49641451  0.89022761  1
  Ti  Ti130  1  0.09701242  0.69220499  0.64478399  1
  Ti  Ti131  1  0.49235684  0.69581036  0.62381513  1
  Ti  Ti132  1  0.20619613  0.39972248  0.75379907  1
  Ti  Ti133  1  0.49489917  0.50573127  0.11229477  1
  Ti  Ti134  1  0.19331654  0.00689443  0.51133923  1
  Ti  Ti135  1  0.10833377  0.30703826  0.61777532  1
  Ti  Ti136  1  0.10343039  0.50965872  0.36665912  1
  Ti  Ti137  1  0.00087021  0.19373682  0.24665258  1
  Ti  Ti138  1  0.70344824  0.10649044  0.38322475  1
  Ti  Ti139  1  -0.01164595  0.79464620  0.52956123  1
  Ti  Ti140  1  0.90401469  0.29577899  0.38301779  1
  Ti  Ti141  1  0.00756430  0.61061455  0.00064669  1
  Ti  Ti142  1  0.59686728  0.40104049  0.01509085  1
  Ti  Ti143  1  0.29508740  0.48896675  0.62960773  1
  Ti  Ti144  1  0.61067271  0.21195672  0.48625831  1
  Ti  Ti145  1  0.28477950  0.09976148  0.36934722  1
  Ti  Ti146  1  0.39792791  0.19910302  0.01716090  1
  Ti  Ti147  1  0.51366303  0.89236876  0.37139045  1
  Ti  Ti148  1  0.10053569  0.89891786  0.63906311  1
  Ti  Ti149  1  0.60391490  0.19814853  0.25234774  1
  Ti  Ti150  1  0.28956914  0.29239892  0.35487888  1
  Ti  Ti151  1  0.40377519  0.00073793  0.47824190  1
  Ti  Ti152  1  0.50103518  0.10002057  0.13725645  1
  Ti  Ti153  1  0.20378625  0.20324066  0.50498507  1
  Ti  Ti154  1  0.69676455  0.10362282  0.87116480  1
  Ti  Ti155  1  0.90377144  0.69499708  0.87841386  1
  Ti  Ti156  1  -0.00384690  0.00973685  -0.00596154  1
  Ti  Ti157  1  0.20027382  0.39914336  0.48854097  1
  Ti  Ti158  1  0.40062400  0.39724205  0.01275732  1
  Ti  Ti159  1  0.39732036  0.20710230  0.74672366  1
  Mo  Mo160  1  0.79994532  0.59626237  0.23176874  1
  Mo  Mo161  1  0.69956384  0.29736004  0.13243148  1
  Mo  Mo162  1  0.29768388  0.70122888  0.13378513  1
  Mo  Mo163  1  0.70439892  0.29995106  0.64128664  1
  Mo  Mo164  1  0.29543436  0.30955542  0.61471781  1
  Mo  Mo165  1  0.51041742  0.10340452  0.37643548  1
  Mo  Mo166  1  0.90717806  0.69619327  0.64746688  1
  Mo  Mo167  1  0.59709418  0.59802628  0.01502117  1
  Mo  Mo168  1  0.00435671  0.20506784  0.72769147  1
  Mo  Mo169  1  0.79400268  -0.00135997  0.48564309  1
  Mo  Mo170  1  0.80357226  0.80047788  0.51823482  1
  Mo  Mo171  1  0.69463399  0.69898332  0.11994241  1
  Mo  Mo172  1  0.79537152  0.20908341  0.48026320  1
  Mo  Mo173  1  0.20313248  0.19594193  0.01503236  1
  Mo  Mo174  1  0.19392197  -0.00697781  0.25704640  1
  Mo  Mo175  1  0.19726686  0.19742705  0.25124541  1
  Mo  Mo176  1  0.10497833  0.10407839  0.63347842  1
  Mo  Mo177  1  0.90294577  0.10250317  0.12008473  1
  Mo  Mo178  1  0.09395389  0.09422879  0.13346759  1
  Mo  Mo179  1  0.49990719  0.49903038  0.89940370  1
  Mo  Mo180  1  0.00382019  0.40015636  -0.00952005  1
  Mo  Mo181  1  0.29439501  0.50708031  0.35414929  1
  Mo  Mo182  1  0.69366717  0.69881866  0.64213070  1
  Mo  Mo183  1  0.10286230  0.90538929  0.86458583  1
  Mo  Mo184  1  0.90166071  0.10594481  0.87450182  1
  Mo  Mo185  1  0.90528234  0.90118891  0.88407632  1
  Mo  Mo186  1  0.00206792  0.18648586  0.01429514  1
  Mo  Mo187  1  0.79996898  0.60108101  -0.00827536  1
  Mo  Mo188  1  0.39336691  0.79238074  -0.01039643  1
  Mo  Mo189  1  0.39780260  0.59819583  0.00927559  1
  Mo  Mo190  1  0.68904658  0.90110435  0.86456075  1
  Mo  Mo191  1  0.89571837  0.89796923  0.61317146  1
  Mo  Mo192  1  0.09532213  0.69305340  0.86525416  1
  Mo  Mo193  1  0.30565254  0.29893874  0.89962738  1
  Mo  Mo194  1  0.59442824  0.80048849  0.24002259  1
  Mo  Mo195  1  0.80711701  0.80339746  0.24654118  1
  Mo  Mo196  1  0.20663512  0.40496329  0.01782473  1
  Mo  Mo197  1  0.10003884  0.70579605  0.12587228  1
  Mo  Mo198  1  0.69777619  0.30480828  0.35375374  1
  Mo  Mo199  1  0.30361119  0.69932015  0.87253758  1
