# generated using pymatgen
data_HfZrTaTiMo
_symmetry_space_group_name_H-M   'P 1'
_cell_length_a   15.91821539
_cell_length_b   15.93537310
_cell_length_c   15.20975442
_cell_angle_alpha   89.95638405
_cell_angle_beta   90.01488746
_cell_angle_gamma   90.01394808
_symmetry_Int_Tables_number   1
_chemical_formula_structural   HfZrTaTiMo
_chemical_formula_sum   'Hf40 Zr40 Ta40 Ti40 Mo40'
_cell_volume   3858.14603015
_cell_formula_units_Z   40
loop_
 _symmetry_equiv_pos_site_id
 _symmetry_equiv_pos_as_xyz
  1  'x, y, z'
loop_
 _atom_site_type_symbol
 _atom_site_label
 _atom_site_symmetry_multiplicity
 _atom_site_fract_x
 _atom_site_fract_y
 _atom_site_fract_z
 _atom_site_occupancy
  Hf  Hf0  1  0.70667862  0.09939808  0.36664063  1
  Hf  Hf1  1  0.30444105  0.10225254  0.38549521  1
  Hf  Hf2  1  0.10032588  0.30490080  0.37860191  1
  Hf  Hf3  1  0.09510727  0.49207929  0.13113837  1
  Hf  Hf4  1  0.50221992  0.49882121  0.61927128  1
  Hf  Hf5  1  0.70337209  0.10499858  0.86989698  1
  Hf  Hf6  1  0.79808126  0.20401857  0.00896139  1
  Hf  Hf7  1  -0.01208557  0.78062357  -0.01503981  1
  Hf  Hf8  1  0.49819436  0.10831935  0.63098004  1
  Hf  Hf9  1  0.40369064  0.00337853  0.00958619  1
  Hf  Hf10  1  0.69005811  0.50190150  0.13786263  1
  Hf  Hf11  1  0.20928285  0.59676644  0.25412583  1
  Hf  Hf12  1  0.49594792  0.09684093  0.86374210  1
  Hf  Hf13  1  -0.00775048  0.19779456  0.50229738  1
  Hf  Hf14  1  0.41011704  0.57614054  0.23137835  1
  Hf  Hf15  1  0.89531952  0.90496769  0.88112148  1
  Hf  Hf16  1  0.68909043  0.50503425  0.62284959  1
  Hf  Hf17  1  0.90932639  0.71533954  0.37489231  1
  Hf  Hf18  1  0.19487820  -0.00393499  0.25982324  1
  Hf  Hf19  1  0.70349066  0.89835257  0.88627363  1
  Hf  Hf20  1  0.59578579  0.79939174  0.48788022  1
  Hf  Hf21  1  0.21258954  0.39507471  0.24329527  1
  Hf  Hf22  1  0.00724415  0.19614079  0.25430482  1
  Hf  Hf23  1  0.31230471  0.48674065  0.37833389  1
  Hf  Hf24  1  0.79473745  0.80454500  0.49238909  1
  Hf  Hf25  1  0.39448351  0.39312223  0.76303261  1
  Hf  Hf26  1  0.60120770  0.79435708  0.00431824  1
  Hf  Hf27  1  0.30511161  0.91113335  0.87466818  1
  Hf  Hf28  1  0.90445593  0.10087811  0.12718997  1
  Hf  Hf29  1  0.11231134  0.71141072  0.38859065  1
  Hf  Hf30  1  -0.00434722  -0.01422286  0.25099682  1
  Hf  Hf31  1  0.89974167  0.50693555  0.12984308  1
  Hf  Hf32  1  0.29483499  0.69769091  0.11985775  1
  Hf  Hf33  1  0.69064284  0.70533911  0.14860843  1
  Hf  Hf34  1  0.79845798  0.21209934  0.50718459  1
  Hf  Hf35  1  0.80102093  0.01773405  0.51145129  1
  Hf  Hf36  1  0.30614518  0.09880295  0.63436167  1
  Hf  Hf37  1  0.10455094  0.70093198  0.62553396  1
  Hf  Hf38  1  0.10131742  0.29653480  0.63793605  1
  Hf  Hf39  1  0.10961461  0.50568019  0.64070346  1
  Zr  Zr40  1  0.60153152  0.20426662  0.48791080  1
  Zr  Zr41  1  0.09321065  0.89741590  0.10904898  1
  Zr  Zr42  1  0.90176375  0.48964985  0.36586265  1
  Zr  Zr43  1  0.59621780  0.20869392  0.25682932  1
  Zr  Zr44  1  0.50542938  0.68712919  0.62654098  1
  Zr  Zr45  1  0.40294706  0.00034374  0.24827642  1
  Zr  Zr46  1  0.29940867  0.10047851  0.12729665  1
  Zr  Zr47  1  0.10909038  0.09810938  0.11517169  1
  Zr  Zr48  1  -0.00713012  0.39307619  0.51101596  1
  Zr  Zr49  1  0.18753793  0.59222471  -0.01123805  1
  Zr  Zr50  1  0.30019449  0.68482033  0.63225761  1
  Zr  Zr51  1  0.88891169  0.50574693  0.62927720  1
  Zr  Zr52  1  0.08966247  0.69902567  0.12924460  1
  Zr  Zr53  1  0.60454032  0.79942821  0.75020312  1
  Zr  Zr54  1  0.00385061  0.59465610  0.49707656  1
  Zr  Zr55  1  0.10059098  0.09605303  0.63334304  1
  Zr  Zr56  1  0.59476693  0.59645672  -0.00019513  1
  Zr  Zr57  1  0.00157014  0.20212043  -0.00730817  1
  Zr  Zr58  1  0.80021770  0.82545874  0.25916304  1
  Zr  Zr59  1  0.19882452  0.39129604  -0.01125195  1
  Zr  Zr60  1  0.50114803  0.29724711  0.63485629  1
  Zr  Zr61  1  0.69987176  0.69071104  0.62370483  1
  Zr  Zr62  1  0.80338841  0.00030999  0.74011011  1
  Zr  Zr63  1  0.79297288  0.40654837  -0.00947430  1
  Zr  Zr64  1  0.00639899  0.81023780  0.75791771  1
  Zr  Zr65  1  0.00555017  0.60317410  0.26287206  1
  Zr  Zr66  1  0.80317601  0.62186993  0.00590349  1
  Zr  Zr67  1  0.68685975  0.50270634  0.35890265  1
  Zr  Zr68  1  0.40503127  0.79306683  0.00344147  1
  Zr  Zr69  1  0.89936295  0.70246757  0.62450493  1
  Zr  Zr70  1  0.91154682  0.52411258  0.87030442  1
  Zr  Zr71  1  0.68630536  0.30926158  0.12778593  1
  Zr  Zr72  1  0.60105384  -0.00367363  0.74175046  1
  Zr  Zr73  1  0.40557685  -0.01011878  0.50398286  1
  Zr  Zr74  1  -0.00061807  0.40148246  -0.01101136  1
  Zr  Zr75  1  0.79152900  0.40929372  0.76210281  1
  Zr  Zr76  1  0.30126006  0.29062122  0.11570725  1
  Zr  Zr77  1  0.39930866  0.80694105  0.74242918  1
  Zr  Zr78  1  0.18923448  0.79726211  -0.02427664  1
  Zr  Zr79  1  0.30246514  0.88630796  0.37612570  1
  Ta  Ta80  1  0.20464004  0.19064744  -0.02733355  1
  Ta  Ta81  1  0.60957901  -0.00297317  0.24418493  1
  Ta  Ta82  1  0.21234682  0.20113069  0.76224703  1
  Ta  Ta83  1  0.20623625  0.39755120  0.51109346  1
  Ta  Ta84  1  0.29219170  0.89826505  0.11905186  1
  Ta  Ta85  1  0.78875745  0.39411578  0.49381210  1
  Ta  Ta86  1  0.91202863  0.90735857  0.61517771  1
  Ta  Ta87  1  0.59830456  0.19731537  0.00132433  1
  Ta  Ta88  1  0.40034204  0.59363658  0.00101898  1
  Ta  Ta89  1  0.50569863  0.89509724  0.36205454  1
  Ta  Ta90  1  0.30140755  0.69374835  0.86640012  1
  Ta  Ta91  1  0.89291879  0.29654324  0.36181469  1
  Ta  Ta92  1  0.69957179  0.90317695  0.61085061  1
  Ta  Ta93  1  0.20289669  0.19867694  0.26666264  1
  Ta  Ta94  1  0.50631299  0.89470360  0.13401031  1
  Ta  Ta95  1  0.09994452  0.09432500  0.39014300  1
  Ta  Ta96  1  0.69219791  0.30636394  0.64118250  1
  Ta  Ta97  1  0.60031844  0.39522038  0.48486772  1
  Ta  Ta98  1  0.40537008  0.21603217  0.25888993  1
  Ta  Ta99  1  0.49962643  0.69655833  0.86727125  1
  Ta  Ta100  1  0.50311666  0.10891832  0.12937683  1
  Ta  Ta101  1  0.50298335  0.29765095  0.88108990  1
  Ta  Ta102  1  0.40587955  0.58514714  0.76585312  1
  Ta  Ta103  1  0.09598621  0.29613749  0.85694109  1
  Ta  Ta104  1  0.19858423  0.80179205  0.75443389  1
  Ta  Ta105  1  0.40462708  0.59832425  0.49020941  1
  Ta  Ta106  1  0.20311179  0.20363395  0.50056921  1
  Ta  Ta107  1  0.90605244  0.30970246  0.13978049  1
  Ta  Ta108  1  0.09588526  0.89829251  0.39800531  1
  Ta  Ta109  1  0.90619274  0.91354592  0.39626437  1
  Ta  Ta110  1  0.79222079  0.59926758  0.47903550  1
  Ta  Ta111  1  0.09991552  0.08950730  0.86252520  1
  Ta  Ta112  1  0.10126439  0.90262097  0.61664909  1
  Ta  Ta113  1  0.89543947  0.29008848  0.85800527  1
  Ta  Ta114  1  0.50350801  0.90260013  0.88109817  1
  Ta  Ta115  1  0.79948735  0.00575079  0.01291072  1
  Ta  Ta116  1  0.40506025  0.40163268  0.00367142  1
  Ta  Ta117  1  0.60220504  0.00484371  0.01512316  1
  Ta  Ta118  1  0.49900079  0.69445728  0.35935189  1
  Ta  Ta119  1  0.19612748  0.80310251  0.24932261  1
  Ti  Ti120  1  0.88928708  0.70317395  0.85328562  1
  Ti  Ti121  1  0.90107141  0.10320989  0.86530269  1
  Ti  Ti122  1  0.30534600  0.29064406  0.62422532  1
  Ti  Ti123  1  0.21121430  0.59181222  0.49358325  1
  Ti  Ti124  1  0.20055818  -0.01017154  0.75096241  1
  Ti  Ti125  1  0.69419157  0.11659152  0.63691744  1
  Ti  Ti126  1  0.08798313  0.67158728  0.85339871  1
  Ti  Ti127  1  0.69059846  0.70282728  0.36282637  1
  Ti  Ti128  1  0.49893298  0.09912749  0.37435124  1
  Ti  Ti129  1  0.79462805  0.39398164  0.25313660  1
  Ti  Ti130  1  0.50198711  0.89960350  0.62092206  1
  Ti  Ti131  1  -0.00106100  0.40474875  0.75394237  1
  Ti  Ti132  1  0.90973185  0.10661242  0.64504493  1
  Ti  Ti133  1  0.29806528  0.49939738  0.87917774  1
  Ti  Ti134  1  0.69554695  0.29563147  0.86773286  1
  Ti  Ti135  1  0.40186262  0.79349012  0.50368011  1
  Ti  Ti136  1  0.40200677  0.39212293  0.50747185  1
  Ti  Ti137  1  0.90058137  0.10087967  0.36875530  1
  Ti  Ti138  1  0.10737750  0.49074024  0.37643054  1
  Ti  Ti139  1  0.10083257  0.29341804  0.12736478  1
  Ti  Ti140  1  -0.00040162  -0.00016304  -0.00854889  1
  Ti  Ti141  1  0.89199043  0.29787638  0.64710881  1
  Ti  Ti142  1  0.90060257  0.72073025  0.14337917  1
  Ti  Ti143  1  0.70419405  0.89963530  0.11938878  1
  Ti  Ti144  1  0.21503251  0.80441487  0.51627361  1
  Ti  Ti145  1  0.30434390  0.49743069  0.62731327  1
  Ti  Ti146  1  0.56140441  0.40108753  0.25663409  1
  Ti  Ti147  1  0.70470077  0.69832003  0.86715426  1
  Ti  Ti148  1  0.79996930  0.00286975  0.23940471  1
  Ti  Ti149  1  0.59365916  0.41294527  0.77368339  1
  Ti  Ti150  1  0.30585068  0.30015469  0.38243226  1
  Ti  Ti151  1  0.60258861  -0.00062387  0.49344832  1
  Ti  Ti152  1  0.39847920  0.19838857  -0.01387746  1
  Ti  Ti153  1  0.20754641  0.39845005  0.75693042  1
  Ti  Ti154  1  0.80256200  0.60739865  0.25765267  1
  Ti  Ti155  1  0.79674900  0.20213032  0.24272558  1
  Ti  Ti156  1  0.79712684  0.80804441  0.73637394  1
  Ti  Ti157  1  0.40013979  0.79389562  0.23790854  1
  Ti  Ti158  1  0.30826277  0.69876013  0.37130664  1
  Ti  Ti159  1  0.20416605  -0.00245512  0.50611720  1
  Mo  Mo160  1  0.89714883  0.90068645  0.10740821  1
  Mo  Mo161  1  0.79705097  0.20217755  0.74168702  1
  Mo  Mo162  1  0.00029634  0.19875774  0.75631807  1
  Mo  Mo163  1  0.59056133  0.60029757  0.24957338  1
  Mo  Mo164  1  0.10078764  0.49402308  0.85378864  1
  Mo  Mo165  1  0.30261923  0.09624354  0.86117620  1
  Mo  Mo166  1  0.20032969  0.00249271  -0.01455310  1
  Mo  Mo167  1  0.20781986  0.59454388  0.76251595  1
  Mo  Mo168  1  0.49362849  0.49660445  0.38897200  1
  Mo  Mo169  1  -0.00274292  0.60375615  0.00307136  1
  Mo  Mo170  1  0.00403323  0.80614952  0.50724167  1
  Mo  Mo171  1  0.59840884  0.80720800  0.25652257  1
  Mo  Mo172  1  0.60024268  0.20841958  0.76243405  1
  Mo  Mo173  1  0.30242401  0.29875981  0.88208338  1
  Mo  Mo174  1  0.49813123  0.49572959  0.88646725  1
  Mo  Mo175  1  0.00229605  -0.00166315  0.75605668  1
  Mo  Mo176  1  0.49876410  0.69801311  0.13975450  1
  Mo  Mo177  1  0.48751416  0.30467511  0.38744622  1
  Mo  Mo178  1  0.79201377  0.60995428  0.75646274  1
  Mo  Mo179  1  0.30024548  0.49677611  0.10848667  1
  Mo  Mo180  1  0.70040394  0.30521136  0.36169299  1
  Mo  Mo181  1  0.69960573  0.09965799  0.13226228  1
  Mo  Mo182  1  0.69864725  0.51131461  0.87088734  1
  Mo  Mo183  1  0.50587296  0.48711878  0.10713679  1
  Mo  Mo184  1  0.59677649  0.59877099  0.47575958  1
  Mo  Mo185  1  0.49727791  0.29331186  0.10468591  1
  Mo  Mo186  1  0.29528102  0.89774891  0.62919240  1
  Mo  Mo187  1  0.40108824  -0.00549600  0.73744418  1
  Mo  Mo188  1  0.60029634  0.39620297  -0.01570149  1
  Mo  Mo189  1  0.40123407  0.39163007  0.23147695  1
  Mo  Mo190  1  0.79968930  0.80477030  0.01255589  1
  Mo  Mo191  1  0.39799980  0.20417691  0.48873865  1
  Mo  Mo192  1  0.00655704  0.81304507  0.26302472  1
  Mo  Mo193  1  -0.00162807  0.60289500  0.73279393  1
  Mo  Mo194  1  0.39595298  0.20081100  0.76584247  1
  Mo  Mo195  1  0.69957066  0.91394270  0.38652840  1
  Mo  Mo196  1  -0.00131874  0.00992102  0.50182809  1
  Mo  Mo197  1  0.00342182  0.39341244  0.24933605  1
  Mo  Mo198  1  0.10035066  0.90681591  0.87895136  1
  Mo  Mo199  1  0.59774349  0.59331061  0.76984383  1
