# generated using pymatgen
data_HfZrTaTiMo
_symmetry_space_group_name_H-M   'P 1'
_cell_length_a   15.91980167
_cell_length_b   15.93540171
_cell_length_c   15.21370903
_cell_angle_alpha   89.99520572
_cell_angle_beta   90.01185776
_cell_angle_gamma   90.06696306
_symmetry_Int_Tables_number   1
_chemical_formula_structural   HfZrTaTiMo
_chemical_formula_sum   'Hf40 Zr40 Ta40 Ti40 Mo40'
_cell_volume   3859.53929553
_cell_formula_units_Z   40
loop_
 _symmetry_equiv_pos_site_id
 _symmetry_equiv_pos_as_xyz
  1  'x, y, z'
loop_
 _atom_site_type_symbol
 _atom_site_label
 _atom_site_symmetry_multiplicity
 _atom_site_fract_x
 _atom_site_fract_y
 _atom_site_fract_z
 _atom_site_occupancy
  Hf  Hf0  1  0.69781462  0.30050198  0.11118484  1
  Hf  Hf1  1  -0.00354249  0.78609540  0.25003566  1
  Hf  Hf2  1  0.20150009  0.60123698  -0.00822535  1
  Hf  Hf3  1  0.50016925  0.10242408  0.11943245  1
  Hf  Hf4  1  0.19135234  0.59741577  0.75094569  1
  Hf  Hf5  1  0.19552335  0.80178031  0.24836971  1
  Hf  Hf6  1  0.60125491  0.00699860  0.76109516  1
  Hf  Hf7  1  0.59397758  0.80348932  0.00505385  1
  Hf  Hf8  1  0.18945458  0.60836216  0.24883225  1
  Hf  Hf9  1  0.70404864  0.50622680  0.36814388  1
  Hf  Hf10  1  0.71668993  0.71778374  0.37578287  1
  Hf  Hf11  1  0.20563697  0.40016892  0.49717951  1
  Hf  Hf12  1  0.70902958  0.51120470  0.12207451  1
  Hf  Hf13  1  0.78649781  0.18221010  0.24596835  1
  Hf  Hf14  1  0.09727881  0.89049615  0.39306311  1
  Hf  Hf15  1  0.68954651  0.10374741  0.60975226  1
  Hf  Hf16  1  0.90243942  0.49187298  0.61535485  1
  Hf  Hf17  1  0.70469849  0.90131198  0.62337671  1
  Hf  Hf18  1  0.90421084  0.69704641  0.61795788  1
  Hf  Hf19  1  0.89191737  0.88077730  0.40158716  1
  Hf  Hf20  1  0.49091725  0.50313019  0.36550830  1
  Hf  Hf21  1  0.49101007  0.51291219  0.13736056  1
  Hf  Hf22  1  0.19284921  0.40573279  -0.00414590  1
  Hf  Hf23  1  0.69763450  0.50683592  0.90128814  1
  Hf  Hf24  1  0.09567608  0.90848686  0.12882809  1
  Hf  Hf25  1  0.51285640  0.29839911  0.89894708  1
  Hf  Hf26  1  0.17887027  0.00236597  -0.01797214  1
  Hf  Hf27  1  0.79774392  0.19857658  0.76135253  1
  Hf  Hf28  1  0.91361757  0.30463426  0.87720390  1
  Hf  Hf29  1  0.40349075  0.79653488  0.49992384  1
  Hf  Hf30  1  0.41587310  0.40082069  0.75960809  1
  Hf  Hf31  1  0.40076355  0.01496837  0.74876768  1
  Hf  Hf32  1  0.39904580  0.80064852  0.01606721  1
  Hf  Hf33  1  0.39742545  0.19472856  0.25930584  1
  Hf  Hf34  1  0.30867256  0.70654124  0.85357719  1
  Hf  Hf35  1  0.70437135  0.71049787  0.11979694  1
  Hf  Hf36  1  0.29473458  0.89983683  0.86146052  1
  Hf  Hf37  1  0.29376515  0.29471226  0.12270703  1
  Hf  Hf38  1  0.59964768  0.61819332  0.24772200  1
  Hf  Hf39  1  0.30343834  0.90510069  0.62576696  1
  Zr  Zr40  1  0.09664360  0.10267117  0.13745928  1
  Zr  Zr41  1  0.61383754  0.01575740  0.25475632  1
  Zr  Zr42  1  0.59175702  0.61314355  0.49152335  1
  Zr  Zr43  1  0.19544633  0.79410531  0.51766532  1
  Zr  Zr44  1  0.80663974  -0.00340820  -0.01694621  1
  Zr  Zr45  1  0.17419890  0.80401982  0.73136047  1
  Zr  Zr46  1  0.79713400  0.40449178  0.76171621  1
  Zr  Zr47  1  0.10752591  0.28952871  0.86660053  1
  Zr  Zr48  1  0.90295304  0.09676541  0.63028457  1
  Zr  Zr49  1  0.91217024  0.29301627  0.12386221  1
  Zr  Zr50  1  0.40916291  0.60137252  -0.00987355  1
  Zr  Zr51  1  0.90429224  0.08741786  0.13125635  1
  Zr  Zr52  1  0.00729203  0.58146655  -0.01341343  1
  Zr  Zr53  1  0.79472195  0.60051595  0.75156432  1
  Zr  Zr54  1  0.40730717  0.19947572  0.75628596  1
  Zr  Zr55  1  0.29365858  0.49872948  0.13524094  1
  Zr  Zr56  1  0.10019994  0.49799095  0.37387351  1
  Zr  Zr57  1  0.49533038  0.88984237  0.86514048  1
  Zr  Zr58  1  0.69851892  0.50092860  0.60949409  1
  Zr  Zr59  1  -0.00116143  -0.01235389  0.26935545  1
  Zr  Zr60  1  0.50715830  0.90588926  0.62935560  1
  Zr  Zr61  1  0.89678031  0.69888501  0.87864041  1
  Zr  Zr62  1  0.09595186  0.49089020  0.62428053  1
  Zr  Zr63  1  0.89442869  0.09167653  0.37794994  1
  Zr  Zr64  1  0.49767567  0.29270115  0.59960922  1
  Zr  Zr65  1  0.19231152  0.20515983  0.49473085  1
  Zr  Zr66  1  0.89765826  0.69621679  0.10699666  1
  Zr  Zr67  1  0.09849911  0.29219116  0.12863265  1
  Zr  Zr68  1  0.09543287  0.29299985  0.64397182  1
  Zr  Zr69  1  0.59602779  0.20881429  0.74746720  1
  Zr  Zr70  1  0.59520929  0.59401607  0.75325284  1
  Zr  Zr71  1  0.70338563  0.30818027  0.61239502  1
  Zr  Zr72  1  0.39759159  0.80471307  0.24881080  1
  Zr  Zr73  1  0.80433539  0.39497495  0.25503264  1
  Zr  Zr74  1  0.29084721  0.09688713  0.11918877  1
  Zr  Zr75  1  0.69138963  0.10835756  0.88778976  1
  Zr  Zr76  1  0.49524239  0.49906113  0.61547316  1
  Zr  Zr77  1  -0.00492943  0.37184588  0.48061404  1
  Zr  Zr78  1  0.20322140  0.79834197  0.00742507  1
  Zr  Zr79  1  0.59665060  0.81153415  0.48529594  1
  Ta  Ta80  1  0.20423491  0.59801472  0.50998153  1
  Ta  Ta81  1  0.30033833  0.49672353  0.86227940  1
  Ta  Ta82  1  0.90790070  0.89681077  0.85564118  1
  Ta  Ta83  1  0.29173294  0.69872632  0.37687166  1
  Ta  Ta84  1  -0.00165937  0.59704381  0.75679832  1
  Ta  Ta85  1  0.80802754  0.19515968  -0.00260509  1
  Ta  Ta86  1  0.29917544  0.30051156  0.87497057  1
  Ta  Ta87  1  0.89867550  0.89700617  0.11906395  1
  Ta  Ta88  1  0.90806141  0.49809548  0.13056666  1
  Ta  Ta89  1  0.81156582  0.20769794  0.49213998  1
  Ta  Ta90  1  0.30770352  0.69014400  0.63673527  1
  Ta  Ta91  1  0.60033842  0.40233331  0.47653417  1
  Ta  Ta92  1  0.90429271  0.29373910  0.63504427  1
  Ta  Ta93  1  0.79536705  0.79964853  0.75079758  1
  Ta  Ta94  1  0.00398028  0.81466276  -0.00914120  1
  Ta  Ta95  1  0.49426126  0.30460434  0.12629220  1
  Ta  Ta96  1  0.30202231  0.30520010  0.62938351  1
  Ta  Ta97  1  -0.00400144  0.60030450  0.25644330  1
  Ta  Ta98  1  0.39538962  0.20221483  -0.00035858  1
  Ta  Ta99  1  0.69527789  0.70063552  0.89129567  1
  Ta  Ta100  1  0.31105929  0.10947353  0.60708712  1
  Ta  Ta101  1  0.39619304  0.40327817  -0.00318039  1
  Ta  Ta102  1  0.29385048  0.10597315  0.88306045  1
  Ta  Ta103  1  0.51050802  0.11009195  0.38831691  1
  Ta  Ta104  1  0.00578700  0.17120178  -0.02266412  1
  Ta  Ta105  1  0.30039022  0.89855289  0.38513669  1
  Ta  Ta106  1  0.59901531  0.39754721  0.24893846  1
  Ta  Ta107  1  0.20147237  0.19546126  0.27310714  1
  Ta  Ta108  1  0.20702473  0.00387692  0.27571536  1
  Ta  Ta109  1  0.20185432  0.00581150  0.50034666  1
  Ta  Ta110  1  0.39002307  0.60262171  0.49416534  1
  Ta  Ta111  1  0.39790569  -0.00497931  -0.00259379  1
  Ta  Ta112  1  0.70147766  0.30698376  0.90161959  1
  Ta  Ta113  1  0.40112901  0.00409017  0.26913414  1
  Ta  Ta114  1  0.69512081  0.28958629  0.37428355  1
  Ta  Ta115  1  0.90592446  0.89671162  0.63149790  1
  Ta  Ta116  1  0.60139010  -0.00633779  0.00312774  1
  Ta  Ta117  1  0.40816402  0.00175554  0.48910898  1
  Ta  Ta118  1  0.49949755  0.30133086  0.37125695  1
  Ta  Ta119  1  0.50438689  0.90611536  0.13916063  1
  Ti  Ti120  1  0.79574582  -0.00041349  0.50217316  1
  Ti  Ti121  1  0.60491117  0.40183452  0.76296415  1
  Ti  Ti122  1  0.80373468  0.39336853  0.48094055  1
  Ti  Ti123  1  0.79644696  0.81176866  -0.01417114  1
  Ti  Ti124  1  0.80536657  0.80958914  0.24542562  1
  Ti  Ti125  1  0.09397728  0.71259745  0.87209437  1
  Ti  Ti126  1  0.09165483  0.69513733  0.39708835  1
  Ti  Ti127  1  0.79747127  -0.00254771  0.75827884  1
  Ti  Ti128  1  0.30360437  0.30040426  0.37847237  1
  Ti  Ti129  1  0.30449518  0.49803479  0.63843493  1
  Ti  Ti130  1  0.81295930  0.61126948  0.25415127  1
  Ti  Ti131  1  0.59957146  0.20385942  0.24413145  1
  Ti  Ti132  1  0.82060856  0.41016729  0.00019249  1
  Ti  Ti133  1  0.29781130  0.91355045  0.13260704  1
  Ti  Ti134  1  0.00299446  0.00146336  0.50639109  1
  Ti  Ti135  1  0.70650594  0.90979932  0.13226125  1
  Ti  Ti136  1  0.09194664  0.69550521  0.11434146  1
  Ti  Ti137  1  0.19758724  0.00704448  0.74104263  1
  Ti  Ti138  1  0.09067008  0.48937522  0.13738120  1
  Ti  Ti139  1  0.69993856  0.70446541  0.61515257  1
  Ti  Ti140  1  0.39367716  0.40468546  0.49382409  1
  Ti  Ti141  1  0.80181153  0.59926488  0.49581333  1
  Ti  Ti142  1  0.01214040  -0.00409948  0.75573142  1
  Ti  Ti143  1  0.49473984  0.70022907  0.63714129  1
  Ti  Ti144  1  0.49287691  0.70767075  0.36191119  1
  Ti  Ti145  1  0.58777720  0.41534069  0.01538982  1
  Ti  Ti146  1  0.29890278  0.50623030  0.36537478  1
  Ti  Ti147  1  0.21101707  0.19061216  0.74348712  1
  Ti  Ti148  1  0.60866623  0.79504845  0.75466852  1
  Ti  Ti149  1  0.31171533  0.68823126  0.13738059  1
  Ti  Ti150  1  0.90780255  0.69788945  0.39761542  1
  Ti  Ti151  1  0.09687883  0.10294740  0.62628122  1
  Ti  Ti152  1  0.09312466  0.10446360  0.38213015  1
  Ti  Ti153  1  0.08981264  0.47698306  0.85591319  1
  Ti  Ti154  1  0.70481049  0.91024840  0.37163454  1
  Ti  Ti155  1  0.50080707  0.69650198  0.86412404  1
  Ti  Ti156  1  0.49818388  0.10129886  0.89679492  1
  Ti  Ti157  1  0.90403100  0.50111827  0.37178924  1
  Ti  Ti158  1  0.19697611  0.39132194  0.25940051  1
  Ti  Ti159  1  0.39540665  0.39568341  0.25049720  1
  Mo  Mo160  1  -0.00109978  0.59256879  0.48850872  1
  Mo  Mo161  1  0.70122179  0.10152701  0.39236721  1
  Mo  Mo162  1  0.39664585  0.20568345  0.48579517  1
  Mo  Mo163  1  0.79998942  -0.01331165  0.25062914  1
  Mo  Mo164  1  -0.00395856  0.79735443  0.74235374  1
  Mo  Mo165  1  0.70150903  0.09677353  0.10600751  1
  Mo  Mo166  1  0.30248241  0.09948213  0.38977381  1
  Mo  Mo167  1  -0.00043333  0.20073157  0.27213949  1
  Mo  Mo168  1  0.21072450  0.39628059  0.74899263  1
  Mo  Mo169  1  0.50008578  0.70892659  0.13934580  1
  Mo  Mo170  1  0.70114986  0.89310722  0.86279701  1
  Mo  Mo171  1  0.90229850  0.09607452  0.85825542  1
  Mo  Mo172  1  -0.00308394  0.19182321  0.49357929  1
  Mo  Mo173  1  0.09694084  0.89815634  0.86326202  1
  Mo  Mo174  1  0.00431355  0.79663160  0.52344119  1
  Mo  Mo175  1  0.50207987  0.90591275  0.36019791  1
  Mo  Mo176  1  0.19977809  0.19739658  -0.01184108  1
  Mo  Mo177  1  0.50226755  0.49854799  0.88705299  1
  Mo  Mo178  1  0.49750876  0.09844868  0.60125069  1
  Mo  Mo179  1  0.60310948  0.20541885  0.49227329  1
  Mo  Mo180  1  -0.00141318  0.19064191  0.75762613  1
  Mo  Mo181  1  0.00331319  0.39749684  0.00668450  1
  Mo  Mo182  1  0.10476382  0.09726671  0.84926767  1
  Mo  Mo183  1  0.00061641  0.40238362  0.25271799  1
  Mo  Mo184  1  0.09279352  0.92076819  0.61773133  1
  Mo  Mo185  1  0.40117755  0.59714092  0.75520114  1
  Mo  Mo186  1  -0.00237828  -0.00608282  -0.02067837  1
  Mo  Mo187  1  0.39261713  0.60434392  0.26760278  1
  Mo  Mo188  1  -0.00407036  0.39849482  0.74389691  1
  Mo  Mo189  1  0.90426767  0.49638683  0.87573802  1
  Mo  Mo190  1  0.40521524  0.79856847  0.73436784  1
  Mo  Mo191  1  0.89696572  0.29119754  0.35704337  1
  Mo  Mo192  1  0.60464359  0.81313151  0.25117034  1
  Mo  Mo193  1  0.59601411  0.61043200  0.01071098  1
  Mo  Mo194  1  0.79726508  0.80065651  0.51877511  1
  Mo  Mo195  1  0.60205685  0.00366276  0.48463200  1
  Mo  Mo196  1  0.09946848  0.29506127  0.35818576  1
  Mo  Mo197  1  0.80214341  0.59949391  0.00077857  1
  Mo  Mo198  1  0.09319657  0.68098807  0.61878597  1
  Mo  Mo199  1  0.59939571  0.20044453  0.01780584  1
