# generated using pymatgen
data_HfZrTaTiMo
_symmetry_space_group_name_H-M   'P 1'
_cell_length_a   15.93150075
_cell_length_b   15.92925695
_cell_length_c   15.23155946
_cell_angle_alpha   89.98422887
_cell_angle_beta   89.94653649
_cell_angle_gamma   90.02554569
_symmetry_Int_Tables_number   1
_chemical_formula_structural   HfZrTaTiMo
_chemical_formula_sum   'Hf40 Zr40 Ta40 Ti40 Mo40'
_cell_volume   3865.41678006
_cell_formula_units_Z   40
loop_
 _symmetry_equiv_pos_site_id
 _symmetry_equiv_pos_as_xyz
  1  'x, y, z'
loop_
 _atom_site_type_symbol
 _atom_site_label
 _atom_site_symmetry_multiplicity
 _atom_site_fract_x
 _atom_site_fract_y
 _atom_site_fract_z
 _atom_site_occupancy
  Hf  Hf0  1  -0.00948524  -0.00537440  -0.01390380  1
  Hf  Hf1  1  0.59578309  0.59805769  -0.00842916  1
  Hf  Hf2  1  0.19712368  0.38823384  0.26432312  1
  Hf  Hf3  1  0.70201764  0.49057404  0.86925468  1
  Hf  Hf4  1  0.48464838  0.10046452  0.61829283  1
  Hf  Hf5  1  0.10623300  0.70000571  0.60621894  1
  Hf  Hf6  1  0.90358845  0.90119907  0.62702734  1
  Hf  Hf7  1  0.30709235  0.27500345  0.87922225  1
  Hf  Hf8  1  0.31242189  0.70285516  0.60983486  1
  Hf  Hf9  1  0.40305506  0.81416355  0.02037463  1
  Hf  Hf10  1  0.79090655  0.19374058  -0.00958511  1
  Hf  Hf11  1  0.57572093  -0.01156354  0.74853623  1
  Hf  Hf12  1  0.30012005  0.91192334  0.87747462  1
  Hf  Hf13  1  0.80218779  0.59560402  0.24876839  1
  Hf  Hf14  1  0.19879620  0.62098956  0.75614318  1
  Hf  Hf15  1  -0.00280706  0.17528392  0.50942376  1
  Hf  Hf16  1  0.19642998  0.40571055  0.48363017  1
  Hf  Hf17  1  0.80223181  0.39168622  0.51006092  1
  Hf  Hf18  1  0.50904562  0.30139154  0.39310145  1
  Hf  Hf19  1  0.80138560  0.59686673  0.00313871  1
  Hf  Hf20  1  0.20470245  0.60466219  -0.00464559  1
  Hf  Hf21  1  0.19936533  0.00443190  0.02202004  1
  Hf  Hf22  1  0.28648053  0.11217985  0.61166732  1
  Hf  Hf23  1  0.70645536  0.70322888  0.37398838  1
  Hf  Hf24  1  0.69553447  0.11167747  0.38088318  1
  Hf  Hf25  1  0.91543075  0.68952362  0.87571018  1
  Hf  Hf26  1  0.59037882  0.19994541  0.00336474  1
  Hf  Hf27  1  0.39073193  0.01629003  0.01019562  1
  Hf  Hf28  1  0.90742590  0.69942676  0.62260942  1
  Hf  Hf29  1  0.51283312  0.72856255  0.87583869  1
  Hf  Hf30  1  0.30312670  0.69204879  0.14078766  1
  Hf  Hf31  1  0.29574043  0.31059791  0.62454753  1
  Hf  Hf32  1  0.90156861  0.49221903  0.86353652  1
  Hf  Hf33  1  0.80780555  0.59685484  0.49658355  1
  Hf  Hf34  1  0.80000327  0.60378017  0.74748970  1
  Hf  Hf35  1  0.67965519  0.87975728  0.86027056  1
  Hf  Hf36  1  0.09303705  0.51303708  0.86502316  1
  Hf  Hf37  1  0.30404138  0.70017344  0.36562885  1
  Hf  Hf38  1  0.10825926  0.89159827  0.88235156  1
  Hf  Hf39  1  0.79864918  0.79766748  -0.00497925  1
  Zr  Zr40  1  0.18789236  0.00676755  0.48562698  1
  Zr  Zr41  1  0.01300625  0.60450618  0.24819969  1
  Zr  Zr42  1  0.41369806  0.41345746  -0.01647390  1
  Zr  Zr43  1  0.58823253  -0.00205838  -0.00621138  1
  Zr  Zr44  1  -0.01722310  -0.01306193  0.25016029  1
  Zr  Zr45  1  0.60300266  0.61826264  0.75294741  1
  Zr  Zr46  1  0.60439037  0.39601616  0.25350210  1
  Zr  Zr47  1  0.00326166  0.19500879  -0.01509173  1
  Zr  Zr48  1  0.40354184  0.21074964  0.24512889  1
  Zr  Zr49  1  0.79218234  0.20230572  0.23589362  1
  Zr  Zr50  1  0.60042519  0.40419159  0.74149014  1
  Zr  Zr51  1  0.49077822  0.10959719  0.38801401  1
  Zr  Zr52  1  0.49289395  0.51064419  0.62935424  1
  Zr  Zr53  1  0.11080263  0.49355622  0.63692673  1
  Zr  Zr54  1  0.60218748  0.00338863  0.50580296  1
  Zr  Zr55  1  0.50446268  0.29993240  0.86400138  1
  Zr  Zr56  1  0.02455336  0.37287432  0.76006744  1
  Zr  Zr57  1  0.01097212  0.79272099  0.75941037  1
  Zr  Zr58  1  0.09363031  0.90811920  0.62163396  1
  Zr  Zr59  1  0.30843440  0.30068200  0.11361175  1
  Zr  Zr60  1  0.00154798  0.38123056  0.49055735  1
  Zr  Zr61  1  -0.00619455  0.21380706  0.25628522  1
  Zr  Zr62  1  0.89319257  0.09616421  0.11738462  1
  Zr  Zr63  1  0.49923485  0.50317106  0.14152201  1
  Zr  Zr64  1  0.70041826  0.89333531  0.62831527  1
  Zr  Zr65  1  0.90091197  0.49047400  0.36513602  1
  Zr  Zr66  1  0.30809153  0.50079649  0.14358022  1
  Zr  Zr67  1  0.10570649  0.49447982  0.12833081  1
  Zr  Zr68  1  0.00233879  0.17756478  0.75769847  1
  Zr  Zr69  1  0.01042589  0.58750095  0.48774664  1
  Zr  Zr70  1  0.69897044  0.69609077  0.14074688  1
  Zr  Zr71  1  0.20086118  0.39900372  -0.02044656  1
  Zr  Zr72  1  0.30435824  0.71561766  0.88144674  1
  Zr  Zr73  1  0.20907324  0.81138177  0.48574230  1
  Zr  Zr74  1  0.60191709  0.80644488  0.02872481  1
  Zr  Zr75  1  0.41099829  0.81658836  0.74163571  1
  Zr  Zr76  1  0.80599916  0.38676774  0.24512707  1
  Zr  Zr77  1  0.71083137  0.91440437  0.37393072  1
  Zr  Zr78  1  0.88468047  0.09288014  0.37239404  1
  Zr  Zr79  1  0.30357023  0.28212319  0.39182933  1
  Ta  Ta80  1  0.18991616  0.79577161  0.24636243  1
  Ta  Ta81  1  0.60137627  0.59703830  0.49207358  1
  Ta  Ta82  1  0.08815754  0.89143391  0.13023063  1
  Ta  Ta83  1  0.68554303  0.10087341  0.85843162  1
  Ta  Ta84  1  0.10330292  0.29386357  0.11088846  1
  Ta  Ta85  1  0.47611998  0.11133680  0.86528400  1
  Ta  Ta86  1  0.80432008  -0.00527260  0.76611756  1
  Ta  Ta87  1  0.19169979  0.00872519  0.74660566  1
  Ta  Ta88  1  0.39881855  0.41421915  0.49286842  1
  Ta  Ta89  1  0.19297325  0.20648791  0.75214663  1
  Ta  Ta90  1  0.90962615  0.70598585  0.12974829  1
  Ta  Ta91  1  0.30156303  0.50726433  0.63309468  1
  Ta  Ta92  1  0.59771693  0.00816479  0.25338108  1
  Ta  Ta93  1  0.20713313  0.80974305  0.73997024  1
  Ta  Ta94  1  0.70359146  0.09813222  0.64304292  1
  Ta  Ta95  1  0.49044309  0.30274849  0.62063070  1
  Ta  Ta96  1  0.80731724  0.80206971  0.49190838  1
  Ta  Ta97  1  0.49451251  0.10309824  0.13380211  1
  Ta  Ta98  1  0.19904007  0.19397057  0.24497076  1
  Ta  Ta99  1  0.90913005  0.49137117  0.64132235  1
  Ta  Ta100  1  0.40760652  0.59937412  0.47986594  1
  Ta  Ta101  1  0.60016515  0.20428794  0.23829075  1
  Ta  Ta102  1  0.89068837  0.29962533  0.86889877  1
  Ta  Ta103  1  0.60435716  0.40327607  0.51094185  1
  Ta  Ta104  1  0.60987689  0.20816614  0.52512343  1
  Ta  Ta105  1  0.49501636  0.90511414  0.37265437  1
  Ta  Ta106  1  0.78771291  -0.00774824  -0.01782876  1
  Ta  Ta107  1  0.79952950  0.39487169  0.00322410  1
  Ta  Ta108  1  0.21185870  0.58824387  0.48115086  1
  Ta  Ta109  1  0.49554147  0.91224873  0.15025294  1
  Ta  Ta110  1  -0.00114667  0.39711572  -0.00880388  1
  Ta  Ta111  1  0.90526300  0.49306888  0.12235795  1
  Ta  Ta112  1  0.70013172  0.70292423  0.60837298  1
  Ta  Ta113  1  0.40387231  0.80351386  0.25766763  1
  Ta  Ta114  1  0.50412500  0.70866913  0.60212147  1
  Ta  Ta115  1  0.59972919  0.80727140  0.25627426  1
  Ta  Ta116  1  0.09842409  0.09909864  0.36050190  1
  Ta  Ta117  1  0.70635382  0.50406676  0.62324186  1
  Ta  Ta118  1  0.90077923  0.29150775  0.63844334  1
  Ta  Ta119  1  0.81214301  0.81364878  0.25061435  1
  Ti  Ti120  1  0.69388857  0.08639894  0.12268629  1
  Ti  Ti121  1  0.70173837  0.29848407  0.86423854  1
  Ti  Ti122  1  0.38456129  0.01050108  0.75017758  1
  Ti  Ti123  1  0.81136848  0.00810691  0.51765832  1
  Ti  Ti124  1  -0.00427394  -0.00142987  0.77139463  1
  Ti  Ti125  1  0.10937064  0.28324880  0.61308248  1
  Ti  Ti126  1  0.09395658  0.89894778  0.35899306  1
  Ti  Ti127  1  0.59256738  0.19733789  0.73971011  1
  Ti  Ti128  1  0.80224420  0.19650704  0.52143198  1
  Ti  Ti129  1  0.48771657  0.89645766  0.59631376  1
  Ti  Ti130  1  0.80272567  0.19208555  0.75449713  1
  Ti  Ti131  1  0.38731609  0.00881347  0.26126136  1
  Ti  Ti132  1  0.29408633  0.90542051  0.14908110  1
  Ti  Ti133  1  0.38006041  -0.00510518  0.47991450  1
  Ti  Ti134  1  0.70626073  0.29966802  0.64143078  1
  Ti  Ti135  1  0.40650055  0.60394889  -0.01129390  1
  Ti  Ti136  1  0.30362278  0.50412841  0.85515746  1
  Ti  Ti137  1  0.69450550  0.30271559  0.11423132  1
  Ti  Ti138  1  0.09496878  0.09822035  0.13512551  1
  Ti  Ti139  1  0.90799166  0.71015191  0.36486083  1
  Ti  Ti140  1  0.60062798  0.40123901  -0.00112411  1
  Ti  Ti141  1  0.69958434  0.49650148  0.12387695  1
  Ti  Ti142  1  0.49650391  0.69669743  0.14232366  1
  Ti  Ti143  1  0.12522748  0.10307073  0.88511180  1
  Ti  Ti144  1  0.20014197  0.80079806  0.02203145  1
  Ti  Ti145  1  0.59880016  0.80080435  0.48504891  1
  Ti  Ti146  1  0.00651499  0.60098629  0.01410250  1
  Ti  Ti147  1  0.00255565  0.79515110  0.00147058  1
  Ti  Ti148  1  0.69836216  0.49267283  0.38185643  1
  Ti  Ti149  1  0.10390636  0.70090420  0.37420901  1
  Ti  Ti150  1  0.90749662  0.30162482  0.10807865  1
  Ti  Ti151  1  0.89089459  0.89807225  0.11424694  1
  Ti  Ti152  1  0.39732118  0.40255982  0.75370563  1
  Ti  Ti153  1  -0.00063520  0.80866192  0.48398457  1
  Ti  Ti154  1  0.40602653  0.61292149  0.75723594  1
  Ti  Ti155  1  0.30051067  0.90824370  0.62129458  1
  Ti  Ti156  1  0.00505195  0.39051050  0.25577392  1
  Ti  Ti157  1  0.70668022  0.29564983  0.38600952  1
  Ti  Ti158  1  0.79835778  0.79161822  0.75928550  1
  Ti  Ti159  1  0.59138833  0.60230852  0.27481721  1
  Mo  Mo160  1  0.29724636  0.09747033  0.14886784  1
  Mo  Mo161  1  0.20014628  0.59887422  0.26311925  1
  Mo  Mo162  1  0.09581598  0.09616677  0.63558692  1
  Mo  Mo163  1  0.10570061  0.49794104  0.36033855  1
  Mo  Mo164  1  0.41005680  0.60239499  0.26850786  1
  Mo  Mo165  1  0.29554850  0.10131719  0.86437884  1
  Mo  Mo166  1  0.89692707  0.89336691  0.87861334  1
  Mo  Mo167  1  0.10569564  0.70513648  0.89640163  1
  Mo  Mo168  1  0.50624725  0.70640676  0.37904270  1
  Mo  Mo169  1  0.49235492  0.51258223  0.86267229  1
  Mo  Mo170  1  0.20533662  0.18755001  0.02236520  1
  Mo  Mo171  1  0.30876783  0.49765435  0.36065063  1
  Mo  Mo172  1  0.29459648  0.90213320  0.35205825  1
  Mo  Mo173  1  0.40329126  0.80817331  0.48263980  1
  Mo  Mo174  1  0.70410736  0.69946476  0.87667623  1
  Mo  Mo175  1  0.10181955  0.70417747  0.11593321  1
  Mo  Mo176  1  0.89875433  0.89900643  0.38844824  1
  Mo  Mo177  1  0.09627909  0.28669994  0.38009336  1
  Mo  Mo178  1  0.69988306  0.90603141  0.13771553  1
  Mo  Mo179  1  0.88318321  0.09615837  0.87537919  1
  Mo  Mo180  1  0.10764835  0.29113282  0.89214796  1
  Mo  Mo181  1  0.29199377  0.09757477  0.36912100  1
  Mo  Mo182  1  -0.00169789  0.79722796  0.25183136  1
  Mo  Mo183  1  0.18677951  0.19958377  0.49172538  1
  Mo  Mo184  1  0.00460400  0.60102933  0.73917705  1
  Mo  Mo185  1  0.80378468  0.39301914  0.73901973  1
  Mo  Mo186  1  0.89474449  0.08895479  0.64128274  1
  Mo  Mo187  1  0.39892107  0.20464946  0.51063097  1
  Mo  Mo188  1  0.89042845  0.28826894  0.39525266  1
  Mo  Mo189  1  0.39636894  0.20057790  0.73231238  1
  Mo  Mo190  1  0.50666125  0.49775328  0.37687559  1
  Mo  Mo191  1  0.40417568  0.19644060  0.01507504  1
  Mo  Mo192  1  0.50764212  0.30259104  0.11822002  1
  Mo  Mo193  1  0.59687422  0.80127620  0.72399273  1
  Mo  Mo194  1  0.19007186  -0.00324132  0.24469574  1
  Mo  Mo195  1  0.78967359  -0.00357600  0.23505998  1
  Mo  Mo196  1  0.40511471  0.40117488  0.27237349  1
  Mo  Mo197  1  0.48940885  0.91089020  0.87826212  1
  Mo  Mo198  1  0.21317980  0.40017102  0.76083483  1
  Mo  Mo199  1  -0.00473878  -0.00714585  0.48561884  1
