# generated using pymatgen
data_HfZrTaTiMo
_symmetry_space_group_name_H-M   'P 1'
_cell_length_a   15.93652463
_cell_length_b   15.91647048
_cell_length_c   15.18649273
_cell_angle_alpha   90.00502785
_cell_angle_beta   90.01856293
_cell_angle_gamma   89.98479870
_symmetry_Int_Tables_number   1
_chemical_formula_structural   HfZrTaTiMo
_chemical_formula_sum   'Hf40 Zr40 Ta40 Ti40 Mo40'
_cell_volume   3852.10248684
_cell_formula_units_Z   40
loop_
 _symmetry_equiv_pos_site_id
 _symmetry_equiv_pos_as_xyz
  1  'x, y, z'
loop_
 _atom_site_type_symbol
 _atom_site_label
 _atom_site_symmetry_multiplicity
 _atom_site_fract_x
 _atom_site_fract_y
 _atom_site_fract_z
 _atom_site_occupancy
  Hf  Hf0  1  0.70121546  0.49866086  0.62196601  1
  Hf  Hf1  1  0.30633381  0.49920266  0.63945785  1
  Hf  Hf2  1  0.50677232  0.09599345  0.38469587  1
  Hf  Hf3  1  0.50051784  0.29777188  0.11459664  1
  Hf  Hf4  1  0.29246065  0.89632892  0.86955374  1
  Hf  Hf5  1  0.30693853  0.30622994  0.37113907  1
  Hf  Hf6  1  0.20115966  -0.00177610  0.73948095  1
  Hf  Hf7  1  0.39871346  0.60197446  -0.00597043  1
  Hf  Hf8  1  0.91317636  0.49691987  0.35923976  1
  Hf  Hf9  1  0.79760130  0.80912021  0.75102870  1
  Hf  Hf10  1  0.69081072  0.70784814  0.37854772  1
  Hf  Hf11  1  0.70354247  0.69601220  0.87582920  1
  Hf  Hf12  1  0.69967014  0.28994011  0.37016272  1
  Hf  Hf13  1  0.40303570  0.19754349  0.25206006  1
  Hf  Hf14  1  0.59349527  0.80667642  -0.00843230  1
  Hf  Hf15  1  0.80009123  0.19369156  0.75368901  1
  Hf  Hf16  1  0.50058523  0.09438163  0.63683344  1
  Hf  Hf17  1  0.58796883  0.60278061  -0.00456284  1
  Hf  Hf18  1  0.48550543  0.49847217  0.37191589  1
  Hf  Hf19  1  0.90499463  0.49640942  0.89032316  1
  Hf  Hf20  1  0.90132906  0.10010986  0.88057453  1
  Hf  Hf21  1  -0.00265407  0.20875737  0.50494632  1
  Hf  Hf22  1  0.00510084  0.21541719  0.74998737  1
  Hf  Hf23  1  0.80828273  0.40106186  0.49697319  1
  Hf  Hf24  1  0.00534873  0.80347758  0.25756019  1
  Hf  Hf25  1  0.10076569  0.30556644  0.35591207  1
  Hf  Hf26  1  0.60235422  0.20385093  0.76064156  1
  Hf  Hf27  1  0.61858081  -0.00345511  0.76141343  1
  Hf  Hf28  1  0.89679501  0.69853860  0.61676310  1
  Hf  Hf29  1  0.59048509  0.59632742  0.24310423  1
  Hf  Hf30  1  0.70394189  0.30108362  0.88917132  1
  Hf  Hf31  1  0.10627675  0.10444017  0.87966938  1
  Hf  Hf32  1  0.89835318  0.69470586  0.14815983  1
  Hf  Hf33  1  0.00752605  0.80424046  0.49671537  1
  Hf  Hf34  1  0.29016242  0.10998765  0.11606202  1
  Hf  Hf35  1  0.48943279  0.08835097  0.11922743  1
  Hf  Hf36  1  0.40303425  0.20404120  0.51535398  1
  Hf  Hf37  1  0.79976511  0.39632559  0.75328325  1
  Hf  Hf38  1  0.10067279  0.10676629  0.62954220  1
  Hf  Hf39  1  0.70064620  0.09443754  0.61203603  1
  Zr  Zr40  1  -0.00064467  -0.00778654  0.74258981  1
  Zr  Zr41  1  0.00791438  0.79339861  0.01566823  1
  Zr  Zr42  1  0.09258962  0.50168572  0.88683959  1
  Zr  Zr43  1  -0.00023998  -0.00175998  0.00815174  1
  Zr  Zr44  1  0.30295948  0.30532496  0.10971866  1
  Zr  Zr45  1  0.19374790  0.38570146  0.74331339  1
  Zr  Zr46  1  0.20702215  0.00071071  0.50958931  1
  Zr  Zr47  1  0.80312598  0.79943758  -0.00533934  1
  Zr  Zr48  1  0.19635094  0.40048072  0.51192467  1
  Zr  Zr49  1  0.89377767  0.10466708  0.36861752  1
  Zr  Zr50  1  0.60283429  0.00129843  0.23987861  1
  Zr  Zr51  1  0.10629314  0.11016340  0.37207972  1
  Zr  Zr52  1  0.69474041  0.70675629  0.12923406  1
  Zr  Zr53  1  0.19131899  0.59604108  0.75085618  1
  Zr  Zr54  1  0.21045033  0.20774569  0.51676729  1
  Zr  Zr55  1  0.60060531  0.39794602  0.24770297  1
  Zr  Zr56  1  0.59100664  0.59517676  0.50292264  1
  Zr  Zr57  1  0.09919658  0.68493950  0.36833592  1
  Zr  Zr58  1  0.10220126  0.30818227  0.89921374  1
  Zr  Zr59  1  0.11365925  0.28810630  0.12124847  1
  Zr  Zr60  1  0.80444004  0.59233911  0.75321494  1
  Zr  Zr61  1  0.29831271  0.50756470  0.38101348  1
  Zr  Zr62  1  0.18795244  0.60083311  0.51399011  1
  Zr  Zr63  1  0.88580242  0.90056159  0.13243597  1
  Zr  Zr64  1  0.49275005  0.89424986  0.35958763  1
  Zr  Zr65  1  0.70353294  0.70208896  0.61368473  1
  Zr  Zr66  1  0.32472736  0.90927342  0.12807689  1
  Zr  Zr67  1  0.78827218  0.58462103  0.24736955  1
  Zr  Zr68  1  0.57910677  0.80455959  0.50948889  1
  Zr  Zr69  1  0.30856723  0.70568666  0.38697728  1
  Zr  Zr70  1  0.49165033  0.90248635  0.85801432  1
  Zr  Zr71  1  0.00277522  0.00210737  0.24845313  1
  Zr  Zr72  1  0.10439726  0.49102029  0.11880685  1
  Zr  Zr73  1  0.29864163  0.70980061  0.63756669  1
  Zr  Zr74  1  0.09776625  0.71059063  0.86587407  1
  Zr  Zr75  1  0.89177849  0.69358702  0.38069130  1
  Zr  Zr76  1  0.59114808  0.39319459  0.50520471  1
  Zr  Zr77  1  0.12071812  0.90008772  0.12063445  1
  Zr  Zr78  1  0.20846306  0.79844721  0.25207081  1
  Zr  Zr79  1  0.90384106  0.29929370  0.35135219  1
  Ta  Ta80  1  0.40833956  0.60062910  0.52028203  1
  Ta  Ta81  1  0.90885326  0.89181836  0.87086324  1
  Ta  Ta82  1  0.69894193  0.29869719  0.62734530  1
  Ta  Ta83  1  0.80421168  0.59696437  0.00624855  1
  Ta  Ta84  1  0.69408426  0.90855603  0.38991114  1
  Ta  Ta85  1  0.40558348  0.39535743  0.52844689  1
  Ta  Ta86  1  0.21131128  0.40537274  0.24169222  1
  Ta  Ta87  1  0.91235187  0.69532575  0.86609856  1
  Ta  Ta88  1  0.20815773  0.01076376  0.25281371  1
  Ta  Ta89  1  0.69945856  0.49605612  0.88852692  1
  Ta  Ta90  1  0.60318700  0.79741138  0.75178536  1
  Ta  Ta91  1  -0.00552346  0.41194485  0.73494436  1
  Ta  Ta92  1  0.69759031  0.29528469  0.11257024  1
  Ta  Ta93  1  0.29562419  0.70677848  0.87072907  1
  Ta  Ta94  1  0.40297452  0.79645460  -0.00759377  1
  Ta  Ta95  1  0.40336334  0.19988775  -0.02238023  1
  Ta  Ta96  1  0.60151577  0.00117469  -0.00805633  1
  Ta  Ta97  1  0.00642894  0.40388018  0.51247442  1
  Ta  Ta98  1  0.48950703  0.70070461  0.36272351  1
  Ta  Ta99  1  0.09690608  0.49582959  0.35390371  1
  Ta  Ta100  1  0.59862657  0.19069921  -0.00537896  1
  Ta  Ta101  1  0.40270075  -0.00756567  0.51303684  1
  Ta  Ta102  1  0.89507413  0.89988806  0.61526591  1
  Ta  Ta103  1  0.69433637  0.49131201  0.10558869  1
  Ta  Ta104  1  0.19981145  0.61031711  0.00359989  1
  Ta  Ta105  1  0.40508670  0.40364727  -0.02268146  1
  Ta  Ta106  1  0.00051899  -0.00050361  0.50172108  1
  Ta  Ta107  1  0.49314247  0.70203092  0.64547883  1
  Ta  Ta108  1  0.30777246  0.90283810  0.37682851  1
  Ta  Ta109  1  0.80150831  -0.00296795  0.75528963  1
  Ta  Ta110  1  0.79935684  0.20395799  0.50562684  1
  Ta  Ta111  1  -0.00425633  0.19597922  0.01651710  1
  Ta  Ta112  1  -0.00279890  0.60407347  0.01783458  1
  Ta  Ta113  1  0.60612145  0.19369002  0.23574144  1
  Ta  Ta114  1  0.40542065  0.59539177  0.76701114  1
  Ta  Ta115  1  0.59847884  0.59580270  0.75711201  1
  Ta  Ta116  1  0.39022168  0.60384530  0.22888967  1
  Ta  Ta117  1  0.90558929  0.30226312  0.89285837  1
  Ta  Ta118  1  0.89640983  0.30164964  0.62596119  1
  Ta  Ta119  1  0.78927898  0.00494888  0.25775643  1
  Ti  Ti120  1  0.49479716  0.89820486  0.64017774  1
  Ti  Ti121  1  0.59017930  0.40176064  0.75612306  1
  Ti  Ti122  1  0.30234314  0.10210177  0.86145840  1
  Ti  Ti123  1  0.20088589  0.80804257  0.51003160  1
  Ti  Ti124  1  0.09023250  0.70945078  0.63991322  1
  Ti  Ti125  1  0.50043535  0.29872711  0.37081602  1
  Ti  Ti126  1  0.88794032  0.09359974  0.12302810  1
  Ti  Ti127  1  0.11164878  0.90734684  0.37857976  1
  Ti  Ti128  1  0.78533973  0.81409311  0.26207074  1
  Ti  Ti129  1  0.69399067  0.10099222  0.38877182  1
  Ti  Ti130  1  0.29369109  0.49642445  0.87482325  1
  Ti  Ti131  1  0.00154505  0.19294537  0.22514496  1
  Ti  Ti132  1  0.49401083  0.49615197  0.11725505  1
  Ti  Ti133  1  0.59577165  0.20694944  0.51145828  1
  Ti  Ti134  1  0.29965355  0.29926523  0.87215395  1
  Ti  Ti135  1  0.78945432  -0.00451580  -0.01427865  1
  Ti  Ti136  1  0.69274589  0.90301629  0.12282563  1
  Ti  Ti137  1  0.70056244  0.49904963  0.38258305  1
  Ti  Ti138  1  0.49544093  0.09967578  0.86535654  1
  Ti  Ti139  1  0.79839729  0.19287281  0.00763456  1
  Ti  Ti140  1  0.30817782  0.09643512  0.37464115  1
  Ti  Ti141  1  0.40256809  0.00151028  -0.01588572  1
  Ti  Ti142  1  0.78848968  0.19151879  0.23073056  1
  Ti  Ti143  1  0.80431227  0.00232267  0.49469402  1
  Ti  Ti144  1  0.89781836  0.09848409  0.62372913  1
  Ti  Ti145  1  0.70165791  0.90241492  0.60836013  1
  Ti  Ti146  1  0.49476005  0.71910282  0.13729314  1
  Ti  Ti147  1  0.39708811  0.40890147  0.23734888  1
  Ti  Ti148  1  0.20425400  0.00268580  -0.00526157  1
  Ti  Ti149  1  0.59081327  0.39835746  -0.01051292  1
  Ti  Ti150  1  0.39714653  0.21085028  0.74833868  1
  Ti  Ti151  1  0.29683403  0.71022822  0.11317016  1
  Ti  Ti152  1  0.20508361  0.59827965  0.23025309  1
  Ti  Ti153  1  0.80613399  0.39551192  0.01345866  1
  Ti  Ti154  1  0.79508185  0.39140554  0.23471814  1
  Ti  Ti155  1  0.10154400  0.89236642  0.87533103  1
  Ti  Ti156  1  0.89244472  0.90122749  0.38184506  1
  Ti  Ti157  1  -0.00188800  0.58656427  0.51232653  1
  Ti  Ti158  1  0.90336144  0.49115354  0.13086824  1
  Ti  Ti159  1  0.31046444  0.89611200  0.63555991  1
  Mo  Mo160  1  0.39823733  0.80330580  0.51396905  1
  Mo  Mo161  1  0.30511359  0.50402090  0.11040881  1
  Mo  Mo162  1  0.19177640  0.80786283  0.73817620  1
  Mo  Mo163  1  0.09364929  0.50640266  0.63395644  1
  Mo  Mo164  1  0.89443760  0.29291643  0.12346342  1
  Mo  Mo165  1  -0.01104816  0.39543409  0.02059528  1
  Mo  Mo166  1  0.20805179  0.19895822  0.75611778  1
  Mo  Mo167  1  0.60117267  0.80216684  0.24776258  1
  Mo  Mo168  1  0.50256739  0.89864520  0.12001032  1
  Mo  Mo169  1  0.30804380  0.09895593  0.64131353  1
  Mo  Mo170  1  0.10749613  0.09979868  0.11619872  1
  Mo  Mo171  1  0.09475738  0.30258560  0.62891422  1
  Mo  Mo172  1  0.89797572  0.50025552  0.61522037  1
  Mo  Mo173  1  0.09985138  0.89612084  0.61377610  1
  Mo  Mo174  1  0.70435983  0.09945522  0.88847412  1
  Mo  Mo175  1  0.39810780  0.00372377  0.74423142  1
  Mo  Mo176  1  0.50248688  0.49662193  0.86949104  1
  Mo  Mo177  1  0.40366850  0.39735636  0.75875896  1
  Mo  Mo178  1  0.70174278  0.09601787  0.10874430  1
  Mo  Mo179  1  0.39869103  0.79692461  0.24055317  1
  Mo  Mo180  1  0.70454106  0.89966412  0.87767170  1
  Mo  Mo181  1  0.79975310  0.81134865  0.49232879  1
  Mo  Mo182  1  0.59755824  -0.00198532  0.50746426  1
  Mo  Mo183  1  0.39501031  0.00434927  0.26134015  1
  Mo  Mo184  1  0.49878518  0.29696137  0.87322361  1
  Mo  Mo185  1  0.00191169  0.39475024  0.23161465  1
  Mo  Mo186  1  0.49847738  0.70131491  0.86217305  1
  Mo  Mo187  1  -0.00597486  0.59881145  0.73883257  1
  Mo  Mo188  1  0.49984860  0.50019284  0.64752330  1
  Mo  Mo189  1  0.10551862  0.69454990  0.13315984  1
  Mo  Mo190  1  -0.00571792  0.80329657  0.73777104  1
  Mo  Mo191  1  0.39820712  0.79726485  0.75730360  1
  Mo  Mo192  1  0.30436539  0.29793169  0.64284934  1
  Mo  Mo193  1  0.20958077  0.19689503  -0.02284820  1
  Mo  Mo194  1  0.00553848  0.59666598  0.23430352  1
  Mo  Mo195  1  0.20722959  0.19847792  0.26035260  1
  Mo  Mo196  1  0.21718674  0.40669112  -0.00534802  1
  Mo  Mo197  1  0.50235386  0.30144854  0.64627418  1
  Mo  Mo198  1  0.20881212  0.79781218  0.00198427  1
  Mo  Mo199  1  0.80105361  0.59542967  0.48509768  1
