# generated using pymatgen
data_HfZrTaTiMo
_symmetry_space_group_name_H-M   'P 1'
_cell_length_a   15.91899600
_cell_length_b   15.94441343
_cell_length_c   15.18529033
_cell_angle_alpha   90.07951612
_cell_angle_beta   89.93968531
_cell_angle_gamma   90.02977328
_symmetry_Int_Tables_number   1
_chemical_formula_structural   HfZrTaTiMo
_chemical_formula_sum   'Hf40 Zr40 Ta40 Ti40 Mo40'
_cell_volume   3854.30965753
_cell_formula_units_Z   40
loop_
 _symmetry_equiv_pos_site_id
 _symmetry_equiv_pos_as_xyz
  1  'x, y, z'
loop_
 _atom_site_type_symbol
 _atom_site_label
 _atom_site_symmetry_multiplicity
 _atom_site_fract_x
 _atom_site_fract_y
 _atom_site_fract_z
 _atom_site_occupancy
  Hf  Hf0  1  0.89648882  0.90830054  0.63449604  1
  Hf  Hf1  1  0.20507054  0.80342160  0.75926840  1
  Hf  Hf2  1  0.49759519  0.30749967  0.61367961  1
  Hf  Hf3  1  0.79845953  0.39828552  0.24563652  1
  Hf  Hf4  1  0.51243894  0.90660046  0.88287578  1
  Hf  Hf5  1  0.60474034  0.80277366  0.51281534  1
  Hf  Hf6  1  0.19459845  0.20127896  0.49651279  1
  Hf  Hf7  1  0.09388872  0.10605262  0.86464860  1
  Hf  Hf8  1  0.68629868  0.08462089  0.86298851  1
  Hf  Hf9  1  0.09821715  0.09931829  0.35878297  1
  Hf  Hf10  1  0.69815907  0.30416248  0.62337832  1
  Hf  Hf11  1  0.39847288  0.19729077  0.49248435  1
  Hf  Hf12  1  0.10688256  0.50427483  0.63379414  1
  Hf  Hf13  1  0.61198730  0.79278875  0.00783580  1
  Hf  Hf14  1  0.09956017  0.70120400  0.36656981  1
  Hf  Hf15  1  0.79438178  0.59858568  0.23645690  1
  Hf  Hf16  1  0.50474488  0.50190597  0.61160466  1
  Hf  Hf17  1  0.88182182  0.09593243  0.13453952  1
  Hf  Hf18  1  0.79676355  0.59689630  0.00681301  1
  Hf  Hf19  1  0.09148211  0.30012712  0.64052503  1
  Hf  Hf20  1  0.40194421  0.60017157  0.76159479  1
  Hf  Hf21  1  0.89921274  0.29889989  0.87207279  1
  Hf  Hf22  1  0.19343150  0.40689951  0.48089468  1
  Hf  Hf23  1  0.20398118  0.60103889  0.76760640  1
  Hf  Hf24  1  0.18941995  0.00425083  0.50334521  1
  Hf  Hf25  1  0.70732820  0.69143505  0.64107680  1
  Hf  Hf26  1  0.00110266  0.80218372  0.50641129  1
  Hf  Hf27  1  -0.00156350  0.19606332  0.49982100  1
  Hf  Hf28  1  0.00311574  0.59086136  0.23740180  1
  Hf  Hf29  1  0.79849890  0.81001769  0.76605255  1
  Hf  Hf30  1  0.19630978  0.41017373  0.25483284  1
  Hf  Hf31  1  -0.01619229  -0.00897123  0.25004414  1
  Hf  Hf32  1  0.90079192  0.49926394  0.37555972  1
  Hf  Hf33  1  -0.00145374  -0.00249171  0.00666833  1
  Hf  Hf34  1  -0.00240292  0.39749733  0.23479150  1
  Hf  Hf35  1  0.69364132  0.50358521  0.39009521  1
  Hf  Hf36  1  0.20391183  0.60691815  0.49058587  1
  Hf  Hf37  1  0.60645442  0.79271683  0.24810708  1
  Hf  Hf38  1  0.30059759  0.31676575  0.12011153  1
  Hf  Hf39  1  0.30554972  0.90384012  0.61939739  1
  Zr  Zr40  1  0.40461842  0.80068439  0.75053356  1
  Zr  Zr41  1  0.29796484  0.90388867  0.37618070  1
  Zr  Zr42  1  0.79456942  -0.00757802  -0.00872343  1
  Zr  Zr43  1  0.19816918  0.20651743  0.23855131  1
  Zr  Zr44  1  0.39577235  0.79137659  0.49757244  1
  Zr  Zr45  1  0.50588037  0.49771497  0.38067653  1
  Zr  Zr46  1  0.29926717  0.70182247  0.12283308  1
  Zr  Zr47  1  0.80838630  0.80456446  0.25235833  1
  Zr  Zr48  1  0.70051933  0.29698899  0.87666370  1
  Zr  Zr49  1  0.39156217  0.18840034  0.00655074  1
  Zr  Zr50  1  0.80135981  0.18837726  0.50417885  1
  Zr  Zr51  1  -0.00959039  0.42212753  0.76396654  1
  Zr  Zr52  1  0.10559734  0.70174134  0.11764072  1
  Zr  Zr53  1  0.80538546  0.80093658  0.50188650  1
  Zr  Zr54  1  0.90611970  0.09815394  0.64407764  1
  Zr  Zr55  1  0.20463997  0.80378806  -0.01942313  1
  Zr  Zr56  1  0.29358324  0.31248041  0.62104762  1
  Zr  Zr57  1  0.90280307  0.68018898  0.86868715  1
  Zr  Zr58  1  -0.00564122  0.40083775  0.50318456  1
  Zr  Zr59  1  0.48402143  0.08508570  0.87518357  1
  Zr  Zr60  1  0.00240715  0.60444311  0.51039613  1
  Zr  Zr61  1  0.89752565  0.09752917  0.86179228  1
  Zr  Zr62  1  0.70327110  0.10124654  0.35917992  1
  Zr  Zr63  1  0.20241440  0.20436935  0.75479984  1
  Zr  Zr64  1  0.39744419  0.40323980  0.76089390  1
  Zr  Zr65  1  0.39234072  0.19249236  0.74861044  1
  Zr  Zr66  1  0.00049199  0.20607977  0.01556128  1
  Zr  Zr67  1  0.81033562  0.60162944  0.51414229  1
  Zr  Zr68  1  0.59812315  0.19101399  0.00972452  1
  Zr  Zr69  1  0.69117448  0.47924148  0.10768147  1
  Zr  Zr70  1  0.51115536  0.68738287  0.38299280  1
  Zr  Zr71  1  0.40203216  0.79287012  0.25725484  1
  Zr  Zr72  1  0.90498326  0.70349607  0.11542397  1
  Zr  Zr73  1  0.31571184  0.92974179  0.87506568  1
  Zr  Zr74  1  0.50620465  0.30927083  0.12639961  1
  Zr  Zr75  1  0.61056369  0.00693988  0.51150195  1
  Zr  Zr76  1  0.59049926  0.18996783  0.73399742  1
  Zr  Zr77  1  0.19209804  0.20675415  0.00400217  1
  Zr  Zr78  1  0.60130580  0.80620940  0.74280680  1
  Zr  Zr79  1  0.40562398  0.60174657  0.00029745  1
  Ta  Ta80  1  0.59869861  0.19588360  0.50221309  1
  Ta  Ta81  1  0.70386217  0.90352247  0.37356252  1
  Ta  Ta82  1  0.10254458  0.89692882  0.12572225  1
  Ta  Ta83  1  0.19426879  0.79845807  0.50270862  1
  Ta  Ta84  1  0.10024907  0.91291555  0.86884540  1
  Ta  Ta85  1  0.80153789  0.80203034  -0.00902945  1
  Ta  Ta86  1  0.59533607  0.40334733  0.76146498  1
  Ta  Ta87  1  0.50517880  0.29843348  0.37656451  1
  Ta  Ta88  1  0.29947320  0.49784250  0.89363987  1
  Ta  Ta89  1  -0.01072578  0.20535298  0.24269531  1
  Ta  Ta90  1  0.20414065  0.59622806  0.25335109  1
  Ta  Ta91  1  0.10931960  0.49572366  0.10430826  1
  Ta  Ta92  1  0.49664636  0.89622222  0.12638296  1
  Ta  Ta93  1  0.09740269  0.89877812  0.37093577  1
  Ta  Ta94  1  0.20601803  0.01046164  0.74139830  1
  Ta  Ta95  1  0.71059330  0.49701700  0.86864508  1
  Ta  Ta96  1  0.50792648  0.69896259  0.87890677  1
  Ta  Ta97  1  -0.00923942  0.00309962  0.48936029  1
  Ta  Ta98  1  0.70130963  0.49393725  0.63403813  1
  Ta  Ta99  1  -0.00160012  0.80580636  -0.01535723  1
  Ta  Ta100  1  0.09044472  0.30032554  0.36441875  1
  Ta  Ta101  1  0.69630417  0.30385976  0.38550159  1
  Ta  Ta102  1  0.59728469  -0.00617348  0.24557060  1
  Ta  Ta103  1  0.60203466  0.59734220  0.23168877  1
  Ta  Ta104  1  0.20187677  0.00995770  0.00721332  1
  Ta  Ta105  1  0.30374862  0.09746675  0.36637213  1
  Ta  Ta106  1  0.70932612  0.90150252  0.13368099  1
  Ta  Ta107  1  0.00199620  0.80371241  0.75813995  1
  Ta  Ta108  1  0.30151959  0.50319238  0.62225392  1
  Ta  Ta109  1  0.49903092  0.09775883  0.36964243  1
  Ta  Ta110  1  0.49952504  0.29814506  0.88102585  1
  Ta  Ta111  1  0.39308643  0.40184162  0.48589552  1
  Ta  Ta112  1  0.40527469  0.80201102  -0.00467155  1
  Ta  Ta113  1  0.59878989  -0.00305529  0.02324467  1
  Ta  Ta114  1  0.10274836  0.70641595  0.63849962  1
  Ta  Ta115  1  0.00012893  0.80543458  0.24924259  1
  Ta  Ta116  1  0.40044838  0.59395169  0.24424851  1
  Ta  Ta117  1  0.50502138  0.90790541  0.38140353  1
  Ta  Ta118  1  0.19580254  0.40547062  0.77685394  1
  Ta  Ta119  1  0.30022914  0.90232720  0.12352036  1
  Ti  Ti120  1  0.89393443  0.30732396  0.64133011  1
  Ti  Ti121  1  0.60292892  0.39828717  0.25721078  1
  Ti  Ti122  1  0.09622350  0.90971566  0.63463111  1
  Ti  Ti123  1  0.19781224  0.60093950  -0.01212330  1
  Ti  Ti124  1  0.30535227  0.50800827  0.37167714  1
  Ti  Ti125  1  0.20178914  0.80081533  0.25470465  1
  Ti  Ti126  1  0.40125310  0.40376106  0.25665648  1
  Ti  Ti127  1  0.59733163  0.59323056  0.75541096  1
  Ti  Ti128  1  0.59916489  0.20567348  0.25084996  1
  Ti  Ti129  1  0.29658919  0.69558325  0.62857399  1
  Ti  Ti130  1  0.09698547  0.09725816  0.13455570  1
  Ti  Ti131  1  0.69952526  0.69069538  0.86812196  1
  Ti  Ti132  1  0.41016691  0.40346402  -0.00802305  1
  Ti  Ti133  1  0.40167095  -0.00403273  0.25074917  1
  Ti  Ti134  1  0.50089759  0.69229035  0.62316197  1
  Ti  Ti135  1  0.60042608  0.59465811  -0.00236647  1
  Ti  Ti136  1  0.19852535  -0.00669126  0.24350567  1
  Ti  Ti137  1  0.49966947  0.49436696  0.12326064  1
  Ti  Ti138  1  0.29945570  0.30103913  0.88886262  1
  Ti  Ti139  1  0.70074067  0.69276721  0.38219799  1
  Ti  Ti140  1  0.89476769  0.29608516  0.37562045  1
  Ti  Ti141  1  0.39418158  0.60119958  0.49775997  1
  Ti  Ti142  1  0.29914185  0.50070295  0.11389262  1
  Ti  Ti143  1  0.59750344  -0.00890883  0.72169276  1
  Ti  Ti144  1  0.09302527  0.69517393  0.87424237  1
  Ti  Ti145  1  0.30093977  0.29814906  0.36691443  1
  Ti  Ti146  1  0.00531442  0.40334520  -0.00567210  1
  Ti  Ti147  1  0.30278210  0.09384372  0.13804704  1
  Ti  Ti148  1  0.79908612  0.20927278  0.25093712  1
  Ti  Ti149  1  0.80318291  0.39914689  0.50682721  1
  Ti  Ti150  1  0.69774219  0.09806700  0.13956437  1
  Ti  Ti151  1  0.49729743  0.09570354  0.14036203  1
  Ti  Ti152  1  0.70096158  0.29567285  0.11540063  1
  Ti  Ti153  1  0.88859935  0.30760315  0.10983631  1
  Ti  Ti154  1  0.50355532  0.69684652  0.12179803  1
  Ti  Ti155  1  0.40289733  0.20297494  0.25288142  1
  Ti  Ti156  1  0.79124308  0.19679814  0.74369120  1
  Ti  Ti157  1  0.30433833  0.09690872  0.61448326  1
  Ti  Ti158  1  0.79509391  0.19335424  -0.00033555  1
  Ti  Ti159  1  0.90218246  0.69884164  0.36657037  1
  Mo  Mo160  1  0.60298312  0.39547393  0.49682215  1
  Mo  Mo161  1  0.80888792  -0.00016041  0.48337754  1
  Mo  Mo162  1  0.39989051  -0.00035868  0.02840765  1
  Mo  Mo163  1  0.09572407  0.50978396  0.88994955  1
  Mo  Mo164  1  0.79645616  -0.00374175  0.25650730  1
  Mo  Mo165  1  0.69707429  0.69679840  0.12082707  1
  Mo  Mo166  1  0.80415320  0.39393243  -0.00382740  1
  Mo  Mo167  1  0.90497671  0.89851764  0.87221741  1
  Mo  Mo168  1  0.49282310  0.09735804  0.61198027  1
  Mo  Mo169  1  0.09595406  0.30615532  0.13167375  1
  Mo  Mo170  1  0.89315205  0.49932718  0.62809995  1
  Mo  Mo171  1  0.50806155  0.50073013  0.88042735  1
  Mo  Mo172  1  0.09989907  0.50147867  0.36964617  1
  Mo  Mo173  1  0.59688329  0.40148104  -0.02011712  1
  Mo  Mo174  1  0.09961812  0.09589998  0.63205988  1
  Mo  Mo175  1  0.69466662  0.89956998  0.88602744  1
  Mo  Mo176  1  0.89615054  0.49629687  0.89287550  1
  Mo  Mo177  1  0.00192233  0.60581198  0.74235383  1
  Mo  Mo178  1  0.29319407  0.09751861  0.87834150  1
  Mo  Mo179  1  0.70976033  0.90627067  0.61743632  1
  Mo  Mo180  1  0.00416330  0.59590859  0.00604246  1
  Mo  Mo181  1  0.30569968  0.70184841  0.88310640  1
  Mo  Mo182  1  0.90399849  0.49256781  0.10637215  1
  Mo  Mo183  1  0.70658239  0.09523845  0.63677819  1
  Mo  Mo184  1  0.49746469  0.90153276  0.60789689  1
  Mo  Mo185  1  0.80628126  0.58654774  0.74938831  1
  Mo  Mo186  1  0.90169173  0.90092113  0.38729042  1
  Mo  Mo187  1  0.09668107  0.30678255  0.86864158  1
  Mo  Mo188  1  0.79624860  0.39925407  0.74827278  1
  Mo  Mo189  1  0.90881997  0.70106850  0.65005761  1
  Mo  Mo190  1  -0.00295533  0.20728144  0.74434605  1
  Mo  Mo191  1  0.78787388  -0.00535314  0.76019366  1
  Mo  Mo192  1  0.19827636  0.40137555  -0.00883361  1
  Mo  Mo193  1  0.29972666  0.69417486  0.36416026  1
  Mo  Mo194  1  0.90357510  0.89412613  0.10990356  1
  Mo  Mo195  1  0.89924088  0.10543429  0.36029824  1
  Mo  Mo196  1  0.40294026  0.00490376  0.49503936  1
  Mo  Mo197  1  0.40892925  0.00252936  0.72356305  1
  Mo  Mo198  1  0.60659614  0.60283617  0.52118982  1
  Mo  Mo199  1  0.00766760  -0.00360420  0.75131393  1
