# generated using pymatgen
data_HfZrTaTiMo
_symmetry_space_group_name_H-M   'P 1'
_cell_length_a   15.93709170
_cell_length_b   15.91143474
_cell_length_c   15.19786239
_cell_angle_alpha   90.01811110
_cell_angle_beta   89.97945055
_cell_angle_gamma   90.04590899
_symmetry_Int_Tables_number   1
_chemical_formula_structural   HfZrTaTiMo
_chemical_formula_sum   'Hf40 Zr40 Ta40 Ti40 Mo40'
_cell_volume   3853.90258067
_cell_formula_units_Z   40
loop_
 _symmetry_equiv_pos_site_id
 _symmetry_equiv_pos_as_xyz
  1  'x, y, z'
loop_
 _atom_site_type_symbol
 _atom_site_label
 _atom_site_symmetry_multiplicity
 _atom_site_fract_x
 _atom_site_fract_y
 _atom_site_fract_z
 _atom_site_occupancy
  Hf  Hf0  1  0.90186592  0.69225421  0.87048567  1
  Hf  Hf1  1  -0.02519380  0.40687686  0.00325047  1
  Hf  Hf2  1  0.49373890  0.89084844  0.86119933  1
  Hf  Hf3  1  0.71057926  0.29242166  0.62349374  1
  Hf  Hf4  1  0.79801659  0.39968372  0.24725501  1
  Hf  Hf5  1  -0.00457208  0.19631005  0.49682318  1
  Hf  Hf6  1  0.89847944  0.10533585  0.63399562  1
  Hf  Hf7  1  0.72251815  0.31171215  0.86575733  1
  Hf  Hf8  1  0.19564381  0.19219401  0.76426773  1
  Hf  Hf9  1  0.20024525  0.38930472  0.23507900  1
  Hf  Hf10  1  0.50476282  0.51320091  0.87722033  1
  Hf  Hf11  1  0.07671976  0.30324963  0.86604100  1
  Hf  Hf12  1  0.09798619  0.08667989  0.62772636  1
  Hf  Hf13  1  0.29066842  0.49420753  0.38545968  1
  Hf  Hf14  1  0.40116684  0.40040011  0.51276780  1
  Hf  Hf15  1  0.91359995  0.89951023  0.63905028  1
  Hf  Hf16  1  0.09639299  0.29891826  0.63071814  1
  Hf  Hf17  1  0.38889677  0.20350508  0.23414054  1
  Hf  Hf18  1  0.70041157  0.50186315  0.38214295  1
  Hf  Hf19  1  0.59489783  -0.00621804  0.00725728  1
  Hf  Hf20  1  0.69764799  0.90613778  0.61207418  1
  Hf  Hf21  1  0.09197506  0.71245638  0.12315256  1
  Hf  Hf22  1  0.39805745  0.59578773  0.25607632  1
  Hf  Hf23  1  0.20220954  0.61358976  0.50659615  1
  Hf  Hf24  1  0.09988964  0.50426533  0.62932929  1
  Hf  Hf25  1  0.61048162  0.00262159  0.25244619  1
  Hf  Hf26  1  0.59541069  0.39000817  -0.01035586  1
  Hf  Hf27  1  0.69832774  0.10004760  0.62344639  1
  Hf  Hf28  1  0.89093830  0.48141031  0.84524268  1
  Hf  Hf29  1  0.20564415  0.18914402  0.51158388  1
  Hf  Hf30  1  0.00767169  -0.02349865  0.48181574  1
  Hf  Hf31  1  0.70657136  0.69682580  0.38394293  1
  Hf  Hf32  1  0.89971572  0.50833180  0.37941903  1
  Hf  Hf33  1  0.29574208  0.29644082  0.38943442  1
  Hf  Hf34  1  0.70055709  0.10067763  0.88364023  1
  Hf  Hf35  1  0.50443367  0.70356067  0.85572708  1
  Hf  Hf36  1  0.39934268  0.39828119  0.76091234  1
  Hf  Hf37  1  0.39473879  0.19657889  0.00263628  1
  Hf  Hf38  1  0.49989104  0.29758277  0.37035017  1
  Hf  Hf39  1  0.40386712  0.61297450  0.00059277  1
  Zr  Zr40  1  0.79925005  -0.00064462  0.76250310  1
  Zr  Zr41  1  0.21228113  0.80907484  -0.00542513  1
  Zr  Zr42  1  0.30820850  0.71738053  0.13523514  1
  Zr  Zr43  1  0.19833923  0.59849314  0.24563785  1
  Zr  Zr44  1  0.20495058  0.00794190  -0.00770912  1
  Zr  Zr45  1  0.39298822  -0.01277984  0.01146327  1
  Zr  Zr46  1  0.11890091  0.08877313  0.37481060  1
  Zr  Zr47  1  0.40617345  0.60035663  0.50448367  1
  Zr  Zr48  1  0.69621295  0.48937184  0.12222757  1
  Zr  Zr49  1  0.38907119  0.00447708  0.23662438  1
  Zr  Zr50  1  0.69447283  0.69203854  0.89074052  1
  Zr  Zr51  1  0.82154487  0.58061669  0.01578343  1
  Zr  Zr52  1  0.90855344  0.30821831  0.37035020  1
  Zr  Zr53  1  0.39630783  0.39840453  0.23978681  1
  Zr  Zr54  1  0.09780163  0.71038257  0.36994962  1
  Zr  Zr55  1  0.89938958  0.29344686  0.13618819  1
  Zr  Zr56  1  0.70675240  0.89784319  0.12177048  1
  Zr  Zr57  1  0.19383112  0.40666324  -0.01017741  1
  Zr  Zr58  1  0.69618778  0.88914857  0.88776650  1
  Zr  Zr59  1  0.79667361  0.79542253  0.74679690  1
  Zr  Zr60  1  0.10315330  0.89301518  0.64811628  1
  Zr  Zr61  1  0.09298626  0.49348996  0.37774678  1
  Zr  Zr62  1  0.10161729  0.29126262  0.10816570  1
  Zr  Zr63  1  0.80470637  0.00407612  0.48358237  1
  Zr  Zr64  1  0.50171097  0.28947187  0.62715722  1
  Zr  Zr65  1  0.20042589  0.60521108  -0.01130000  1
  Zr  Zr66  1  0.28015189  0.91042740  0.37178024  1
  Zr  Zr67  1  0.59521082  0.40226459  0.50570069  1
  Zr  Zr68  1  0.01107330  0.19615073  0.25615217  1
  Zr  Zr69  1  0.51300503  0.10805256  0.12641968  1
  Zr  Zr70  1  0.49497980  0.89940203  0.37006934  1
  Zr  Zr71  1  0.39841380  -0.00125408  0.50830964  1
  Zr  Zr72  1  0.38751983  0.79741324  0.50886741  1
  Zr  Zr73  1  0.59639202  0.20211986  0.76620473  1
  Zr  Zr74  1  0.91254393  0.89921926  0.12340480  1
  Zr  Zr75  1  0.20566287  0.40966225  0.76122503  1
  Zr  Zr76  1  0.59858466  0.41136074  0.74294928  1
  Zr  Zr77  1  0.59501378  0.80021987  0.49935774  1
  Zr  Zr78  1  0.70342112  0.50903222  0.87589129  1
  Zr  Zr79  1  0.70329004  0.69804256  0.12215768  1
  Ta  Ta80  1  0.71258808  0.10665886  0.11780360  1
  Ta  Ta81  1  0.90784820  0.89715890  0.88233199  1
  Ta  Ta82  1  0.80723465  0.20746981  -0.00313240  1
  Ta  Ta83  1  0.89589974  0.50480085  0.62269846  1
  Ta  Ta84  1  0.10784830  0.30675740  0.38759393  1
  Ta  Ta85  1  0.49988156  0.69968706  0.14413049  1
  Ta  Ta86  1  0.69929768  0.30079310  0.37698416  1
  Ta  Ta87  1  0.90189911  0.70406983  0.38029147  1
  Ta  Ta88  1  0.39397680  0.59261320  0.74208556  1
  Ta  Ta89  1  0.40405919  0.19195146  0.51068072  1
  Ta  Ta90  1  0.09426653  0.89583628  0.87838451  1
  Ta  Ta91  1  0.60341533  0.79677531  0.25471366  1
  Ta  Ta92  1  0.29740505  0.29563583  0.62958885  1
  Ta  Ta93  1  0.30053092  0.49999265  0.11180879  1
  Ta  Ta94  1  0.50475996  0.09007611  0.63236222  1
  Ta  Ta95  1  0.08373378  0.50934806  0.86253999  1
  Ta  Ta96  1  0.79409880  0.18982707  0.26034932  1
  Ta  Ta97  1  0.50604968  0.69279593  0.63172099  1
  Ta  Ta98  1  0.00075556  0.60837752  0.50778017  1
  Ta  Ta99  1  0.49153954  0.09048009  0.87134391  1
  Ta  Ta100  1  0.50265191  0.50112658  0.12339035  1
  Ta  Ta101  1  0.69749700  0.51467861  0.60894857  1
  Ta  Ta102  1  0.30243309  0.09146686  0.64015945  1
  Ta  Ta103  1  0.60169409  0.59548914  0.25219239  1
  Ta  Ta104  1  0.20334943  0.00050317  0.77177722  1
  Ta  Ta105  1  0.57738985  0.79316434  0.01423330  1
  Ta  Ta106  1  0.81301831  0.00859860  -0.00141066  1
  Ta  Ta107  1  0.31132593  0.70821113  0.85944588  1
  Ta  Ta108  1  0.09682034  0.71006672  0.63686516  1
  Ta  Ta109  1  0.09112528  0.09578625  0.11061612  1
  Ta  Ta110  1  0.39948649  0.39838119  -0.00370527  1
  Ta  Ta111  1  0.80513037  0.39801690  0.50691071  1
  Ta  Ta112  1  0.29843093  0.71084624  0.36901384  1
  Ta  Ta113  1  0.80529601  0.00136786  0.25325116  1
  Ta  Ta114  1  0.00347048  0.60004542  -0.00004512  1
  Ta  Ta115  1  0.09000316  0.50166261  0.12709796  1
  Ta  Ta116  1  0.60124925  0.18670725  0.48823093  1
  Ta  Ta117  1  0.90359527  0.70531816  0.61675421  1
  Ta  Ta118  1  0.39668705  0.19613236  0.75798385  1
  Ta  Ta119  1  0.29789295  0.29496600  0.88343021  1
  Ti  Ti120  1  0.81134635  0.79640466  -0.00002406  1
  Ti  Ti121  1  0.20386491  0.60222875  0.75891121  1
  Ti  Ti122  1  0.69658602  0.29239387  0.12626306  1
  Ti  Ti123  1  0.80235930  0.19977279  0.48159929  1
  Ti  Ti124  1  0.80591591  0.80076135  0.25540819  1
  Ti  Ti125  1  0.19473602  0.81410666  0.24224483  1
  Ti  Ti126  1  0.09840131  0.70567784  0.86498302  1
  Ti  Ti127  1  0.31145687  0.89393200  0.85469671  1
  Ti  Ti128  1  -0.00537730  0.60335067  0.24549660  1
  Ti  Ti129  1  0.30461359  0.10074663  0.37707195  1
  Ti  Ti130  1  0.90536051  0.09595626  0.12786134  1
  Ti  Ti131  1  0.90793911  0.09231607  0.36309535  1
  Ti  Ti132  1  0.60884681  0.20079977  0.25897901  1
  Ti  Ti133  1  0.20536053  0.19786334  0.24178674  1
  Ti  Ti134  1  0.51032359  0.30629882  0.13212965  1
  Ti  Ti135  1  0.90047696  0.30079649  0.64962612  1
  Ti  Ti136  1  0.29004456  0.71161511  0.64282129  1
  Ti  Ti137  1  -0.00381249  0.60603852  0.73959817  1
  Ti  Ti138  1  0.90781077  0.70579010  0.12804390  1
  Ti  Ti139  1  0.78748350  0.60718957  0.72886403  1
  Ti  Ti140  1  0.29537547  0.49878822  0.62164229  1
  Ti  Ti141  1  0.09010997  0.90362214  0.11548208  1
  Ti  Ti142  1  -0.00319116  0.39947205  0.51354631  1
  Ti  Ti143  1  0.29239708  0.89997131  0.64060742  1
  Ti  Ti144  1  0.49952458  0.09888044  0.37309315  1
  Ti  Ti145  1  0.49813139  0.89994228  0.63651961  1
  Ti  Ti146  1  0.61175117  0.79238677  0.73236631  1
  Ti  Ti147  1  0.48577885  0.88382482  0.13989428  1
  Ti  Ti148  1  0.50692410  0.49700207  0.36733100  1
  Ti  Ti149  1  0.00648234  0.01018303  0.77460795  1
  Ti  Ti150  1  0.81498564  0.80751155  0.49733880  1
  Ti  Ti151  1  0.59763525  0.20418248  -0.00904214  1
  Ti  Ti152  1  0.18406039  0.81462016  0.49830910  1
  Ti  Ti153  1  0.80392187  0.60340355  0.24462954  1
  Ti  Ti154  1  0.19301646  0.00499930  0.22578449  1
  Ti  Ti155  1  0.60090414  -0.00461683  0.75598165  1
  Ti  Ti156  1  0.70315726  0.90016364  0.37748215  1
  Ti  Ti157  1  0.50176330  0.69644291  0.37068744  1
  Ti  Ti158  1  -0.00652883  0.19238233  -0.00999233  1
  Ti  Ti159  1  0.90138938  0.11326166  0.86684841  1
  Mo  Mo160  1  0.70522346  0.70291616  0.60227912  1
  Mo  Mo161  1  0.80205940  0.19982223  0.76006442  1
  Mo  Mo162  1  0.60461595  0.60634216  0.73058480  1
  Mo  Mo163  1  0.59675108  0.00459993  0.49068788  1
  Mo  Mo164  1  0.30151094  0.50786944  0.88487484  1
  Mo  Mo165  1  0.59918210  0.39394784  0.25130738  1
  Mo  Mo166  1  0.19546374  0.19956578  -0.01579650  1
  Mo  Mo167  1  -0.00346705  0.80143269  0.25638312  1
  Mo  Mo168  1  0.89861692  0.89329660  0.35686177  1
  Mo  Mo169  1  0.20126034  0.79801454  0.76583681  1
  Mo  Mo170  1  0.30603932  0.09643706  0.86442411  1
  Mo  Mo171  1  0.59271358  0.60173708  0.02054204  1
  Mo  Mo172  1  0.00468942  -0.00220252  0.25137674  1
  Mo  Mo173  1  0.79900493  0.38872453  0.01624635  1
  Mo  Mo174  1  0.28107840  0.10950507  0.12310318  1
  Mo  Mo175  1  0.39991940  0.79880277  0.26885132  1
  Mo  Mo176  1  0.00654547  0.40607984  0.24539196  1
  Mo  Mo177  1  -0.00194063  0.40518399  0.73457520  1
  Mo  Mo178  1  0.70094050  0.10071421  0.37354989  1
  Mo  Mo179  1  0.79574365  0.40611698  0.71972022  1
  Mo  Mo180  1  -0.00149281  0.79432913  0.76711676  1
  Mo  Mo181  1  0.90660358  0.50383949  0.14717917  1
  Mo  Mo182  1  -0.00378361  0.00534920  -0.01170344  1
  Mo  Mo183  1  0.20642773  -0.00792557  0.51330484  1
  Mo  Mo184  1  -0.00237877  0.19586182  0.75215321  1
  Mo  Mo185  1  0.00140428  0.79430364  -0.01171930  1
  Mo  Mo186  1  0.09508785  0.10069204  0.88615685  1
  Mo  Mo187  1  0.89754833  0.29588149  0.86050033  1
  Mo  Mo188  1  0.40099711  0.79675808  0.72805178  1
  Mo  Mo189  1  0.09763050  0.90041242  0.35366771  1
  Mo  Mo190  1  0.49778939  0.50587764  0.63728645  1
  Mo  Mo191  1  0.19927775  0.39763261  0.51556612  1
  Mo  Mo192  1  0.40353083  0.80326753  -0.00311689  1
  Mo  Mo193  1  0.80497554  0.60567136  0.50650979  1
  Mo  Mo194  1  0.59492938  0.60146803  0.49547702  1
  Mo  Mo195  1  0.49546790  0.29665871  0.87711583  1
  Mo  Mo196  1  0.29336893  0.90270185  0.13726932  1
  Mo  Mo197  1  0.00102216  0.79701177  0.49218459  1
  Mo  Mo198  1  0.29823953  0.30113394  0.10279748  1
  Mo  Mo199  1  0.40275016  -0.00268764  0.74060426  1
