# generated using pymatgen
data_HfZrTaTiMo
_symmetry_space_group_name_H-M   'P 1'
_cell_length_a   15.93936342
_cell_length_b   15.91920045
_cell_length_c   15.20996974
_cell_angle_alpha   89.97297648
_cell_angle_beta   90.01527497
_cell_angle_gamma   90.16186259
_symmetry_Int_Tables_number   1
_chemical_formula_structural   HfZrTaTiMo
_chemical_formula_sum   'Hf40 Zr40 Ta40 Ti40 Mo40'
_cell_volume   3859.39097911
_cell_formula_units_Z   40
loop_
 _symmetry_equiv_pos_site_id
 _symmetry_equiv_pos_as_xyz
  1  'x, y, z'
loop_
 _atom_site_type_symbol
 _atom_site_label
 _atom_site_symmetry_multiplicity
 _atom_site_fract_x
 _atom_site_fract_y
 _atom_site_fract_z
 _atom_site_occupancy
  Hf  Hf0  1  0.39792769  0.19512643  0.23669732  1
  Hf  Hf1  1  0.59632177  0.60172288  -0.00328013  1
  Hf  Hf2  1  0.69741661  0.70535147  0.36180653  1
  Hf  Hf3  1  0.81885907  0.00175006  0.74295837  1
  Hf  Hf4  1  0.90031767  0.50489494  0.89573698  1
  Hf  Hf5  1  0.70499108  0.90144690  0.86493710  1
  Hf  Hf6  1  0.48681865  0.29038024  0.38585069  1
  Hf  Hf7  1  0.49355822  0.70101857  0.12900790  1
  Hf  Hf8  1  0.79541417  0.20488403  0.00320820  1
  Hf  Hf9  1  0.71331259  0.11073623  0.61787064  1
  Hf  Hf10  1  0.88715373  0.49938606  0.60711822  1
  Hf  Hf11  1  0.28454630  0.29145598  0.37192135  1
  Hf  Hf12  1  0.39291784  0.59737001  -0.01654027  1
  Hf  Hf13  1  0.31005644  0.70378943  0.63187298  1
  Hf  Hf14  1  0.69860538  0.10117813  0.14082990  1
  Hf  Hf15  1  0.49949441  0.50383627  0.62701350  1
  Hf  Hf16  1  0.50732471  0.09464312  0.12348736  1
  Hf  Hf17  1  0.10471982  0.70643081  0.87400565  1
  Hf  Hf18  1  0.70611299  0.69428472  0.62463521  1
  Hf  Hf19  1  0.19903330  0.78750560  0.01764507  1
  Hf  Hf20  1  0.80797216  0.41027745  0.24984988  1
  Hf  Hf21  1  0.59396963  0.59429092  0.24487774  1
  Hf  Hf22  1  0.09330756  0.89401553  0.61166107  1
  Hf  Hf23  1  0.60292971  0.39664293  -0.01405578  1
  Hf  Hf24  1  0.50761009  0.29755748  0.11807816  1
  Hf  Hf25  1  0.20230809  0.01841110  0.51191438  1
  Hf  Hf26  1  -0.00584055  0.39786618  0.74568905  1
  Hf  Hf27  1  0.30079856  0.89400033  0.63164428  1
  Hf  Hf28  1  0.39203665  0.39678330  0.50700231  1
  Hf  Hf29  1  0.29110533  0.49104799  0.88313777  1
  Hf  Hf30  1  0.19750244  0.59635313  0.49965530  1
  Hf  Hf31  1  0.00507588  0.18900813  0.01666190  1
  Hf  Hf32  1  0.59550652  0.80399837  0.50426113  1
  Hf  Hf33  1  0.10696464  0.30249148  0.12585437  1
  Hf  Hf34  1  0.08791168  0.69442631  0.36040033  1
  Hf  Hf35  1  0.60546370  0.00092801  -0.00980675  1
  Hf  Hf36  1  0.89186804  0.89990039  0.13916851  1
  Hf  Hf37  1  0.28842439  0.89345997  0.86251656  1
  Hf  Hf38  1  0.19891895  0.19764689  0.72933671  1
  Hf  Hf39  1  -0.00958586  0.60274619  0.75226690  1
  Zr  Zr40  1  0.90760755  0.10399858  0.87570431  1
  Zr  Zr41  1  0.20164783  0.80131377  0.24545215  1
  Zr  Zr42  1  0.10291567  0.90681019  0.37338946  1
  Zr  Zr43  1  0.80409653  0.21299922  0.26729342  1
  Zr  Zr44  1  0.20574556  0.79762214  0.48590456  1
  Zr  Zr45  1  0.10021863  0.29749850  0.88169041  1
  Zr  Zr46  1  0.18634010  0.37805293  0.51982794  1
  Zr  Zr47  1  0.10004859  0.09062016  0.87297227  1
  Zr  Zr48  1  0.69858746  0.09864030  0.37962953  1
  Zr  Zr49  1  0.71791427  0.89475848  0.62680505  1
  Zr  Zr50  1  0.09515102  0.70209832  0.61810795  1
  Zr  Zr51  1  0.09070034  0.48590138  0.37245191  1
  Zr  Zr52  1  0.51160681  0.30426353  0.62776809  1
  Zr  Zr53  1  0.60278331  0.00161185  0.74004187  1
  Zr  Zr54  1  0.29137115  0.66690535  0.14476930  1
  Zr  Zr55  1  0.80047754  0.00423957  0.00801898  1
  Zr  Zr56  1  0.40612744  0.19069300  -0.00851738  1
  Zr  Zr57  1  0.09679535  0.49804035  0.89487401  1
  Zr  Zr58  1  -0.00892513  0.80756256  0.75830800  1
  Zr  Zr59  1  0.10677102  0.12207551  0.36644924  1
  Zr  Zr60  1  0.48706595  0.69577889  0.37878029  1
  Zr  Zr61  1  0.90014094  0.70955217  0.60156958  1
  Zr  Zr62  1  0.19666093  -0.00524759  0.01722701  1
  Zr  Zr63  1  0.69892248  0.70246676  0.87818466  1
  Zr  Zr64  1  0.39481941  0.79617883  -0.00683192  1
  Zr  Zr65  1  0.80227364  0.59866714  0.75675844  1
  Zr  Zr66  1  0.51799914  0.89220377  0.11944820  1
  Zr  Zr67  1  0.69197163  0.72549849  0.13152033  1
  Zr  Zr68  1  0.29847502  0.50248351  0.37368975  1
  Zr  Zr69  1  0.50024055  0.10295366  0.62620798  1
  Zr  Zr70  1  0.11606148  0.51804250  0.12065490  1
  Zr  Zr71  1  0.48426396  0.49119330  0.12208887  1
  Zr  Zr72  1  0.70946927  0.51112455  0.37284479  1
  Zr  Zr73  1  0.19607218  0.59740167  0.74954902  1
  Zr  Zr74  1  0.30922257  0.10287028  0.38055422  1
  Zr  Zr75  1  0.39998470  0.40197905  0.75472560  1
  Zr  Zr76  1  0.59936730  0.59891094  0.50536067  1
  Zr  Zr77  1  0.00331980  0.80513394  0.01194814  1
  Zr  Zr78  1  0.79097714  0.39191070  0.76125822  1
  Zr  Zr79  1  0.59876074  -0.00473107  0.50427610  1
  Ta  Ta80  1  0.00211115  0.00371480  0.72893023  1
  Ta  Ta81  1  -0.00407891  0.00988245  0.48917040  1
  Ta  Ta82  1  0.50345716  0.09929771  0.86299783  1
  Ta  Ta83  1  0.49240891  0.49823515  0.37688720  1
  Ta  Ta84  1  0.89031231  0.69100568  0.36199760  1
  Ta  Ta85  1  0.80108242  -0.00106438  0.26549654  1
  Ta  Ta86  1  0.81289988  0.20724985  0.48511566  1
  Ta  Ta87  1  0.61548400  0.21398324  0.75518744  1
  Ta  Ta88  1  0.89624276  0.70448788  0.14355314  1
  Ta  Ta89  1  0.39888971  0.39578019  0.25327888  1
  Ta  Ta90  1  0.49471325  0.70019355  0.86057971  1
  Ta  Ta91  1  0.39869066  0.19958089  0.75268112  1
  Ta  Ta92  1  0.21125230  0.00597722  0.23908664  1
  Ta  Ta93  1  0.59717657  0.79500081  0.74512844  1
  Ta  Ta94  1  0.20852537  0.18994847  0.01045785  1
  Ta  Ta95  1  0.91071916  0.91012543  0.88950253  1
  Ta  Ta96  1  0.80524567  0.39627520  0.47914302  1
  Ta  Ta97  1  0.60535513  0.20447256  0.49265954  1
  Ta  Ta98  1  0.40373977  -0.00340367  0.24592103  1
  Ta  Ta99  1  0.19445323  0.39662522  0.73794613  1
  Ta  Ta100  1  0.29853713  0.09480410  0.86665530  1
  Ta  Ta101  1  0.79829800  0.39978078  0.00938489  1
  Ta  Ta102  1  0.69821455  0.49794296  0.12617795  1
  Ta  Ta103  1  0.30131109  0.50522159  0.62633036  1
  Ta  Ta104  1  0.70756994  0.30573727  0.60870281  1
  Ta  Ta105  1  0.50435982  0.30021852  0.86770283  1
  Ta  Ta106  1  0.31055505  0.90433561  0.37590129  1
  Ta  Ta107  1  0.00016127  0.00963722  0.25784043  1
  Ta  Ta108  1  0.31000150  0.31113771  0.10664243  1
  Ta  Ta109  1  0.79900407  0.80468321  0.47726129  1
  Ta  Ta110  1  -0.00484750  0.40244581  0.23478260  1
  Ta  Ta111  1  0.80186229  0.60511858  0.01628950  1
  Ta  Ta112  1  0.29478460  0.29589934  0.87981773  1
  Ta  Ta113  1  0.59751439  0.59101537  0.75413148  1
  Ta  Ta114  1  0.49992307  0.89721085  0.86834335  1
  Ta  Ta115  1  0.90343845  0.10148516  0.14339759  1
  Ta  Ta116  1  0.59882386  0.39278139  0.26165675  1
  Ta  Ta117  1  0.59703417  0.20310928  0.26694965  1
  Ta  Ta118  1  0.80158804  0.80264836  -0.00071908  1
  Ta  Ta119  1  0.40072993  0.80249024  0.25495140  1
  Ti  Ti120  1  0.90541285  0.89805109  0.60133205  1
  Ti  Ti121  1  0.89873187  0.29761230  0.12883815  1
  Ti  Ti122  1  0.19193693  0.00070354  0.73610087  1
  Ti  Ti123  1  0.69534183  0.30117084  0.13170374  1
  Ti  Ti124  1  -0.01060031  0.59337386  0.48745650  1
  Ti  Ti125  1  0.70679134  0.10486992  0.86168197  1
  Ti  Ti126  1  0.60007392  -0.00828358  0.26012781  1
  Ti  Ti127  1  0.30608544  0.69474701  0.37301447  1
  Ti  Ti128  1  0.20966471  0.19391523  0.22210020  1
  Ti  Ti129  1  0.60896743  0.19846913  -0.01699766  1
  Ti  Ti130  1  0.70123647  0.49991439  0.88145045  1
  Ti  Ti131  1  0.90219666  0.30136140  0.88544885  1
  Ti  Ti132  1  -0.00545546  0.40070519  0.01883966  1
  Ti  Ti133  1  -0.00004627  0.61652168  0.01442995  1
  Ti  Ti134  1  0.80967011  0.00023951  0.48289900  1
  Ti  Ti135  1  0.60441393  0.39809177  0.48400413  1
  Ti  Ti136  1  0.48981521  0.69798010  0.63366621  1
  Ti  Ti137  1  0.40118154  -0.00597441  0.51019859  1
  Ti  Ti138  1  0.31266319  0.89904349  0.12798814  1
  Ti  Ti139  1  0.10196297  0.30068299  0.35424470  1
  Ti  Ti140  1  0.80834915  0.20798781  0.74851555  1
  Ti  Ti141  1  0.90005006  0.30075276  0.61377491  1
  Ti  Ti142  1  0.20928025  0.40609431  0.23546329  1
  Ti  Ti143  1  0.01659879  0.20996242  0.50672767  1
  Ti  Ti144  1  0.90471513  0.89446790  0.36691901  1
  Ti  Ti145  1  0.81391595  0.79587552  0.76333916  1
  Ti  Ti146  1  0.92521360  0.30547455  0.37504231  1
  Ti  Ti147  1  0.08662430  0.49608491  0.61613018  1
  Ti  Ti148  1  0.08912174  0.90298451  0.14382160  1
  Ti  Ti149  1  -0.01395136  0.58758900  0.24162564  1
  Ti  Ti150  1  0.37613391  0.19814382  0.52923375  1
  Ti  Ti151  1  0.09768569  0.90636958  0.87240231  1
  Ti  Ti152  1  0.49510471  0.09466978  0.38210687  1
  Ti  Ti153  1  0.48649529  0.88461933  0.63588137  1
  Ti  Ti154  1  0.90524632  0.10699409  0.60814713  1
  Ti  Ti155  1  -0.00368079  0.19838810  0.73999924  1
  Ti  Ti156  1  0.49641261  0.89968116  0.37654079  1
  Ti  Ti157  1  0.69796022  0.49069902  0.62035731  1
  Ti  Ti158  1  0.39815154  0.00163963  0.75034696  1
  Ti  Ti159  1  0.39941262  -0.00155942  -0.00694921  1
  Mo  Mo160  1  0.19481003  0.59354830  0.27003997  1
  Mo  Mo161  1  0.39512273  0.60045878  0.51059282  1
  Mo  Mo162  1  0.00163486  -0.00109884  0.02653583  1
  Mo  Mo163  1  0.19411268  0.80693198  0.74956688  1
  Mo  Mo164  1  0.60782073  0.40382447  0.76059568  1
  Mo  Mo165  1  0.09015740  0.70054646  0.14536895  1
  Mo  Mo166  1  0.70742340  0.29601145  0.88164900  1
  Mo  Mo167  1  0.20238714  0.39447026  0.00806575  1
  Mo  Mo168  1  -0.00887326  0.80302002  0.47480910  1
  Mo  Mo169  1  0.19855715  0.60565156  -0.01171524  1
  Mo  Mo170  1  0.39962364  0.60000257  0.75754781  1
  Mo  Mo171  1  0.79948189  0.60062873  0.22862183  1
  Mo  Mo172  1  0.69708643  0.30530250  0.38184924  1
  Mo  Mo173  1  0.08966892  0.09948654  0.61992701  1
  Mo  Mo174  1  0.60027984  0.80303209  -0.02348633  1
  Mo  Mo175  1  -0.00587065  0.80239871  0.25406935  1
  Mo  Mo176  1  0.29754449  0.69865999  0.85783517  1
  Mo  Mo177  1  0.40279646  0.39349742  -0.01996730  1
  Mo  Mo178  1  0.00220154  0.20874375  0.24101716  1
  Mo  Mo179  1  0.39890998  0.59140013  0.25329265  1
  Mo  Mo180  1  0.30035675  0.48883011  0.11801404  1
  Mo  Mo181  1  0.69896520  0.90044619  0.36963923  1
  Mo  Mo182  1  0.59150235  0.81064855  0.26741238  1
  Mo  Mo183  1  0.50337166  0.50095296  0.86512752  1
  Mo  Mo184  1  0.30394894  0.09340912  0.63964627  1
  Mo  Mo185  1  0.08552473  0.29849905  0.63986650  1
  Mo  Mo186  1  0.10197963  0.09782280  0.13983635  1
  Mo  Mo187  1  0.79627401  0.80693647  0.26194886  1
  Mo  Mo188  1  0.90822636  0.10519818  0.37646233  1
  Mo  Mo189  1  0.40106561  0.80077036  0.76049522  1
  Mo  Mo190  1  0.90319086  0.50181727  0.37854098  1
  Mo  Mo191  1  0.79997474  0.60090854  0.49944747  1
  Mo  Mo192  1  0.90078919  0.50200972  0.11123412  1
  Mo  Mo193  1  0.30751458  0.09250877  0.11732747  1
  Mo  Mo194  1  0.19753958  0.20119104  0.51877225  1
  Mo  Mo195  1  0.69992270  0.90379663  0.14280936  1
  Mo  Mo196  1  0.40103468  0.80562938  0.49019882  1
  Mo  Mo197  1  0.30146717  0.30120939  0.63995218  1
  Mo  Mo198  1  -0.00704650  0.39115406  0.50415043  1
  Mo  Mo199  1  0.89989416  0.70543748  0.89937551  1
