# generated using pymatgen
data_HfZrTaTiMo
_symmetry_space_group_name_H-M   'P 1'
_cell_length_a   15.92210473
_cell_length_b   15.92563861
_cell_length_c   15.20464702
_cell_angle_alpha   90.02294931
_cell_angle_beta   89.95884985
_cell_angle_gamma   90.01216134
_symmetry_Int_Tables_number   1
_chemical_formula_structural   HfZrTaTiMo
_chemical_formula_sum   'Hf40 Zr40 Ta40 Ti40 Mo40'
_cell_volume   3855.43617958
_cell_formula_units_Z   40
loop_
 _symmetry_equiv_pos_site_id
 _symmetry_equiv_pos_as_xyz
  1  'x, y, z'
loop_
 _atom_site_type_symbol
 _atom_site_label
 _atom_site_symmetry_multiplicity
 _atom_site_fract_x
 _atom_site_fract_y
 _atom_site_fract_z
 _atom_site_occupancy
  Hf  Hf0  1  0.59846057  0.40673424  0.24554552  1
  Hf  Hf1  1  0.69530047  0.71320862  0.36700513  1
  Hf  Hf2  1  0.90208416  0.69873636  0.61452952  1
  Hf  Hf3  1  0.62022026  0.39379949  0.76247491  1
  Hf  Hf4  1  0.71224759  0.50426598  0.12472517  1
  Hf  Hf5  1  0.10203589  0.09151784  0.64238394  1
  Hf  Hf6  1  0.30331631  0.89525281  0.60891790  1
  Hf  Hf7  1  0.40041415  0.80578488  0.00161467  1
  Hf  Hf8  1  0.20021268  0.00180203  0.00611665  1
  Hf  Hf9  1  0.90648930  0.90390203  0.12607062  1
  Hf  Hf10  1  0.70375596  0.90698331  0.11751370  1
  Hf  Hf11  1  0.40052885  0.59942352  0.75733975  1
  Hf  Hf12  1  0.90660275  0.29866862  0.37861465  1
  Hf  Hf13  1  0.88916916  0.89695870  0.37863374  1
  Hf  Hf14  1  0.30487740  0.49320680  0.62446923  1
  Hf  Hf15  1  -0.00416622  0.41619800  0.75924095  1
  Hf  Hf16  1  0.29442888  0.69995761  0.61557229  1
  Hf  Hf17  1  0.00991964  0.41894686  0.00062419  1
  Hf  Hf18  1  0.49603879  0.70429507  0.37830841  1
  Hf  Hf19  1  0.39930447  0.00235149  0.24937998  1
  Hf  Hf20  1  0.27969967  0.70306353  0.89202138  1
  Hf  Hf21  1  0.69852958  0.69483206  0.63847730  1
  Hf  Hf22  1  0.28738415  0.69607370  0.12364749  1
  Hf  Hf23  1  0.39956588  0.39478121  0.48951256  1
  Hf  Hf24  1  0.69914765  0.10034349  0.37147987  1
  Hf  Hf25  1  0.59856180  -0.00547159  -0.01856704  1
  Hf  Hf26  1  0.50274382  0.70277637  0.62734347  1
  Hf  Hf27  1  0.60677791  0.00579390  0.50781953  1
  Hf  Hf28  1  0.60577449  0.19980828  0.74102447  1
  Hf  Hf29  1  0.79417090  0.59791194  0.48229520  1
  Hf  Hf30  1  0.49889876  0.30230593  0.11164448  1
  Hf  Hf31  1  0.80152957  0.20575029  -0.00086514  1
  Hf  Hf32  1  0.81874858  0.59381624  0.76513725  1
  Hf  Hf33  1  0.70691061  0.50239554  0.63696149  1
  Hf  Hf34  1  0.80514048  0.00928647  -0.01485340  1
  Hf  Hf35  1  0.38351059  0.80509969  0.76676569  1
  Hf  Hf36  1  0.50516097  0.69268063  0.88235929  1
  Hf  Hf37  1  0.19088505  0.59453433  0.75440066  1
  Hf  Hf38  1  -0.00872139  0.20940963  0.75381615  1
  Hf  Hf39  1  0.59793794  0.20301952  0.51337778  1
  Zr  Zr40  1  0.30028917  0.89469498  0.37573750  1
  Zr  Zr41  1  0.40465851  0.79759304  0.22933923  1
  Zr  Zr42  1  0.79766601  0.20456681  0.24930786  1
  Zr  Zr43  1  0.49569186  0.09661572  0.11807999  1
  Zr  Zr44  1  0.70313359  0.10235334  0.85800500  1
  Zr  Zr45  1  0.40561299  0.59480043  0.50190616  1
  Zr  Zr46  1  0.70097768  0.89431752  0.63371241  1
  Zr  Zr47  1  0.08933026  0.89327174  0.63182698  1
  Zr  Zr48  1  0.39808204  0.19969597  0.49888170  1
  Zr  Zr49  1  0.30466369  0.48178877  0.87746896  1
  Zr  Zr50  1  0.40246523  0.59525664  0.23400848  1
  Zr  Zr51  1  0.00422568  0.00269927  -0.00740866  1
  Zr  Zr52  1  0.58764543  0.81014046  0.76517894  1
  Zr  Zr53  1  0.80734316  0.00343769  0.74029910  1
  Zr  Zr54  1  -0.00527687  0.19994791  -0.00517633  1
  Zr  Zr55  1  0.09052204  0.87702056  0.87189108  1
  Zr  Zr56  1  0.40449685  0.00874615  0.49176429  1
  Zr  Zr57  1  0.10751279  0.30430502  0.88320576  1
  Zr  Zr58  1  0.60689779  0.19945730  -0.00543813  1
  Zr  Zr59  1  0.79538204  0.40427992  0.48695952  1
  Zr  Zr60  1  0.20032815  0.39925192  0.24579748  1
  Zr  Zr61  1  0.48906256  0.30076995  0.87830314  1
  Zr  Zr62  1  0.08668470  0.49999981  0.60977325  1
  Zr  Zr63  1  0.21191495  -0.02484499  0.76414331  1
  Zr  Zr64  1  0.49076709  0.31181211  0.64186362  1
  Zr  Zr65  1  0.30714683  0.09686081  0.64167249  1
  Zr  Zr66  1  0.91095358  0.51668089  0.13940025  1
  Zr  Zr67  1  0.89953450  0.69782174  0.36512837  1
  Zr  Zr68  1  0.09685518  0.90545822  0.36746145  1
  Zr  Zr69  1  0.08380048  0.68898249  0.13034383  1
  Zr  Zr70  1  0.79604228  0.19621836  0.51583029  1
  Zr  Zr71  1  0.30101038  0.10305608  0.87160589  1
  Zr  Zr72  1  0.39736299  0.39888169  0.23737060  1
  Zr  Zr73  1  0.19347035  0.38447719  0.49861786  1
  Zr  Zr74  1  0.01603650  0.20210732  0.51002683  1
  Zr  Zr75  1  0.40254987  0.58783530  0.01363707  1
  Zr  Zr76  1  0.89851113  0.10035723  0.13995192  1
  Zr  Zr77  1  0.50873393  0.89332930  0.38006560  1
  Zr  Zr78  1  0.18032656  0.57428066  0.00503435  1
  Zr  Zr79  1  0.59897590  0.40512263  0.49632013  1
  Ta  Ta80  1  0.19320752  0.79660041  0.49428602  1
  Ta  Ta81  1  0.09271974  0.29855028  0.13011316  1
  Ta  Ta82  1  0.30009899  0.29640067  0.64291451  1
  Ta  Ta83  1  0.29877730  0.50261704  0.37406080  1
  Ta  Ta84  1  0.79326395  0.80385297  0.24023522  1
  Ta  Ta85  1  0.19405741  0.00933792  0.49506261  1
  Ta  Ta86  1  0.88162616  0.32198334  0.87914392  1
  Ta  Ta87  1  0.90013978  0.31485550  0.12802984  1
  Ta  Ta88  1  0.90807754  0.31966048  0.61694004  1
  Ta  Ta89  1  0.10092428  0.70082691  0.36972994  1
  Ta  Ta90  1  0.79769082  0.22199973  0.73878767  1
  Ta  Ta91  1  0.70755190  0.69903331  0.87356190  1
  Ta  Ta92  1  0.80153897  -0.00240066  0.50769647  1
  Ta  Ta93  1  0.10435515  0.28972469  0.36250343  1
  Ta  Ta94  1  0.29581112  0.69993846  0.37244581  1
  Ta  Ta95  1  0.60018057  0.80084235  0.22880535  1
  Ta  Ta96  1  0.60212888  -0.00453211  0.25239385  1
  Ta  Ta97  1  0.80932953  0.60308928  -0.01010385  1
  Ta  Ta98  1  0.28798787  0.10608708  0.36356468  1
  Ta  Ta99  1  0.60438198  0.59627252  0.49120261  1
  Ta  Ta100  1  0.70515829  0.30667256  0.12711292  1
  Ta  Ta101  1  0.50248153  0.50509885  0.36847439  1
  Ta  Ta102  1  0.50956047  0.49435292  0.87889307  1
  Ta  Ta103  1  0.49224320  0.09891257  0.86950006  1
  Ta  Ta104  1  0.69213743  0.30011641  0.36606808  1
  Ta  Ta105  1  0.19668123  0.59808630  0.48738818  1
  Ta  Ta106  1  0.89330050  0.70124343  0.12758444  1
  Ta  Ta107  1  -0.00262739  0.80070897  0.49611256  1
  Ta  Ta108  1  0.30211034  0.29637851  0.87127591  1
  Ta  Ta109  1  0.09817989  0.09647285  0.86233276  1
  Ta  Ta110  1  0.90331750  0.89640126  0.87126146  1
  Ta  Ta111  1  0.00690017  0.61357850  0.76845678  1
  Ta  Ta112  1  0.19590778  0.19585015  0.01378127  1
  Ta  Ta113  1  0.60610191  0.79675216  -0.00006521  1
  Ta  Ta114  1  -0.00195191  0.00208538  0.49849188  1
  Ta  Ta115  1  0.59598927  0.60590026  0.23472601  1
  Ta  Ta116  1  0.90525464  0.09606602  0.37575308  1
  Ta  Ta117  1  -0.00088124  0.80288978  0.24554662  1
  Ta  Ta118  1  0.19406948  0.39650621  0.74246359  1
  Ta  Ta119  1  0.19809994  0.00232599  0.23962092  1
  Ti  Ti120  1  0.19563035  0.59074544  0.25314247  1
  Ti  Ti121  1  0.49527035  0.89797018  0.62024475  1
  Ti  Ti122  1  0.90734709  0.50618895  0.60540485  1
  Ti  Ti123  1  0.00114442  0.20077127  0.24846531  1
  Ti  Ti124  1  0.80270974  0.80092708  -0.00150897  1
  Ti  Ti125  1  0.90679113  0.09744135  0.62892152  1
  Ti  Ti126  1  0.50044415  0.29572815  0.36392451  1
  Ti  Ti127  1  0.41068601  -0.01731680  0.76885556  1
  Ti  Ti128  1  0.69742958  0.09881910  0.12960230  1
  Ti  Ti129  1  0.10134387  0.10431309  0.36614930  1
  Ti  Ti130  1  0.61050355  0.59682046  -0.00017443  1
  Ti  Ti131  1  0.38385263  0.19634486  0.00912386  1
  Ti  Ti132  1  0.29940959  0.90657377  0.12057245  1
  Ti  Ti133  1  0.72035847  0.48907302  0.88136981  1
  Ti  Ti134  1  0.80083501  0.40901639  0.26228872  1
  Ti  Ti135  1  0.81579762  0.79798504  0.75047468  1
  Ti  Ti136  1  0.39307127  0.19990195  0.24060502  1
  Ti  Ti137  1  0.09142728  0.09370968  0.13570892  1
  Ti  Ti138  1  0.59690846  0.20054564  0.24173185  1
  Ti  Ti139  1  0.20233325  0.19723721  0.50877005  1
  Ti  Ti140  1  0.50007785  0.10921858  0.36442983  1
  Ti  Ti141  1  0.91506177  0.71530188  0.88721818  1
  Ti  Ti142  1  0.70709374  0.89372118  0.86800398  1
  Ti  Ti143  1  0.19716187  0.80354094  0.24358495  1
  Ti  Ti144  1  0.18415983  0.78095520  0.74670158  1
  Ti  Ti145  1  0.60843295  0.80119632  0.50451340  1
  Ti  Ti146  1  0.61063648  0.40203624  -0.00306943  1
  Ti  Ti147  1  0.09091145  0.49983794  0.37771594  1
  Ti  Ti148  1  0.49993967  0.08805771  0.64760846  1
  Ti  Ti149  1  0.79492487  -0.00328232  0.25847113  1
  Ti  Ti150  1  0.50354287  0.90539962  0.11432868  1
  Ti  Ti151  1  0.51237054  0.50737532  0.64487199  1
  Ti  Ti152  1  0.20274964  0.19760188  0.22975614  1
  Ti  Ti153  1  0.19518143  0.20505387  0.74911005  1
  Ti  Ti154  1  0.18227594  0.80751316  0.01698996  1
  Ti  Ti155  1  0.29627810  0.29032785  0.36772936  1
  Ti  Ti156  1  0.21027844  0.39081493  0.02148373  1
  Ti  Ti157  1  0.09128131  0.69300394  0.60745909  1
  Ti  Ti158  1  0.00217860  0.40316632  0.25797918  1
  Ti  Ti159  1  0.70683786  0.69873114  0.11960194  1
  Mo  Mo160  1  0.29469331  0.89562241  0.89541088  1
  Mo  Mo161  1  0.51276205  0.49840970  0.10352714  1
  Mo  Mo162  1  0.60910539  0.59371393  0.77363444  1
  Mo  Mo163  1  -0.00100019  0.00542191  0.26535958  1
  Mo  Mo164  1  0.80482933  0.40437465  0.01628886  1
  Mo  Mo165  1  0.29582286  0.09833541  0.13291332  1
  Mo  Mo166  1  0.70587832  0.30737829  0.88556885  1
  Mo  Mo167  1  0.00114168  0.39900654  0.48099155  1
  Mo  Mo168  1  0.49668971  0.90033349  0.88952592  1
  Mo  Mo169  1  0.70002003  0.89988848  0.37064405  1
  Mo  Mo170  1  0.81114854  0.40293581  0.73709506  1
  Mo  Mo171  1  0.29769808  0.29129910  0.11967568  1
  Mo  Mo172  1  0.90334585  0.49952596  0.36622535  1
  Mo  Mo173  1  -0.00722149  0.80081019  0.02017251  1
  Mo  Mo174  1  0.51587178  0.70116145  0.10793006  1
  Mo  Mo175  1  0.79429573  0.80415339  0.50531031  1
  Mo  Mo176  1  0.39757295  0.00047232  -0.00299826  1
  Mo  Mo177  1  0.00150300  0.60029904  0.48143626  1
  Mo  Mo178  1  0.79306679  0.60618677  0.25465704  1
  Mo  Mo179  1  0.70175976  0.10077708  0.63177426  1
  Mo  Mo180  1  0.69552052  0.50929954  0.35261384  1
  Mo  Mo181  1  0.90266505  0.50653643  0.88636705  1
  Mo  Mo182  1  0.09487063  0.70057677  0.89106949  1
  Mo  Mo183  1  -0.00569415  -0.00090361  0.75877093  1
  Mo  Mo184  1  0.00314102  0.59819937  0.26774458  1
  Mo  Mo185  1  0.39838981  0.79589994  0.50234408  1
  Mo  Mo186  1  0.59253264  -0.00250265  0.75332290  1
  Mo  Mo187  1  0.09728905  0.49384553  0.14500087  1
  Mo  Mo188  1  0.39655412  0.39435469  0.01087664  1
  Mo  Mo189  1  0.90373544  0.10612430  0.85661085  1
  Mo  Mo190  1  0.70520018  0.30512686  0.61712945  1
  Mo  Mo191  1  -0.00462743  0.60587004  -0.01468934  1
  Mo  Mo192  1  0.40054376  0.40314510  0.75253305  1
  Mo  Mo193  1  0.10065982  0.90013930  0.13960057  1
  Mo  Mo194  1  0.10404375  0.49958790  0.86602304  1
  Mo  Mo195  1  0.29805110  0.49494714  0.12804418  1
  Mo  Mo196  1  0.10054016  0.29833048  0.63384968  1
  Mo  Mo197  1  0.90016501  0.89565419  0.60952693  1
  Mo  Mo198  1  0.39862313  0.19721597  0.75206949  1
  Mo  Mo199  1  -0.00672454  0.79128671  0.73695845  1
