# generated using pymatgen
data_HfZrTaTiMo
_symmetry_space_group_name_H-M   'P 1'
_cell_length_a   15.93001649
_cell_length_b   15.92886760
_cell_length_c   15.20593252
_cell_angle_alpha   90.07441011
_cell_angle_beta   89.97322932
_cell_angle_gamma   89.86582237
_symmetry_Int_Tables_number   1
_chemical_formula_structural   HfZrTaTiMo
_chemical_formula_sum   'Hf40 Zr40 Ta40 Ti40 Mo40'
_cell_volume   3858.44737649
_cell_formula_units_Z   40
loop_
 _symmetry_equiv_pos_site_id
 _symmetry_equiv_pos_as_xyz
  1  'x, y, z'
loop_
 _atom_site_type_symbol
 _atom_site_label
 _atom_site_symmetry_multiplicity
 _atom_site_fract_x
 _atom_site_fract_y
 _atom_site_fract_z
 _atom_site_occupancy
  Hf  Hf0  1  0.80100509  0.00354677  0.49567210  1
  Hf  Hf1  1  0.69066510  0.10972184  0.36831064  1
  Hf  Hf2  1  0.50371735  0.71004023  0.37246703  1
  Hf  Hf3  1  0.89859744  0.10524645  0.86949509  1
  Hf  Hf4  1  0.20212721  0.39278440  -0.01823490  1
  Hf  Hf5  1  0.40544917  0.81069936  0.24690313  1
  Hf  Hf6  1  0.49024517  0.10594225  0.38943903  1
  Hf  Hf7  1  0.10378509  0.29652696  0.62365106  1
  Hf  Hf8  1  0.70894457  0.69478624  0.63489399  1
  Hf  Hf9  1  0.88973935  0.88928138  0.13370366  1
  Hf  Hf10  1  0.40418898  0.39862925  0.76914364  1
  Hf  Hf11  1  0.40419617  0.80589408  0.75035875  1
  Hf  Hf12  1  0.78842547  0.00078043  0.24885542  1
  Hf  Hf13  1  0.89151855  0.51261253  0.61834064  1
  Hf  Hf14  1  0.61062532  0.19126517  0.00057495  1
  Hf  Hf15  1  0.50306260  0.48667908  0.62433564  1
  Hf  Hf16  1  0.50162567  0.69765234  0.62983021  1
  Hf  Hf17  1  0.90674970  0.89075227  0.37363773  1
  Hf  Hf18  1  0.80617726  0.60023323  0.25356777  1
  Hf  Hf19  1  0.10130427  0.89764841  0.85989558  1
  Hf  Hf20  1  0.20999264  0.19953525  0.75595088  1
  Hf  Hf21  1  0.09657696  0.70123557  0.13284908  1
  Hf  Hf22  1  0.69790510  0.90392643  0.63551624  1
  Hf  Hf23  1  0.48931889  0.92004032  0.62527077  1
  Hf  Hf24  1  0.69233143  0.10717573  0.63547099  1
  Hf  Hf25  1  0.49239501  0.30619062  0.11682813  1
  Hf  Hf26  1  0.08633166  0.70593886  0.38021643  1
  Hf  Hf27  1  0.31652612  0.29516657  0.62496570  1
  Hf  Hf28  1  0.31913299  0.08902916  0.62780532  1
  Hf  Hf29  1  -0.01070285  0.19663451  0.51575915  1
  Hf  Hf30  1  0.70633257  0.71403947  0.13632329  1
  Hf  Hf31  1  0.21291778  0.40055190  0.49618714  1
  Hf  Hf32  1  0.50410043  0.06711518  0.10980551  1
  Hf  Hf33  1  0.69840599  0.49936150  0.62797875  1
  Hf  Hf34  1  0.90282721  0.29736910  0.36070200  1
  Hf  Hf35  1  -0.01040653  0.40131657  0.73974775  1
  Hf  Hf36  1  0.30960912  0.90833689  0.11681080  1
  Hf  Hf37  1  0.29724356  0.09640555  0.11786580  1
  Hf  Hf38  1  0.30734725  0.48502917  0.12839370  1
  Hf  Hf39  1  0.69823154  0.50382702  0.11876317  1
  Zr  Zr40  1  0.80660867  0.40208310  0.24358652  1
  Zr  Zr41  1  0.20205199  0.58935085  -0.00913908  1
  Zr  Zr42  1  0.68864845  0.30228431  0.63991769  1
  Zr  Zr43  1  0.31807674  0.68539551  0.86486162  1
  Zr  Zr44  1  0.00511824  0.00534232  0.24411825  1
  Zr  Zr45  1  0.39602826  0.59493115  0.49093194  1
  Zr  Zr46  1  0.09963490  0.10114165  0.38274475  1
  Zr  Zr47  1  0.19148514  0.59163370  0.75818027  1
  Zr  Zr48  1  0.79639556  0.80754772  -0.00880008  1
  Zr  Zr49  1  0.70537100  0.10091467  0.85538313  1
  Zr  Zr50  1  0.29670778  0.70370981  0.12756801  1
  Zr  Zr51  1  0.20002793  0.40096117  0.76242429  1
  Zr  Zr52  1  0.79540309  0.20661403  0.50190931  1
  Zr  Zr53  1  0.60204549  0.80385981  0.50376414  1
  Zr  Zr54  1  0.50585916  0.49135945  0.36230484  1
  Zr  Zr55  1  0.39823211  0.19113351  0.24068864  1
  Zr  Zr56  1  0.90061103  0.67305638  0.86965152  1
  Zr  Zr57  1  0.59595892  0.80749169  0.01118336  1
  Zr  Zr58  1  0.91065111  0.30739040  0.88867801  1
  Zr  Zr59  1  -0.00358035  0.79254860  0.74911684  1
  Zr  Zr60  1  0.50157284  0.51980217  0.89208914  1
  Zr  Zr61  1  0.68671184  0.69365932  0.87858786  1
  Zr  Zr62  1  0.09405100  0.10333567  0.85842125  1
  Zr  Zr63  1  0.10096078  0.89719759  0.38186196  1
  Zr  Zr64  1  0.19567668  0.00608962  -0.00927296  1
  Zr  Zr65  1  0.10523193  0.89630672  0.12916058  1
  Zr  Zr66  1  0.00969227  0.20131318  0.02131619  1
  Zr  Zr67  1  0.09862426  0.29817785  0.38107088  1
  Zr  Zr68  1  0.08597463  0.49435569  0.38242748  1
  Zr  Zr69  1  -0.00125662  -0.00117252  0.73478360  1
  Zr  Zr70  1  0.39966097  0.60009634  0.25197335  1
  Zr  Zr71  1  0.20327143  0.59753593  0.49228810  1
  Zr  Zr72  1  0.29416103  0.70011070  0.63414434  1
  Zr  Zr73  1  -0.00682426  -0.00008771  0.00782282  1
  Zr  Zr74  1  0.39252278  0.19750937  -0.01017677  1
  Zr  Zr75  1  0.20176545  0.79464781  -0.01669366  1
  Zr  Zr76  1  0.79331185  0.39884181  0.48939849  1
  Zr  Zr77  1  0.60886094  0.59821904  0.49104253  1
  Zr  Zr78  1  0.79773864  0.80088473  0.75978793  1
  Zr  Zr79  1  0.19833942  0.59054776  0.26116158  1
  Ta  Ta80  1  0.20285417  0.80312128  0.50641340  1
  Ta  Ta81  1  0.19767256  0.19613941  0.24849834  1
  Ta  Ta82  1  0.60161592  0.00662002  0.49818977  1
  Ta  Ta83  1  0.50412085  0.90256954  0.87453039  1
  Ta  Ta84  1  0.40393241  0.39436520  0.48775631  1
  Ta  Ta85  1  0.89579846  0.89524717  0.61668536  1
  Ta  Ta86  1  0.50462559  0.11404603  0.61837223  1
  Ta  Ta87  1  0.78008645  0.00381444  0.01177674  1
  Ta  Ta88  1  0.09179436  0.69679501  0.61953861  1
  Ta  Ta89  1  0.30671389  0.49704888  0.63518025  1
  Ta  Ta90  1  0.80051767  0.19941918  0.00908573  1
  Ta  Ta91  1  0.29710083  0.71370808  0.37550031  1
  Ta  Ta92  1  0.79979548  0.79585860  0.49172859  1
  Ta  Ta93  1  0.00268670  0.20518583  0.23430368  1
  Ta  Ta94  1  0.50660472  0.29213875  0.37023365  1
  Ta  Ta95  1  0.89094867  0.91291037  0.87472392  1
  Ta  Ta96  1  0.88984175  0.10567878  0.13326320  1
  Ta  Ta97  1  0.06718758  0.49824883  0.88026664  1
  Ta  Ta98  1  0.10616595  0.89359367  0.62668154  1
  Ta  Ta99  1  0.20719467  -0.00401652  0.51123021  1
  Ta  Ta100  1  0.40631227  0.80148449  -0.00682896  1
  Ta  Ta101  1  0.30920191  0.28772593  0.37339251  1
  Ta  Ta102  1  -0.00475200  0.79594068  -0.00800997  1
  Ta  Ta103  1  0.69398678  0.89982101  0.36840491  1
  Ta  Ta104  1  0.70458701  0.29708915  0.12556473  1
  Ta  Ta105  1  0.50869504  0.29461411  0.88301223  1
  Ta  Ta106  1  0.59886388  0.39487194  0.23858007  1
  Ta  Ta107  1  0.79773683  0.41166701  0.77038361  1
  Ta  Ta108  1  0.89028750  0.10373568  0.64144302  1
  Ta  Ta109  1  0.90559780  0.50411842  0.38345231  1
  Ta  Ta110  1  0.50109452  0.49912605  0.12011059  1
  Ta  Ta111  1  0.60634243  0.39999945  0.77719315  1
  Ta  Ta112  1  0.09500226  0.50428287  0.61645006  1
  Ta  Ta113  1  -0.00117051  0.00154378  0.51255255  1
  Ta  Ta114  1  0.59702842  0.59617824  0.75291965  1
  Ta  Ta115  1  0.59755732  0.19265819  0.23088818  1
  Ta  Ta116  1  0.60595429  0.39830645  -0.00261395  1
  Ta  Ta117  1  0.90337651  0.70218428  0.13170921  1
  Ta  Ta118  1  0.39165572  0.81026183  0.50453672  1
  Ta  Ta119  1  0.20025045  0.20368615  -0.00715607  1
  Ti  Ti120  1  0.90601344  0.49469416  0.10979297  1
  Ti  Ti121  1  0.69996258  0.70997995  0.35943594  1
  Ti  Ti122  1  0.70597866  0.50896733  0.88962913  1
  Ti  Ti123  1  0.41283745  0.19679111  0.76189244  1
  Ti  Ti124  1  0.29832545  0.90432788  0.85731068  1
  Ti  Ti125  1  0.29748472  0.30076120  0.12888725  1
  Ti  Ti126  1  0.79833484  0.60722809  0.48035861  1
  Ti  Ti127  1  0.20815221  0.00738034  0.25837037  1
  Ti  Ti128  1  0.50172847  0.09269881  0.87862172  1
  Ti  Ti129  1  0.69470176  0.29630201  0.35446374  1
  Ti  Ti130  1  0.11163359  0.30602883  0.12872915  1
  Ti  Ti131  1  0.89935841  0.10547149  0.36352198  1
  Ti  Ti132  1  0.80607118  0.22160436  0.75442169  1
  Ti  Ti133  1  0.90666265  0.70191127  0.37119593  1
  Ti  Ti134  1  0.21350513  0.19081023  0.49882460  1
  Ti  Ti135  1  0.69861852  0.49792361  0.36208361  1
  Ti  Ti136  1  0.20318643  0.80742862  0.25803503  1
  Ti  Ti137  1  0.10726104  0.09902608  0.62831434  1
  Ti  Ti138  1  0.59726627  0.60523323  0.23995295  1
  Ti  Ti139  1  0.10410965  0.49372393  0.12099319  1
  Ti  Ti140  1  -0.00383841  0.59110130  0.24256265  1
  Ti  Ti141  1  0.50666097  0.29403781  0.62591657  1
  Ti  Ti142  1  0.89913748  0.69642273  0.62018541  1
  Ti  Ti143  1  0.20645429  0.39312230  0.26203127  1
  Ti  Ti144  1  0.30243517  0.90844452  0.38136570  1
  Ti  Ti145  1  0.00156411  0.40080286  0.23481451  1
  Ti  Ti146  1  0.30380693  0.08909967  0.86604608  1
  Ti  Ti147  1  0.50020918  0.90754413  0.38710451  1
  Ti  Ti148  1  0.00082134  0.59955628  0.01111055  1
  Ti  Ti149  1  0.59430430  0.82005205  0.23973048  1
  Ti  Ti150  1  0.60235075  0.38864938  0.48680521  1
  Ti  Ti151  1  0.09404572  0.69383841  0.86745119  1
  Ti  Ti152  1  0.59274124  0.00162142  0.75481575  1
  Ti  Ti153  1  0.40400279  -0.00215571  0.26035901  1
  Ti  Ti154  1  -0.01057169  0.39471134  0.51237505  1
  Ti  Ti155  1  0.41332688  0.61514469  0.01725917  1
  Ti  Ti156  1  0.80300864  0.60346552  0.01073095  1
  Ti  Ti157  1  0.39469689  0.40073328  -0.01678363  1
  Ti  Ti158  1  0.80067421  0.39591684  -0.00111842  1
  Ti  Ti159  1  0.09190103  0.29677042  0.86893927  1
  Mo  Mo160  1  0.10633342  0.10574350  0.13483950  1
  Mo  Mo161  1  0.40071377  0.20706621  0.50225873  1
  Mo  Mo162  1  0.40539650  0.59272326  0.74108630  1
  Mo  Mo163  1  0.69592011  0.09942777  0.13250728  1
  Mo  Mo164  1  0.58727271  -0.00286826  0.26620681  1
  Mo  Mo165  1  0.30922035  0.49920929  0.87876538  1
  Mo  Mo166  1  0.19824665  0.79677966  0.74514566  1
  Mo  Mo167  1  0.50370950  0.70542133  0.86525292  1
  Mo  Mo168  1  0.59161078  0.20453878  0.76441725  1
  Mo  Mo169  1  0.29640682  0.90160539  0.63274139  1
  Mo  Mo170  1  0.20581536  -0.00329255  0.73614579  1
  Mo  Mo171  1  0.39830594  -0.00889601  -0.02458501  1
  Mo  Mo172  1  -0.00830191  0.60431912  0.50603164  1
  Mo  Mo173  1  0.59541064  0.80122259  0.75373224  1
  Mo  Mo174  1  0.59896200  0.60393127  0.01942397  1
  Mo  Mo175  1  0.70520251  0.30358294  0.88552568  1
  Mo  Mo176  1  0.50338586  0.70078742  0.13781555  1
  Mo  Mo177  1  0.79859719  0.79926923  0.26678891  1
  Mo  Mo178  1  0.29542290  0.09510571  0.38024038  1
  Mo  Mo179  1  0.30313315  0.48560678  0.36063220  1
  Mo  Mo180  1  0.60817808  -0.00528873  -0.01920338  1
  Mo  Mo181  1  0.39699527  -0.00067583  0.48943512  1
  Mo  Mo182  1  0.00877721  0.40330596  0.01824930  1
  Mo  Mo183  1  0.59821942  0.20925765  0.49738693  1
  Mo  Mo184  1  0.39963186  0.39092416  0.25825830  1
  Mo  Mo185  1  0.68615213  0.91319339  0.14243172  1
  Mo  Mo186  1  0.89490923  0.49891501  0.89427976  1
  Mo  Mo187  1  -0.00143292  0.20613854  0.73324813  1
  Mo  Mo188  1  0.90086910  0.30422260  0.12284033  1
  Mo  Mo189  1  0.79852050  0.20104593  0.23958046  1
  Mo  Mo190  1  0.79544579  0.59038996  0.75680071  1
  Mo  Mo191  1  0.89328412  0.30422311  0.63549209  1
  Mo  Mo192  1  -0.00059374  0.79144188  0.24165174  1
  Mo  Mo193  1  0.40586455  0.00682427  0.76434938  1
  Mo  Mo194  1  -0.00198692  0.59343988  0.73580762  1
  Mo  Mo195  1  0.69558916  0.90647875  0.85933937  1
  Mo  Mo196  1  0.80135641  -0.00056390  0.74103603  1
  Mo  Mo197  1  0.49521752  0.90053816  0.11232722  1
  Mo  Mo198  1  0.30451685  0.29091126  0.87039953  1
  Mo  Mo199  1  -0.00401869  0.79996551  0.51651665  1
