# generated using pymatgen
data_HfZrTaTiMo
_symmetry_space_group_name_H-M   'P 1'
_cell_length_a   15.92258946
_cell_length_b   15.92870713
_cell_length_c   15.20867838
_cell_angle_alpha   89.98542572
_cell_angle_beta   90.06164430
_cell_angle_gamma   89.95500968
_symmetry_Int_Tables_number   1
_chemical_formula_structural   HfZrTaTiMo
_chemical_formula_sum   'Hf40 Zr40 Ta40 Ti40 Mo40'
_cell_volume   3857.31673460
_cell_formula_units_Z   40
loop_
 _symmetry_equiv_pos_site_id
 _symmetry_equiv_pos_as_xyz
  1  'x, y, z'
loop_
 _atom_site_type_symbol
 _atom_site_label
 _atom_site_symmetry_multiplicity
 _atom_site_fract_x
 _atom_site_fract_y
 _atom_site_fract_z
 _atom_site_occupancy
  Hf  Hf0  1  0.39128051  0.58038132  0.49246875  1
  Hf  Hf1  1  0.01152109  -0.00318290  0.23730957  1
  Hf  Hf2  1  0.30058880  0.28446409  0.61294394  1
  Hf  Hf3  1  -0.00592312  0.40196406  0.50315207  1
  Hf  Hf4  1  0.69978107  0.70306456  0.12746460  1
  Hf  Hf5  1  0.19982711  0.37640802  0.76719188  1
  Hf  Hf6  1  0.40748068  -0.01805949  0.76004492  1
  Hf  Hf7  1  0.19099641  0.80387824  0.25765229  1
  Hf  Hf8  1  0.09521399  0.29915591  0.36992268  1
  Hf  Hf9  1  0.79266224  0.79993945  0.75199758  1
  Hf  Hf10  1  0.60167237  0.79860343  0.50005921  1
  Hf  Hf11  1  0.69357660  0.50494223  0.11154109  1
  Hf  Hf12  1  0.29405516  0.10342859  0.87105548  1
  Hf  Hf13  1  0.50071827  0.10512033  0.86934315  1
  Hf  Hf14  1  0.59651967  0.19820376  0.49613354  1
  Hf  Hf15  1  0.61801729  -0.00423039  -0.00735963  1
  Hf  Hf16  1  0.31206568  0.88837770  0.13663227  1
  Hf  Hf17  1  0.10730672  0.10503802  0.37325502  1
  Hf  Hf18  1  0.29526441  0.09819964  0.63986189  1
  Hf  Hf19  1  0.19263972  0.60355714  -0.01118652  1
  Hf  Hf20  1  0.38393416  0.39284601  0.26440653  1
  Hf  Hf21  1  0.41441494  -0.00129132  -0.00393561  1
  Hf  Hf22  1  -0.00154897  0.00780181  0.50333585  1
  Hf  Hf23  1  0.70036235  0.91395568  0.37798376  1
  Hf  Hf24  1  0.50769857  0.90141316  0.12992179  1
  Hf  Hf25  1  0.19914257  0.60142155  0.74925366  1
  Hf  Hf26  1  0.67000637  0.70575425  0.88014663  1
  Hf  Hf27  1  0.61104063  -0.00608148  0.75613550  1
  Hf  Hf28  1  0.19445817  0.58949546  0.25385647  1
  Hf  Hf29  1  0.49491441  0.69798697  0.37914943  1
  Hf  Hf30  1  0.10778074  0.29794512  0.61781511  1
  Hf  Hf31  1  0.28976040  0.48765693  0.12136774  1
  Hf  Hf32  1  0.30245081  0.70150389  0.61569579  1
  Hf  Hf33  1  0.29488460  0.69859028  0.37918436  1
  Hf  Hf34  1  0.29259513  0.69774817  0.13020656  1
  Hf  Hf35  1  0.31687686  0.09660489  0.13334377  1
  Hf  Hf36  1  0.20941243  0.20857834  0.24235779  1
  Hf  Hf37  1  0.69841139  0.50015007  0.38299026  1
  Hf  Hf38  1  0.19631661  0.80840157  0.73798165  1
  Hf  Hf39  1  0.60692053  0.20971935  0.76021243  1
  Zr  Zr40  1  0.30865748  0.90293955  0.61385833  1
  Zr  Zr41  1  0.81533276  0.00355430  0.25067043  1
  Zr  Zr42  1  0.79152891  0.80367026  -0.01418078  1
  Zr  Zr43  1  0.81514013  0.79798373  0.26741712  1
  Zr  Zr44  1  0.49382430  0.10660036  0.63595344  1
  Zr  Zr45  1  0.59407253  0.20412958  0.23510729  1
  Zr  Zr46  1  0.80989327  0.21231848  0.23923572  1
  Zr  Zr47  1  0.00285267  0.20006196  0.21685874  1
  Zr  Zr48  1  0.57061951  0.60810398  0.01061126  1
  Zr  Zr49  1  0.70596661  0.30549138  0.61904090  1
  Zr  Zr50  1  0.58861235  0.40782536  0.24797626  1
  Zr  Zr51  1  0.29728607  0.88938678  0.88093015  1
  Zr  Zr52  1  0.20522452  0.00059230  0.01337972  1
  Zr  Zr53  1  0.60032726  0.19966977  0.00317386  1
  Zr  Zr54  1  0.90220497  0.89203741  0.11432360  1
  Zr  Zr55  1  0.90382349  0.09788938  0.88901661  1
  Zr  Zr56  1  0.02033289  0.01058050  0.75197084  1
  Zr  Zr57  1  0.41005847  0.77989911  -0.00673538  1
  Zr  Zr58  1  0.88776931  0.49712572  0.11353837  1
  Zr  Zr59  1  0.59843420  0.79472283  0.72637623  1
  Zr  Zr60  1  0.60016379  0.80773611  0.26180977  1
  Zr  Zr61  1  0.29868298  0.48646385  0.63671540  1
  Zr  Zr62  1  0.89906234  0.29568794  0.63939353  1
  Zr  Zr63  1  0.40901365  0.01074305  0.48220141  1
  Zr  Zr64  1  0.07806929  0.50063127  0.36441681  1
  Zr  Zr65  1  0.80955937  0.80295453  0.49773436  1
  Zr  Zr66  1  0.70539497  0.68716271  0.38031673  1
  Zr  Zr67  1  0.90193110  0.90909488  0.64084268  1
  Zr  Zr68  1  0.01892334  0.21076157  0.77213249  1
  Zr  Zr69  1  0.00305246  0.79728321  0.51076047  1
  Zr  Zr70  1  0.81281370  0.01397760  0.49192427  1
  Zr  Zr71  1  0.71506389  0.10627721  0.62628480  1
  Zr  Zr72  1  0.90936162  0.89819749  0.87208997  1
  Zr  Zr73  1  -0.01317312  0.60158031  -0.02277315  1
  Zr  Zr74  1  0.89110924  0.49548395  0.63616719  1
  Zr  Zr75  1  0.59607532  0.40082961  0.74912911  1
  Zr  Zr76  1  0.08604540  0.69506000  0.37541276  1
  Zr  Zr77  1  0.70594507  0.31445988  0.10875687  1
  Zr  Zr78  1  0.20558049  0.40678490  0.48443775  1
  Zr  Zr79  1  0.08901480  0.49987693  0.12098674  1
  Ta  Ta80  1  0.79970808  0.20492806  0.77733139  1
  Ta  Ta81  1  0.39918542  0.58636183  0.25783042  1
  Ta  Ta82  1  -0.00475090  0.60305148  0.75372650  1
  Ta  Ta83  1  0.49733725  0.30996401  0.89021336  1
  Ta  Ta84  1  0.89935781  0.69428521  0.12546262  1
  Ta  Ta85  1  0.50137116  0.29736394  0.37743182  1
  Ta  Ta86  1  0.08730751  0.70060809  0.12714606  1
  Ta  Ta87  1  0.18109706  0.60022537  0.51229216  1
  Ta  Ta88  1  0.70121374  0.90842249  0.61432480  1
  Ta  Ta89  1  0.10566219  0.88581741  0.11316841  1
  Ta  Ta90  1  0.19842099  0.80220879  0.50026875  1
  Ta  Ta91  1  -0.00669911  0.19609138  0.50705811  1
  Ta  Ta92  1  0.50042263  0.89854457  0.60861808  1
  Ta  Ta93  1  0.79006992  0.59940994  0.76518509  1
  Ta  Ta94  1  0.69894708  0.10917031  0.36223952  1
  Ta  Ta95  1  0.70752465  0.09340682  0.12623417  1
  Ta  Ta96  1  0.30108476  0.30234618  0.10811988  1
  Ta  Ta97  1  0.00793208  0.00569231  0.01300698  1
  Ta  Ta98  1  0.10364145  0.90002789  0.88614279  1
  Ta  Ta99  1  0.80854956  0.20428727  0.48422089  1
  Ta  Ta100  1  0.09645946  0.49459886  0.86421858  1
  Ta  Ta101  1  0.68626173  0.50150473  0.88559419  1
  Ta  Ta102  1  0.48678389  0.70415736  0.15133006  1
  Ta  Ta103  1  0.11432894  0.10982693  0.61780247  1
  Ta  Ta104  1  0.89951678  0.69271750  0.63285097  1
  Ta  Ta105  1  0.48987831  0.69646565  0.61555180  1
  Ta  Ta106  1  0.09405302  0.71306511  0.86174453  1
  Ta  Ta107  1  0.59373788  0.59157038  0.51147814  1
  Ta  Ta108  1  0.30467489  0.89928428  0.37184131  1
  Ta  Ta109  1  0.49433217  0.50617737  0.86759928  1
  Ta  Ta110  1  0.79503007  0.39743357  0.77586434  1
  Ta  Ta111  1  0.52261707  0.87380179  0.88421564  1
  Ta  Ta112  1  -0.00187082  0.39376399  -0.01781260  1
  Ta  Ta113  1  0.10314053  0.90561230  0.38499597  1
  Ta  Ta114  1  0.80024973  0.40277353  0.25533139  1
  Ta  Ta115  1  0.09243047  0.49505668  0.64173122  1
  Ta  Ta116  1  0.40189971  0.39393253  0.48524874  1
  Ta  Ta117  1  0.70208559  0.50032767  0.62299116  1
  Ta  Ta118  1  0.59139406  0.40144852  0.50035508  1
  Ta  Ta119  1  0.11351648  0.91476629  0.61486659  1
  Ti  Ti120  1  0.80280359  0.39930244  -0.02326768  1
  Ti  Ti121  1  0.89573259  0.50361131  0.37741897  1
  Ti  Ti122  1  0.21269076  0.01126461  0.48522012  1
  Ti  Ti123  1  0.59872576  0.00971357  0.49449173  1
  Ti  Ti124  1  0.90506945  0.67775650  0.39143658  1
  Ti  Ti125  1  0.48943125  0.31251523  0.11607368  1
  Ti  Ti126  1  0.80061490  0.19950300  -0.00395508  1
  Ti  Ti127  1  0.80371436  0.59443579  0.25031407  1
  Ti  Ti128  1  0.69947548  0.30184765  0.37428501  1
  Ti  Ti129  1  0.90332908  0.30446165  0.37261782  1
  Ti  Ti130  1  0.40661258  0.19643558  0.00880061  1
  Ti  Ti131  1  0.39998676  0.39437166  0.75956120  1
  Ti  Ti132  1  -0.00381187  0.79991583  0.25760349  1
  Ti  Ti133  1  0.59080555  0.59353622  0.24855506  1
  Ti  Ti134  1  -0.00076109  0.79114081  -0.00634249  1
  Ti  Ti135  1  0.40497960  0.41275330  -0.00152970  1
  Ti  Ti136  1  0.39451777  0.21656067  0.76190605  1
  Ti  Ti137  1  0.70833181  0.68789036  0.61477142  1
  Ti  Ti138  1  0.42087768  0.00034121  0.26552749  1
  Ti  Ti139  1  0.59555026  0.59933347  0.73762822  1
  Ti  Ti140  1  0.79959265  0.60691393  -0.02252995  1
  Ti  Ti141  1  0.11182393  0.31679307  0.11341898  1
  Ti  Ti142  1  0.39241735  0.59672034  0.00062063  1
  Ti  Ti143  1  0.49404159  0.49500602  0.62894115  1
  Ti  Ti144  1  0.79935600  0.39757658  0.49095950  1
  Ti  Ti145  1  0.30170028  0.29832762  0.89977589  1
  Ti  Ti146  1  0.19430347  0.19686650  0.00738476  1
  Ti  Ti147  1  -0.01486958  0.39445008  0.23375326  1
  Ti  Ti148  1  0.40619383  0.79267138  0.75239368  1
  Ti  Ti149  1  0.91075714  0.11096392  0.36384954  1
  Ti  Ti150  1  0.29961609  0.49564026  0.87614647  1
  Ti  Ti151  1  0.00397456  0.20280028  0.00882336  1
  Ti  Ti152  1  0.70483219  0.90271162  0.13404292  1
  Ti  Ti153  1  0.48992346  0.29941072  0.61833829  1
  Ti  Ti154  1  0.79873893  0.00900689  0.75962049  1
  Ti  Ti155  1  0.20276137  0.00024969  0.24570627  1
  Ti  Ti156  1  0.39198041  0.19288071  0.47329445  1
  Ti  Ti157  1  0.29728930  0.69886146  0.87138813  1
  Ti  Ti158  1  0.39916673  0.59984719  0.74976139  1
  Ti  Ti159  1  0.40488693  0.20031232  0.25474062  1
  Mo  Mo160  1  0.80120009  0.59328321  0.50925461  1
  Mo  Mo161  1  0.29056357  0.49742871  0.37055918  1
  Mo  Mo162  1  0.20242840  0.40081923  -0.01593829  1
  Mo  Mo163  1  0.60522874  0.00743086  0.24954703  1
  Mo  Mo164  1  0.20389373  0.19381650  0.48255407  1
  Mo  Mo165  1  0.10613558  0.09822682  0.89959569  1
  Mo  Mo166  1  0.29893850  0.29111221  0.38117283  1
  Mo  Mo167  1  0.89908491  0.70192162  0.85474381  1
  Mo  Mo168  1  0.58682062  0.40892633  -0.00342841  1
  Mo  Mo169  1  0.69709039  0.30461450  0.88941879  1
  Mo  Mo170  1  0.19153330  0.79002493  0.00007653  1
  Mo  Mo171  1  0.39768210  0.80084935  0.26700056  1
  Mo  Mo172  1  0.19663853  0.00220856  0.75653788  1
  Mo  Mo173  1  0.91757572  0.90449984  0.37148136  1
  Mo  Mo174  1  0.89834495  0.10171543  0.10760973  1
  Mo  Mo175  1  0.50384056  0.09723444  0.13428872  1
  Mo  Mo176  1  0.30390865  0.09455126  0.34982756  1
  Mo  Mo177  1  0.50286893  0.90326139  0.38533610  1
  Mo  Mo178  1  0.49989303  0.49784316  0.38000675  1
  Mo  Mo179  1  0.48984267  0.69102756  0.85375014  1
  Mo  Mo180  1  0.50963592  0.10428800  0.36025857  1
  Mo  Mo181  1  0.48413293  0.50342810  0.12774784  1
  Mo  Mo182  1  0.09676074  0.70130311  0.63499647  1
  Mo  Mo183  1  0.70582754  0.10165708  0.87801305  1
  Mo  Mo184  1  0.19268916  0.39276357  0.25150410  1
  Mo  Mo185  1  0.00609976  0.80169339  0.73729929  1
  Mo  Mo186  1  -0.00084643  0.59494676  0.52760576  1
  Mo  Mo187  1  0.20251556  0.19620643  0.76500364  1
  Mo  Mo188  1  0.89353229  0.49929197  0.86627754  1
  Mo  Mo189  1  0.90575829  0.11370611  0.63963044  1
  Mo  Mo190  1  -0.00085954  0.39990367  0.76733867  1
  Mo  Mo191  1  0.10767436  0.29506741  0.89813055  1
  Mo  Mo192  1  -0.01768010  0.60440354  0.24135838  1
  Mo  Mo193  1  0.40152987  0.80030398  0.48786466  1
  Mo  Mo194  1  0.10869128  0.09911003  0.12168344  1
  Mo  Mo195  1  0.70231989  0.90158773  0.86925748  1
  Mo  Mo196  1  0.90128521  0.30663712  0.10032643  1
  Mo  Mo197  1  0.80271816  0.00427722  0.00770618  1
  Mo  Mo198  1  0.59941640  0.80039395  0.02154773  1
  Mo  Mo199  1  0.90147076  0.29795093  0.88553207  1
