# generated using pymatgen
data_HfZrTaTiMo
_symmetry_space_group_name_H-M   'P 1'
_cell_length_a   15.93566233
_cell_length_b   15.92811356
_cell_length_c   15.20674791
_cell_angle_alpha   90.00824061
_cell_angle_beta   89.89244730
_cell_angle_gamma   90.02917213
_symmetry_Int_Tables_number   1
_chemical_formula_structural   HfZrTaTiMo
_chemical_formula_sum   'Hf40 Zr40 Ta40 Ti40 Mo40'
_cell_volume   3859.84604466
_cell_formula_units_Z   40
loop_
 _symmetry_equiv_pos_site_id
 _symmetry_equiv_pos_as_xyz
  1  'x, y, z'
loop_
 _atom_site_type_symbol
 _atom_site_label
 _atom_site_symmetry_multiplicity
 _atom_site_fract_x
 _atom_site_fract_y
 _atom_site_fract_z
 _atom_site_occupancy
  Hf  Hf0  1  0.68638570  0.48641010  0.86913871  1
  Hf  Hf1  1  0.59960158  0.20042788  0.25700967  1
  Hf  Hf2  1  0.79948033  0.80163553  0.73692815  1
  Hf  Hf3  1  0.20286756  0.00769298  0.48392779  1
  Hf  Hf4  1  0.80768517  0.20629897  -0.02210164  1
  Hf  Hf5  1  0.70050225  0.49683685  0.64005110  1
  Hf  Hf6  1  0.19683320  0.59828397  0.00069414  1
  Hf  Hf7  1  0.39703787  0.41240293  0.77676050  1
  Hf  Hf8  1  0.80867251  -0.00328928  0.51157134  1
  Hf  Hf9  1  0.60019740  0.39994129  0.24727361  1
  Hf  Hf10  1  0.39878626  0.80312846  0.49631061  1
  Hf  Hf11  1  0.08746523  0.49088086  0.12357030  1
  Hf  Hf12  1  0.30033288  0.90528541  0.62596241  1
  Hf  Hf13  1  0.49717621  0.70970045  0.88223073  1
  Hf  Hf14  1  0.59563754  0.40444643  0.49800369  1
  Hf  Hf15  1  0.79523614  0.19322167  0.26260799  1
  Hf  Hf16  1  0.29790590  0.70170745  0.35990392  1
  Hf  Hf17  1  0.09558658  0.49788915  0.35909155  1
  Hf  Hf18  1  0.19456641  0.60256099  0.49179821  1
  Hf  Hf19  1  0.49780532  0.90423397  0.10377989  1
  Hf  Hf20  1  0.70260666  0.90497645  0.88219671  1
  Hf  Hf21  1  0.10659031  0.29456050  0.64012993  1
  Hf  Hf22  1  0.40021650  0.20089586  0.76953724  1
  Hf  Hf23  1  0.09102412  0.71091482  0.12953237  1
  Hf  Hf24  1  0.01083468  -0.00828045  -0.01379880  1
  Hf  Hf25  1  0.69416903  0.09214402  0.39538152  1
  Hf  Hf26  1  0.29912637  0.49918504  0.35556667  1
  Hf  Hf27  1  0.80289709  0.79582697  0.25699798  1
  Hf  Hf28  1  0.60301906  -0.00026380  0.25567717  1
  Hf  Hf29  1  0.18652054  0.80565310  0.48775963  1
  Hf  Hf30  1  0.39817496  0.59496081  -0.00089111  1
  Hf  Hf31  1  0.50834839  0.90564112  0.88691311  1
  Hf  Hf32  1  0.19977311  0.19750391  0.49016267  1
  Hf  Hf33  1  0.80114469  0.78512779  0.50268371  1
  Hf  Hf34  1  0.78979446  0.39713604  0.25899547  1
  Hf  Hf35  1  0.50791771  0.69506641  0.12409957  1
  Hf  Hf36  1  0.00031271  0.60680301  0.50448621  1
  Hf  Hf37  1  0.39518520  0.19616191  -0.00868191  1
  Hf  Hf38  1  0.10237310  0.09326427  0.13933864  1
  Hf  Hf39  1  0.40669289  0.20095415  0.24984278  1
  Zr  Zr40  1  0.90232358  0.29583511  0.38483847  1
  Zr  Zr41  1  0.40291785  0.40646614  0.00041530  1
  Zr  Zr42  1  0.89962366  0.08994823  0.13331570  1
  Zr  Zr43  1  0.10117496  0.50355373  0.63863210  1
  Zr  Zr44  1  0.89451009  0.29433606  0.13186843  1
  Zr  Zr45  1  0.89740058  0.69889664  0.87680856  1
  Zr  Zr46  1  0.20118195  0.01344654  -0.01401333  1
  Zr  Zr47  1  0.29585575  0.90866171  0.12229785  1
  Zr  Zr48  1  0.29334378  0.69985945  0.62872720  1
  Zr  Zr49  1  0.39984863  0.01241063  0.49607970  1
  Zr  Zr50  1  0.69992984  0.69940560  0.87754811  1
  Zr  Zr51  1  0.49628195  0.69344855  0.61780135  1
  Zr  Zr52  1  0.40418978  0.81113122  0.25660139  1
  Zr  Zr53  1  0.00831135  0.79406495  0.74114487  1
  Zr  Zr54  1  0.61229565  0.59561595  0.48549535  1
  Zr  Zr55  1  0.29265346  0.30894454  0.35708481  1
  Zr  Zr56  1  0.59883917  0.81272214  0.73101648  1
  Zr  Zr57  1  0.00667655  0.19485736  0.00035633  1
  Zr  Zr58  1  0.79852767  -0.00160188  0.73375937  1
  Zr  Zr59  1  0.19585564  0.60134870  0.23556518  1
  Zr  Zr60  1  0.29930212  0.30419995  0.63348224  1
  Zr  Zr61  1  0.50398914  0.09728886  0.10248444  1
  Zr  Zr62  1  0.31287131  0.89722042  0.88096393  1
  Zr  Zr63  1  0.50379285  0.10790284  0.63006648  1
  Zr  Zr64  1  -0.01351748  0.38835490  -0.00934657  1
  Zr  Zr65  1  0.00055254  0.00353624  0.73196537  1
  Zr  Zr66  1  0.18563162  0.80989676  -0.00831924  1
  Zr  Zr67  1  0.71287866  0.90590627  0.11725947  1
  Zr  Zr68  1  0.88067154  0.50141643  0.12488629  1
  Zr  Zr69  1  0.01551700  -0.00635575  0.49707745  1
  Zr  Zr70  1  0.70359395  0.10166207  0.11064869  1
  Zr  Zr71  1  0.89812500  0.30220303  0.62704284  1
  Zr  Zr72  1  0.20245926  0.60665794  0.77267968  1
  Zr  Zr73  1  0.49889306  0.30479642  0.63536472  1
  Zr  Zr74  1  0.79775247  0.19058463  0.74651786  1
  Zr  Zr75  1  0.00354219  0.40107446  0.50330800  1
  Zr  Zr76  1  0.60883402  0.79762461  0.25032671  1
  Zr  Zr77  1  0.30326479  0.50564652  0.63189267  1
  Zr  Zr78  1  0.39910581  0.40818307  0.49221812  1
  Zr  Zr79  1  0.40397692  0.00621110  0.27242884  1
  Ta  Ta80  1  0.40447042  0.40002005  0.22954245  1
  Ta  Ta81  1  0.00915786  0.18671264  0.51014857  1
  Ta  Ta82  1  0.70579974  0.68714645  0.11862252  1
  Ta  Ta83  1  0.28806448  0.29678542  0.88547414  1
  Ta  Ta84  1  0.89508789  0.50349375  0.37373363  1
  Ta  Ta85  1  0.89139414  0.50411636  0.64006052  1
  Ta  Ta86  1  0.69950446  0.89321396  0.39418760  1
  Ta  Ta87  1  0.19729635  0.40480904  0.77674622  1
  Ta  Ta88  1  0.50773208  0.29983307  0.10869148  1
  Ta  Ta89  1  0.52284152  0.30749496  0.88153717  1
  Ta  Ta90  1  0.49695151  0.50588763  0.64218634  1
  Ta  Ta91  1  0.18906336  0.39215448  0.00129950  1
  Ta  Ta92  1  0.20172259  -0.00032329  0.27223136  1
  Ta  Ta93  1  0.51683667  0.90285104  0.39870822  1
  Ta  Ta94  1  0.51160515  0.09631895  0.87526149  1
  Ta  Ta95  1  0.10486500  0.10974394  0.85277205  1
  Ta  Ta96  1  -0.00106357  -0.00527053  0.27117443  1
  Ta  Ta97  1  -0.00434137  0.39931977  0.75979560  1
  Ta  Ta98  1  0.81747910  0.00368239  -0.01776205  1
  Ta  Ta99  1  0.89973174  0.69327368  0.37643210  1
  Ta  Ta100  1  0.89035842  0.50148930  0.86585325  1
  Ta  Ta101  1  0.40713468  -0.00043240  0.74979460  1
  Ta  Ta102  1  0.29910549  0.10171915  0.13241713  1
  Ta  Ta103  1  0.59370457  0.60173199  0.75725898  1
  Ta  Ta104  1  0.70350583  0.68747604  0.62620481  1
  Ta  Ta105  1  -0.01765655  0.60240149  0.24259377  1
  Ta  Ta106  1  0.79388554  0.40965809  0.49896297  1
  Ta  Ta107  1  0.69788107  0.29662201  0.39523902  1
  Ta  Ta108  1  0.50689443  0.69945884  0.37252665  1
  Ta  Ta109  1  0.08381824  0.71307163  0.35597092  1
  Ta  Ta110  1  0.30191112  0.71146300  0.12270493  1
  Ta  Ta111  1  0.69262141  0.29389120  0.62489813  1
  Ta  Ta112  1  0.20587467  0.00163419  0.75509880  1
  Ta  Ta113  1  0.90791001  0.90014960  0.12873479  1
  Ta  Ta114  1  0.08744357  0.50159107  0.88282563  1
  Ta  Ta115  1  -0.00928370  0.60100894  0.00336593  1
  Ta  Ta116  1  0.39662198  0.20101098  0.48513544  1
  Ta  Ta117  1  0.40317800  0.80395260  0.74193907  1
  Ta  Ta118  1  0.29311863  0.29628057  0.12104474  1
  Ta  Ta119  1  0.19658113  0.40232926  0.49674742  1
  Ti  Ti120  1  0.80130166  0.19590534  0.51169810  1
  Ti  Ti121  1  0.91356913  0.10587657  0.86021792  1
  Ti  Ti122  1  0.19393072  0.20008305  0.00232661  1
  Ti  Ti123  1  0.89663580  0.68615723  0.62815290  1
  Ti  Ti124  1  0.59270168  0.58524462  -0.00427466  1
  Ti  Ti125  1  0.69519281  0.29733721  0.10757858  1
  Ti  Ti126  1  -0.00039271  0.60111543  0.75303340  1
  Ti  Ti127  1  0.59075244  0.19926669  0.49724251  1
  Ti  Ti128  1  0.69242420  0.09894628  0.87847972  1
  Ti  Ti129  1  0.80813392  0.80294367  0.00224928  1
  Ti  Ti130  1  0.49864032  0.30411329  0.37466400  1
  Ti  Ti131  1  0.90447732  0.09891537  0.38542039  1
  Ti  Ti132  1  0.91065914  0.88739169  0.61244221  1
  Ti  Ti133  1  0.79656142  0.38891676  0.75912794  1
  Ti  Ti134  1  0.80602428  -0.00907825  0.27166320  1
  Ti  Ti135  1  0.09093217  0.70267394  0.88301143  1
  Ti  Ti136  1  0.00217120  0.19671857  0.25795419  1
  Ti  Ti137  1  0.91638418  0.88015681  0.38314527  1
  Ti  Ti138  1  0.09675671  0.89940566  0.14830287  1
  Ti  Ti139  1  0.89190028  0.70043122  0.12267677  1
  Ti  Ti140  1  0.78083605  0.59953889  0.26514838  1
  Ti  Ti141  1  0.61137488  0.79598597  0.00908376  1
  Ti  Ti142  1  0.19881211  0.80240512  0.76005856  1
  Ti  Ti143  1  0.30763386  0.70680188  0.88250097  1
  Ti  Ti144  1  0.60868957  0.00428791  0.73058937  1
  Ti  Ti145  1  0.40539703  0.59882884  0.23596082  1
  Ti  Ti146  1  0.29569745  0.49485177  0.12571528  1
  Ti  Ti147  1  0.79407330  0.59397221  -0.00602325  1
  Ti  Ti148  1  0.40102481  0.59729437  0.48720221  1
  Ti  Ti149  1  0.68825055  0.50283536  0.12219651  1
  Ti  Ti150  1  0.10994142  0.89628000  0.62999327  1
  Ti  Ti151  1  0.09270699  0.29234372  0.86315929  1
  Ti  Ti152  1  0.10003977  0.30183626  0.36643830  1
  Ti  Ti153  1  -0.00477306  0.80562992  0.00057343  1
  Ti  Ti154  1  0.90570717  0.89788465  0.86816521  1
  Ti  Ti155  1  0.19684900  0.19929457  0.25152194  1
  Ti  Ti156  1  0.50067678  0.50743356  0.35497148  1
  Ti  Ti157  1  0.79094826  0.39518589  -0.01261459  1
  Ti  Ti158  1  0.29418107  0.10893295  0.63760531  1
  Ti  Ti159  1  -0.00550732  0.39318310  0.24816734  1
  Mo  Mo160  1  0.69701659  0.10654917  0.61166453  1
  Mo  Mo161  1  0.69886817  0.29866839  0.86933203  1
  Mo  Mo162  1  0.50185853  0.50624155  0.86652000  1
  Mo  Mo163  1  0.10154605  0.29348984  0.13790882  1
  Mo  Mo164  1  0.49889389  0.90460545  0.61923501  1
  Mo  Mo165  1  0.80560286  0.59186182  0.49782241  1
  Mo  Mo166  1  0.20509421  0.20273519  0.75801407  1
  Mo  Mo167  1  0.69847359  0.89474791  0.60858573  1
  Mo  Mo168  1  0.60659557  0.20468946  -0.01541833  1
  Mo  Mo169  1  0.61240674  0.00128840  -0.00508206  1
  Mo  Mo170  1  -0.01144863  0.79966483  0.24044646  1
  Mo  Mo171  1  0.40036436  0.79745851  0.01322273  1
  Mo  Mo172  1  0.60401419  0.40381611  0.01594398  1
  Mo  Mo173  1  0.09502310  0.10886623  0.36257931  1
  Mo  Mo174  1  0.30371827  0.10085447  0.86741800  1
  Mo  Mo175  1  0.70286786  0.69747479  0.37907175  1
  Mo  Mo176  1  0.50179810  0.50298229  0.13618709  1
  Mo  Mo177  1  0.19519305  0.39298959  0.22716688  1
  Mo  Mo178  1  0.90022338  0.30122120  0.85976347  1
  Mo  Mo179  1  0.00300641  0.79105443  0.51492635  1
  Mo  Mo180  1  0.60286341  0.79591813  0.50566730  1
  Mo  Mo181  1  0.70215754  0.49456223  0.37195091  1
  Mo  Mo182  1  0.60614430  0.19916572  0.76356315  1
  Mo  Mo183  1  0.59848947  0.39696491  0.73803686  1
  Mo  Mo184  1  0.29967442  0.10952674  0.35978633  1
  Mo  Mo185  1  0.60234525  0.59956719  0.25647987  1
  Mo  Mo186  1  0.90619707  0.10125280  0.61144490  1
  Mo  Mo187  1  0.10096827  0.90285735  0.85680713  1
  Mo  Mo188  1  0.19654405  0.80755062  0.25387311  1
  Mo  Mo189  1  0.11297720  0.10037798  0.63669184  1
  Mo  Mo190  1  0.39967912  0.00654463  -0.01461047  1
  Mo  Mo191  1  0.09774491  0.89394057  0.36307893  1
  Mo  Mo192  1  0.60363923  -0.00293187  0.51925356  1
  Mo  Mo193  1  0.00199530  0.19921669  0.73703072  1
  Mo  Mo194  1  0.50529430  0.10526084  0.38827315  1
  Mo  Mo195  1  0.29032426  0.49865855  0.89408413  1
  Mo  Mo196  1  0.30181527  0.90078845  0.37879529  1
  Mo  Mo197  1  0.40277462  0.60731323  0.77329151  1
  Mo  Mo198  1  0.79758504  0.59883176  0.75681763  1
  Mo  Mo199  1  0.10008441  0.70298429  0.62995593  1
