# generated using pymatgen
data_HfZrTaTiMo
_symmetry_space_group_name_H-M   'P 1'
_cell_length_a   15.92884729
_cell_length_b   15.92557456
_cell_length_c   15.21581866
_cell_angle_alpha   89.96129114
_cell_angle_beta   89.99182763
_cell_angle_gamma   90.12100857
_symmetry_Int_Tables_number   1
_chemical_formula_structural   HfZrTaTiMo
_chemical_formula_sum   'Hf40 Zr40 Ta40 Ti40 Mo40'
_cell_volume   3859.87917338
_cell_formula_units_Z   40
loop_
 _symmetry_equiv_pos_site_id
 _symmetry_equiv_pos_as_xyz
  1  'x, y, z'
loop_
 _atom_site_type_symbol
 _atom_site_label
 _atom_site_symmetry_multiplicity
 _atom_site_fract_x
 _atom_site_fract_y
 _atom_site_fract_z
 _atom_site_occupancy
  Hf  Hf0  1  0.29018593  0.70283169  0.87134350  1
  Hf  Hf1  1  0.20350528  -0.00255158  0.24733491  1
  Hf  Hf2  1  0.09647947  0.09784742  0.12866583  1
  Hf  Hf3  1  0.69334134  0.91569556  0.61674217  1
  Hf  Hf4  1  0.29689923  0.10791925  0.37298698  1
  Hf  Hf5  1  0.79652300  0.19187640  0.24006351  1
  Hf  Hf6  1  0.39997999  0.80626655  0.75044474  1
  Hf  Hf7  1  0.18410525  0.59933101  0.00689273  1
  Hf  Hf8  1  0.19599409  0.59594687  0.73751492  1
  Hf  Hf9  1  0.81220352  0.80219856  0.73540050  1
  Hf  Hf10  1  0.80694114  0.40074706  0.50484952  1
  Hf  Hf11  1  0.30092477  0.89613308  0.39075413  1
  Hf  Hf12  1  0.09100114  0.11399884  0.36255558  1
  Hf  Hf13  1  0.20236696  0.20111284  -0.00271302  1
  Hf  Hf14  1  0.69867129  0.89845019  0.11380811  1
  Hf  Hf15  1  0.70487016  0.29688494  0.36595530  1
  Hf  Hf16  1  0.40358938  -0.00463690  0.24765862  1
  Hf  Hf17  1  0.08469901  0.70376391  0.86258213  1
  Hf  Hf18  1  0.18677767  0.58149427  0.50182096  1
  Hf  Hf19  1  0.39920056  0.00038752  -0.00917779  1
  Hf  Hf20  1  0.09707198  0.70441830  0.37464006  1
  Hf  Hf21  1  0.70112220  0.10475495  0.87809539  1
  Hf  Hf22  1  0.40476482  0.01172853  0.51701801  1
  Hf  Hf23  1  0.60883169  0.59363596  0.50479956  1
  Hf  Hf24  1  0.49952582  0.70123039  0.38671460  1
  Hf  Hf25  1  0.79685251  -0.00448241  0.75740396  1
  Hf  Hf26  1  0.50190588  0.70811904  0.61815425  1
  Hf  Hf27  1  0.00173006  0.00148165  0.50604464  1
  Hf  Hf28  1  0.90641697  0.09945468  0.88075060  1
  Hf  Hf29  1  0.89840577  0.49691625  0.63959345  1
  Hf  Hf30  1  0.39981045  0.20701871  0.50350880  1
  Hf  Hf31  1  0.90675746  0.51018859  0.86180106  1
  Hf  Hf32  1  0.30382927  0.70543423  0.12581923  1
  Hf  Hf33  1  0.89807462  0.70138533  0.36655195  1
  Hf  Hf34  1  0.68893854  0.30712968  0.63977256  1
  Hf  Hf35  1  0.60386189  0.00263194  0.24779683  1
  Hf  Hf36  1  0.80042295  0.79886132  0.50474864  1
  Hf  Hf37  1  0.41091808  0.80412200  -0.01195033  1
  Hf  Hf38  1  0.91186266  0.88621361  0.87870494  1
  Hf  Hf39  1  0.91086486  0.29790376  0.36287347  1
  Zr  Zr40  1  0.80143767  0.59826608  0.50435349  1
  Zr  Zr41  1  0.19893369  0.60073618  0.25093902  1
  Zr  Zr42  1  0.40017988  0.39059942  0.50153595  1
  Zr  Zr43  1  0.59706277  0.80767929  0.25815778  1
  Zr  Zr44  1  0.79452211  0.39170500  0.00209796  1
  Zr  Zr45  1  0.49978454  0.30641428  0.11928727  1
  Zr  Zr46  1  0.89862606  0.09538699  0.11540748  1
  Zr  Zr47  1  -0.00269758  0.59722104  0.50502895  1
  Zr  Zr48  1  0.19551436  0.00183795  0.74070522  1
  Zr  Zr49  1  0.69610661  0.49172011  0.13538786  1
  Zr  Zr50  1  0.59641569  0.19681147  0.50532538  1
  Zr  Zr51  1  0.29927669  0.12300710  0.64377877  1
  Zr  Zr52  1  0.70843470  0.50323867  0.35635191  1
  Zr  Zr53  1  0.08660144  0.88774939  0.13469389  1
  Zr  Zr54  1  0.19130701  0.79956123  0.00826924  1
  Zr  Zr55  1  0.50829484  0.48998682  0.63533984  1
  Zr  Zr56  1  0.50252527  0.10134619  0.37046391  1
  Zr  Zr57  1  0.31113106  0.49539173  0.11839686  1
  Zr  Zr58  1  0.19073620  0.01182297  0.50786734  1
  Zr  Zr59  1  0.81243550  0.60006161  0.01399957  1
  Zr  Zr60  1  0.49669952  0.29415419  0.65396905  1
  Zr  Zr61  1  0.19489081  0.39488536  -0.00257760  1
  Zr  Zr62  1  0.80184309  0.20194195  0.74175868  1
  Zr  Zr63  1  0.29393241  0.88831487  0.61803853  1
  Zr  Zr64  1  0.90345227  0.29615469  0.87642482  1
  Zr  Zr65  1  0.70453801  0.50399402  0.86435940  1
  Zr  Zr66  1  0.88798514  0.09258519  0.61576498  1
  Zr  Zr67  1  0.40902967  0.60686206  -0.00352505  1
  Zr  Zr68  1  0.39383256  0.59830974  0.74132342  1
  Zr  Zr69  1  0.60721266  0.60878656  0.00659664  1
  Zr  Zr70  1  0.50036529  0.10496601  0.11473772  1
  Zr  Zr71  1  0.49621584  0.49994953  0.36954322  1
  Zr  Zr72  1  0.10256340  0.30873793  0.36748156  1
  Zr  Zr73  1  0.79598577  -0.00634824  0.25332813  1
  Zr  Zr74  1  0.20124546  0.40293577  0.23934957  1
  Zr  Zr75  1  0.79893041  0.20524626  0.50729001  1
  Zr  Zr76  1  -0.00263628  0.40852363  0.00720273  1
  Zr  Zr77  1  0.50777251  0.50078204  0.86736595  1
  Zr  Zr78  1  0.79783959  0.78820994  -0.00135826  1
  Zr  Zr79  1  0.10179129  0.89435883  0.86463374  1
  Ta  Ta80  1  0.09204109  0.50456429  0.86371418  1
  Ta  Ta81  1  0.91140911  0.48924459  0.35610330  1
  Ta  Ta82  1  0.70268278  0.69741169  0.85087337  1
  Ta  Ta83  1  0.51826747  0.70615842  0.85214246  1
  Ta  Ta84  1  -0.00192754  -0.00409288  0.73337308  1
  Ta  Ta85  1  -0.00140244  0.80652427  0.50795361  1
  Ta  Ta86  1  0.40240720  0.39303658  -0.01822643  1
  Ta  Ta87  1  0.09092538  0.29314890  0.13555614  1
  Ta  Ta88  1  0.60132776  0.21378086  -0.01725696  1
  Ta  Ta89  1  0.29451640  0.09809541  0.87166463  1
  Ta  Ta90  1  0.00683923  0.20913747  0.51809098  1
  Ta  Ta91  1  0.20273058  0.80024462  0.25636142  1
  Ta  Ta92  1  0.50858507  0.90149133  0.62106885  1
  Ta  Ta93  1  0.79804690  -0.00762107  -0.01112145  1
  Ta  Ta94  1  0.69558932  0.70100107  0.63619716  1
  Ta  Ta95  1  0.59497982  -0.00816899  -0.01447280  1
  Ta  Ta96  1  0.09561545  0.09947574  0.87449570  1
  Ta  Ta97  1  0.60265817  0.39389742  0.48767905  1
  Ta  Ta98  1  0.50207514  0.89910914  0.40070438  1
  Ta  Ta99  1  0.00536405  -0.00825367  -0.00130381  1
  Ta  Ta100  1  0.00822745  0.19681233  0.73356594  1
  Ta  Ta101  1  0.29645359  0.70092364  0.60564463  1
  Ta  Ta102  1  0.90018672  0.10351305  0.37934059  1
  Ta  Ta103  1  0.10931318  0.71613135  0.62149809  1
  Ta  Ta104  1  0.39906255  0.60230316  0.25425639  1
  Ta  Ta105  1  0.50160608  0.49815453  0.13335478  1
  Ta  Ta106  1  0.20043043  0.39651084  0.76604410  1
  Ta  Ta107  1  0.12088943  0.30400537  0.63056444  1
  Ta  Ta108  1  0.30270141  0.69723920  0.38994880  1
  Ta  Ta109  1  0.69868028  0.70070006  0.14624835  1
  Ta  Ta110  1  0.29591827  0.49482465  0.38063984  1
  Ta  Ta111  1  0.01541110  0.40434096  0.51150089  1
  Ta  Ta112  1  0.30313802  0.89980929  0.12417248  1
  Ta  Ta113  1  0.28874322  0.47903314  0.62151466  1
  Ta  Ta114  1  0.29472676  0.50199290  0.87950799  1
  Ta  Ta115  1  0.39722622  0.80098474  0.25818294  1
  Ta  Ta116  1  0.30431340  0.30429387  0.36218421  1
  Ta  Ta117  1  0.20081415  0.00082980  0.00266037  1
  Ta  Ta118  1  0.69651891  0.10259203  0.10002535  1
  Ta  Ta119  1  0.59363131  0.39099300  0.25880214  1
  Ti  Ti120  1  0.89656356  0.90473093  0.38393144  1
  Ti  Ti121  1  0.69369042  0.90151202  0.39381716  1
  Ti  Ti122  1  0.50235808  0.09976600  0.86862080  1
  Ti  Ti123  1  0.90029660  0.89521165  0.11845810  1
  Ti  Ti124  1  0.70338411  0.09326468  0.38701081  1
  Ti  Ti125  1  0.50415456  0.69976026  0.13952092  1
  Ti  Ti126  1  0.39882972  0.20423278  -0.01597081  1
  Ti  Ti127  1  0.69514948  0.29701459  0.12394207  1
  Ti  Ti128  1  0.09569594  0.29516594  0.87043530  1
  Ti  Ti129  1  0.69828191  0.69876244  0.36301588  1
  Ti  Ti130  1  0.00205420  0.60032759  0.24659819  1
  Ti  Ti131  1  0.20669408  0.20186876  0.23820581  1
  Ti  Ti132  1  0.30535281  0.10251680  0.12066328  1
  Ti  Ti133  1  0.89864321  0.30237481  0.13315323  1
  Ti  Ti134  1  0.00070566  0.20285734  0.00585631  1
  Ti  Ti135  1  0.52021624  0.09408857  0.64850590  1
  Ti  Ti136  1  -0.00993612  -0.00376505  0.25502344  1
  Ti  Ti137  1  0.90161790  0.69661533  0.86388840  1
  Ti  Ti138  1  0.68804873  0.88787964  0.86770872  1
  Ti  Ti139  1  -0.00169738  0.61066381  0.01586837  1
  Ti  Ti140  1  0.20286784  0.21457418  0.50330015  1
  Ti  Ti141  1  0.39669151  0.20453838  0.77427277  1
  Ti  Ti142  1  0.39037323  0.39670378  0.76519179  1
  Ti  Ti143  1  0.91325013  0.71407797  0.14060826  1
  Ti  Ti144  1  0.08819400  0.49993941  0.13365853  1
  Ti  Ti145  1  0.69808465  0.49904251  0.64570126  1
  Ti  Ti146  1  0.60098440  0.19709786  0.24659204  1
  Ti  Ti147  1  -0.00096928  0.61233116  0.72773161  1
  Ti  Ti148  1  0.29505390  0.90200581  0.87087404  1
  Ti  Ti149  1  0.80306483  0.39330518  0.75432905  1
  Ti  Ti150  1  0.30843178  0.29846805  0.12521202  1
  Ti  Ti151  1  0.00699057  0.39211743  0.74007934  1
  Ti  Ti152  1  0.80102794  0.80716833  0.25376653  1
  Ti  Ti153  1  0.09494500  0.89970041  0.37191412  1
  Ti  Ti154  1  0.49890832  0.89510169  0.12071649  1
  Ti  Ti155  1  0.80930021  0.59890822  0.23799703  1
  Ti  Ti156  1  0.39513924  0.59089809  0.50764603  1
  Ti  Ti157  1  0.59758972  0.79480334  -0.00373101  1
  Ti  Ti158  1  0.40564916  -0.00132855  0.75444405  1
  Ti  Ti159  1  0.40522749  0.20922731  0.25141874  1
  Mo  Mo160  1  0.68920769  0.09983978  0.63648794  1
  Mo  Mo161  1  0.80461857  0.60367678  0.73880049  1
  Mo  Mo162  1  0.09982475  0.10835495  0.62787800  1
  Mo  Mo163  1  0.39897895  0.39986032  0.25537241  1
  Mo  Mo164  1  0.90301426  0.70130259  0.62271173  1
  Mo  Mo165  1  0.09178450  0.49739218  0.36407397  1
  Mo  Mo166  1  0.60665274  0.79764252  0.49492916  1
  Mo  Mo167  1  0.49863222  0.29862773  0.87453497  1
  Mo  Mo168  1  0.59559265  0.39712944  -0.00845960  1
  Mo  Mo169  1  0.59831831  0.19695456  0.76724012  1
  Mo  Mo170  1  0.40071369  0.79829393  0.50232217  1
  Mo  Mo171  1  0.91079251  0.30560887  0.62836106  1
  Mo  Mo172  1  0.30035880  0.30256701  0.64855776  1
  Mo  Mo173  1  0.29866226  0.29809504  0.87284406  1
  Mo  Mo174  1  -0.00381162  0.19639034  0.24146908  1
  Mo  Mo175  1  0.90214943  0.50276194  0.13884554  1
  Mo  Mo176  1  0.50090616  0.29753336  0.36321882  1
  Mo  Mo177  1  0.50295742  0.90013211  0.86886155  1
  Mo  Mo178  1  0.59481916  0.60190394  0.24503524  1
  Mo  Mo179  1  0.20410719  0.79490728  0.74933607  1
  Mo  Mo180  1  0.69736185  0.30187039  0.86929560  1
  Mo  Mo181  1  0.09877072  0.89844793  0.62706169  1
  Mo  Mo182  1  0.19438270  0.20405317  0.77164298  1
  Mo  Mo183  1  0.80003478  0.39462645  0.23879663  1
  Mo  Mo184  1  -0.00753215  0.78662956  0.00613821  1
  Mo  Mo185  1  0.60248677  0.60127855  0.73525760  1
  Mo  Mo186  1  -0.00929804  0.80965456  0.26856909  1
  Mo  Mo187  1  0.20059919  0.39365211  0.49659828  1
  Mo  Mo188  1  0.89893337  0.90211663  0.61457159  1
  Mo  Mo189  1  0.59435405  -0.00252078  0.76649392  1
  Mo  Mo190  1  0.09889293  0.49340290  0.64425544  1
  Mo  Mo191  1  -0.00273795  0.40280697  0.23516199  1
  Mo  Mo192  1  0.79785167  0.20062258  0.01165604  1
  Mo  Mo193  1  0.60471093  0.39663511  0.76913735  1
  Mo  Mo194  1  0.19348406  0.79757809  0.48270367  1
  Mo  Mo195  1  0.09378074  0.69921435  0.14588809  1
  Mo  Mo196  1  0.59983792  0.00487870  0.50035819  1
  Mo  Mo197  1  0.60434287  0.80657387  0.74380925  1
  Mo  Mo198  1  0.00143115  0.80321256  0.72381260  1
  Mo  Mo199  1  0.79805540  0.00085121  0.48572138  1
