# generated using pymatgen
data_HfZrTaTiMo
_symmetry_space_group_name_H-M   'P 1'
_cell_length_a   16.38299867
_cell_length_b   16.46074415
_cell_length_c   14.24317820
_cell_angle_alpha   89.89666694
_cell_angle_beta   90.06619761
_cell_angle_gamma   90.05002178
_symmetry_Int_Tables_number   1
_chemical_formula_structural   HfZrTaTiMo
_chemical_formula_sum   'Hf40 Zr40 Ta40 Ti40 Mo40'
_cell_volume   3841.03803461
_cell_formula_units_Z   40
loop_
 _symmetry_equiv_pos_site_id
 _symmetry_equiv_pos_as_xyz
  1  'x, y, z'
loop_
 _atom_site_type_symbol
 _atom_site_label
 _atom_site_symmetry_multiplicity
 _atom_site_fract_x
 _atom_site_fract_y
 _atom_site_fract_z
 _atom_site_occupancy
  Hf  Hf0  1  0.80295269  0.80512592  0.48670184  1
  Hf  Hf1  1  0.20936537  0.80390172  0.24107274  1
  Hf  Hf2  1  0.69304741  0.49444550  0.87891908  1
  Hf  Hf3  1  0.60036605  0.58793264  0.51279679  1
  Hf  Hf4  1  0.59629887  0.80676666  0.49147615  1
  Hf  Hf5  1  -0.00508842  -0.00349672  0.49722396  1
  Hf  Hf6  1  0.51323201  0.29068498  0.38985941  1
  Hf  Hf7  1  0.89893952  0.10980910  0.37241799  1
  Hf  Hf8  1  0.58954453  0.01474037  0.23950777  1
  Hf  Hf9  1  0.78755433  0.19049483  0.76381492  1
  Hf  Hf10  1  0.80121986  0.39280530  -0.00700360  1
  Hf  Hf11  1  0.59135112  0.60354599  0.75129582  1
  Hf  Hf12  1  0.90078286  0.70821207  0.89166542  1
  Hf  Hf13  1  -0.01041670  0.40402288  0.50056066  1
  Hf  Hf14  1  0.60846797  0.00986612  0.75603129  1
  Hf  Hf15  1  0.79706054  0.59547819  0.49675723  1
  Hf  Hf16  1  0.10222412  0.09555012  0.37342347  1
  Hf  Hf17  1  0.79285089  0.00011842  0.49127039  1
  Hf  Hf18  1  0.90185121  0.09886232  0.12716394  1
  Hf  Hf19  1  0.39869282  0.00776115  0.74360271  1
  Hf  Hf20  1  0.09925126  0.90212621  0.36442150  1
  Hf  Hf21  1  0.68951045  0.11535141  0.37853314  1
  Hf  Hf22  1  0.78945923  0.40733008  0.51870679  1
  Hf  Hf23  1  0.89401371  0.49825056  0.13045480  1
  Hf  Hf24  1  0.89228379  0.09979301  0.61738573  1
  Hf  Hf25  1  0.20208102  0.60453972  0.24551256  1
  Hf  Hf26  1  -0.01108349  0.59889820  0.49517153  1
  Hf  Hf27  1  0.19675380  0.20277196  0.01043839  1
  Hf  Hf28  1  0.10023502  0.89707931  0.61152686  1
  Hf  Hf29  1  0.20015212  0.01085662  0.74020492  1
  Hf  Hf30  1  0.09777217  0.90455306  0.88365524  1
  Hf  Hf31  1  0.10594380  0.49492978  0.37889443  1
  Hf  Hf32  1  0.39737186  0.61350709  0.75787237  1
  Hf  Hf33  1  0.79670974  0.60220866  0.00462321  1
  Hf  Hf34  1  0.39786911  -0.00144258  0.25977301  1
  Hf  Hf35  1  0.10046642  0.50527933  0.87437710  1
  Hf  Hf36  1  0.09250919  0.09167999  0.13430973  1
  Hf  Hf37  1  0.00340851  0.80176462  0.75562969  1
  Hf  Hf38  1  0.48431067  0.48685312  0.35806767  1
  Hf  Hf39  1  0.59585602  0.79977308  0.75969384  1
  Zr  Zr40  1  0.60706818  0.00040932  -0.00050169  1
  Zr  Zr41  1  0.10670666  0.70100298  0.61131866  1
  Zr  Zr42  1  0.19494109  0.38977464  0.24445237  1
  Zr  Zr43  1  0.29838632  0.49524192  0.87158627  1
  Zr  Zr44  1  0.31171414  0.49259154  0.13646468  1
  Zr  Zr45  1  0.20343131  -0.00477175  0.01395927  1
  Zr  Zr46  1  0.40762390  0.60852554  -0.00052424  1
  Zr  Zr47  1  -0.01488545  0.40870915  0.74263430  1
  Zr  Zr48  1  0.39723509  0.20020213  0.73762126  1
  Zr  Zr49  1  0.11429095  0.30881665  0.61883206  1
  Zr  Zr50  1  0.20756584  0.19686351  0.25446268  1
  Zr  Zr51  1  0.00174620  0.19110615  0.74693914  1
  Zr  Zr52  1  0.19858001  0.39298903  0.00747361  1
  Zr  Zr53  1  0.50159299  0.89154701  0.12294429  1
  Zr  Zr54  1  0.90301865  0.90155427  0.12423002  1
  Zr  Zr55  1  0.80280531  0.59224997  0.74490832  1
  Zr  Zr56  1  0.49717515  0.90044067  0.62872824  1
  Zr  Zr57  1  0.69185104  0.49750601  0.35482227  1
  Zr  Zr58  1  0.59714766  0.40111125  0.52170444  1
  Zr  Zr59  1  0.88938040  0.28926233  0.61880663  1
  Zr  Zr60  1  -0.00155447  0.39150509  0.00498440  1
  Zr  Zr61  1  0.79718092  0.80508937  0.75865555  1
  Zr  Zr62  1  0.40275618  0.00390742  0.00675965  1
  Zr  Zr63  1  0.40498757  0.58642849  0.51646982  1
  Zr  Zr64  1  0.20875848  0.79473583  0.75272093  1
  Zr  Zr65  1  0.42798895  0.19338204  0.23933510  1
  Zr  Zr66  1  0.30899617  0.69086695  0.37171636  1
  Zr  Zr67  1  0.20604732  0.61093194  0.01277723  1
  Zr  Zr68  1  0.69756840  0.70739601  0.61970525  1
  Zr  Zr69  1  0.50498423  0.69198023  0.36954694  1
  Zr  Zr70  1  0.30412337  0.89895321  0.87558797  1
  Zr  Zr71  1  0.21626548  0.19538735  0.50091699  1
  Zr  Zr72  1  0.90618636  0.71097083  0.61770953  1
  Zr  Zr73  1  0.59378613  0.38016701  0.23386614  1
  Zr  Zr74  1  0.31963210  0.30847186  0.37204266  1
  Zr  Zr75  1  0.69324477  0.90342912  0.36003774  1
  Zr  Zr76  1  0.10683101  0.50355790  0.62713228  1
  Zr  Zr77  1  -0.00440401  0.59950068  0.25175575  1
  Zr  Zr78  1  0.28814491  0.48731062  0.63833232  1
  Zr  Zr79  1  0.10450620  0.29710674  0.86042125  1
  Ta  Ta80  1  0.49877064  0.89757699  0.87802029  1
  Ta  Ta81  1  0.09320506  0.49840501  0.12806282  1
  Ta  Ta82  1  0.70002727  0.29755978  0.11114115  1
  Ta  Ta83  1  0.60027407  0.19902115  -0.00473195  1
  Ta  Ta84  1  0.40760065  0.39152886  -0.00320570  1
  Ta  Ta85  1  0.20818516  0.80382367  0.48360855  1
  Ta  Ta86  1  -0.00154193  0.00042981  0.74940863  1
  Ta  Ta87  1  0.89358784  0.71172579  0.12789215  1
  Ta  Ta88  1  0.69886867  0.70570175  0.12795888  1
  Ta  Ta89  1  0.70333497  0.90832252  0.62720635  1
  Ta  Ta90  1  0.30427982  0.10016936  0.13100826  1
  Ta  Ta91  1  0.40384603  0.38847347  0.53200925  1
  Ta  Ta92  1  0.79361256  0.00593646  0.24295485  1
  Ta  Ta93  1  0.29918035  0.90093295  0.61164720  1
  Ta  Ta94  1  0.09881138  0.09814861  0.88131523  1
  Ta  Ta95  1  0.31634298  0.29219674  0.12167163  1
  Ta  Ta96  1  0.70026462  0.69896754  0.35892744  1
  Ta  Ta97  1  0.50178767  0.29775960  0.86967513  1
  Ta  Ta98  1  0.09494041  0.70777176  0.37633691  1
  Ta  Ta99  1  0.90273104  0.89920937  0.35362801  1
  Ta  Ta100  1  -0.00415934  0.39188096  0.25186942  1
  Ta  Ta101  1  0.88956180  0.49235540  0.36277730  1
  Ta  Ta102  1  0.39608364  0.00509892  0.49196949  1
  Ta  Ta103  1  0.40031846  0.81310999  0.48150020  1
  Ta  Ta104  1  0.50086784  0.49241806  0.87521092  1
  Ta  Ta105  1  0.50203956  0.10717932  0.87324565  1
  Ta  Ta106  1  -0.00196978  0.20104569  0.00099231  1
  Ta  Ta107  1  0.69416439  0.49659798  0.11858630  1
  Ta  Ta108  1  0.09195726  0.29539707  0.38588936  1
  Ta  Ta109  1  0.79235802  0.20630679  0.24528653  1
  Ta  Ta110  1  0.60003046  0.39454678  0.74606112  1
  Ta  Ta111  1  0.80047620  0.19776968  -0.00496453  1
  Ta  Ta112  1  0.40700561  0.19340387  0.51569436  1
  Ta  Ta113  1  0.20534756  0.79925137  0.01692348  1
  Ta  Ta114  1  0.90054236  0.90610510  0.88473848  1
  Ta  Ta115  1  0.89734407  0.90396722  0.62952103  1
  Ta  Ta116  1  0.89176407  0.29801643  0.37874643  1
  Ta  Ta117  1  0.09977607  0.70213479  0.88954499  1
  Ta  Ta118  1  -0.00048063  0.60612415  0.75439043  1
  Ta  Ta119  1  0.79800251  0.00317038  -0.00007523  1
  Ti  Ti120  1  0.90552776  0.09303957  0.88361767  1
  Ti  Ti121  1  0.59710736  0.79369186  -0.00313584  1
  Ti  Ti122  1  0.79445289  0.39137970  0.24608979  1
  Ti  Ti123  1  0.79969385  0.00189797  0.75943810  1
  Ti  Ti124  1  0.50668938  0.10478940  0.39360302  1
  Ti  Ti125  1  0.69972588  0.29400037  0.38572247  1
  Ti  Ti126  1  0.08920418  0.70460152  0.13075797  1
  Ti  Ti127  1  0.70501145  0.89842514  0.88423032  1
  Ti  Ti128  1  0.00012634  0.20887321  0.24950417  1
  Ti  Ti129  1  0.79468345  0.60322859  0.24510826  1
  Ti  Ti130  1  0.59476071  0.60659802  0.00253638  1
  Ti  Ti131  1  0.20763497  0.19493144  0.73976533  1
  Ti  Ti132  1  0.20642774  0.59986210  0.49309529  1
  Ti  Ti133  1  0.69547881  0.10905085  0.61657812  1
  Ti  Ti134  1  0.30455101  0.49120658  0.37578220  1
  Ti  Ti135  1  0.20286874  0.61512632  0.75970752  1
  Ti  Ti136  1  0.50641576  0.49008177  0.11205829  1
  Ti  Ti137  1  0.89743254  0.29686092  0.86674981  1
  Ti  Ti138  1  -0.00138470  0.60111609  0.00606601  1
  Ti  Ti139  1  0.59379802  0.79783898  0.24922886  1
  Ti  Ti140  1  0.70634539  0.89077214  0.12578867  1
  Ti  Ti141  1  0.30431686  0.70849359  0.61110622  1
  Ti  Ti142  1  0.89899629  0.70954637  0.35836747  1
  Ti  Ti143  1  0.40199505  0.80442102  0.25354708  1
  Ti  Ti144  1  0.39413708  0.79288924  0.00836565  1
  Ti  Ti145  1  0.00604792  0.80422489  0.00820641  1
  Ti  Ti146  1  0.30332088  0.29939096  0.87000705  1
  Ti  Ti147  1  0.39971490  0.79390818  0.75854089  1
  Ti  Ti148  1  0.09883015  0.10082360  0.61043944  1
  Ti  Ti149  1  0.09267417  0.90671861  0.13703902  1
  Ti  Ti150  1  0.41090396  0.60884634  0.22668843  1
  Ti  Ti151  1  0.59246976  0.00213670  0.50628201  1
  Ti  Ti152  1  0.69202005  0.29798789  0.87289179  1
  Ti  Ti153  1  0.29894903  0.10838391  0.88569792  1
  Ti  Ti154  1  0.69920869  0.70260687  0.88577230  1
  Ti  Ti155  1  0.89936521  0.50150788  0.87627121  1
  Ti  Ti156  1  0.70080011  0.10772860  0.12181527  1
  Ti  Ti157  1  0.49314678  0.70756986  0.61775297  1
  Ti  Ti158  1  0.89698287  0.29447021  0.12964459  1
  Ti  Ti159  1  0.59564669  0.60026767  0.23002165  1
  Mo  Mo160  1  0.59974864  0.39805691  -0.00754541  1
  Mo  Mo161  1  0.20729937  -0.00147878  0.24903655  1
  Mo  Mo162  1  0.30263555  0.89969945  0.13352065  1
  Mo  Mo163  1  0.50198777  0.10270353  0.10472530  1
  Mo  Mo164  1  0.29923840  0.09333509  0.61232725  1
  Mo  Mo165  1  0.50036336  0.70725020  0.88769540  1
  Mo  Mo166  1  0.60906980  0.19898607  0.22906030  1
  Mo  Mo167  1  0.59872868  0.20184707  0.52717939  1
  Mo  Mo168  1  0.40358173  0.39582454  0.75899748  1
  Mo  Mo169  1  0.20535420  -0.00153354  0.49728109  1
  Mo  Mo170  1  0.29794204  0.70598064  0.89018446  1
  Mo  Mo171  1  -0.00100628  0.00286369  -0.00834380  1
  Mo  Mo172  1  0.69802184  0.29482167  0.64026641  1
  Mo  Mo173  1  0.41044716  0.39354396  0.22997025  1
  Mo  Mo174  1  -0.00413675  0.00235311  0.25604318  1
  Mo  Mo175  1  0.69870610  0.49704838  0.64765384  1
  Mo  Mo176  1  0.00041507  0.20060078  0.49478928  1
  Mo  Mo177  1  0.09038197  0.29451965  0.13685957  1
  Mo  Mo178  1  0.31040138  0.70618956  0.13124022  1
  Mo  Mo179  1  0.79095251  0.80466752  0.00451865  1
  Mo  Mo180  1  0.50765396  0.70406765  0.12593798  1
  Mo  Mo181  1  0.50025333  0.90517836  0.37398427  1
  Mo  Mo182  1  0.70386654  0.09965978  0.88649029  1
  Mo  Mo183  1  0.50413621  0.29498877  0.09617398  1
  Mo  Mo184  1  0.89781814  0.50508791  0.63156225  1
  Mo  Mo185  1  0.39779910  0.19959243  -0.01065332  1
  Mo  Mo186  1  0.79243566  0.39347052  0.75666613  1
  Mo  Mo187  1  0.50527151  0.09727697  0.62285758  1
  Mo  Mo188  1  0.20410432  0.39173954  0.76709035  1
  Mo  Mo189  1  0.50308013  0.29520395  0.63768444  1
  Mo  Mo190  1  0.79232155  0.20445368  0.49388663  1
  Mo  Mo191  1  0.20996382  0.39833666  0.48053599  1
  Mo  Mo192  1  0.30802273  0.09955632  0.37611317  1
  Mo  Mo193  1  0.59982973  0.19927736  0.75563978  1
  Mo  Mo194  1  0.29896197  0.90418169  0.37386124  1
  Mo  Mo195  1  -0.00188853  0.80178244  0.48234646  1
  Mo  Mo196  1  0.79543232  0.79960010  0.24471299  1
  Mo  Mo197  1  0.49412235  0.49500640  0.65326940  1
  Mo  Mo198  1  0.30094308  0.29861197  0.63062720  1
  Mo  Mo199  1  0.00194479  0.79787074  0.24341375  1
