# generated using pymatgen
data_HfZrTaTiMo
_symmetry_space_group_name_H-M   'P 1'
_cell_length_a   15.93290935
_cell_length_b   15.92110681
_cell_length_c   15.22459705
_cell_angle_alpha   89.90383862
_cell_angle_beta   90.03623894
_cell_angle_gamma   89.96142041
_symmetry_Int_Tables_number   1
_chemical_formula_structural   HfZrTaTiMo
_chemical_formula_sum   'Hf40 Zr40 Ta40 Ti40 Mo40'
_cell_volume   3862.00961804
_cell_formula_units_Z   40
loop_
 _symmetry_equiv_pos_site_id
 _symmetry_equiv_pos_as_xyz
  1  'x, y, z'
loop_
 _atom_site_type_symbol
 _atom_site_label
 _atom_site_symmetry_multiplicity
 _atom_site_fract_x
 _atom_site_fract_y
 _atom_site_fract_z
 _atom_site_occupancy
  Hf  Hf0  1  0.60031332  0.60128284  0.75432896  1
  Hf  Hf1  1  0.18198197  0.80943894  0.73617070  1
  Hf  Hf2  1  0.71773495  0.30756019  0.88716528  1
  Hf  Hf3  1  0.58687759  0.81653962  -0.01555707  1
  Hf  Hf4  1  0.10324210  0.09846624  0.87150472  1
  Hf  Hf5  1  0.41077725  -0.00821891  -0.01922283  1
  Hf  Hf6  1  0.91319700  0.28385159  0.62277460  1
  Hf  Hf7  1  0.70586779  0.70595026  0.63880343  1
  Hf  Hf8  1  0.79611056  0.60499587  0.24909462  1
  Hf  Hf9  1  0.88408413  0.68404791  0.86446126  1
  Hf  Hf10  1  0.40178282  0.41473862  0.49419655  1
  Hf  Hf11  1  0.31229887  0.29718651  0.12716056  1
  Hf  Hf12  1  0.21137073  0.40782380  0.26078705  1
  Hf  Hf13  1  0.30077315  0.30303737  0.63431730  1
  Hf  Hf14  1  0.29068943  0.08744596  0.37803378  1
  Hf  Hf15  1  0.60526329  0.20233821  0.76387731  1
  Hf  Hf16  1  0.59845309  -0.00446593  0.26835302  1
  Hf  Hf17  1  0.19622364  0.18905615  0.24610134  1
  Hf  Hf18  1  0.09715281  0.09427470  0.11196525  1
  Hf  Hf19  1  0.49031703  0.89795285  0.13105804  1
  Hf  Hf20  1  0.50867459  0.29170303  0.38683577  1
  Hf  Hf21  1  -0.00938675  0.79213255  0.73706089  1
  Hf  Hf22  1  -0.00512310  0.80318799  -0.00273231  1
  Hf  Hf23  1  0.20940890  0.60683262  0.49371716  1
  Hf  Hf24  1  0.00239369  -0.01746011  0.74624928  1
  Hf  Hf25  1  0.59802100  0.00127821  0.76542190  1
  Hf  Hf26  1  0.40798542  0.39644750  0.25703091  1
  Hf  Hf27  1  0.59404841  0.79832884  0.49367262  1
  Hf  Hf28  1  0.49333724  0.50474285  0.12845658  1
  Hf  Hf29  1  0.30816854  0.28468550  0.37821264  1
  Hf  Hf30  1  0.30306572  0.69606732  0.11066364  1
  Hf  Hf31  1  0.50149061  0.10154829  0.63024811  1
  Hf  Hf32  1  0.20026990  -0.00440287  0.52851245  1
  Hf  Hf33  1  0.91557840  0.70194016  0.36945163  1
  Hf  Hf34  1  0.10104581  0.28498896  0.38904048  1
  Hf  Hf35  1  0.90358456  0.10154880  0.86285762  1
  Hf  Hf36  1  0.80502449  0.59577743  0.50131388  1
  Hf  Hf37  1  0.00179166  0.59136463  0.73256891  1
  Hf  Hf38  1  0.60554426  0.40037032  0.76359503  1
  Hf  Hf39  1  0.00870519  0.59751622  0.50795083  1
  Zr  Zr40  1  0.59274913  0.20359914  -0.00058522  1
  Zr  Zr41  1  0.88771244  0.09769964  0.62512027  1
  Zr  Zr42  1  0.68841011  0.90164405  0.12686518  1
  Zr  Zr43  1  0.60098071  0.60550985  -0.00891308  1
  Zr  Zr44  1  0.10972338  0.50059021  0.12454564  1
  Zr  Zr45  1  0.89549802  0.29494772  0.36892039  1
  Zr  Zr46  1  0.60109511  0.59728365  0.50797435  1
  Zr  Zr47  1  0.20027062  0.40689645  0.50415163  1
  Zr  Zr48  1  0.79891151  0.79962560  0.49079182  1
  Zr  Zr49  1  0.49421399  0.70342019  0.11888562  1
  Zr  Zr50  1  0.72994624  0.51017332  0.87393359  1
  Zr  Zr51  1  0.90551656  0.89774936  0.37084462  1
  Zr  Zr52  1  0.01203076  0.39319178  0.25427878  1
  Zr  Zr53  1  0.69724082  0.50212272  0.12848883  1
  Zr  Zr54  1  0.09722291  0.47876018  0.87045596  1
  Zr  Zr55  1  0.11205906  0.88718051  0.39345941  1
  Zr  Zr56  1  0.48467211  0.10745039  0.37347532  1
  Zr  Zr57  1  0.49413379  0.10037852  0.12585361  1
  Zr  Zr58  1  0.09440479  0.69270737  0.87625865  1
  Zr  Zr59  1  0.08260197  0.11824579  0.63108097  1
  Zr  Zr60  1  0.00838005  0.00286370  0.25296956  1
  Zr  Zr61  1  0.80425067  -0.00374033  -0.00152707  1
  Zr  Zr62  1  0.70511844  0.71441124  0.86241761  1
  Zr  Zr63  1  0.30103393  0.09479856  0.11544752  1
  Zr  Zr64  1  0.89885882  0.90735561  0.13516074  1
  Zr  Zr65  1  0.50490369  0.30020995  0.62774168  1
  Zr  Zr66  1  0.59738637  0.00210688  0.49046269  1
  Zr  Zr67  1  0.29698540  0.69953119  0.86322717  1
  Zr  Zr68  1  0.90340743  0.70181360  0.13547778  1
  Zr  Zr69  1  0.29457587  0.90561085  0.86577096  1
  Zr  Zr70  1  0.46867545  0.88969437  0.38275019  1
  Zr  Zr71  1  0.80407990  0.39881743  0.49952833  1
  Zr  Zr72  1  0.11015711  0.69229449  0.11871393  1
  Zr  Zr73  1  -0.00244207  0.20373943  0.00162800  1
  Zr  Zr74  1  -0.01807712  0.57788519  -0.00478143  1
  Zr  Zr75  1  0.60852898  0.40227130  0.50484098  1
  Zr  Zr76  1  0.80957990  0.20005406  0.00988314  1
  Zr  Zr77  1  0.70721790  0.31184518  0.12129408  1
  Zr  Zr78  1  0.38514394  0.61339080  0.27313721  1
  Zr  Zr79  1  0.69880587  0.90581122  0.63028461  1
  Ta  Ta80  1  0.50923280  0.51101481  0.36756207  1
  Ta  Ta81  1  0.69916444  0.10587430  0.62339795  1
  Ta  Ta82  1  0.38140399  -0.01022363  0.24961064  1
  Ta  Ta83  1  0.69768461  0.29666241  0.36403786  1
  Ta  Ta84  1  0.19511920  0.59564216  0.73462944  1
  Ta  Ta85  1  0.89988531  0.49244479  0.14671068  1
  Ta  Ta86  1  0.58743879  0.78984369  0.26461803  1
  Ta  Ta87  1  0.39874693  0.40416368  -0.01097609  1
  Ta  Ta88  1  0.31103597  0.50893779  0.63228497  1
  Ta  Ta89  1  0.40166608  0.40280777  0.75561799  1
  Ta  Ta90  1  0.90517083  0.49960230  0.36501854  1
  Ta  Ta91  1  0.19612687  -0.01967621  0.24011225  1
  Ta  Ta92  1  0.00415044  0.40182542  0.50146771  1
  Ta  Ta93  1  0.69631791  0.09553068  0.12641432  1
  Ta  Ta94  1  0.30506151  0.70106983  0.62712735  1
  Ta  Ta95  1  0.19398135  0.80604258  -0.00747454  1
  Ta  Ta96  1  0.58895501  0.40471836  -0.00789057  1
  Ta  Ta97  1  0.68987162  0.69112657  0.36796140  1
  Ta  Ta98  1  0.49188102  0.70882911  0.86317213  1
  Ta  Ta99  1  0.49551996  0.50708609  0.63680694  1
  Ta  Ta100  1  0.20630430  0.20432448  -0.01284430  1
  Ta  Ta101  1  0.10991808  0.29957687  0.11523749  1
  Ta  Ta102  1  0.49703304  0.89718601  0.63293661  1
  Ta  Ta103  1  0.30192274  0.89070509  0.11016838  1
  Ta  Ta104  1  0.02667991  0.80370703  0.24135771  1
  Ta  Ta105  1  0.70703552  0.49568689  0.64140184  1
  Ta  Ta106  1  0.79169942  0.00287182  0.48181110  1
  Ta  Ta107  1  0.78563676  0.80248046  0.25605410  1
  Ta  Ta108  1  0.49149203  0.70032878  0.63281263  1
  Ta  Ta109  1  0.59316767  0.20771616  0.23416788  1
  Ta  Ta110  1  0.18638888  0.21864964  0.75361217  1
  Ta  Ta111  1  -0.00743342  -0.00035385  0.50196717  1
  Ta  Ta112  1  0.79712724  -0.00158939  0.75677690  1
  Ta  Ta113  1  0.70104242  0.49399296  0.35865606  1
  Ta  Ta114  1  0.21026277  0.39644587  -0.00316822  1
  Ta  Ta115  1  0.89642357  0.10286297  0.37180877  1
  Ta  Ta116  1  0.39253443  0.19036609  0.51920789  1
  Ta  Ta117  1  0.21715417  0.79546073  0.25081836  1
  Ta  Ta118  1  0.70920846  0.29320880  0.63137140  1
  Ta  Ta119  1  0.39659443  0.59416880  -0.01746140  1
  Ti  Ti120  1  0.20288619  0.19203407  0.51647910  1
  Ti  Ti121  1  0.81340263  0.39526607  0.74745701  1
  Ti  Ti122  1  0.69247502  0.11520685  0.37128341  1
  Ti  Ti123  1  0.19688995  0.00416619  0.73779213  1
  Ti  Ti124  1  0.02817049  0.38150142  0.72794492  1
  Ti  Ti125  1  0.80073377  0.20133770  0.75752492  1
  Ti  Ti126  1  0.30129912  0.50597211  0.12404490  1
  Ti  Ti127  1  0.70217265  0.09830834  0.88833189  1
  Ti  Ti128  1  0.29759226  0.30508516  0.86304992  1
  Ti  Ti129  1  0.09611124  0.09611353  0.38684586  1
  Ti  Ti130  1  0.79160912  0.79417546  0.01528847  1
  Ti  Ti131  1  0.00015172  0.19382859  0.24304538  1
  Ti  Ti132  1  0.10451296  0.50833388  0.37291360  1
  Ti  Ti133  1  0.90435264  0.30503213  0.13539925  1
  Ti  Ti134  1  0.19690141  -0.00481827  -0.00600898  1
  Ti  Ti135  1  0.39626768  0.20737042  -0.01164751  1
  Ti  Ti136  1  0.38549845  -0.00384308  0.52187715  1
  Ti  Ti137  1  0.88808346  0.88754969  0.87026990  1
  Ti  Ti138  1  0.01484951  0.60260418  0.25370159  1
  Ti  Ti139  1  0.70200783  0.89932805  0.87137898  1
  Ti  Ti140  1  0.59786076  0.39672887  0.24447063  1
  Ti  Ti141  1  0.30022556  0.11038818  0.85979330  1
  Ti  Ti142  1  0.49284335  0.50471203  0.86701501  1
  Ti  Ti143  1  0.92360610  0.31244211  0.86802266  1
  Ti  Ti144  1  0.39363920  0.00555261  0.74508869  1
  Ti  Ti145  1  0.29757044  0.49730782  0.85710708  1
  Ti  Ti146  1  0.79205143  0.00436804  0.26159721  1
  Ti  Ti147  1  0.01053411  0.79175236  0.51828120  1
  Ti  Ti148  1  0.30775433  0.73109365  0.39941339  1
  Ti  Ti149  1  0.79153293  0.19721922  0.49510086  1
  Ti  Ti150  1  0.79532768  0.19595801  0.24013541  1
  Ti  Ti151  1  0.49082467  0.30176269  0.87326288  1
  Ti  Ti152  1  0.79538028  0.60935704  0.02307662  1
  Ti  Ti153  1  0.90314546  0.48936192  0.62941376  1
  Ti  Ti154  1  0.89116565  0.89812442  0.61628924  1
  Ti  Ti155  1  0.39674572  0.80593823  0.74545740  1
  Ti  Ti156  1  0.83353719  0.41398331  -0.00410001  1
  Ti  Ti157  1  0.49126330  0.10601811  0.86966343  1
  Ti  Ti158  1  0.20518882  0.58940049  -0.01518238  1
  Ti  Ti159  1  -0.00012253  -0.00914987  -0.00628737  1
  Mo  Mo160  1  0.00065311  0.39431876  0.01649130  1
  Mo  Mo161  1  0.40155443  0.19459677  0.24838412  1
  Mo  Mo162  1  0.10826428  0.49522668  0.62257782  1
  Mo  Mo163  1  0.80986362  0.59757602  0.72705637  1
  Mo  Mo164  1  0.10578549  0.69783427  0.61998752  1
  Mo  Mo165  1  0.10727267  0.70114465  0.37121246  1
  Mo  Mo166  1  0.69159159  0.70957605  0.13880024  1
  Mo  Mo167  1  0.69527875  0.89733143  0.36754484  1
  Mo  Mo168  1  0.80099363  0.39861082  0.25776622  1
  Mo  Mo169  1  0.80583314  0.81107318  0.74305923  1
  Mo  Mo170  1  0.20072139  0.79900753  0.52212786  1
  Mo  Mo171  1  0.29306607  0.90342736  0.38270672  1
  Mo  Mo172  1  0.49835868  0.30737410  0.11175254  1
  Mo  Mo173  1  0.49560864  0.89974777  0.85168972  1
  Mo  Mo174  1  0.10822997  0.89802940  0.11084961  1
  Mo  Mo175  1  0.49333213  0.69898863  0.39432419  1
  Mo  Mo176  1  0.39378294  0.80614625  0.52959065  1
  Mo  Mo177  1  0.39659943  0.20090530  0.75735598  1
  Mo  Mo178  1  0.38923140  0.80289695  0.25094087  1
  Mo  Mo179  1  -0.00598749  0.19340481  0.48267811  1
  Mo  Mo180  1  0.59437180  0.80489173  0.75246756  1
  Mo  Mo181  1  0.00143675  0.20601925  0.76585224  1
  Mo  Mo182  1  0.59411043  0.60242684  0.25550011  1
  Mo  Mo183  1  0.10170703  0.29818704  0.60596022  1
  Mo  Mo184  1  0.20070982  0.60940719  0.27369865  1
  Mo  Mo185  1  0.08975404  0.90246277  0.61425753  1
  Mo  Mo186  1  0.40382854  0.60720789  0.49518982  1
  Mo  Mo187  1  0.30137270  0.90265888  0.64449976  1
  Mo  Mo188  1  0.89935991  0.69868341  0.61938237  1
  Mo  Mo189  1  0.60862419  0.19986797  0.50748890  1
  Mo  Mo190  1  0.39519077  0.79779837  -0.01960953  1
  Mo  Mo191  1  0.89398770  0.10301961  0.14872390  1
  Mo  Mo192  1  0.90897385  0.48374758  0.84856497  1
  Mo  Mo193  1  0.20536512  0.40208852  0.74289514  1
  Mo  Mo194  1  0.39766930  0.60100231  0.75879913  1
  Mo  Mo195  1  0.10821323  0.30028406  0.88826907  1
  Mo  Mo196  1  0.30606151  0.50021784  0.37982119  1
  Mo  Mo197  1  0.09323733  0.90242906  0.88526971  1
  Mo  Mo198  1  0.59953147  0.00472336  -0.01899414  1
  Mo  Mo199  1  0.29770644  0.10582693  0.64775857  1
