# generated using pymatgen
data_HfZrTaTiMo
_symmetry_space_group_name_H-M   'P 1'
_cell_length_a   15.92595951
_cell_length_b   15.92123911
_cell_length_c   15.18611730
_cell_angle_alpha   89.90663048
_cell_angle_beta   90.00064908
_cell_angle_gamma   90.06902363
_symmetry_Int_Tables_number   1
_chemical_formula_structural   HfZrTaTiMo
_chemical_formula_sum   'Hf40 Zr40 Ta40 Ti40 Mo40'
_cell_volume   3850.59932466
_cell_formula_units_Z   40
loop_
 _symmetry_equiv_pos_site_id
 _symmetry_equiv_pos_as_xyz
  1  'x, y, z'
loop_
 _atom_site_type_symbol
 _atom_site_label
 _atom_site_symmetry_multiplicity
 _atom_site_fract_x
 _atom_site_fract_y
 _atom_site_fract_z
 _atom_site_occupancy
  Hf  Hf0  1  0.31390277  0.29637887  0.62026466  1
  Hf  Hf1  1  0.79357702  0.79181717  0.25309171  1
  Hf  Hf2  1  0.70731221  0.50723384  0.12997072  1
  Hf  Hf3  1  0.09575077  0.69656635  0.85999977  1
  Hf  Hf4  1  0.59463870  0.80064060  0.25011308  1
  Hf  Hf5  1  0.90198062  0.66979698  0.14315830  1
  Hf  Hf6  1  0.79541617  0.19696017  0.50293660  1
  Hf  Hf7  1  0.49275132  0.11187918  0.87947301  1
  Hf  Hf8  1  0.49492983  0.12255391  0.64623235  1
  Hf  Hf9  1  0.69855419  0.49733637  0.36977613  1
  Hf  Hf10  1  0.10074034  0.10058108  0.37421863  1
  Hf  Hf11  1  0.70381455  0.90380252  0.37356419  1
  Hf  Hf12  1  0.60358216  0.61290086  0.26497678  1
  Hf  Hf13  1  0.20132901  0.00213170  0.23880009  1
  Hf  Hf14  1  0.50346443  0.49854361  0.13839487  1
  Hf  Hf15  1  0.08974672  0.91191765  0.61632957  1
  Hf  Hf16  1  0.69379722  0.10749736  0.88878881  1
  Hf  Hf17  1  0.70631669  0.90594778  0.89439865  1
  Hf  Hf18  1  0.70019336  0.10561249  0.11211440  1
  Hf  Hf19  1  0.10421165  0.89174595  0.11536842  1
  Hf  Hf20  1  0.90168729  0.30134365  0.86829789  1
  Hf  Hf21  1  0.40290826  0.81844172  0.51860702  1
  Hf  Hf22  1  0.71179401  0.49567289  0.86231721  1
  Hf  Hf23  1  0.69370605  0.10383428  0.35477695  1
  Hf  Hf24  1  0.89319933  0.10195803  0.88514313  1
  Hf  Hf25  1  0.50875540  0.49794067  0.63010240  1
  Hf  Hf26  1  0.09514569  0.08927057  0.89152628  1
  Hf  Hf27  1  0.30884279  0.90979277  0.36587015  1
  Hf  Hf28  1  0.40643724  0.20476320  0.48278820  1
  Hf  Hf29  1  0.09404631  0.50067900  0.13866325  1
  Hf  Hf30  1  0.70868772  0.30015467  0.88732108  1
  Hf  Hf31  1  0.40623950  0.59656229  -0.01816449  1
  Hf  Hf32  1  0.39202781  0.40121809  -0.00505393  1
  Hf  Hf33  1  0.21393885  0.39972068  0.27231723  1
  Hf  Hf34  1  -0.00679329  0.58116971  -0.00767193  1
  Hf  Hf35  1  0.20471455  0.59113108  -0.02252362  1
  Hf  Hf36  1  0.90598040  0.70038415  0.63451238  1
  Hf  Hf37  1  0.69434796  0.30407467  0.11587555  1
  Hf  Hf38  1  0.00951779  0.60039841  0.50568573  1
  Hf  Hf39  1  0.60425013  0.80511212  0.50379637  1
  Zr  Zr40  1  0.20627636  0.39710878  0.74534175  1
  Zr  Zr41  1  0.20162762  0.19371907  0.75144998  1
  Zr  Zr42  1  0.29471167  0.50202737  0.12714281  1
  Zr  Zr43  1  0.30429001  0.70705344  0.39170630  1
  Zr  Zr44  1  0.59020492  0.79342283  -0.00273740  1
  Zr  Zr45  1  0.69100248  0.29868116  0.36072634  1
  Zr  Zr46  1  0.79506546  -0.00830413  0.74929282  1
  Zr  Zr47  1  0.50171756  0.69760912  0.63720820  1
  Zr  Zr48  1  0.21087992  0.20759805  0.00884587  1
  Zr  Zr49  1  0.38699127  0.60172335  0.26247327  1
  Zr  Zr50  1  0.20113443  0.59254054  0.73731756  1
  Zr  Zr51  1  0.00481515  0.79386654  0.25699468  1
  Zr  Zr52  1  0.50660049  0.29630041  0.87721618  1
  Zr  Zr53  1  0.90425676  0.09021537  0.62591242  1
  Zr  Zr54  1  0.49830060  0.90913992  0.87013221  1
  Zr  Zr55  1  0.01225095  0.38372094  0.26967055  1
  Zr  Zr56  1  0.68019233  0.29645012  0.63043800  1
  Zr  Zr57  1  0.81721815  0.79115941  -0.00286173  1
  Zr  Zr58  1  0.10726427  0.69073166  0.12234042  1
  Zr  Zr59  1  0.68252216  0.09133577  0.63470015  1
  Zr  Zr60  1  0.89225959  0.09686056  0.36985442  1
  Zr  Zr61  1  0.59514530  -0.00468932  0.23502247  1
  Zr  Zr62  1  0.09314805  0.30096312  0.87464557  1
  Zr  Zr63  1  0.81477448  0.39456601  0.24189516  1
  Zr  Zr64  1  0.79805408  0.39504083  0.50580111  1
  Zr  Zr65  1  0.39523791  0.79187099  -0.00825235  1
  Zr  Zr66  1  0.90159172  0.50333278  0.37355676  1
  Zr  Zr67  1  0.09517162  0.10629713  0.12418807  1
  Zr  Zr68  1  0.10525231  0.90037471  0.37566361  1
  Zr  Zr69  1  0.51168161  0.92314745  0.64257514  1
  Zr  Zr70  1  0.38979587  0.00447236  0.00876497  1
  Zr  Zr71  1  0.19811825  0.79986273  0.51671139  1
  Zr  Zr72  1  0.18565985  -0.00233630  0.75027503  1
  Zr  Zr73  1  0.89669349  0.68899414  0.84999062  1
  Zr  Zr74  1  0.58609100  0.01095823  0.48559921  1
  Zr  Zr75  1  0.19747958  0.59788457  0.50822414  1
  Zr  Zr76  1  0.69829618  0.69305735  0.64277725  1
  Zr  Zr77  1  0.90668332  0.48669376  0.84319198  1
  Zr  Zr78  1  0.69875731  0.69672381  0.11336290  1
  Zr  Zr79  1  0.20244914  0.39678619  0.49231554  1
  Ta  Ta80  1  0.31889970  0.49482585  0.61474850  1
  Ta  Ta81  1  0.49943621  0.70662699  0.38593018  1
  Ta  Ta82  1  0.49334220  0.69396250  0.12761598  1
  Ta  Ta83  1  0.82829656  0.40754489  0.01494388  1
  Ta  Ta84  1  0.80130446  0.79963147  0.50522112  1
  Ta  Ta85  1  0.89595388  0.89843841  0.37466917  1
  Ta  Ta86  1  0.49882754  0.49496934  0.37300920  1
  Ta  Ta87  1  0.60340706  0.59848949  0.49446282  1
  Ta  Ta88  1  0.48850463  0.10655028  0.34105919  1
  Ta  Ta89  1  0.19788397  0.21283677  0.25506879  1
  Ta  Ta90  1  0.19976157  0.80543320  0.74356583  1
  Ta  Ta91  1  0.00224834  0.18936640  0.74180733  1
  Ta  Ta92  1  0.79751114  0.20159251  0.74452058  1
  Ta  Ta93  1  0.70052732  0.69522246  0.86331319  1
  Ta  Ta94  1  0.70489714  0.90136529  0.11245864  1
  Ta  Ta95  1  -0.00602134  -0.00989196  0.00932050  1
  Ta  Ta96  1  -0.00200161  0.79742488  0.49703321  1
  Ta  Ta97  1  0.00331008  0.39523905  0.50173552  1
  Ta  Ta98  1  0.30778351  0.69826155  0.63427842  1
  Ta  Ta99  1  0.00544845  0.81897559  0.75296489  1
  Ta  Ta100  1  0.28517564  0.90485677  0.88012086  1
  Ta  Ta101  1  0.09882600  0.10265163  0.60785540  1
  Ta  Ta102  1  -0.00614220  -0.00070458  0.48674960  1
  Ta  Ta103  1  0.20757781  0.78884318  0.25218450  1
  Ta  Ta104  1  -0.00716147  -0.00280450  0.24218994  1
  Ta  Ta105  1  0.39137352  0.81281229  0.74724370  1
  Ta  Ta106  1  0.30157158  0.70203731  0.85536124  1
  Ta  Ta107  1  -0.00302484  0.20605006  0.49594845  1
  Ta  Ta108  1  0.38282269  0.00949187  0.75303283  1
  Ta  Ta109  1  0.49525041  0.11518423  0.12681153  1
  Ta  Ta110  1  0.89817871  0.49614193  0.63062961  1
  Ta  Ta111  1  0.81110641  0.20313730  0.23512322  1
  Ta  Ta112  1  0.29840539  0.10170016  0.61790436  1
  Ta  Ta113  1  0.29614230  0.89126414  0.12289404  1
  Ta  Ta114  1  0.80233864  0.59110496  -0.00999639  1
  Ta  Ta115  1  0.79430524  0.60089923  0.50700247  1
  Ta  Ta116  1  0.80548699  -0.00385932  0.23215087  1
  Ta  Ta117  1  0.49593258  0.30520639  0.12989881  1
  Ta  Ta118  1  0.59735809  0.59607568  -0.01759339  1
  Ta  Ta119  1  0.89598989  0.69843879  0.38071788  1
  Ti  Ti120  1  0.49061898  0.90774890  0.36551776  1
  Ti  Ti121  1  0.30437612  0.10152278  0.36444111  1
  Ti  Ti122  1  0.48941712  0.89788539  0.12471141  1
  Ti  Ti123  1  0.49979050  0.30623143  0.34909242  1
  Ti  Ti124  1  0.19686234  0.40312869  -0.00892801  1
  Ti  Ti125  1  0.49515205  0.30610660  0.63642377  1
  Ti  Ti126  1  0.00177464  0.79217302  -0.00861787  1
  Ti  Ti127  1  0.39850699  0.01008908  0.50430631  1
  Ti  Ti128  1  -0.00477716  0.20929286  0.00671225  1
  Ti  Ti129  1  0.38452317  0.21708611  0.24263704  1
  Ti  Ti130  1  0.29818055  0.10236786  0.88398349  1
  Ti  Ti131  1  0.10006696  0.29301165  0.61970245  1
  Ti  Ti132  1  0.61183203  0.81812230  0.75183384  1
  Ti  Ti133  1  0.19212507  0.59775412  0.28112908  1
  Ti  Ti134  1  0.58986610  0.20279121  0.48515606  1
  Ti  Ti135  1  0.39953874  0.40494969  0.76455760  1
  Ti  Ti136  1  0.29829708  0.69825068  0.12185520  1
  Ti  Ti137  1  0.39969684  0.79785049  0.24523800  1
  Ti  Ti138  1  0.89957109  0.90030560  0.62059893  1
  Ti  Ti139  1  0.20907550  0.00316411  0.49981608  1
  Ti  Ti140  1  0.90835084  0.90639557  0.87708879  1
  Ti  Ti141  1  0.30258254  0.10598450  0.13090050  1
  Ti  Ti142  1  0.30877896  0.29087718  0.87316623  1
  Ti  Ti143  1  0.09072047  0.48923756  0.85524312  1
  Ti  Ti144  1  -0.00336524  0.20419525  0.25497615  1
  Ti  Ti145  1  0.20394559  0.20049893  0.48713703  1
  Ti  Ti146  1  0.40810328  0.59701019  0.49931964  1
  Ti  Ti147  1  0.90127649  0.29783341  0.63279014  1
  Ti  Ti148  1  0.79351810  -0.00603432  0.50651866  1
  Ti  Ti149  1  0.59034317  0.00176762  0.00869278  1
  Ti  Ti150  1  0.50620999  0.70067015  0.85140454  1
  Ti  Ti151  1  0.60272748  0.40311486  0.75476770  1
  Ti  Ti152  1  0.90081679  0.89081251  0.12544707  1
  Ti  Ti153  1  0.89861683  0.10174981  0.11654723  1
  Ti  Ti154  1  0.59090329  0.39822663  0.49724823  1
  Ti  Ti155  1  0.59695577  0.41165551  -0.00312172  1
  Ti  Ti156  1  0.40097090  0.59036661  0.75930070  1
  Ti  Ti157  1  0.80083025  0.80808516  0.74751830  1
  Ti  Ti158  1  0.19925302  0.79503700  -0.01353719  1
  Ti  Ti159  1  0.10311142  0.30791851  0.12046132  1
  Mo  Mo160  1  0.10073315  0.29005504  0.38826788  1
  Mo  Mo161  1  0.31023818  0.49953743  0.39599972  1
  Mo  Mo162  1  0.50537006  0.49700132  0.86428512  1
  Mo  Mo163  1  0.80105828  0.60240486  0.27024148  1
  Mo  Mo164  1  0.81019718  -0.00363328  0.01467623  1
  Mo  Mo165  1  0.41165341  0.39959946  0.48846201  1
  Mo  Mo166  1  0.01049163  0.40017661  0.00582930  1
  Mo  Mo167  1  0.30705699  0.29242704  0.37739322  1
  Mo  Mo168  1  0.39829080  0.39919804  0.26120725  1
  Mo  Mo169  1  0.29998809  0.49535866  0.86943902  1
  Mo  Mo170  1  0.39568841  0.00156872  0.23405098  1
  Mo  Mo171  1  0.59673419  0.40538010  0.24497672  1
  Mo  Mo172  1  0.89810781  0.29091030  0.38608491  1
  Mo  Mo173  1  0.90719937  0.49780692  0.13880583  1
  Mo  Mo174  1  0.69805995  0.49723780  0.62816492  1
  Mo  Mo175  1  0.70648435  0.89897390  0.62048235  1
  Mo  Mo176  1  0.09569189  0.89381384  0.89280962  1
  Mo  Mo177  1  0.39504725  0.20826376  0.01945964  1
  Mo  Mo178  1  0.59621650  0.20441935  0.23700879  1
  Mo  Mo179  1  0.20051433  -0.00295664  0.01205391  1
  Mo  Mo180  1  0.00961714  0.59600319  0.27532177  1
  Mo  Mo181  1  -0.00302352  0.00022361  0.76199080  1
  Mo  Mo182  1  0.59670050  0.00438144  0.76961336  1
  Mo  Mo183  1  0.80964940  0.20651123  0.01391042  1
  Mo  Mo184  1  0.79716273  0.59361578  0.73552961  1
  Mo  Mo185  1  0.10143733  0.49912317  0.38182366  1
  Mo  Mo186  1  0.59525520  0.20694571  0.01264385  1
  Mo  Mo187  1  0.59710604  0.59423772  0.76492120  1
  Mo  Mo188  1  0.39042150  0.20459658  0.75097962  1
  Mo  Mo189  1  0.91363101  0.29564734  0.11662634  1
  Mo  Mo190  1  0.29631169  0.30644778  0.12925308  1
  Mo  Mo191  1  0.00755503  0.59501015  0.72868148  1
  Mo  Mo192  1  0.29975865  0.91122335  0.63110112  1
  Mo  Mo193  1  0.09673850  0.48929125  0.62430449  1
  Mo  Mo194  1  0.70246022  0.70117669  0.39379999  1
  Mo  Mo195  1  0.09803258  0.70821332  0.64176582  1
  Mo  Mo196  1  0.00597531  0.38796618  0.72215260  1
  Mo  Mo197  1  0.79780121  0.39054820  0.72923133  1
  Mo  Mo198  1  0.60028788  0.20771481  0.76246399  1
  Mo  Mo199  1  0.09721425  0.70052368  0.37256297  1
