# generated using pymatgen
data_HfZrTaTiMo
_symmetry_space_group_name_H-M   'P 1'
_cell_length_a   15.91762444
_cell_length_b   15.93746257
_cell_length_c   15.20751259
_cell_angle_alpha   89.99014224
_cell_angle_beta   89.99317554
_cell_angle_gamma   89.90621738
_symmetry_Int_Tables_number   1
_chemical_formula_structural   HfZrTaTiMo
_chemical_formula_sum   'Hf40 Zr40 Ta40 Ti40 Mo40'
_cell_volume   3857.93605383
_cell_formula_units_Z   40
loop_
 _symmetry_equiv_pos_site_id
 _symmetry_equiv_pos_as_xyz
  1  'x, y, z'
loop_
 _atom_site_type_symbol
 _atom_site_label
 _atom_site_symmetry_multiplicity
 _atom_site_fract_x
 _atom_site_fract_y
 _atom_site_fract_z
 _atom_site_occupancy
  Hf  Hf0  1  0.50289797  0.30380464  0.86059308  1
  Hf  Hf1  1  0.00406854  0.79013136  -0.01641771  1
  Hf  Hf2  1  0.68855707  0.30528002  0.12436700  1
  Hf  Hf3  1  0.70260706  0.91178666  0.36584977  1
  Hf  Hf4  1  0.89717499  0.28872576  0.11619442  1
  Hf  Hf5  1  0.38992442  0.80893395  0.26070677  1
  Hf  Hf6  1  0.51099486  0.31070367  0.63808323  1
  Hf  Hf7  1  0.49026655  0.90609383  0.85306236  1
  Hf  Hf8  1  0.90520177  0.68960137  0.63546212  1
  Hf  Hf9  1  0.59899235  0.01334849  0.00378686  1
  Hf  Hf10  1  0.38729731  0.81465685  -0.00234710  1
  Hf  Hf11  1  0.70641865  0.49934029  0.87290132  1
  Hf  Hf12  1  0.09101167  0.49082782  0.36688325  1
  Hf  Hf13  1  0.80308975  0.59659088  0.00965002  1
  Hf  Hf14  1  0.00368541  0.39373987  0.23515026  1
  Hf  Hf15  1  0.39450481  0.01377449  -0.00014684  1
  Hf  Hf16  1  0.39748190  0.19579913  0.72855930  1
  Hf  Hf17  1  0.20152079  0.59162410  0.49918295  1
  Hf  Hf18  1  0.10999750  0.09195670  0.87314738  1
  Hf  Hf19  1  0.79517306  0.38999929  0.48912133  1
  Hf  Hf20  1  0.69480543  0.49842290  0.36633248  1
  Hf  Hf21  1  0.59859775  0.80736447  0.49253308  1
  Hf  Hf22  1  0.90030859  0.89642547  0.37365308  1
  Hf  Hf23  1  0.38309888  0.42280427  0.75008910  1
  Hf  Hf24  1  0.90610188  0.88387530  0.12511989  1
  Hf  Hf25  1  0.00041120  0.40146250  0.00456669  1
  Hf  Hf26  1  0.90098932  0.67609235  0.86422507  1
  Hf  Hf27  1  0.49304090  0.90434174  0.63314985  1
  Hf  Hf28  1  0.60125612  0.40639386  0.50737637  1
  Hf  Hf29  1  0.21279920  0.18883805  0.00478789  1
  Hf  Hf30  1  0.28801236  0.71037923  0.12676031  1
  Hf  Hf31  1  0.59509422  0.80624869  0.25204492  1
  Hf  Hf32  1  0.69023964  0.91015130  0.86304917  1
  Hf  Hf33  1  0.80462507  -0.00330165  -0.00378656  1
  Hf  Hf34  1  0.50751736  0.10108622  0.85141012  1
  Hf  Hf35  1  0.59753642  0.59585701  0.50435760  1
  Hf  Hf36  1  0.19390720  0.60565131  0.25779561  1
  Hf  Hf37  1  0.91314631  0.29886443  0.36986573  1
  Hf  Hf38  1  0.17971718  0.80840932  0.26507646  1
  Hf  Hf39  1  0.60170972  0.59333794  0.23338990  1
  Zr  Zr40  1  0.90522165  0.69688176  0.36289318  1
  Zr  Zr41  1  0.00764964  0.20225266  0.51161577  1
  Zr  Zr42  1  0.80873891  0.58174478  0.49907860  1
  Zr  Zr43  1  0.59963033  0.80163856  -0.00679999  1
  Zr  Zr44  1  0.80256479  0.80081823  0.50688361  1
  Zr  Zr45  1  0.29745115  0.29596014  0.86633364  1
  Zr  Zr46  1  0.00288512  0.80020148  0.76297666  1
  Zr  Zr47  1  0.30121279  0.09809029  0.14401044  1
  Zr  Zr48  1  0.88360952  0.30319470  0.63971799  1
  Zr  Zr49  1  0.49799810  0.70827934  0.63899609  1
  Zr  Zr50  1  0.39327637  0.80561118  0.48914470  1
  Zr  Zr51  1  0.79722483  0.40480293  0.24542575  1
  Zr  Zr52  1  0.39510935  0.60126742  -0.01020440  1
  Zr  Zr53  1  0.70298103  0.69857094  0.62950393  1
  Zr  Zr54  1  0.30675014  0.48523810  0.36898848  1
  Zr  Zr55  1  0.09546486  0.89064478  0.61575017  1
  Zr  Zr56  1  0.50011003  0.31125260  0.38317403  1
  Zr  Zr57  1  0.00495766  0.19525071  0.74228840  1
  Zr  Zr58  1  0.19684635  0.19535309  0.51530474  1
  Zr  Zr59  1  0.39390291  0.21104354  0.50517284  1
  Zr  Zr60  1  0.79834011  0.80009809  0.76303318  1
  Zr  Zr61  1  0.30125442  0.50561305  0.12487992  1
  Zr  Zr62  1  0.01374747  -0.01447904  0.24158883  1
  Zr  Zr63  1  0.19679959  0.39015808  0.50486219  1
  Zr  Zr64  1  0.29526793  0.71104258  0.86627735  1
  Zr  Zr65  1  0.30857238  0.69745834  0.63366316  1
  Zr  Zr66  1  0.80197672  0.19995171  0.25815781  1
  Zr  Zr67  1  0.20163807  0.40780270  0.00105946  1
  Zr  Zr68  1  0.60761351  0.61021316  0.76546671  1
  Zr  Zr69  1  0.78967506  0.19380212  -0.01321296  1
  Zr  Zr70  1  0.90583744  0.09246828  0.38630212  1
  Zr  Zr71  1  0.69893445  0.10370882  0.13522286  1
  Zr  Zr72  1  0.69370566  0.10075213  0.38312259  1
  Zr  Zr73  1  0.10066226  0.29642503  0.87513421  1
  Zr  Zr74  1  -0.00073299  0.40290874  0.51557270  1
  Zr  Zr75  1  0.70447685  0.70261431  0.36571118  1
  Zr  Zr76  1  0.40557749  0.20931480  0.25287187  1
  Zr  Zr77  1  0.10511699  0.68881495  0.63368965  1
  Zr  Zr78  1  0.49277012  0.70340161  0.12577625  1
  Zr  Zr79  1  0.49023793  0.91237821  0.13127790  1
  Ta  Ta80  1  0.80164958  0.59722008  0.23434084  1
  Ta  Ta81  1  0.40466443  0.59647707  0.25531723  1
  Ta  Ta82  1  0.30371553  0.09682526  0.85421066  1
  Ta  Ta83  1  0.10793037  0.28570323  0.12300212  1
  Ta  Ta84  1  0.70770593  0.48251457  0.64898880  1
  Ta  Ta85  1  0.11308631  0.07819792  0.11993914  1
  Ta  Ta86  1  0.41068249  0.20139300  0.00463716  1
  Ta  Ta87  1  0.79581149  -0.00090975  0.51764309  1
  Ta  Ta88  1  0.00209033  0.59011077  0.50016786  1
  Ta  Ta89  1  0.00164448  0.18457523  0.00691783  1
  Ta  Ta90  1  0.18532327  0.61243165  -0.00949814  1
  Ta  Ta91  1  0.80998678  0.00166729  0.23631820  1
  Ta  Ta92  1  0.40567173  0.59349633  0.49144694  1
  Ta  Ta93  1  0.69023989  0.90572628  0.63641744  1
  Ta  Ta94  1  0.39765665  0.41070994  0.51735214  1
  Ta  Ta95  1  0.19978016  -0.00015938  0.72960881  1
  Ta  Ta96  1  0.49940892  0.69435314  0.37050897  1
  Ta  Ta97  1  0.40360852  0.39408106  -0.00162595  1
  Ta  Ta98  1  0.19980397  0.00270715  0.50672177  1
  Ta  Ta99  1  0.70853661  0.70914528  0.12273739  1
  Ta  Ta100  1  0.60360703  0.60204086  -0.00073278  1
  Ta  Ta101  1  0.27476439  0.91159173  0.12982034  1
  Ta  Ta102  1  0.59298942  0.20330628  -0.00425575  1
  Ta  Ta103  1  0.90474855  0.09573602  0.87237700  1
  Ta  Ta104  1  0.21105236  0.58193700  0.75863619  1
  Ta  Ta105  1  0.79882949  0.39838503  -0.00371121  1
  Ta  Ta106  1  0.80439900  0.00220792  0.75043022  1
  Ta  Ta107  1  0.90036533  0.29690345  0.87703503  1
  Ta  Ta108  1  0.49937195  0.50091659  0.87648950  1
  Ta  Ta109  1  0.11272682  0.89933712  0.88051332  1
  Ta  Ta110  1  0.89502292  0.09664127  0.62846214  1
  Ta  Ta111  1  0.70372337  0.89864734  0.13168472  1
  Ta  Ta112  1  0.20423318  0.38873782  0.24245245  1
  Ta  Ta113  1  0.00562580  0.18322305  0.23163490  1
  Ta  Ta114  1  -0.00252527  -0.00695409  0.75212342  1
  Ta  Ta115  1  0.69984825  0.10543773  0.63042551  1
  Ta  Ta116  1  0.29503248  0.10595877  0.37238419  1
  Ta  Ta117  1  0.09337860  0.90133793  0.39616045  1
  Ta  Ta118  1  0.50440631  0.49325374  0.11153558  1
  Ta  Ta119  1  0.50016881  0.09881677  0.39465635  1
  Ti  Ti120  1  0.79461419  0.20311156  0.50017898  1
  Ti  Ti121  1  0.30003292  0.69738020  0.37547254  1
  Ti  Ti122  1  0.00210873  0.60197141  0.24994340  1
  Ti  Ti123  1  0.60037552  0.39908319  -0.00592046  1
  Ti  Ti124  1  0.10535491  0.09547288  0.36770552  1
  Ti  Ti125  1  0.50920777  0.09786577  0.61770049  1
  Ti  Ti126  1  0.20153326  0.80602023  0.74461194  1
  Ti  Ti127  1  0.00362394  -0.00742062  -0.00151575  1
  Ti  Ti128  1  0.59144391  0.39947352  0.24768968  1
  Ti  Ti129  1  0.80243128  0.79889041  -0.01179104  1
  Ti  Ti130  1  0.90345781  0.49083572  0.86706463  1
  Ti  Ti131  1  0.00505730  0.39978863  0.74865840  1
  Ti  Ti132  1  0.29580013  0.91159594  0.86036218  1
  Ti  Ti133  1  0.69400516  0.30025050  0.85978470  1
  Ti  Ti134  1  0.89815946  0.89854030  0.62398531  1
  Ti  Ti135  1  0.00441446  0.59825548  0.00275480  1
  Ti  Ti136  1  0.29160367  0.91521941  0.37863707  1
  Ti  Ti137  1  0.19099916  0.40711400  0.74376640  1
  Ti  Ti138  1  0.59110592  0.01221157  0.24673863  1
  Ti  Ti139  1  0.40761419  0.40082206  0.23954267  1
  Ti  Ti140  1  0.90344477  0.50176045  0.12623159  1
  Ti  Ti141  1  0.89733294  0.50101351  0.65185999  1
  Ti  Ti142  1  0.10246400  0.50658599  0.12799870  1
  Ti  Ti143  1  0.49804609  0.51302739  0.64537422  1
  Ti  Ti144  1  0.50077738  0.91807752  0.38455258  1
  Ti  Ti145  1  0.00162779  0.00492401  0.51497873  1
  Ti  Ti146  1  0.38877630  0.00809588  0.51077954  1
  Ti  Ti147  1  0.09218672  0.71192955  0.12627949  1
  Ti  Ti148  1  0.61063937  0.21102291  0.50632999  1
  Ti  Ti149  1  0.28979326  0.30566353  0.63830713  1
  Ti  Ti150  1  0.20113313  0.79729722  0.49438042  1
  Ti  Ti151  1  0.49712843  0.70893642  0.86527944  1
  Ti  Ti152  1  0.59150497  0.20543925  0.25351737  1
  Ti  Ti153  1  0.30428029  0.29962162  0.12736484  1
  Ti  Ti154  1  0.09426657  0.50736641  0.86993707  1
  Ti  Ti155  1  0.00257334  0.78508545  0.49620531  1
  Ti  Ti156  1  0.79437117  0.19569942  0.75875161  1
  Ti  Ti157  1  0.11275301  0.28381702  0.35522608  1
  Ti  Ti158  1  0.90376319  0.70117074  0.13232274  1
  Ti  Ti159  1  0.40248293  0.00698088  0.26194899  1
  Mo  Mo160  1  0.50250853  0.10952833  0.12887132  1
  Mo  Mo161  1  0.20063601  0.19698806  0.73711796  1
  Mo  Mo162  1  0.70270333  0.70289524  0.89501752  1
  Mo  Mo163  1  0.19689212  0.19650519  0.24314490  1
  Mo  Mo164  1  0.70126644  0.29734385  0.63957998  1
  Mo  Mo165  1  0.60069243  0.00818742  0.73333957  1
  Mo  Mo166  1  0.10329410  0.30169752  0.64561250  1
  Mo  Mo167  1  0.70040875  0.10403693  0.85812917  1
  Mo  Mo168  1  0.90410420  0.90652185  0.88181267  1
  Mo  Mo169  1  0.59899864  0.00577986  0.51258325  1
  Mo  Mo170  1  0.40042894  0.60069668  0.76705510  1
  Mo  Mo171  1  0.00975834  0.58448992  0.74902156  1
  Mo  Mo172  1  0.90323363  0.50088443  0.35682645  1
  Mo  Mo173  1  0.39129946  0.00317231  0.73110072  1
  Mo  Mo174  1  0.29674442  0.29964446  0.36378335  1
  Mo  Mo175  1  0.09897228  0.49845572  0.63486015  1
  Mo  Mo176  1  0.00395847  0.79085971  0.25548885  1
  Mo  Mo177  1  0.09593460  0.09212421  0.63441452  1
  Mo  Mo178  1  0.10541556  0.89264142  0.10675080  1
  Mo  Mo179  1  0.19864672  -0.00235982  0.27164128  1
  Mo  Mo180  1  0.19617153  0.80317649  -0.00195686  1
  Mo  Mo181  1  0.80444659  0.39258272  0.77328844  1
  Mo  Mo182  1  0.29973279  0.50455235  0.61608433  1
  Mo  Mo183  1  0.80429423  0.59307059  0.75273837  1
  Mo  Mo184  1  0.30015904  0.09659203  0.62400916  1
  Mo  Mo185  1  0.29510561  0.89811478  0.61976184  1
  Mo  Mo186  1  0.10452987  0.69402281  0.86266036  1
  Mo  Mo187  1  0.39106562  0.80601170  0.75563253  1
  Mo  Mo188  1  0.80063241  0.80237423  0.23995072  1
  Mo  Mo189  1  0.50141994  0.30566138  0.11633585  1
  Mo  Mo190  1  0.90915125  0.09115886  0.11243398  1
  Mo  Mo191  1  0.59864253  0.80341035  0.76025576  1
  Mo  Mo192  1  0.59870258  0.40609440  0.75401702  1
  Mo  Mo193  1  0.69758968  0.49985368  0.10951358  1
  Mo  Mo194  1  0.69347980  0.29814981  0.36645439  1
  Mo  Mo195  1  0.49889145  0.50239416  0.36932657  1
  Mo  Mo196  1  0.29377278  0.50086359  0.89174890  1
  Mo  Mo197  1  0.60645236  0.20247027  0.74119682  1
  Mo  Mo198  1  0.09938313  0.69710274  0.39067925  1
  Mo  Mo199  1  0.20858612  -0.00344475  -0.01285064  1
