# generated using pymatgen
data_HfZrTaTiMo
_symmetry_space_group_name_H-M   'P 1'
_cell_length_a   15.93903122
_cell_length_b   15.92748718
_cell_length_c   15.19606852
_cell_angle_alpha   90.00267018
_cell_angle_beta   90.03043187
_cell_angle_gamma   89.97798529
_symmetry_Int_Tables_number   1
_chemical_formula_structural   HfZrTaTiMo
_chemical_formula_sum   'Hf40 Zr40 Ta40 Ti40 Mo40'
_cell_volume   3857.80556003
_cell_formula_units_Z   40
loop_
 _symmetry_equiv_pos_site_id
 _symmetry_equiv_pos_as_xyz
  1  'x, y, z'
loop_
 _atom_site_type_symbol
 _atom_site_label
 _atom_site_symmetry_multiplicity
 _atom_site_fract_x
 _atom_site_fract_y
 _atom_site_fract_z
 _atom_site_occupancy
  Hf  Hf0  1  0.00547129  0.80755476  0.24060527  1
  Hf  Hf1  1  0.39940997  0.40386398  0.24816919  1
  Hf  Hf2  1  0.91683340  0.28868963  0.38250960  1
  Hf  Hf3  1  0.29982003  0.90046491  0.63175640  1
  Hf  Hf4  1  0.01058785  0.00958099  -0.00928670  1
  Hf  Hf5  1  0.60247985  0.40026036  0.74362954  1
  Hf  Hf6  1  0.80946994  0.60264736  0.74860046  1
  Hf  Hf7  1  0.79281130  0.39789935  0.50094734  1
  Hf  Hf8  1  0.71308185  0.89305146  0.61933358  1
  Hf  Hf9  1  0.69680954  0.90212923  0.36790981  1
  Hf  Hf10  1  0.20578104  0.59829852  -0.01266250  1
  Hf  Hf11  1  0.19023704  0.00075107  0.50576358  1
  Hf  Hf12  1  0.10639059  0.48959781  0.38036137  1
  Hf  Hf13  1  0.90037306  0.90950203  0.12081631  1
  Hf  Hf14  1  0.70644286  0.89370909  0.88550375  1
  Hf  Hf15  1  0.20076638  0.80019398  0.49202319  1
  Hf  Hf16  1  0.18929347  0.19361950  0.50483585  1
  Hf  Hf17  1  0.70340424  0.10605594  0.12813915  1
  Hf  Hf18  1  0.40258379  0.60017186  0.49437368  1
  Hf  Hf19  1  0.90626851  0.10726324  0.13573062  1
  Hf  Hf20  1  0.20244976  0.38102768  -0.01832069  1
  Hf  Hf21  1  0.58343981  0.01439839  0.23745553  1
  Hf  Hf22  1  0.39426630  -0.00823783  0.22905092  1
  Hf  Hf23  1  0.68458143  0.49869602  0.36990541  1
  Hf  Hf24  1  0.91032131  0.90573738  0.38047002  1
  Hf  Hf25  1  0.79458494  0.20292873  0.75093597  1
  Hf  Hf26  1  0.58875713  0.79719386  0.00004722  1
  Hf  Hf27  1  -0.00788032  -0.01582088  0.73972540  1
  Hf  Hf28  1  0.40395592  0.79545065  0.49913522  1
  Hf  Hf29  1  0.20287671  -0.01862453  -0.01775157  1
  Hf  Hf30  1  0.70489307  0.90190668  0.12706344  1
  Hf  Hf31  1  0.60409633  0.78621585  0.49643443  1
  Hf  Hf32  1  0.40904005  0.18960156  0.25527161  1
  Hf  Hf33  1  0.59502958  0.20473691  -0.00960183  1
  Hf  Hf34  1  0.79643211  0.19073838  0.49562505  1
  Hf  Hf35  1  0.69748745  0.29317029  0.14837342  1
  Hf  Hf36  1  0.80131110  0.39130644  0.00658114  1
  Hf  Hf37  1  0.30333349  0.70871661  0.11131036  1
  Hf  Hf38  1  0.60024761  0.59439763  0.00425693  1
  Hf  Hf39  1  0.91428657  0.70450596  0.89684013  1
  Zr  Zr40  1  0.90518079  0.49996068  0.38265173  1
  Zr  Zr41  1  0.31003290  0.91226346  0.38527349  1
  Zr  Zr42  1  0.60145737  -0.00901229  0.74459453  1
  Zr  Zr43  1  0.29252161  0.29808832  0.13667378  1
  Zr  Zr44  1  0.30701070  0.49078110  0.86398777  1
  Zr  Zr45  1  0.48788158  0.29736364  0.85678464  1
  Zr  Zr46  1  0.82533881  0.81177485  0.76520809  1
  Zr  Zr47  1  0.30205572  0.49945694  0.11910511  1
  Zr  Zr48  1  -0.00126732  0.41708723  0.72969882  1
  Zr  Zr49  1  0.69343257  0.09614419  0.86966470  1
  Zr  Zr50  1  0.81703786  0.59238361  0.02237198  1
  Zr  Zr51  1  0.50712081  0.69678148  0.64451016  1
  Zr  Zr52  1  0.30734150  0.69468584  0.64088247  1
  Zr  Zr53  1  0.80162589  0.20621596  -0.01687206  1
  Zr  Zr54  1  0.20600316  0.81385907  0.25547480  1
  Zr  Zr55  1  0.71290377  0.49396708  0.87006237  1
  Zr  Zr56  1  0.10085636  0.28526998  0.13763843  1
  Zr  Zr57  1  0.78888420  0.61259602  0.49542397  1
  Zr  Zr58  1  -0.00264380  0.61268537  0.73456564  1
  Zr  Zr59  1  0.50310594  0.90335003  0.37862457  1
  Zr  Zr60  1  0.00273240  0.60093280  0.51406532  1
  Zr  Zr61  1  0.08657101  0.70359137  0.38127027  1
  Zr  Zr62  1  0.68402386  0.29907425  0.37296738  1
  Zr  Zr63  1  0.10746208  0.48952621  0.12748365  1
  Zr  Zr64  1  0.10680723  0.70148468  0.11045608  1
  Zr  Zr65  1  0.19894586  0.59546187  0.74819283  1
  Zr  Zr66  1  0.69989668  0.70497981  0.64214183  1
  Zr  Zr67  1  0.58463564  0.00095606  0.00959884  1
  Zr  Zr68  1  0.19285880  0.18831761  -0.02126368  1
  Zr  Zr69  1  0.80573895  0.59747196  0.24418426  1
  Zr  Zr70  1  0.08783178  0.50311851  0.88122608  1
  Zr  Zr71  1  0.28602842  0.09825677  0.12504605  1
  Zr  Zr72  1  0.00324368  0.01213594  0.51634729  1
  Zr  Zr73  1  0.70092382  0.70677068  0.12621476  1
  Zr  Zr74  1  -0.01087065  0.60447800  0.23476063  1
  Zr  Zr75  1  0.59976690  0.39506073  0.00182359  1
  Zr  Zr76  1  0.21043788  0.60389908  0.26594020  1
  Zr  Zr77  1  0.69096371  0.69994811  0.35407088  1
  Zr  Zr78  1  0.49346212  0.29920642  0.39057528  1
  Zr  Zr79  1  -0.00109938  0.20552771  -0.01788107  1
  Ta  Ta80  1  0.89790504  0.29497000  0.14199106  1
  Ta  Ta81  1  0.48833951  0.69842184  0.12552034  1
  Ta  Ta82  1  0.50136601  0.69303059  0.35957000  1
  Ta  Ta83  1  0.10085223  0.70657179  0.87877721  1
  Ta  Ta84  1  0.89885116  0.29870808  0.62249503  1
  Ta  Ta85  1  0.00208747  0.39628940  0.24970341  1
  Ta  Ta86  1  0.80118370  0.19275546  0.27206806  1
  Ta  Ta87  1  0.30795216  0.70537585  0.87319486  1
  Ta  Ta88  1  0.59288633  0.40558508  0.51979474  1
  Ta  Ta89  1  0.49806395  0.49952366  0.87273225  1
  Ta  Ta90  1  0.49995528  0.49649294  0.38626882  1
  Ta  Ta91  1  0.10067413  0.08957832  0.14648330  1
  Ta  Ta92  1  0.10390818  0.29875420  0.62954547  1
  Ta  Ta93  1  0.58308610  0.58692514  0.23009137  1
  Ta  Ta94  1  0.10533720  0.71375817  0.62582775  1
  Ta  Ta95  1  0.49661675  0.09924368  0.62422424  1
  Ta  Ta96  1  0.40234369  0.39034940  -0.00048659  1
  Ta  Ta97  1  -0.00710006  0.39656751  0.00676156  1
  Ta  Ta98  1  0.20058065  0.80421531  0.76015892  1
  Ta  Ta99  1  0.30304402  0.10131955  0.85505715  1
  Ta  Ta100  1  0.48860682  0.09985346  0.86527576  1
  Ta  Ta101  1  0.08051808  0.10244512  0.36489222  1
  Ta  Ta102  1  0.20883778  0.60377145  0.49815747  1
  Ta  Ta103  1  0.39990283  0.59739159  0.25498567  1
  Ta  Ta104  1  0.39181301  0.19976277  -0.00670576  1
  Ta  Ta105  1  0.01398613  0.81579092  0.00766553  1
  Ta  Ta106  1  0.89838627  0.72694996  0.60703654  1
  Ta  Ta107  1  0.89327750  0.10115540  0.62741418  1
  Ta  Ta108  1  0.40117799  -0.00150042  0.74475552  1
  Ta  Ta109  1  0.39036432  0.19617049  0.51333233  1
  Ta  Ta110  1  0.20347581  0.19606655  0.27647208  1
  Ta  Ta111  1  0.81595034  0.79707193  0.25514628  1
  Ta  Ta112  1  0.80355628  0.00521825  0.26313537  1
  Ta  Ta113  1  0.09811634  0.30455182  0.84716636  1
  Ta  Ta114  1  0.89836258  0.31876818  0.85118560  1
  Ta  Ta115  1  0.49325576  0.09533077  0.39963597  1
  Ta  Ta116  1  0.39378176  -0.00005783  -0.00282146  1
  Ta  Ta117  1  -0.00292129  0.19804145  0.74127402  1
  Ta  Ta118  1  0.29507902  0.30353240  0.62954797  1
  Ta  Ta119  1  0.69778216  0.29929949  0.62648256  1
  Ti  Ti120  1  0.39910484  0.40070776  0.73813540  1
  Ti  Ti121  1  0.59799386  0.19780569  0.51159797  1
  Ti  Ti122  1  0.58400959  0.80556974  0.23401506  1
  Ti  Ti123  1  0.49277623  0.29710482  0.62339993  1
  Ti  Ti124  1  0.80733151  0.39737547  0.25844361  1
  Ti  Ti125  1  0.29341528  0.10170297  0.63971882  1
  Ti  Ti126  1  0.12032661  0.49456727  0.61065819  1
  Ti  Ti127  1  0.88781928  0.50172995  0.61402295  1
  Ti  Ti128  1  0.70020918  0.48915021  0.13598832  1
  Ti  Ti129  1  0.01019153  0.81982049  0.50843805  1
  Ti  Ti130  1  0.39132192  0.81634457  -0.00625520  1
  Ti  Ti131  1  0.60204918  0.60066631  0.76882729  1
  Ti  Ti132  1  0.90337301  0.09830947  0.86141695  1
  Ti  Ti133  1  0.49758816  0.50833227  0.62945544  1
  Ti  Ti134  1  0.58252275  0.39998884  0.24089778  1
  Ti  Ti135  1  0.49723047  0.28926512  0.12653922  1
  Ti  Ti136  1  0.30489905  0.49361828  0.62106892  1
  Ti  Ti137  1  0.49791293  0.90163872  0.87064648  1
  Ti  Ti138  1  0.09374856  0.89296575  0.86042776  1
  Ti  Ti139  1  0.00622847  0.39283502  0.51116078  1
  Ti  Ti140  1  0.80458998  -0.00264286  0.74919935  1
  Ti  Ti141  1  0.69887314  0.09670876  0.62667480  1
  Ti  Ti142  1  0.80850052  0.00525285  -0.00976465  1
  Ti  Ti143  1  0.40772926  0.59774674  -0.00677383  1
  Ti  Ti144  1  0.59995536  0.00054548  0.50929490  1
  Ti  Ti145  1  0.50508465  0.89501997  0.62600277  1
  Ti  Ti146  1  0.59671317  0.19908459  0.74403798  1
  Ti  Ti147  1  0.40677588  0.80424132  0.75774670  1
  Ti  Ti148  1  0.10473224  0.09730406  0.84377193  1
  Ti  Ti149  1  0.29851307  0.30599905  0.39259806  1
  Ti  Ti150  1  0.79775572  0.00322096  0.49187810  1
  Ti  Ti151  1  0.30464108  0.09704142  0.38460593  1
  Ti  Ti152  1  0.49822518  0.69980642  0.87105354  1
  Ti  Ti153  1  0.10320282  0.29986523  0.38067871  1
  Ti  Ti154  1  0.69297822  0.50944510  0.62467405  1
  Ti  Ti155  1  0.39635012  0.79750348  0.24924139  1
  Ti  Ti156  1  0.70823207  0.70191900  0.88195047  1
  Ti  Ti157  1  0.68306123  0.09982170  0.37216335  1
  Ti  Ti158  1  0.30315037  0.48715730  0.38988279  1
  Ti  Ti159  1  0.90479311  0.50321614  0.87925268  1
  Mo  Mo160  1  0.19950021  0.19951190  0.74598768  1
  Mo  Mo161  1  0.00173247  0.20175346  0.25342029  1
  Mo  Mo162  1  0.48967313  0.10665201  0.10445919  1
  Mo  Mo163  1  0.59254236  0.59456487  0.49865083  1
  Mo  Mo164  1  0.10266306  0.10170695  0.64530115  1
  Mo  Mo165  1  0.49324723  0.49645328  0.10927671  1
  Mo  Mo166  1  0.39987610  0.00543212  0.52524403  1
  Mo  Mo167  1  0.89690010  0.09928404  0.37869497  1
  Mo  Mo168  1  0.20405620  0.80365011  -0.02160876  1
  Mo  Mo169  1  0.80201110  0.80423235  0.47899453  1
  Mo  Mo170  1  0.10126816  0.91269670  0.36412067  1
  Mo  Mo171  1  0.89990727  0.71243503  0.39231031  1
  Mo  Mo172  1  0.30971595  0.90104247  0.85716276  1
  Mo  Mo173  1  0.20323590  0.39135093  0.27739687  1
  Mo  Mo174  1  0.59975791  0.79740325  0.77404358  1
  Mo  Mo175  1  0.30681186  0.69732147  0.37367782  1
  Mo  Mo176  1  0.00394995  0.59801112  0.01324573  1
  Mo  Mo177  1  0.90261811  0.47789357  0.13393058  1
  Mo  Mo178  1  0.00066875  0.20184416  0.52303880  1
  Mo  Mo179  1  0.19967835  -0.00318699  0.75341111  1
  Mo  Mo180  1  0.90710167  0.90781668  0.89448102  1
  Mo  Mo181  1  0.10883347  0.91112882  0.12892986  1
  Mo  Mo182  1  0.29516922  0.89588671  0.12086003  1
  Mo  Mo183  1  0.59326355  0.19495473  0.25602954  1
  Mo  Mo184  1  0.00561411  0.80006110  0.74315852  1
  Mo  Mo185  1  0.40900813  0.59566489  0.76222883  1
  Mo  Mo186  1  0.89577895  0.90388483  0.60546410  1
  Mo  Mo187  1  0.10430765  0.89593927  0.64061712  1
  Mo  Mo188  1  0.80645497  0.80409399  0.00105508  1
  Mo  Mo189  1  0.00037191  -0.00037298  0.24938047  1
  Mo  Mo190  1  0.19827883  0.00465241  0.26820304  1
  Mo  Mo191  1  0.90245459  0.71681087  0.10893882  1
  Mo  Mo192  1  0.39915292  0.19702940  0.73130535  1
  Mo  Mo193  1  0.40011058  0.39960333  0.51975223  1
  Mo  Mo194  1  0.48682834  0.88950496  0.12000348  1
  Mo  Mo195  1  0.29819024  0.29375053  0.84917956  1
  Mo  Mo196  1  0.80058442  0.40564957  0.72867720  1
  Mo  Mo197  1  0.70046558  0.30285892  0.84962369  1
  Mo  Mo198  1  0.20339939  0.39672771  0.50324148  1
  Mo  Mo199  1  0.20159716  0.39924440  0.74211281  1
