# generated using pymatgen
data_HfZrTaTiMo
_symmetry_space_group_name_H-M   'P 1'
_cell_length_a   15.93112141
_cell_length_b   15.93072266
_cell_length_c   15.21195971
_cell_angle_alpha   90.01668415
_cell_angle_beta   90.00522047
_cell_angle_gamma   89.93281382
_symmetry_Int_Tables_number   1
_chemical_formula_structural   HfZrTaTiMo
_chemical_formula_sum   'Hf40 Zr40 Ta40 Ti40 Mo40'
_cell_volume   3860.70547901
_cell_formula_units_Z   40
loop_
 _symmetry_equiv_pos_site_id
 _symmetry_equiv_pos_as_xyz
  1  'x, y, z'
loop_
 _atom_site_type_symbol
 _atom_site_label
 _atom_site_symmetry_multiplicity
 _atom_site_fract_x
 _atom_site_fract_y
 _atom_site_fract_z
 _atom_site_occupancy
  Hf  Hf0  1  0.39346946  0.59190200  0.75880769  1
  Hf  Hf1  1  0.08587231  0.92084196  0.11601020  1
  Hf  Hf2  1  0.71074772  0.10263813  0.36843653  1
  Hf  Hf3  1  0.50112291  0.30363613  0.87129097  1
  Hf  Hf4  1  0.90605089  0.89489436  0.39136280  1
  Hf  Hf5  1  0.49773696  0.48823825  0.87809413  1
  Hf  Hf6  1  0.39472099  0.19972057  0.75280692  1
  Hf  Hf7  1  0.90969170  0.90176627  0.62008086  1
  Hf  Hf8  1  0.38935870  0.78330218  0.50427089  1
  Hf  Hf9  1  0.79387368  0.40818624  0.74590201  1
  Hf  Hf10  1  0.69900491  0.68777960  0.86501071  1
  Hf  Hf11  1  0.29329445  0.89815344  0.35710594  1
  Hf  Hf12  1  0.49842007  0.89485028  0.36460787  1
  Hf  Hf13  1  0.20062117  0.60370748  0.49060232  1
  Hf  Hf14  1  0.40481233  -0.01651715  -0.00957167  1
  Hf  Hf15  1  0.50782272  0.88161670  0.63327814  1
  Hf  Hf16  1  0.39781948  -0.00406780  0.49226574  1
  Hf  Hf17  1  0.48652020  0.29395353  0.37033132  1
  Hf  Hf18  1  0.71404797  0.30477253  0.37147803  1
  Hf  Hf19  1  0.81335726  0.20377976  0.49605320  1
  Hf  Hf20  1  0.29766703  0.69298214  0.88193150  1
  Hf  Hf21  1  0.70401253  0.89028423  0.37040046  1
  Hf  Hf22  1  0.10142296  0.89709260  0.36183976  1
  Hf  Hf23  1  0.00366990  0.79801222  0.75983156  1
  Hf  Hf24  1  0.11145516  0.11496973  0.37543176  1
  Hf  Hf25  1  0.10253552  0.90362791  0.62254666  1
  Hf  Hf26  1  0.59695116  0.19965813  0.24751776  1
  Hf  Hf27  1  0.39970085  0.01346153  0.24170140  1
  Hf  Hf28  1  0.19977871  0.20655201  0.76241925  1
  Hf  Hf29  1  0.51303331  0.09383831  0.11203735  1
  Hf  Hf30  1  0.50012298  0.50146091  0.12260670  1
  Hf  Hf31  1  0.89825514  0.29818106  0.87161739  1
  Hf  Hf32  1  0.82461670  -0.01171869  0.24504013  1
  Hf  Hf33  1  0.60833798  -0.01347756  0.75107922  1
  Hf  Hf34  1  0.68018965  0.70133885  0.63559441  1
  Hf  Hf35  1  0.92189843  0.09096066  0.11163125  1
  Hf  Hf36  1  0.59576515  0.40513995  0.26826468  1
  Hf  Hf37  1  0.48363633  0.69156317  0.36745903  1
  Hf  Hf38  1  0.18663647  0.59340389  -0.00484945  1
  Hf  Hf39  1  0.30873618  0.90596159  0.63789921  1
  Zr  Zr40  1  0.70047594  0.49978975  0.12911374  1
  Zr  Zr41  1  0.60818097  -0.00350821  0.50421638  1
  Zr  Zr42  1  0.00151350  0.40717892  0.74735226  1
  Zr  Zr43  1  0.19813466  0.79550615  0.50516693  1
  Zr  Zr44  1  0.18873081  0.40807354  0.50314954  1
  Zr  Zr45  1  0.80146256  0.79408888  0.00276125  1
  Zr  Zr46  1  0.20300318  0.79815106  0.76098928  1
  Zr  Zr47  1  0.59251330  0.59181159  0.49309882  1
  Zr  Zr48  1  0.90291057  0.10463218  0.87791930  1
  Zr  Zr49  1  0.58513973  0.79414953  -0.01824176  1
  Zr  Zr50  1  0.40014639  0.20626511  0.52324666  1
  Zr  Zr51  1  -0.00005288  0.40872336  0.00229325  1
  Zr  Zr52  1  0.79897922  -0.00019629  0.74443405  1
  Zr  Zr53  1  0.29440820  0.30590136  0.37009792  1
  Zr  Zr54  1  0.79439269  0.79375345  0.51452057  1
  Zr  Zr55  1  0.01911183  0.20395225  0.23485126  1
  Zr  Zr56  1  0.50663488  0.09503333  0.87860427  1
  Zr  Zr57  1  0.49236746  0.08689887  0.63186971  1
  Zr  Zr58  1  -0.00971188  0.60428523  0.00232061  1
  Zr  Zr59  1  0.28453819  0.51395390  0.63763496  1
  Zr  Zr60  1  0.70533131  0.30390652  0.13754542  1
  Zr  Zr61  1  0.69400618  0.90053033  0.12453066  1
  Zr  Zr62  1  0.79425568  0.80594997  0.74678630  1
  Zr  Zr63  1  0.50638600  0.88923164  0.13210295  1
  Zr  Zr64  1  0.30719182  0.11623405  0.36779853  1
  Zr  Zr65  1  0.20358604  0.00405149  0.77307075  1
  Zr  Zr66  1  0.71513680  0.10251515  0.12568527  1
  Zr  Zr67  1  0.29129839  0.89507645  0.12324799  1
  Zr  Zr68  1  0.28766788  0.69258360  0.34358559  1
  Zr  Zr69  1  -0.00411110  0.79637677  -0.00513810  1
  Zr  Zr70  1  0.00340399  0.01596803  0.49119757  1
  Zr  Zr71  1  0.10248950  0.70234413  0.14195492  1
  Zr  Zr72  1  0.60439053  0.60205489  0.26745811  1
  Zr  Zr73  1  0.39340713  0.40756460  0.51144755  1
  Zr  Zr74  1  0.89731793  0.30038344  0.12845845  1
  Zr  Zr75  1  -0.02411501  0.81083429  0.23379196  1
  Zr  Zr76  1  0.60341009  0.20058481  0.73743886  1
  Zr  Zr77  1  0.90549401  0.11249175  0.64025198  1
  Zr  Zr78  1  0.89238274  0.68911881  0.37551885  1
  Zr  Zr79  1  0.10207517  0.10514889  0.62858741  1
  Ta  Ta80  1  0.10008682  0.30912863  0.37037886  1
  Ta  Ta81  1  0.60731732  0.20682749  -0.00078827  1
  Ta  Ta82  1  0.80396083  0.59654770  0.51780252  1
  Ta  Ta83  1  0.80280446  0.00477035  0.50420376  1
  Ta  Ta84  1  -0.02160058  0.58806016  0.23681099  1
  Ta  Ta85  1  0.21253583  0.20843316  0.22041628  1
  Ta  Ta86  1  0.47031641  0.49827780  0.37134663  1
  Ta  Ta87  1  0.09092641  0.69292784  0.35445060  1
  Ta  Ta88  1  0.30020956  0.69458769  0.12199972  1
  Ta  Ta89  1  0.40320893  0.20554535  0.00636733  1
  Ta  Ta90  1  0.30133223  0.10394515  0.89329227  1
  Ta  Ta91  1  0.59574194  0.78909817  0.48819919  1
  Ta  Ta92  1  0.80712558  0.40266871  0.50790640  1
  Ta  Ta93  1  0.80289158  0.59487043  0.73434959  1
  Ta  Ta94  1  -0.00150048  0.40301070  0.51053111  1
  Ta  Ta95  1  0.40479871  0.79618542  0.76649584  1
  Ta  Ta96  1  0.79489087  0.40703517  -0.01230093  1
  Ta  Ta97  1  0.19700645  0.79887974  -0.00510552  1
  Ta  Ta98  1  0.20146006  0.40952833  0.77523570  1
  Ta  Ta99  1  0.50386185  0.10370260  0.37577423  1
  Ta  Ta100  1  0.30786546  0.30996410  0.88776083  1
  Ta  Ta101  1  0.70561468  0.10664283  0.87987223  1
  Ta  Ta102  1  0.48963998  0.68785752  0.63260944  1
  Ta  Ta103  1  0.68709044  0.69879990  0.12875002  1
  Ta  Ta104  1  0.11178564  0.68253923  0.64277229  1
  Ta  Ta105  1  0.09238899  0.50047092  0.35587662  1
  Ta  Ta106  1  0.60103368  0.20467304  0.50388920  1
  Ta  Ta107  1  0.69775780  0.30338732  0.86499255  1
  Ta  Ta108  1  0.19331154  0.39395441  0.22988517  1
  Ta  Ta109  1  0.19079489  0.01744525  0.23562458  1
  Ta  Ta110  1  0.79624002  0.59851172  0.00724523  1
  Ta  Ta111  1  0.70185281  0.30303634  0.62206190  1
  Ta  Ta112  1  0.10190996  0.30063748  0.88953978  1
  Ta  Ta113  1  0.20119739  0.20915063  0.51624213  1
  Ta  Ta114  1  0.69298261  0.49598968  0.61847331  1
  Ta  Ta115  1  0.00881727  0.59155187  0.51116638  1
  Ta  Ta116  1  0.59669082  0.39535436  0.49751238  1
  Ta  Ta117  1  0.20178514  0.40481056  0.00343750  1
  Ta  Ta118  1  0.20702343  0.00587087  0.49623018  1
  Ta  Ta119  1  0.39018175  0.39453985  0.23210577  1
  Ti  Ti120  1  0.30060678  0.10111295  0.10774275  1
  Ti  Ti121  1  0.00981360  0.20403894  0.76000345  1
  Ti  Ti122  1  0.60365701  0.00020069  0.25660518  1
  Ti  Ti123  1  0.90014800  0.29915062  0.63500132  1
  Ti  Ti124  1  0.09366538  0.49829136  0.13689320  1
  Ti  Ti125  1  0.79015969  0.78573735  0.24305547  1
  Ti  Ti126  1  0.00697057  0.21726671  0.50018621  1
  Ti  Ti127  1  0.29779782  0.31275262  0.64285172  1
  Ti  Ti128  1  0.71790652  0.50663769  0.38409719  1
  Ti  Ti129  1  0.09925116  0.10429713  0.90229352  1
  Ti  Ti130  1  0.80161839  -0.00236323  -0.00034172  1
  Ti  Ti131  1  0.40165464  0.79135078  -0.00961897  1
  Ti  Ti132  1  0.49779300  0.49147595  0.63290443  1
  Ti  Ti133  1  0.90996867  0.69463737  0.63009216  1
  Ti  Ti134  1  0.59901081  0.58405697  0.75456177  1
  Ti  Ti135  1  0.40384634  0.59944046  -0.00227236  1
  Ti  Ti136  1  0.90967501  0.10923282  0.36110799  1
  Ti  Ti137  1  0.39719775  0.79376354  0.23864693  1
  Ti  Ti138  1  0.29210620  0.50258849  0.35347810  1
  Ti  Ti139  1  0.29993276  0.50378035  0.12214094  1
  Ti  Ti140  1  0.69667230  0.90192105  0.88509830  1
  Ti  Ti141  1  0.90626222  0.49817072  0.38641119  1
  Ti  Ti142  1  0.49949038  0.30286376  0.12126817  1
  Ti  Ti143  1  0.60717426  0.39760850  -0.00137436  1
  Ti  Ti144  1  0.89519496  0.69394901  0.86333724  1
  Ti  Ti145  1  0.81886956  0.41994223  0.25432780  1
  Ti  Ti146  1  0.00866408  0.00041370  0.76492211  1
  Ti  Ti147  1  0.60000936  0.59781631  -0.00807464  1
  Ti  Ti148  1  0.10379566  0.90447563  0.88921064  1
  Ti  Ti149  1  0.79870550  0.20864443  -0.00288026  1
  Ti  Ti150  1  0.91134709  0.30765305  0.36455649  1
  Ti  Ti151  1  0.10428949  0.30720271  0.63391105  1
  Ti  Ti152  1  0.19990415  0.20808287  0.00821424  1
  Ti  Ti153  1  0.00233493  0.59512692  0.75234554  1
  Ti  Ti154  1  0.29594066  0.09530367  0.63354248  1
  Ti  Ti155  1  0.01203044  0.78037293  0.50470828  1
  Ti  Ti156  1  0.70866228  0.10509284  0.62210749  1
  Ti  Ti157  1  0.49780812  0.69396503  0.13314456  1
  Ti  Ti158  1  0.89035944  0.50833763  0.87342602  1
  Ti  Ti159  1  0.89979364  0.90539784  0.87928173  1
  Mo  Mo160  1  0.00031758  0.40336751  0.24815684  1
  Mo  Mo161  1  0.50405823  0.30839462  0.63087564  1
  Mo  Mo162  1  0.70019877  0.69496025  0.37724561  1
  Mo  Mo163  1  0.39503169  0.59789074  0.51320940  1
  Mo  Mo164  1  0.40285612  0.40067321  0.01461959  1
  Mo  Mo165  1  0.10984366  0.10375630  0.10508039  1
  Mo  Mo166  1  0.79584388  0.20675449  0.74919009  1
  Mo  Mo167  1  0.59907842  0.79230472  0.26146625  1
  Mo  Mo168  1  0.19098233  0.59627819  0.77543516  1
  Mo  Mo169  1  0.30229219  0.89690917  0.88532340  1
  Mo  Mo170  1  0.69874100  0.49845269  0.87850070  1
  Mo  Mo171  1  0.09500260  0.69883289  0.86721939  1
  Mo  Mo172  1  -0.00120498  -0.00113420  -0.02236620  1
  Mo  Mo173  1  0.59802137  0.40248184  0.73703068  1
  Mo  Mo174  1  0.30329836  0.30358925  0.10908852  1
  Mo  Mo175  1  0.39698082  0.39653642  0.74427548  1
  Mo  Mo176  1  0.61076617  0.00156842  -0.01639639  1
  Mo  Mo177  1  0.69768968  0.89807944  0.60989712  1
  Mo  Mo178  1  0.81230778  0.19911015  0.26197034  1
  Mo  Mo179  1  0.09506639  0.49992518  0.87194951  1
  Mo  Mo180  1  0.00513394  0.20576585  -0.00079785  1
  Mo  Mo181  1  0.89461517  0.90374600  0.10821492  1
  Mo  Mo182  1  0.39728454  -0.00657682  0.77145143  1
  Mo  Mo183  1  0.39565642  0.59238238  0.22848020  1
  Mo  Mo184  1  0.30130844  0.70144456  0.64254453  1
  Mo  Mo185  1  0.50178425  0.89318589  0.86304350  1
  Mo  Mo186  1  0.09708679  0.50200857  0.63931239  1
  Mo  Mo187  1  0.88422420  0.69599690  0.13334557  1
  Mo  Mo188  1  0.40235129  0.20154483  0.22249502  1
  Mo  Mo189  1  0.19465906  0.80481656  0.23297288  1
  Mo  Mo190  1  0.19257877  0.59028458  0.24039349  1
  Mo  Mo191  1  0.49974368  0.68781509  0.86453376  1
  Mo  Mo192  1  0.00710345  0.00759641  0.26078978  1
  Mo  Mo193  1  0.59593902  0.79194057  0.76163566  1
  Mo  Mo194  1  0.30289256  0.49366052  0.89065773  1
  Mo  Mo195  1  0.89245381  0.49780415  0.11754022  1
  Mo  Mo196  1  0.89989821  0.50254945  0.62001688  1
  Mo  Mo197  1  0.10348511  0.30435467  0.10882746  1
  Mo  Mo198  1  0.20192233  0.00419958  -0.00200500  1
  Mo  Mo199  1  0.79860680  0.59989945  0.24350409  1
