# generated using pymatgen
data_HfZrTaTiMo
_symmetry_space_group_name_H-M   'P 1'
_cell_length_a   15.92699292
_cell_length_b   15.91847244
_cell_length_c   15.19244447
_cell_angle_alpha   89.92907973
_cell_angle_beta   89.97065539
_cell_angle_gamma   90.07824606
_symmetry_Int_Tables_number   1
_chemical_formula_structural   HfZrTaTiMo
_chemical_formula_sum   'Hf40 Zr40 Ta40 Ti40 Mo40'
_cell_volume   3851.78501664
_cell_formula_units_Z   40
loop_
 _symmetry_equiv_pos_site_id
 _symmetry_equiv_pos_as_xyz
  1  'x, y, z'
loop_
 _atom_site_type_symbol
 _atom_site_label
 _atom_site_symmetry_multiplicity
 _atom_site_fract_x
 _atom_site_fract_y
 _atom_site_fract_z
 _atom_site_occupancy
  Hf  Hf0  1  0.50901962  0.49443093  0.39608115  1
  Hf  Hf1  1  0.11186607  0.49605404  0.12381149  1
  Hf  Hf2  1  0.30324903  0.50875146  0.63469115  1
  Hf  Hf3  1  0.48889100  0.90142309  0.13708818  1
  Hf  Hf4  1  0.70563578  0.30928158  0.11800096  1
  Hf  Hf5  1  0.49786603  0.09374524  0.14369275  1
  Hf  Hf6  1  0.30116494  0.49693394  0.13468116  1
  Hf  Hf7  1  0.70572117  0.09995189  0.13318069  1
  Hf  Hf8  1  0.08814292  0.29315894  0.88728169  1
  Hf  Hf9  1  0.58885775  0.00056481  -0.01369902  1
  Hf  Hf10  1  0.19399433  0.19973132  0.74181665  1
  Hf  Hf11  1  0.69727750  0.90085519  0.36090697  1
  Hf  Hf12  1  0.39387963  -0.01058292  -0.01671490  1
  Hf  Hf13  1  0.20017404  0.00901603  0.48707406  1
  Hf  Hf14  1  0.40090364  0.20003959  0.75317002  1
  Hf  Hf15  1  0.69136861  0.89181950  0.86535366  1
  Hf  Hf16  1  0.21320804  0.80568654  -0.01212224  1
  Hf  Hf17  1  0.81417252  0.40385954  0.50193413  1
  Hf  Hf18  1  0.19721261  0.80267350  0.76130846  1
  Hf  Hf19  1  0.50429147  0.49792591  0.63623355  1
  Hf  Hf20  1  0.60832390  0.60060018  0.51404886  1
  Hf  Hf21  1  0.69043553  0.90310303  0.13412823  1
  Hf  Hf22  1  -0.01608422  0.19766814  0.48662977  1
  Hf  Hf23  1  0.40102926  0.39747997  0.51154459  1
  Hf  Hf24  1  0.89568412  0.69216109  0.38186414  1
  Hf  Hf25  1  0.79540192  0.00950009  0.49320625  1
  Hf  Hf26  1  0.69983190  0.90839979  0.63603753  1
  Hf  Hf27  1  0.90543603  0.70104593  0.61368648  1
  Hf  Hf28  1  0.09186258  0.89541824  0.61105808  1
  Hf  Hf29  1  0.09982781  0.30597013  0.37239913  1
  Hf  Hf30  1  0.70228944  0.31093893  0.88372579  1
  Hf  Hf31  1  0.59261266  0.00615036  0.50265062  1
  Hf  Hf32  1  -0.00672764  0.00294784  0.47824964  1
  Hf  Hf33  1  0.19867617  0.60248710  0.75707163  1
  Hf  Hf34  1  0.00388217  0.60324513  0.24180807  1
  Hf  Hf35  1  0.89319996  0.69475303  0.12111943  1
  Hf  Hf36  1  0.10178402  0.49095528  0.88468472  1
  Hf  Hf37  1  0.48684077  0.69410446  0.39364167  1
  Hf  Hf38  1  0.50735324  0.28547467  0.40045686  1
  Hf  Hf39  1  0.09362314  0.09996075  0.89327931  1
  Zr  Zr40  1  0.10556826  0.49364581  0.34949407  1
  Zr  Zr41  1  0.59529002  0.20015406  0.00028089  1
  Zr  Zr42  1  0.40645937  0.19159787  -0.00765393  1
  Zr  Zr43  1  0.19292804  0.00272813  0.74963409  1
  Zr  Zr44  1  0.09986032  0.70420290  0.61338929  1
  Zr  Zr45  1  0.80629594  0.59753884  0.75209259  1
  Zr  Zr46  1  0.40223728  0.40314075  -0.00987967  1
  Zr  Zr47  1  0.09038675  0.30319094  0.61372796  1
  Zr  Zr48  1  0.30344921  0.30017330  0.13142451  1
  Zr  Zr49  1  0.89298560  0.10001318  0.63514437  1
  Zr  Zr50  1  0.40082919  0.80007667  -0.00620580  1
  Zr  Zr51  1  0.49796390  0.90569998  0.36605131  1
  Zr  Zr52  1  0.10744077  0.30301064  0.13123797  1
  Zr  Zr53  1  0.28786697  0.30368815  0.88194787  1
  Zr  Zr54  1  0.79568390  0.58594099  -0.01943939  1
  Zr  Zr55  1  0.00723907  0.79691630  0.25189205  1
  Zr  Zr56  1  0.90343925  0.69966612  0.88066997  1
  Zr  Zr57  1  0.38721630  0.78499902  0.24745613  1
  Zr  Zr58  1  0.11161268  0.70062373  0.11184048  1
  Zr  Zr59  1  0.29855099  0.90648314  0.61951911  1
  Zr  Zr60  1  0.19492486  0.41053930  0.50712823  1
  Zr  Zr61  1  0.00706416  0.57352059  0.49833162  1
  Zr  Zr62  1  0.89112842  0.30362791  0.35614307  1
  Zr  Zr63  1  0.60203405  0.59542977  0.25789086  1
  Zr  Zr64  1  0.79638309  0.80551616  -0.00528768  1
  Zr  Zr65  1  0.90264997  0.89977439  0.62644407  1
  Zr  Zr66  1  0.80212018  0.00283114  -0.01341905  1
  Zr  Zr67  1  0.68852206  0.10903748  0.36422970  1
  Zr  Zr68  1  0.31557095  0.50979953  0.37345110  1
  Zr  Zr69  1  0.00509170  0.18817811  0.24964225  1
  Zr  Zr70  1  0.68843962  0.68789002  0.11410801  1
  Zr  Zr71  1  0.60322648  0.40011598  0.25741401  1
  Zr  Zr72  1  0.41073031  0.60471482  -0.01006113  1
  Zr  Zr73  1  -0.02084418  0.38822680  0.00871024  1
  Zr  Zr74  1  0.90022280  0.91165260  0.14184289  1
  Zr  Zr75  1  0.89243490  0.29745775  0.63294529  1
  Zr  Zr76  1  0.70280877  0.69683288  0.38349010  1
  Zr  Zr77  1  0.10965833  0.91233205  0.13030843  1
  Zr  Zr78  1  0.29175430  0.08074422  0.12313801  1
  Zr  Zr79  1  0.20671222  0.17922882  0.26419259  1
  Ta  Ta80  1  0.49917276  0.10384385  0.63057863  1
  Ta  Ta81  1  0.50966652  0.29583957  0.62751470  1
  Ta  Ta82  1  0.59828294  0.01324532  0.75442450  1
  Ta  Ta83  1  -0.00144832  0.81045063  -0.00382021  1
  Ta  Ta84  1  0.70043055  0.29784969  0.39226772  1
  Ta  Ta85  1  0.69766865  0.49345825  0.10717198  1
  Ta  Ta86  1  0.30181877  0.70348095  0.61839414  1
  Ta  Ta87  1  0.81623666  0.21104438  -0.00152655  1
  Ta  Ta88  1  0.90169719  0.09978043  0.12532899  1
  Ta  Ta89  1  0.60874966  0.60041766  0.74845035  1
  Ta  Ta90  1  0.00113665  0.79957559  0.76448356  1
  Ta  Ta91  1  0.41172494  0.39636640  0.25530549  1
  Ta  Ta92  1  0.49935465  0.70194901  0.63083390  1
  Ta  Ta93  1  0.21484339  0.61887474  0.26254258  1
  Ta  Ta94  1  -0.00053023  0.59374942  0.00408613  1
  Ta  Ta95  1  0.88449032  0.49189699  0.13789841  1
  Ta  Ta96  1  0.30584776  0.30125349  0.37922698  1
  Ta  Ta97  1  0.29295505  0.09947539  0.87569035  1
  Ta  Ta98  1  0.89737551  0.49686634  0.35426428  1
  Ta  Ta99  1  0.59772743  0.80613195  0.51263113  1
  Ta  Ta100  1  0.58882838  0.78817739  0.24450427  1
  Ta  Ta101  1  0.89344774  0.89595730  0.36352939  1
  Ta  Ta102  1  0.21504469  0.59245911  -0.01728256  1
  Ta  Ta103  1  0.50108710  0.89383108  0.85354477  1
  Ta  Ta104  1  0.59440020  0.20812846  0.24610962  1
  Ta  Ta105  1  0.40149968  0.80778603  0.50960509  1
  Ta  Ta106  1  0.79699572  0.80553075  0.50169849  1
  Ta  Ta107  1  0.70544776  0.70529384  0.62815252  1
  Ta  Ta108  1  0.20641394  0.60477811  0.49432874  1
  Ta  Ta109  1  0.70950610  0.49569905  0.62724520  1
  Ta  Ta110  1  0.00618083  0.59661299  0.75344850  1
  Ta  Ta111  1  0.19713241  0.40091624  0.74803769  1
  Ta  Ta112  1  0.51246913  0.50316215  0.11062850  1
  Ta  Ta113  1  0.90745228  0.10909515  0.88030272  1
  Ta  Ta114  1  0.51024727  0.49870495  0.86277049  1
  Ta  Ta115  1  0.80419111  0.80159877  0.75207168  1
  Ta  Ta116  1  0.79920093  0.00698134  0.76652527  1
  Ta  Ta117  1  0.09320987  0.09994005  0.61251828  1
  Ta  Ta118  1  0.29726674  0.89611497  0.37863582  1
  Ta  Ta119  1  0.39711352  0.80227374  0.74216984  1
  Ti  Ti120  1  0.38123454  0.00781424  0.26750586  1
  Ti  Ti121  1  0.71362420  0.50035821  0.38880080  1
  Ti  Ti122  1  0.10431334  0.70725397  0.38832527  1
  Ti  Ti123  1  0.79152218  0.78789025  0.24687093  1
  Ti  Ti124  1  0.50751537  0.70352462  0.85144982  1
  Ti  Ti125  1  0.09914506  0.89987992  0.37164677  1
  Ti  Ti126  1  0.50267154  0.30811433  0.12178333  1
  Ti  Ti127  1  0.00352087  0.39852086  0.75032198  1
  Ti  Ti128  1  0.20489537  -0.00963071  -0.01202837  1
  Ti  Ti129  1  0.69566569  0.11098756  0.87411454  1
  Ti  Ti130  1  0.40411646  0.20030700  0.26254520  1
  Ti  Ti131  1  0.29983919  0.69530773  0.11593240  1
  Ti  Ti132  1  0.80293094  0.39963912  0.75502950  1
  Ti  Ti133  1  0.69781211  0.11352660  0.63079786  1
  Ti  Ti134  1  0.51021944  0.30044729  0.86293234  1
  Ti  Ti135  1  0.00042826  0.19614874  0.74814093  1
  Ti  Ti136  1  0.58457242  0.79088798  0.00377796  1
  Ti  Ti137  1  0.88320311  0.09835087  0.34774462  1
  Ti  Ti138  1  0.40182043  0.01268486  0.49247477  1
  Ti  Ti139  1  0.89197090  0.29915983  0.14497657  1
  Ti  Ti140  1  0.39661254  0.00349387  0.75719518  1
  Ti  Ti141  1  0.09078068  0.90403436  0.88129728  1
  Ti  Ti142  1  0.91040152  0.49649165  0.63216645  1
  Ti  Ti143  1  -0.00278094  -0.00016220  0.75749866  1
  Ti  Ti144  1  0.30315720  0.10419647  0.61938207  1
  Ti  Ti145  1  0.69980191  0.29616626  0.61449650  1
  Ti  Ti146  1  0.20619196  0.19994472  0.49683493  1
  Ti  Ti147  1  0.41196337  0.60091671  0.23797014  1
  Ti  Ti148  1  0.39635719  0.39889452  0.75572530  1
  Ti  Ti149  1  0.61158439  0.39550950  0.74409749  1
  Ti  Ti150  1  0.31293930  0.69634397  0.86030183  1
  Ti  Ti151  1  0.20478715  0.80105939  0.25712325  1
  Ti  Ti152  1  0.49951856  0.90612547  0.63670518  1
  Ti  Ti153  1  0.19950338  0.19629386  0.01027398  1
  Ti  Ti154  1  0.09086647  0.08830740  0.11452586  1
  Ti  Ti155  1  0.90321418  0.48653508  0.87208459  1
  Ti  Ti156  1  0.09748239  0.69638954  0.88880603  1
  Ti  Ti157  1  0.30246584  0.29777475  0.62455174  1
  Ti  Ti158  1  0.79514550  0.20374472  0.76392034  1
  Ti  Ti159  1  0.68898993  0.70209767  0.86833096  1
  Mo  Mo160  1  0.79484377  0.59298386  0.24379112  1
  Mo  Mo161  1  0.30696016  0.50047702  0.85620428  1
  Mo  Mo162  1  0.21617680  0.39878842  0.26281658  1
  Mo  Mo163  1  0.59846448  0.60117017  -0.02763865  1
  Mo  Mo164  1  -0.00618194  0.19523817  0.01909862  1
  Mo  Mo165  1  0.79216648  0.20278804  0.23697122  1
  Mo  Mo166  1  0.50025244  0.69353754  0.12275983  1
  Mo  Mo167  1  0.09896160  0.50187746  0.64301757  1
  Mo  Mo168  1  0.89990664  0.29607188  0.85857863  1
  Mo  Mo169  1  0.80460211  0.59637486  0.51735640  1
  Mo  Mo170  1  0.29501340  0.89770882  0.14526410  1
  Mo  Mo171  1  0.00402541  0.00409683  0.26540653  1
  Mo  Mo172  1  0.78914480  0.40363453  0.26014876  1
  Mo  Mo173  1  0.39650750  0.19823535  0.51798360  1
  Mo  Mo174  1  -0.00225908  -0.00330192  -0.00676784  1
  Mo  Mo175  1  0.19764814  -0.00572124  0.27176580  1
  Mo  Mo176  1  0.90356945  0.90501252  0.86231863  1
  Mo  Mo177  1  0.20366807  0.40350473  -0.01074964  1
  Mo  Mo178  1  0.40609161  0.60520709  0.75185204  1
  Mo  Mo179  1  -0.00208183  0.39950136  0.23239358  1
  Mo  Mo180  1  -0.00446814  0.80270622  0.47753516  1
  Mo  Mo181  1  0.30918211  0.10594036  0.38918222  1
  Mo  Mo182  1  0.59127617  0.00142130  0.25335923  1
  Mo  Mo183  1  0.09950413  0.10344239  0.38938205  1
  Mo  Mo184  1  0.49483003  0.10479253  0.36975299  1
  Mo  Mo185  1  0.60225204  0.19491677  0.51840606  1
  Mo  Mo186  1  0.30095985  0.90052106  0.85479022  1
  Mo  Mo187  1  0.40168534  0.60465188  0.52214111  1
  Mo  Mo188  1  0.79406162  0.19833668  0.49840861  1
  Mo  Mo189  1  0.49691780  0.09860713  0.85493841  1
  Mo  Mo190  1  0.80168570  0.40007938  -0.01006234  1
  Mo  Mo191  1  0.60699015  0.20483629  0.74378184  1
  Mo  Mo192  1  0.29908667  0.70573975  0.39444498  1
  Mo  Mo193  1  -0.00263623  0.40084851  0.50265529  1
  Mo  Mo194  1  0.69676293  0.49649760  0.86063575  1
  Mo  Mo195  1  0.59965838  0.80150963  0.73344125  1
  Mo  Mo196  1  0.61102097  0.39792286  0.51365264  1
  Mo  Mo197  1  0.20016101  0.80285719  0.48886703  1
  Mo  Mo198  1  0.79828432  -0.00151404  0.25083718  1
  Mo  Mo199  1  0.59484868  0.40615344  -0.00777089  1
