# generated using pymatgen
data_HfZrTaTiMo
_symmetry_space_group_name_H-M   'P 1'
_cell_length_a   15.92414773
_cell_length_b   15.92713722
_cell_length_c   15.19407824
_cell_angle_alpha   89.92147239
_cell_angle_beta   89.95412773
_cell_angle_gamma   89.82230568
_symmetry_Int_Tables_number   1
_chemical_formula_structural   HfZrTaTiMo
_chemical_formula_sum   'Hf40 Zr40 Ta40 Ti40 Mo40'
_cell_volume   3853.59121929
_cell_formula_units_Z   40
loop_
 _symmetry_equiv_pos_site_id
 _symmetry_equiv_pos_as_xyz
  1  'x, y, z'
loop_
 _atom_site_type_symbol
 _atom_site_label
 _atom_site_symmetry_multiplicity
 _atom_site_fract_x
 _atom_site_fract_y
 _atom_site_fract_z
 _atom_site_occupancy
  Hf  Hf0  1  0.90684337  0.09129227  0.37073064  1
  Hf  Hf1  1  0.38468492  0.59312664  0.75034104  1
  Hf  Hf2  1  0.60106130  -0.00346293  0.25173025  1
  Hf  Hf3  1  0.91554794  0.28685824  0.87716673  1
  Hf  Hf4  1  0.00904922  0.60406528  -0.01483216  1
  Hf  Hf5  1  0.12113684  0.49734054  0.86027594  1
  Hf  Hf6  1  0.09879770  0.09847795  0.36526041  1
  Hf  Hf7  1  0.49340743  0.89568484  0.86938998  1
  Hf  Hf8  1  0.09998759  0.30597746  0.11147872  1
  Hf  Hf9  1  0.39657868  0.01086133  0.75664394  1
  Hf  Hf10  1  0.40945181  0.59303488  0.00419658  1
  Hf  Hf11  1  0.70481790  0.90103292  0.11686128  1
  Hf  Hf12  1  0.59297915  0.00933313  -0.00595631  1
  Hf  Hf13  1  0.79650577  0.19747206  0.75295237  1
  Hf  Hf14  1  0.80804266  0.40777148  0.51866521  1
  Hf  Hf15  1  0.20274513  0.40187074  0.26036084  1
  Hf  Hf16  1  0.00262644  0.20226751  0.24160647  1
  Hf  Hf17  1  0.19807528  0.79758793  0.26045588  1
  Hf  Hf18  1  0.01058038  0.19868561  0.51257920  1
  Hf  Hf19  1  0.92222219  0.70226098  0.37693548  1
  Hf  Hf20  1  0.59703987  0.39318908  0.73725061  1
  Hf  Hf21  1  0.90683203  0.31159677  0.37972625  1
  Hf  Hf22  1  0.91038361  0.50068863  0.13845944  1
  Hf  Hf23  1  0.50035946  0.69798529  0.38075478  1
  Hf  Hf24  1  0.19019163  0.59501911  0.48860054  1
  Hf  Hf25  1  0.29263806  0.89585700  0.11471411  1
  Hf  Hf26  1  0.39443177  0.18818932  -0.01543521  1
  Hf  Hf27  1  0.79801552  0.39782519  0.74223053  1
  Hf  Hf28  1  0.69315827  0.89850934  0.87460814  1
  Hf  Hf29  1  0.19920084  0.60157065  0.25884323  1
  Hf  Hf30  1  0.48917712  0.70656105  0.86062243  1
  Hf  Hf31  1  0.70596851  0.49446829  0.37441961  1
  Hf  Hf32  1  0.10132424  0.90533606  0.86975646  1
  Hf  Hf33  1  0.39059445  0.79943763  0.25056729  1
  Hf  Hf34  1  0.79662981  0.20612374  0.25432111  1
  Hf  Hf35  1  0.49669325  0.29851576  0.11553215  1
  Hf  Hf36  1  0.39637363  0.39668055  0.26440379  1
  Hf  Hf37  1  0.71320192  0.48945697  0.13805911  1
  Hf  Hf38  1  0.19831088  0.00947659  -0.00438607  1
  Hf  Hf39  1  0.29483972  0.69444628  0.61834467  1
  Zr  Zr40  1  0.90935889  0.70084026  0.12654907  1
  Zr  Zr41  1  0.10247593  0.30200251  0.88428246  1
  Zr  Zr42  1  0.49911551  0.10168099  0.60513213  1
  Zr  Zr43  1  0.60327282  0.81005069  0.50716530  1
  Zr  Zr44  1  0.60831805  0.60344386  0.50550650  1
  Zr  Zr45  1  0.80401641  0.60586657  0.26481174  1
  Zr  Zr46  1  0.59766887  0.59647417  0.00653546  1
  Zr  Zr47  1  0.50099603  0.89715709  0.36642022  1
  Zr  Zr48  1  0.40361002  0.20505391  0.75899357  1
  Zr  Zr49  1  0.01109126  0.39266178  0.73799235  1
  Zr  Zr50  1  0.30140466  0.09775454  0.38491663  1
  Zr  Zr51  1  0.00228171  -0.00146692  0.52290950  1
  Zr  Zr52  1  0.80271206  0.19697735  0.50490724  1
  Zr  Zr53  1  0.80083766  0.81062473  0.25609729  1
  Zr  Zr54  1  0.30334266  0.88946080  0.87957481  1
  Zr  Zr55  1  0.69919750  0.90845767  0.62600949  1
  Zr  Zr56  1  0.69951015  0.10382757  0.12914384  1
  Zr  Zr57  1  0.00457085  0.79821958  0.74886249  1
  Zr  Zr58  1  0.89927023  0.69391560  0.62788603  1
  Zr  Zr59  1  0.59676691  0.59396260  0.74192529  1
  Zr  Zr60  1  0.89548871  0.30480497  0.11395072  1
  Zr  Zr61  1  0.58556046  0.79686867  0.00943307  1
  Zr  Zr62  1  0.50234394  0.29661583  0.60470443  1
  Zr  Zr63  1  0.29638373  0.10699894  0.61134124  1
  Zr  Zr64  1  0.50625928  0.49072872  0.39218823  1
  Zr  Zr65  1  0.70023550  0.70179580  0.12947878  1
  Zr  Zr66  1  0.29305632  0.89964724  0.63875664  1
  Zr  Zr67  1  0.20796688  0.20233540  0.76152733  1
  Zr  Zr68  1  0.29750212  0.29931213  0.11214586  1
  Zr  Zr69  1  0.69293154  0.30635622  0.38935581  1
  Zr  Zr70  1  0.69894208  0.30529599  0.88370122  1
  Zr  Zr71  1  0.80626566  0.59679777  -0.00942624  1
  Zr  Zr72  1  0.08513147  0.90039137  0.36370826  1
  Zr  Zr73  1  0.88968310  0.89798884  0.62434124  1
  Zr  Zr74  1  0.19288978  -0.01201347  0.50017921  1
  Zr  Zr75  1  0.39944472  0.20019902  0.26259832  1
  Zr  Zr76  1  0.39331750  0.59217528  0.25263983  1
  Zr  Zr77  1  0.59484727  0.41265933  0.00463043  1
  Zr  Zr78  1  0.21450555  0.61527685  -0.01305660  1
  Zr  Zr79  1  0.69568286  0.69875516  0.86459383  1
  Ta  Ta80  1  0.81099286  0.80132850  -0.01099100  1
  Ta  Ta81  1  0.10862351  0.70815815  0.11788096  1
  Ta  Ta82  1  0.59316758  0.20007931  0.25895841  1
  Ta  Ta83  1  0.30308583  0.70135667  0.39391748  1
  Ta  Ta84  1  0.90720561  0.29586326  0.62877184  1
  Ta  Ta85  1  0.49523468  0.30625713  0.88062905  1
  Ta  Ta86  1  0.79522654  0.00717794  0.76393907  1
  Ta  Ta87  1  0.80524231  0.60579797  0.49415023  1
  Ta  Ta88  1  0.59631839  0.01240579  0.75432634  1
  Ta  Ta89  1  0.90267377  0.90450086  0.87471850  1
  Ta  Ta90  1  0.08209521  0.10705626  0.87123243  1
  Ta  Ta91  1  0.00462646  0.80231452  -0.00727062  1
  Ta  Ta92  1  0.39709804  0.80806317  0.50633479  1
  Ta  Ta93  1  0.29962570  0.49416885  0.11435769  1
  Ta  Ta94  1  0.01457698  0.79844324  0.51468599  1
  Ta  Ta95  1  0.59588393  0.39296368  0.24332867  1
  Ta  Ta96  1  0.20282490  0.78327663  0.76294037  1
  Ta  Ta97  1  0.79942435  0.80247345  0.76298009  1
  Ta  Ta98  1  0.80626452  -0.00407424  0.25529959  1
  Ta  Ta99  1  0.39070096  0.39822832  0.74434775  1
  Ta  Ta100  1  0.29456052  0.32268241  0.88896279  1
  Ta  Ta101  1  0.59662977  0.59568367  0.25030516  1
  Ta  Ta102  1  0.80258027  0.00479743  -0.01343505  1
  Ta  Ta103  1  -0.00415124  0.00328993  0.00346470  1
  Ta  Ta104  1  0.29922333  0.29973747  0.60471252  1
  Ta  Ta105  1  0.90770678  0.49987556  0.37034440  1
  Ta  Ta106  1  0.71083436  0.70560847  0.62996843  1
  Ta  Ta107  1  0.59666449  0.19671071  -0.00766691  1
  Ta  Ta108  1  0.70030810  0.29836379  0.11888025  1
  Ta  Ta109  1  0.80190176  0.18894244  -0.01011875  1
  Ta  Ta110  1  0.49298675  0.70222984  0.62354208  1
  Ta  Ta111  1  0.89912673  0.09433199  0.12707546  1
  Ta  Ta112  1  0.49338099  0.09853069  0.12879294  1
  Ta  Ta113  1  0.90610595  0.50143053  0.85506322  1
  Ta  Ta114  1  0.20279323  -0.00165414  0.24476026  1
  Ta  Ta115  1  0.69335948  0.10578098  0.61948469  1
  Ta  Ta116  1  0.89856188  0.89640387  0.39015204  1
  Ta  Ta117  1  0.20113942  0.20317978  0.25284364  1
  Ta  Ta118  1  0.48815871  0.49889473  0.61253772  1
  Ta  Ta119  1  0.69649573  0.09776691  0.37645071  1
  Ti  Ti120  1  0.29927697  0.09871229  0.13053068  1
  Ti  Ti121  1  0.50257491  0.29449440  0.39362003  1
  Ti  Ti122  1  0.49291572  0.90139785  0.12792254  1
  Ti  Ti123  1  0.40337918  -0.00982050  0.49581570  1
  Ti  Ti124  1  0.59819876  0.00173193  0.48932675  1
  Ti  Ti125  1  0.09990518  0.09869913  0.12890228  1
  Ti  Ti126  1  0.10923269  0.50445383  0.63769326  1
  Ti  Ti127  1  0.59154779  0.80851006  0.73274789  1
  Ti  Ti128  1  0.00707313  0.40728525  0.51251840  1
  Ti  Ti129  1  0.08451060  0.50342676  0.36965083  1
  Ti  Ti130  1  0.90706297  0.51052088  0.63953549  1
  Ti  Ti131  1  0.90418432  0.69553091  0.86099235  1
  Ti  Ti132  1  0.11437103  0.29730152  0.62478922  1
  Ti  Ti133  1  0.19304438  0.40053863  0.49175983  1
  Ti  Ti134  1  0.59945758  0.19592181  0.76164846  1
  Ti  Ti135  1  0.39887385  0.00431249  -0.00347708  1
  Ti  Ti136  1  0.49780337  0.69905221  0.14176338  1
  Ti  Ti137  1  -0.00415893  0.00507584  0.74845612  1
  Ti  Ti138  1  0.70517556  0.50853501  0.62531718  1
  Ti  Ti139  1  0.89438575  0.09857818  0.63247325  1
  Ti  Ti140  1  0.70434015  0.50307547  0.86517415  1
  Ti  Ti141  1  0.10797404  0.09482298  0.64532126  1
  Ti  Ti142  1  0.69696810  0.71440892  0.37339842  1
  Ti  Ti143  1  0.19314569  0.80066817  0.49629002  1
  Ti  Ti144  1  0.29257563  0.49509864  0.61377099  1
  Ti  Ti145  1  0.19690195  0.19374209  -0.00342696  1
  Ti  Ti146  1  0.79129414  -0.00319253  0.49025380  1
  Ti  Ti147  1  0.39390684  -0.00143811  0.25418865  1
  Ti  Ti148  1  0.38779854  0.40075923  0.48951037  1
  Ti  Ti149  1  0.09592300  0.90171583  0.12102077  1
  Ti  Ti150  1  0.38346365  0.77789694  0.01333469  1
  Ti  Ti151  1  0.00288799  0.59503478  0.50583148  1
  Ti  Ti152  1  0.10340641  0.69106835  0.63334537  1
  Ti  Ti153  1  0.00118437  0.41353145  -0.00609348  1
  Ti  Ti154  1  -0.00164836  0.80661570  0.23703297  1
  Ti  Ti155  1  0.80698935  0.40470674  -0.01272303  1
  Ti  Ti156  1  0.00689058  0.40087642  0.24901709  1
  Ti  Ti157  1  0.49282871  0.49165329  0.86457710  1
  Ti  Ti158  1  0.10420270  0.50777272  0.12317422  1
  Ti  Ti159  1  0.10180818  0.29871602  0.38038023  1
  Mo  Mo160  1  -0.00410255  -0.00767305  0.22805475  1
  Mo  Mo161  1  0.30529187  0.69845232  0.86503135  1
  Mo  Mo162  1  0.69678911  0.10180158  0.87004196  1
  Mo  Mo163  1  0.20140388  0.59756803  0.74909363  1
  Mo  Mo164  1  0.70011840  0.29344544  0.62006853  1
  Mo  Mo165  1  0.90226588  0.90256233  0.10529567  1
  Mo  Mo166  1  0.80324931  0.79526412  0.48825764  1
  Mo  Mo167  1  0.10390376  0.89466849  0.64716277  1
  Mo  Mo168  1  0.49888866  0.10098171  0.87914998  1
  Mo  Mo169  1  0.01440593  0.60276849  0.24764301  1
  Mo  Mo170  1  0.09696297  0.70155406  0.38326260  1
  Mo  Mo171  1  0.19242547  0.20443771  0.49345956  1
  Mo  Mo172  1  0.19353944  0.00184356  0.76348699  1
  Mo  Mo173  1  0.30793039  0.49294303  0.88209228  1
  Mo  Mo174  1  0.00283744  0.19305486  0.73021646  1
  Mo  Mo175  1  0.28947710  0.29914960  0.39085098  1
  Mo  Mo176  1  0.49883420  0.49693349  0.14370543  1
  Mo  Mo177  1  0.10144332  0.70196853  0.87782249  1
  Mo  Mo178  1  0.50223323  0.09766536  0.37671983  1
  Mo  Mo179  1  0.59639636  0.79563031  0.24046907  1
  Mo  Mo180  1  0.80157411  0.59961690  0.75020458  1
  Mo  Mo181  1  0.60757809  0.39979212  0.52191187  1
  Mo  Mo182  1  0.49582742  0.90514677  0.63180326  1
  Mo  Mo183  1  0.19526321  0.80126938  -0.00515279  1
  Mo  Mo184  1  0.40136274  0.80045906  0.73019841  1
  Mo  Mo185  1  0.19431172  0.41247091  0.01321514  1
  Mo  Mo186  1  0.29926915  0.89652357  0.37918340  1
  Mo  Mo187  1  0.39614669  0.60002661  0.50564090  1
  Mo  Mo188  1  0.90357651  0.09677011  0.87117916  1
  Mo  Mo189  1  0.60091476  0.19215179  0.48338328  1
  Mo  Mo190  1  0.29644089  0.69794167  0.13079140  1
  Mo  Mo191  1  0.00151176  0.18654252  0.01503187  1
  Mo  Mo192  1  0.00684429  0.59854546  0.75424131  1
  Mo  Mo193  1  0.70514177  0.90396043  0.37798778  1
  Mo  Mo194  1  0.21586365  0.39890137  0.72999491  1
  Mo  Mo195  1  0.28923539  0.09899128  0.87851292  1
  Mo  Mo196  1  0.29494522  0.49808040  0.39050407  1
  Mo  Mo197  1  0.40045265  0.40465357  -0.00501467  1
  Mo  Mo198  1  0.80242229  0.39684802  0.25472256  1
  Mo  Mo199  1  0.39734485  0.20364242  0.48310460  1
