# generated using pymatgen
data_HfZrTaTiMo
_symmetry_space_group_name_H-M   'P 1'
_cell_length_a   15.92602093
_cell_length_b   15.93830062
_cell_length_c   15.19829007
_cell_angle_alpha   89.99887084
_cell_angle_beta   89.90873080
_cell_angle_gamma   90.12772991
_symmetry_Int_Tables_number   1
_chemical_formula_structural   HfZrTaTiMo
_chemical_formula_sum   'Hf40 Zr40 Ta40 Ti40 Mo40'
_cell_volume   3857.82386252
_cell_formula_units_Z   40
loop_
 _symmetry_equiv_pos_site_id
 _symmetry_equiv_pos_as_xyz
  1  'x, y, z'
loop_
 _atom_site_type_symbol
 _atom_site_label
 _atom_site_symmetry_multiplicity
 _atom_site_fract_x
 _atom_site_fract_y
 _atom_site_fract_z
 _atom_site_occupancy
  Hf  Hf0  1  0.10198760  0.90591967  0.63393687  1
  Hf  Hf1  1  0.60829849  0.19624813  0.48632904  1
  Hf  Hf2  1  0.80743954  -0.00052681  0.24697887  1
  Hf  Hf3  1  0.30255935  0.71237002  0.88407965  1
  Hf  Hf4  1  0.00164549  0.79385619  0.76473432  1
  Hf  Hf5  1  0.90115518  0.89792727  0.63836717  1
  Hf  Hf6  1  0.78460257  0.39107558  0.01095194  1
  Hf  Hf7  1  0.29739625  0.49837208  0.11070052  1
  Hf  Hf8  1  0.00082982  0.80324451  0.49208237  1
  Hf  Hf9  1  0.11195745  0.90066940  0.89000525  1
  Hf  Hf10  1  0.50892725  0.68294030  0.85160183  1
  Hf  Hf11  1  0.49617832  0.09590265  0.37127414  1
  Hf  Hf12  1  0.39598973  0.39477333  0.74786111  1
  Hf  Hf13  1  0.90353148  0.10719057  0.89255566  1
  Hf  Hf14  1  0.09850198  0.51025467  0.62650079  1
  Hf  Hf15  1  0.49895183  0.09332653  0.13071411  1
  Hf  Hf16  1  0.58518906  0.40369790  0.01112887  1
  Hf  Hf17  1  0.09586004  0.70168486  0.62127310  1
  Hf  Hf18  1  0.50061983  0.30750085  0.87298106  1
  Hf  Hf19  1  0.20043455  -0.00081618  0.47460287  1
  Hf  Hf20  1  -0.00430413  0.38788208  0.51295664  1
  Hf  Hf21  1  0.89059481  0.70206636  0.11715991  1
  Hf  Hf22  1  0.30986519  0.10492275  0.62140588  1
  Hf  Hf23  1  0.40304335  0.80539541  0.73931431  1
  Hf  Hf24  1  0.79188709  0.40113574  0.51426843  1
  Hf  Hf25  1  0.00565945  0.00519238  0.49196070  1
  Hf  Hf26  1  0.28914293  0.90931897  0.63229331  1
  Hf  Hf27  1  0.60443290  0.39274959  0.72761823  1
  Hf  Hf28  1  0.41699496  0.59645265  -0.00614082  1
  Hf  Hf29  1  0.08574456  0.50260455  0.38124068  1
  Hf  Hf30  1  0.19352523  0.40908526  0.24677625  1
  Hf  Hf31  1  0.59382089  0.58837865  0.26443922  1
  Hf  Hf32  1  0.60196050  0.20236960  0.24585618  1
  Hf  Hf33  1  0.69772667  0.10588343  0.62899565  1
  Hf  Hf34  1  0.80624723  0.20487906  0.49034893  1
  Hf  Hf35  1  0.70412688  0.69553330  0.38540326  1
  Hf  Hf36  1  0.60018616  0.78234208  0.00185462  1
  Hf  Hf37  1  0.71192692  0.10187379  0.11314817  1
  Hf  Hf38  1  -0.00361099  0.59392134  0.23852270  1
  Hf  Hf39  1  0.29767063  0.51259986  0.62852956  1
  Zr  Zr40  1  0.89960013  0.09342718  0.63660838  1
  Zr  Zr41  1  0.18384158  0.39156663  0.00130761  1
  Zr  Zr42  1  0.00198399  0.19736675  0.50735591  1
  Zr  Zr43  1  0.61416763  0.21094969  0.00541731  1
  Zr  Zr44  1  0.19540958  0.39650398  0.49960212  1
  Zr  Zr45  1  0.19499119  0.19387042  0.48826627  1
  Zr  Zr46  1  0.39770678  0.60404921  0.24207341  1
  Zr  Zr47  1  0.20605381  0.62305194  0.48707145  1
  Zr  Zr48  1  0.59486139  -0.00136732  0.74953289  1
  Zr  Zr49  1  0.60278325  0.39810901  0.51217129  1
  Zr  Zr50  1  0.29503436  0.29573599  0.12537598  1
  Zr  Zr51  1  0.29967673  0.91200708  0.88215914  1
  Zr  Zr52  1  0.00457547  0.19782856  0.75758176  1
  Zr  Zr53  1  0.49879717  0.89006403  0.12530393  1
  Zr  Zr54  1  0.69894897  0.69708648  0.13668832  1
  Zr  Zr55  1  0.90238572  0.51431887  0.62343563  1
  Zr  Zr56  1  0.19840752  0.39904093  0.75859279  1
  Zr  Zr57  1  0.80281050  0.20291623  0.24461982  1
  Zr  Zr58  1  0.88354430  0.70597951  0.88980574  1
  Zr  Zr59  1  0.88258836  0.50139065  0.87683037  1
  Zr  Zr60  1  0.70026273  0.88990598  0.37306483  1
  Zr  Zr61  1  0.70543747  0.31696033  0.36128948  1
  Zr  Zr62  1  0.70992343  0.90401341  0.62503881  1
  Zr  Zr63  1  0.30507000  0.71164993  0.10844344  1
  Zr  Zr64  1  0.48831146  0.68782420  0.39619360  1
  Zr  Zr65  1  0.20200429  0.80372978  0.25395066  1
  Zr  Zr66  1  0.50294991  0.09493177  0.88715988  1
  Zr  Zr67  1  0.49758744  0.88840700  0.88075962  1
  Zr  Zr68  1  0.80581360  -0.00591743  -0.00094264  1
  Zr  Zr69  1  0.37834353  0.79863995  0.50098800  1
  Zr  Zr70  1  0.68573173  0.50335922  0.86506909  1
  Zr  Zr71  1  0.08823273  0.49334657  0.87996824  1
  Zr  Zr72  1  0.70835592  0.88292569  0.86768837  1
  Zr  Zr73  1  0.80285041  0.00662917  0.47969956  1
  Zr  Zr74  1  0.60496994  0.58375892  0.50825985  1
  Zr  Zr75  1  0.40902179  0.40360232  0.50672531  1
  Zr  Zr76  1  0.49431350  0.26409029  0.62074269  1
  Zr  Zr77  1  0.30882164  0.50771253  0.37962242  1
  Zr  Zr78  1  0.39846274  0.19929475  0.00849648  1
  Zr  Zr79  1  0.50127342  0.89660777  0.38002783  1
  Ta  Ta80  1  0.19228111  0.60255017  -0.00400586  1
  Ta  Ta81  1  0.60400467  0.79018402  0.72443358  1
  Ta  Ta82  1  0.40375243  0.39990282  0.24999501  1
  Ta  Ta83  1  0.29987408  0.29766378  0.37204547  1
  Ta  Ta84  1  -0.00574230  0.39829281  0.74667217  1
  Ta  Ta85  1  0.09188080  0.29871649  0.35571528  1
  Ta  Ta86  1  0.69922706  0.50100641  0.13444953  1
  Ta  Ta87  1  0.00673698  -0.00131941  0.77268256  1
  Ta  Ta88  1  0.39807888  0.79994396  0.25756052  1
  Ta  Ta89  1  0.09920091  0.70368836  0.11861404  1
  Ta  Ta90  1  0.00137964  0.60662860  0.76741681  1
  Ta  Ta91  1  0.70263922  0.89172986  0.12979322  1
  Ta  Ta92  1  0.39589867  0.19874585  0.25005163  1
  Ta  Ta93  1  0.60809525  -0.00677130  0.00250941  1
  Ta  Ta94  1  0.30529110  0.90675726  0.12289832  1
  Ta  Ta95  1  0.70284499  0.69090659  0.85581687  1
  Ta  Ta96  1  -0.00039186  0.60032109  0.00332961  1
  Ta  Ta97  1  0.20859461  0.19746349  0.76534030  1
  Ta  Ta98  1  0.19520577  0.60932423  0.77256539  1
  Ta  Ta99  1  0.20690925  0.00794899  0.24286563  1
  Ta  Ta100  1  0.90135352  0.30713383  0.87973271  1
  Ta  Ta101  1  0.91292317  0.10644108  0.35648247  1
  Ta  Ta102  1  0.49525493  0.30097535  0.37107909  1
  Ta  Ta103  1  0.00124421  0.80401096  0.00337750  1
  Ta  Ta104  1  0.29724330  0.29073822  0.62087998  1
  Ta  Ta105  1  0.29883594  0.29834202  0.88864114  1
  Ta  Ta106  1  0.10562172  0.29416864  0.64118889  1
  Ta  Ta107  1  0.60941566  -0.00085448  0.24904806  1
  Ta  Ta108  1  0.59973163  0.79506121  0.52059969  1
  Ta  Ta109  1  0.09081315  0.70245708  0.36270599  1
  Ta  Ta110  1  0.91086069  0.30762077  0.36034326  1
  Ta  Ta111  1  0.11334779  0.09827792  0.88763106  1
  Ta  Ta112  1  0.09494634  0.10801202  0.34299375  1
  Ta  Ta113  1  0.80227024  0.59248190  0.26006943  1
  Ta  Ta114  1  0.89377304  0.49695415  0.38396835  1
  Ta  Ta115  1  0.10516702  0.90119367  0.12183802  1
  Ta  Ta116  1  0.00826861  0.00160278  0.00676118  1
  Ta  Ta117  1  0.79374877  0.19941874  0.76877675  1
  Ta  Ta118  1  0.39740262  0.19362346  0.76389890  1
  Ta  Ta119  1  0.19407453  0.60351453  0.24173415  1
  Ti  Ti120  1  0.90024335  0.89470075  0.12076354  1
  Ti  Ti121  1  0.11268954  0.09366833  0.64124402  1
  Ti  Ti122  1  0.19551285  0.79816836  0.75781834  1
  Ti  Ti123  1  0.20803746  0.01978753  0.02089781  1
  Ti  Ti124  1  0.89073841  0.50609316  0.10995344  1
  Ti  Ti125  1  0.29540403  0.69766424  0.63963299  1
  Ti  Ti126  1  0.30869504  0.49879264  0.88140298  1
  Ti  Ti127  1  0.39131117  0.00406216  0.48760435  1
  Ti  Ti128  1  0.80404066  0.79523977  0.50502268  1
  Ti  Ti129  1  0.60224165  0.59485031  0.00779805  1
  Ti  Ti130  1  0.90039895  0.89719533  0.87829724  1
  Ti  Ti131  1  0.89438011  0.69482225  0.62417371  1
  Ti  Ti132  1  0.00345834  0.00487329  0.22584574  1
  Ti  Ti133  1  0.90747643  0.89922934  0.36468497  1
  Ti  Ti134  1  0.70379117  0.30455207  0.86574528  1
  Ti  Ti135  1  0.89783404  0.29347167  0.11558969  1
  Ti  Ti136  1  0.60318664  0.00185397  0.49563189  1
  Ti  Ti137  1  0.91243483  0.11070830  0.11384807  1
  Ti  Ti138  1  0.71635933  0.51525738  0.64470203  1
  Ti  Ti139  1  0.49535664  0.91108887  0.61233332  1
  Ti  Ti140  1  0.88905511  0.29685013  0.64489838  1
  Ti  Ti141  1  0.01851734  0.20943713  -0.00032680  1
  Ti  Ti142  1  -0.00663088  0.40389732  0.23014247  1
  Ti  Ti143  1  0.39771549  0.00309759  0.00649894  1
  Ti  Ti144  1  0.49175796  0.51518115  0.64831303  1
  Ti  Ti145  1  0.80057472  0.00611446  0.76933372  1
  Ti  Ti146  1  0.80668957  0.40566477  0.23812615  1
  Ti  Ti147  1  0.80671387  0.79705135  0.25526272  1
  Ti  Ti148  1  -0.00294205  0.39778394  0.01247191  1
  Ti  Ti149  1  0.90290389  0.69407939  0.37906286  1
  Ti  Ti150  1  0.09174421  0.90794544  0.35226120  1
  Ti  Ti151  1  0.49504423  0.49723277  0.13039674  1
  Ti  Ti152  1  0.19627922  0.81128790  0.47792158  1
  Ti  Ti153  1  -0.00324048  0.79999736  0.24140362  1
  Ti  Ti154  1  0.40258120  0.00869846  0.74782079  1
  Ti  Ti155  1  0.59040295  0.78991583  0.25159308  1
  Ti  Ti156  1  0.48948394  0.68987182  0.62411006  1
  Ti  Ti157  1  0.09868302  0.28716176  0.13930748  1
  Ti  Ti158  1  0.59532285  0.39881398  0.24177881  1
  Ti  Ti159  1  0.60049490  0.19201063  0.75871821  1
  Mo  Mo160  1  0.80803344  0.20834758  -0.00864194  1
  Mo  Mo161  1  0.39824235  0.60057598  0.51567509  1
  Mo  Mo162  1  0.30190111  0.90633579  0.35909400  1
  Mo  Mo163  1  0.30028969  0.10169332  0.35958952  1
  Mo  Mo164  1  0.80104585  0.39487765  0.74450110  1
  Mo  Mo165  1  0.50128858  0.48691715  0.37114610  1
  Mo  Mo166  1  0.20032231  0.20323724  0.25686810  1
  Mo  Mo167  1  0.30220833  0.09836142  0.87393390  1
  Mo  Mo168  1  0.80266107  0.79559443  0.73665630  1
  Mo  Mo169  1  0.10332304  0.10353253  0.12136842  1
  Mo  Mo170  1  0.20020797  0.80792309  0.01326865  1
  Mo  Mo171  1  0.09908049  0.70146896  0.89358486  1
  Mo  Mo172  1  0.49571628  0.08842814  0.60970693  1
  Mo  Mo173  1  0.80361686  0.60012982  0.48580824  1
  Mo  Mo174  1  0.70157497  0.10024134  0.88146655  1
  Mo  Mo175  1  0.30159781  0.09837650  0.13888695  1
  Mo  Mo176  1  0.29260663  0.70384105  0.36345502  1
  Mo  Mo177  1  0.49665260  0.30411169  0.14062542  1
  Mo  Mo178  1  0.49550497  0.49778409  0.85760541  1
  Mo  Mo179  1  0.70079644  0.30836494  0.13591468  1
  Mo  Mo180  1  0.60350816  0.60206449  0.72789893  1
  Mo  Mo181  1  -0.00286631  0.60884992  0.48803029  1
  Mo  Mo182  1  0.40663987  0.79978902  -0.00125250  1
  Mo  Mo183  1  -0.00346925  0.20402464  0.23190340  1
  Mo  Mo184  1  0.09387409  0.29531952  0.86751809  1
  Mo  Mo185  1  0.20018300  0.00864810  0.75498251  1
  Mo  Mo186  1  0.79677722  0.80080991  0.00861595  1
  Mo  Mo187  1  0.70563957  0.49489718  0.35924772  1
  Mo  Mo188  1  0.71190276  0.69817404  0.62182849  1
  Mo  Mo189  1  0.50132370  0.69504574  0.12833176  1
  Mo  Mo190  1  0.09313075  0.50356163  0.11719251  1
  Mo  Mo191  1  0.19808653  0.19810031  -0.00813285  1
  Mo  Mo192  1  0.39127805  0.60029627  0.75664525  1
  Mo  Mo193  1  0.39905151  -0.00435600  0.25108605  1
  Mo  Mo194  1  0.70343076  0.09487689  0.36932613  1
  Mo  Mo195  1  0.40049546  0.40400200  -0.00355113  1
  Mo  Mo196  1  0.78501982  0.59626017  0.00873194  1
  Mo  Mo197  1  0.80609913  0.60478687  0.75171603  1
  Mo  Mo198  1  0.39575328  0.19676791  0.47735022  1
  Mo  Mo199  1  0.70606817  0.28934155  0.64077602  1
