# generated using pymatgen
data_HfZrTaTiMo
_symmetry_space_group_name_H-M   'P 1'
_cell_length_a   15.93304808
_cell_length_b   15.94042000
_cell_length_c   15.22422275
_cell_angle_alpha   90.00737660
_cell_angle_beta   89.96665638
_cell_angle_gamma   90.10918085
_symmetry_Int_Tables_number   1
_chemical_formula_structural   HfZrTaTiMo
_chemical_formula_sum   'Hf40 Zr40 Ta40 Ti40 Mo40'
_cell_volume   3866.63244353
_cell_formula_units_Z   40
loop_
 _symmetry_equiv_pos_site_id
 _symmetry_equiv_pos_as_xyz
  1  'x, y, z'
loop_
 _atom_site_type_symbol
 _atom_site_label
 _atom_site_symmetry_multiplicity
 _atom_site_fract_x
 _atom_site_fract_y
 _atom_site_fract_z
 _atom_site_occupancy
  Hf  Hf0  1  0.79964136  -0.00125196  0.24062713  1
  Hf  Hf1  1  0.69657568  0.30343120  0.87118036  1
  Hf  Hf2  1  0.41383038  0.39771861  0.74178576  1
  Hf  Hf3  1  0.19868742  0.80346760  0.00641076  1
  Hf  Hf4  1  0.01134092  0.40823321  0.75676497  1
  Hf  Hf5  1  0.89006532  0.09898753  0.38815908  1
  Hf  Hf6  1  0.07667180  0.70070323  0.36570224  1
  Hf  Hf7  1  0.21393509  0.40938440  0.75136607  1
  Hf  Hf8  1  0.39963637  0.19372902  0.50476359  1
  Hf  Hf9  1  0.59718174  -0.00059555  -0.01114749  1
  Hf  Hf10  1  0.00420099  0.40428130  0.49411334  1
  Hf  Hf11  1  0.89437334  0.87614957  0.38590417  1
  Hf  Hf12  1  0.40645000  0.79124360  -0.02079652  1
  Hf  Hf13  1  0.00589945  0.59833149  0.50698059  1
  Hf  Hf14  1  0.40168181  0.58964998  0.76119133  1
  Hf  Hf15  1  0.69326755  0.10168373  0.11756182  1
  Hf  Hf16  1  0.70080576  0.49957119  0.12224253  1
  Hf  Hf17  1  0.39356076  -0.00093665  -0.01133659  1
  Hf  Hf18  1  0.80646490  0.61433198  0.24828588  1
  Hf  Hf19  1  -0.00873317  -0.00512801  0.25349005  1
  Hf  Hf20  1  -0.00350032  0.00248890  0.74463625  1
  Hf  Hf21  1  0.69579311  0.10204614  0.62117781  1
  Hf  Hf22  1  0.89677118  0.50195611  0.63962859  1
  Hf  Hf23  1  -0.01174043  0.80592477  0.01382008  1
  Hf  Hf24  1  0.80849835  0.60334658  0.49496938  1
  Hf  Hf25  1  0.68689254  0.11292546  0.38022992  1
  Hf  Hf26  1  0.41116159  0.58833735  0.23927018  1
  Hf  Hf27  1  0.10086121  0.10311257  0.38887953  1
  Hf  Hf28  1  0.49231947  0.90454808  0.63482203  1
  Hf  Hf29  1  0.08942068  0.49258367  0.14184869  1
  Hf  Hf30  1  -0.00857510  0.00584808  0.51581359  1
  Hf  Hf31  1  0.90178129  0.70544752  0.87901511  1
  Hf  Hf32  1  0.09189285  0.89874961  0.38161801  1
  Hf  Hf33  1  0.49391840  0.88627916  0.37214864  1
  Hf  Hf34  1  0.59506325  0.00441944  0.24903005  1
  Hf  Hf35  1  0.20312100  0.19402389  0.51206497  1
  Hf  Hf36  1  0.18557022  0.79842382  0.24010409  1
  Hf  Hf37  1  0.10849148  0.90961782  0.62308892  1
  Hf  Hf38  1  0.59435090  0.20942315  0.73832467  1
  Hf  Hf39  1  0.90243992  0.29821700  0.86310124  1
  Zr  Zr40  1  0.50606248  0.68605824  0.38239704  1
  Zr  Zr41  1  0.10937027  0.28360158  0.86646223  1
  Zr  Zr42  1  0.40499390  0.39653599  0.51295773  1
  Zr  Zr43  1  0.70924744  0.71046629  0.38001905  1
  Zr  Zr44  1  0.59741519  0.80047771  -0.01091215  1
  Zr  Zr45  1  0.30864692  0.29019877  0.88050097  1
  Zr  Zr46  1  0.58637738  0.00585947  0.49689760  1
  Zr  Zr47  1  0.80224665  0.39456053  0.25526701  1
  Zr  Zr48  1  0.38832244  0.78626181  0.51222949  1
  Zr  Zr49  1  0.79903875  0.20091579  0.24336286  1
  Zr  Zr50  1  0.48901577  0.10914668  0.86838763  1
  Zr  Zr51  1  0.18728170  0.78170144  0.74298406  1
  Zr  Zr52  1  0.60935904  0.80098004  0.52312862  1
  Zr  Zr53  1  0.21151542  0.39137081  0.24594027  1
  Zr  Zr54  1  0.20240756  0.39133435  0.01584735  1
  Zr  Zr55  1  0.30048125  0.90955212  0.13317335  1
  Zr  Zr56  1  0.00554140  0.39883855  -0.00622039  1
  Zr  Zr57  1  0.40108528  0.01932256  0.26238260  1
  Zr  Zr58  1  0.89353716  0.31036410  0.63397984  1
  Zr  Zr59  1  0.40621253  0.39153648  0.24259537  1
  Zr  Zr60  1  0.01778150  0.61629139  0.74466452  1
  Zr  Zr61  1  0.49160662  0.89005881  0.13101204  1
  Zr  Zr62  1  0.70215596  0.89882280  0.37266122  1
  Zr  Zr63  1  0.29676692  0.90717808  0.63434426  1
  Zr  Zr64  1  0.00322039  0.19664907  0.24520027  1
  Zr  Zr65  1  0.80293468  0.20395237  0.00748829  1
  Zr  Zr66  1  0.90377587  0.10345999  0.87899865  1
  Zr  Zr67  1  0.20130363  0.40507989  0.49504897  1
  Zr  Zr68  1  0.80524347  0.40179287  0.00163746  1
  Zr  Zr69  1  0.20156701  0.59516869  0.25220694  1
  Zr  Zr70  1  0.20660273  0.60728171  0.49300208  1
  Zr  Zr71  1  0.31631583  0.70721148  0.13122191  1
  Zr  Zr72  1  0.79547911  0.21406754  0.50566670  1
  Zr  Zr73  1  0.79569905  0.80435963  0.74724075  1
  Zr  Zr74  1  0.28606293  0.68515628  0.87942930  1
  Zr  Zr75  1  0.29140611  0.89833738  0.37090626  1
  Zr  Zr76  1  0.60362458  0.59449076  0.75365042  1
  Zr  Zr77  1  0.59724726  0.60212282  -0.01204690  1
  Zr  Zr78  1  0.69313018  0.50169065  0.37315578  1
  Zr  Zr79  1  0.09128622  0.91606278  0.11952896  1
  Ta  Ta80  1  0.49455910  0.90040688  0.85483355  1
  Ta  Ta81  1  0.59740979  0.79547658  0.74830400  1
  Ta  Ta82  1  0.59233194  0.39589170  0.24494418  1
  Ta  Ta83  1  0.39321908  0.20220858  0.73404875  1
  Ta  Ta84  1  0.19377383  0.01821807  0.25457904  1
  Ta  Ta85  1  0.11517154  0.51757600  0.88175777  1
  Ta  Ta86  1  0.80433463  0.40726537  0.48536743  1
  Ta  Ta87  1  0.31543220  0.50271248  0.38051370  1
  Ta  Ta88  1  0.30310920  0.49508848  0.89349017  1
  Ta  Ta89  1  0.91998460  0.51164572  0.35689094  1
  Ta  Ta90  1  0.28569141  0.10499929  0.86647884  1
  Ta  Ta91  1  0.00416325  0.18855067  0.72653620  1
  Ta  Ta92  1  0.90574442  0.50955321  0.87215879  1
  Ta  Ta93  1  0.70318884  0.70199535  0.11205560  1
  Ta  Ta94  1  0.29241497  0.90411137  0.85802183  1
  Ta  Ta95  1  0.79942070  -0.00898931  -0.00293102  1
  Ta  Ta96  1  0.10205528  0.10710304  0.10844617  1
  Ta  Ta97  1  0.09599993  0.69878427  0.89687735  1
  Ta  Ta98  1  0.90331494  0.50294473  0.13510245  1
  Ta  Ta99  1  0.68626888  0.30209369  0.12170639  1
  Ta  Ta100  1  0.40703046  0.59560391  0.00299217  1
  Ta  Ta101  1  0.91205107  0.09084250  0.10495769  1
  Ta  Ta102  1  0.10233594  0.29818722  0.36950204  1
  Ta  Ta103  1  0.10397458  0.30270070  0.63012757  1
  Ta  Ta104  1  0.39651772  0.78843429  0.75036501  1
  Ta  Ta105  1  0.48846230  0.09394251  0.63271284  1
  Ta  Ta106  1  0.49391778  0.68538707  0.62832372  1
  Ta  Ta107  1  0.50957963  0.29392849  0.38613575  1
  Ta  Ta108  1  0.09484861  0.90008144  0.87432620  1
  Ta  Ta109  1  0.19428654  0.79333955  0.50302325  1
  Ta  Ta110  1  0.58363512  0.20370897  0.24427896  1
  Ta  Ta111  1  0.29534816  0.10965455  0.11922172  1
  Ta  Ta112  1  0.38559463  0.01051454  0.48927679  1
  Ta  Ta113  1  0.40340504  0.39779505  0.01163320  1
  Ta  Ta114  1  0.60134315  0.40289043  0.73542887  1
  Ta  Ta115  1  0.81158454  0.80220690  0.22440059  1
  Ta  Ta116  1  0.60398336  0.00107277  0.75283970  1
  Ta  Ta117  1  0.60485155  0.78984591  0.23716797  1
  Ta  Ta118  1  0.80595943  0.60184312  -0.00230586  1
  Ta  Ta119  1  0.50677682  0.49036017  0.38802367  1
  Ti  Ti120  1  0.70122212  0.90270193  0.86756239  1
  Ti  Ti121  1  0.89642229  0.70047751  0.63211756  1
  Ti  Ti122  1  0.79095956  -0.00975466  0.51190003  1
  Ti  Ti123  1  0.49803057  0.29115706  0.11220907  1
  Ti  Ti124  1  0.91855758  0.30625323  0.12811273  1
  Ti  Ti125  1  0.28650492  0.08650080  0.64320013  1
  Ti  Ti126  1  0.89791947  0.90283662  0.87719098  1
  Ti  Ti127  1  0.09825646  0.10340596  0.88423499  1
  Ti  Ti128  1  -0.00060817  0.80342412  0.74557898  1
  Ti  Ti129  1  0.71280702  0.49165892  0.62798733  1
  Ti  Ti130  1  0.79718133  0.59832293  0.76233129  1
  Ti  Ti131  1  0.69044818  0.30273549  0.37314175  1
  Ti  Ti132  1  0.61031058  0.38871928  0.51893511  1
  Ti  Ti133  1  0.30945045  0.70206008  0.36248738  1
  Ti  Ti134  1  0.79951892  0.19779529  0.74035850  1
  Ti  Ti135  1  0.60267427  0.58842115  0.51755999  1
  Ti  Ti136  1  0.88980145  0.89825744  0.62507522  1
  Ti  Ti137  1  0.70665510  0.69420477  0.62801405  1
  Ti  Ti138  1  0.50037361  0.30281944  0.88358331  1
  Ti  Ti139  1  -0.00132384  0.20441479  0.51457688  1
  Ti  Ti140  1  0.70242664  0.49278760  0.87933104  1
  Ti  Ti141  1  0.29573483  0.30001625  0.62997206  1
  Ti  Ti142  1  0.31111967  0.51700501  0.61756005  1
  Ti  Ti143  1  0.59582160  0.20133575  -0.00445652  1
  Ti  Ti144  1  0.19859180  0.00316118  -0.01066194  1
  Ti  Ti145  1  0.79842598  0.00452639  0.74563299  1
  Ti  Ti146  1  0.49030318  0.10565655  0.11253674  1
  Ti  Ti147  1  0.50585948  0.48434788  0.88667159  1
  Ti  Ti148  1  0.51050874  0.49376502  0.11286977  1
  Ti  Ti149  1  0.90706083  0.30027860  0.37547279  1
  Ti  Ti150  1  0.39519825  0.20384792  0.25185126  1
  Ti  Ti151  1  0.69996170  0.89688409  0.11663446  1
  Ti  Ti152  1  0.30023707  0.29374922  0.37692779  1
  Ti  Ti153  1  0.20166994  0.59714257  0.02782975  1
  Ti  Ti154  1  0.70476141  0.70522938  0.87909222  1
  Ti  Ti155  1  0.60055679  0.59888943  0.24120594  1
  Ti  Ti156  1  0.11389888  0.50641833  0.63219463  1
  Ti  Ti157  1  0.70338792  0.10299799  0.87281471  1
  Ti  Ti158  1  0.00129776  0.60093865  0.01306668  1
  Ti  Ti159  1  -0.00491821  0.79324103  0.51893404  1
  Mo  Mo160  1  0.10265039  0.49786665  0.36001466  1
  Mo  Mo161  1  0.50048883  0.69680657  0.85437025  1
  Mo  Mo162  1  0.00258063  0.39793217  0.26421844  1
  Mo  Mo163  1  0.20422603  0.19938961  0.24440857  1
  Mo  Mo164  1  0.70482508  0.31065482  0.63572737  1
  Mo  Mo165  1  0.39509122  0.00315108  0.76064172  1
  Mo  Mo166  1  0.20148646  0.19599124  0.00829889  1
  Mo  Mo167  1  0.79680281  0.41207735  0.76751148  1
  Mo  Mo168  1  0.40703618  0.79159903  0.25880781  1
  Mo  Mo169  1  0.20445087  -0.00067249  0.48712004  1
  Mo  Mo170  1  0.10218199  0.29119569  0.13998737  1
  Mo  Mo171  1  0.29433546  0.11090462  0.36575007  1
  Mo  Mo172  1  -0.01337352  0.79418115  0.23047174  1
  Mo  Mo173  1  0.30735526  0.49873935  0.11103826  1
  Mo  Mo174  1  0.00057169  0.00307383  -0.01912938  1
  Mo  Mo175  1  0.29941377  0.69358601  0.63260739  1
  Mo  Mo176  1  0.19735708  0.19759949  0.73208700  1
  Mo  Mo177  1  0.51046979  0.69211717  0.13218126  1
  Mo  Mo178  1  0.89271518  0.09905006  0.62231835  1
  Mo  Mo179  1  0.00608523  0.20549712  0.01160270  1
  Mo  Mo180  1  0.90165467  0.70538625  0.38051285  1
  Mo  Mo181  1  0.49523964  0.11120145  0.37720489  1
  Mo  Mo182  1  0.10296557  0.10121608  0.61663626  1
  Mo  Mo183  1  0.89186307  0.90605778  0.11343048  1
  Mo  Mo184  1  0.20440183  0.59352247  0.74594283  1
  Mo  Mo185  1  0.18863156  0.00426359  0.76807370  1
  Mo  Mo186  1  0.59524695  0.20805367  0.51288137  1
  Mo  Mo187  1  0.09486497  0.69677599  0.11922815  1
  Mo  Mo188  1  0.80376691  0.79909292  0.52608674  1
  Mo  Mo189  1  0.40028775  0.19897748  0.00410885  1
  Mo  Mo190  1  0.09869991  0.70443222  0.61118271  1
  Mo  Mo191  1  0.50873871  0.49935849  0.61432896  1
  Mo  Mo192  1  0.89518109  0.69758567  0.10682584  1
  Mo  Mo193  1  0.40397481  0.59560300  0.49645330  1
  Mo  Mo194  1  0.50316982  0.29573023  0.61729119  1
  Mo  Mo195  1  0.30804361  0.28898849  0.11730453  1
  Mo  Mo196  1  0.59737827  0.39477000  0.00542470  1
  Mo  Mo197  1  0.69755304  0.90630907  0.64018355  1
  Mo  Mo198  1  0.79242676  0.80501657  -0.00358872  1
  Mo  Mo199  1  -0.00241822  0.60928804  0.23396287  1
