# generated using pymatgen
data_HfZrTaTiMo
_symmetry_space_group_name_H-M   'P 1'
_cell_length_a   15.93506731
_cell_length_b   15.93214408
_cell_length_c   15.20750922
_cell_angle_alpha   89.97293261
_cell_angle_beta   89.96399904
_cell_angle_gamma   90.04249008
_symmetry_Int_Tables_number   1
_chemical_formula_structural   HfZrTaTiMo
_chemical_formula_sum   'Hf40 Zr40 Ta40 Ti40 Mo40'
_cell_volume   3860.87696667
_cell_formula_units_Z   40
loop_
 _symmetry_equiv_pos_site_id
 _symmetry_equiv_pos_as_xyz
  1  'x, y, z'
loop_
 _atom_site_type_symbol
 _atom_site_label
 _atom_site_symmetry_multiplicity
 _atom_site_fract_x
 _atom_site_fract_y
 _atom_site_fract_z
 _atom_site_occupancy
  Hf  Hf0  1  0.69191338  0.49364467  0.37885970  1
  Hf  Hf1  1  0.31327422  0.90592010  0.62121250  1
  Hf  Hf2  1  -0.00935351  0.80950388  0.73834454  1
  Hf  Hf3  1  0.80115561  0.40111168  0.76318161  1
  Hf  Hf4  1  0.00396304  -0.01029175  0.26704490  1
  Hf  Hf5  1  0.30570746  0.90149789  0.85263898  1
  Hf  Hf6  1  0.89269302  0.49357003  0.61289537  1
  Hf  Hf7  1  0.78377057  0.61515390  0.50181697  1
  Hf  Hf8  1  0.00489894  0.40982572  0.25269957  1
  Hf  Hf9  1  0.30841623  0.09908409  0.86717490  1
  Hf  Hf10  1  0.81339188  0.20941210  0.49570792  1
  Hf  Hf11  1  0.31836457  0.30935101  0.64183719  1
  Hf  Hf12  1  0.60191753  0.40373625  0.23570859  1
  Hf  Hf13  1  0.18906505  0.60428675  0.27012599  1
  Hf  Hf14  1  0.59778307  0.18689429  0.76454850  1
  Hf  Hf15  1  -0.00948909  0.61866572  0.00206677  1
  Hf  Hf16  1  0.49741662  0.48753086  0.62385705  1
  Hf  Hf17  1  0.80102877  0.19963191  0.75910463  1
  Hf  Hf18  1  0.50086111  0.29945184  0.88522372  1
  Hf  Hf19  1  0.80458535  0.00015718  0.01113359  1
  Hf  Hf20  1  0.19314234  0.20027556  0.75070050  1
  Hf  Hf21  1  0.20510436  0.62283573  -0.01172910  1
  Hf  Hf22  1  0.38828098  0.59259027  0.25857753  1
  Hf  Hf23  1  0.79961791  0.59629832  0.76109631  1
  Hf  Hf24  1  0.08354550  0.31457264  0.88155452  1
  Hf  Hf25  1  0.72541443  0.09225741  0.36019694  1
  Hf  Hf26  1  0.68793718  0.90145215  0.11810684  1
  Hf  Hf27  1  0.90666935  0.69780686  0.38437823  1
  Hf  Hf28  1  0.50619053  0.09474895  0.60863747  1
  Hf  Hf29  1  0.10461346  0.71695384  0.13209288  1
  Hf  Hf30  1  0.69273106  0.89963559  0.62397420  1
  Hf  Hf31  1  0.07898317  0.51091843  0.40136301  1
  Hf  Hf32  1  0.49454564  0.88318549  0.12244878  1
  Hf  Hf33  1  0.60755744  0.19351723  0.01001256  1
  Hf  Hf34  1  0.10330852  0.10082517  0.14202467  1
  Hf  Hf35  1  0.09639519  0.50546697  0.88219732  1
  Hf  Hf36  1  0.30307877  0.70813313  0.85146731  1
  Hf  Hf37  1  0.30706576  0.70863815  0.63045630  1
  Hf  Hf38  1  0.50116070  0.70053441  0.87049942  1
  Hf  Hf39  1  0.19216493  -0.01036912  -0.01764952  1
  Zr  Zr40  1  0.60743845  0.79066374  0.49039576  1
  Zr  Zr41  1  0.00571366  0.00837791  -0.00060621  1
  Zr  Zr42  1  0.01303845  0.81416646  -0.00715728  1
  Zr  Zr43  1  0.69203781  0.49593825  0.61929635  1
  Zr  Zr44  1  0.31342254  0.09961824  0.38659158  1
  Zr  Zr45  1  0.29462826  0.08606385  0.12595433  1
  Zr  Zr46  1  0.00194835  0.00100846  0.74897041  1
  Zr  Zr47  1  0.09781080  0.30251003  0.12319112  1
  Zr  Zr48  1  0.49729563  0.51166770  0.11644894  1
  Zr  Zr49  1  0.80403201  0.80232142  0.24951718  1
  Zr  Zr50  1  0.20141181  0.61229666  0.49919921  1
  Zr  Zr51  1  0.89833516  0.50101433  0.12181082  1
  Zr  Zr52  1  0.58691041  0.37025130  0.49651204  1
  Zr  Zr53  1  0.81348059  0.79190200  0.00328727  1
  Zr  Zr54  1  0.19716014  0.40481808  0.74859142  1
  Zr  Zr55  1  0.50203122  0.69396360  0.63865178  1
  Zr  Zr56  1  0.20892036  0.40417217  0.49804117  1
  Zr  Zr57  1  0.60908247  0.18907463  0.23444061  1
  Zr  Zr58  1  0.80057186  0.19562567  0.01084985  1
  Zr  Zr59  1  0.80441628  0.39104836  -0.00418604  1
  Zr  Zr60  1  0.69405499  0.09721498  0.61230734  1
  Zr  Zr61  1  0.18688172  0.19013427  -0.01465425  1
  Zr  Zr62  1  0.29459287  0.50580664  0.11182662  1
  Zr  Zr63  1  0.50399559  0.07541754  0.11632814  1
  Zr  Zr64  1  0.90259353  0.10290013  0.62165462  1
  Zr  Zr65  1  0.30452408  0.71558443  0.13790676  1
  Zr  Zr66  1  0.42418955  0.22302781  0.49927608  1
  Zr  Zr67  1  0.39746720  0.19275319  0.23931502  1
  Zr  Zr68  1  0.10260243  0.10353127  0.38548826  1
  Zr  Zr69  1  0.21107754  0.21295208  0.49872795  1
  Zr  Zr70  1  0.69601243  0.29711802  0.62752737  1
  Zr  Zr71  1  0.10498010  0.49992618  0.11000950  1
  Zr  Zr72  1  0.79292775  -0.00729496  0.75429491  1
  Zr  Zr73  1  0.88899850  0.49350584  0.38513599  1
  Zr  Zr74  1  0.48205596  0.48453047  0.37554411  1
  Zr  Zr75  1  0.68861074  0.69623915  0.11600191  1
  Zr  Zr76  1  0.19802294  0.60014271  0.74198051  1
  Zr  Zr77  1  0.31223119  0.09921339  0.62338141  1
  Zr  Zr78  1  0.29169822  0.30644237  0.11722053  1
  Zr  Zr79  1  0.79234539  0.60087825  0.24922197  1
  Ta  Ta80  1  0.40660291  0.79536164  0.49325311  1
  Ta  Ta81  1  0.60257788  0.79506780  0.26150601  1
  Ta  Ta82  1  0.69897184  0.70198396  0.87150064  1
  Ta  Ta83  1  0.89387484  0.29733224  0.35457280  1
  Ta  Ta84  1  0.40281208  -0.01335845  0.26156907  1
  Ta  Ta85  1  -0.00155126  0.20679947  0.75558939  1
  Ta  Ta86  1  0.59934521  0.59502230  -0.01760634  1
  Ta  Ta87  1  0.30967179  0.50454438  0.62080835  1
  Ta  Ta88  1  0.39381202  0.79494904  -0.00726160  1
  Ta  Ta89  1  0.09611037  0.70965947  0.85500495  1
  Ta  Ta90  1  0.49681246  0.69471590  0.36197275  1
  Ta  Ta91  1  0.90139077  0.29773207  0.14145878  1
  Ta  Ta92  1  0.40110931  0.40404842  -0.00476817  1
  Ta  Ta93  1  0.60674126  -0.00700985  0.47382590  1
  Ta  Ta94  1  0.08589989  0.30013442  0.61844719  1
  Ta  Ta95  1  0.30139472  0.30323663  0.87874212  1
  Ta  Ta96  1  0.79909204  0.59729042  -0.01517567  1
  Ta  Ta97  1  0.08746460  0.49855791  0.61548302  1
  Ta  Ta98  1  0.90262147  0.10255712  0.87499823  1
  Ta  Ta99  1  0.09097257  0.70420131  0.61939813  1
  Ta  Ta100  1  -0.00247007  0.61198270  0.24487239  1
  Ta  Ta101  1  0.69285909  0.30387202  0.87829179  1
  Ta  Ta102  1  0.09344805  0.30637356  0.38187590  1
  Ta  Ta103  1  -0.00504533  0.59875109  0.74125474  1
  Ta  Ta104  1  0.79787790  0.80205551  0.75154604  1
  Ta  Ta105  1  0.69668029  0.49825124  0.10996095  1
  Ta  Ta106  1  0.19656721  0.80990724  0.27915688  1
  Ta  Ta107  1  0.49802765  0.69852225  0.12677549  1
  Ta  Ta108  1  0.20122579  0.21287786  0.26764751  1
  Ta  Ta109  1  0.69298230  0.69781267  0.64666983  1
  Ta  Ta110  1  0.49759808  0.30452769  0.11806168  1
  Ta  Ta111  1  0.90361732  0.10025115  0.14725877  1
  Ta  Ta112  1  -0.00581613  -0.00144341  0.49510507  1
  Ta  Ta113  1  0.19276163  0.00383463  0.74144045  1
  Ta  Ta114  1  0.09825769  0.10702635  0.61227841  1
  Ta  Ta115  1  0.59121207  0.60316650  0.48992584  1
  Ta  Ta116  1  0.58045833  -0.00840353  0.77003386  1
  Ta  Ta117  1  0.19973332  -0.00423210  0.50491700  1
  Ta  Ta118  1  0.50228968  0.29537840  0.34523940  1
  Ta  Ta119  1  0.70705317  0.29820524  0.35994172  1
  Ti  Ti120  1  0.40397294  0.58745748  0.75902434  1
  Ti  Ti121  1  0.29843799  0.89655030  0.13485623  1
  Ti  Ti122  1  0.60585207  -0.01274095  0.26152952  1
  Ti  Ti123  1  0.30656592  0.89921089  0.38862336  1
  Ti  Ti124  1  0.20237346  0.80947259  -0.01320311  1
  Ti  Ti125  1  0.19468311  0.80427381  0.49536336  1
  Ti  Ti126  1  0.20460772  0.41107154  0.26796325  1
  Ti  Ti127  1  0.80365701  -0.00715796  0.49978123  1
  Ti  Ti128  1  0.20531529  -0.00376299  0.27219141  1
  Ti  Ti129  1  0.30369984  0.70786536  0.37828628  1
  Ti  Ti130  1  -0.02228897  0.37567101  0.50338796  1
  Ti  Ti131  1  0.39875296  0.19406169  0.00308950  1
  Ti  Ti132  1  0.40052505  -0.01178886  -0.01028829  1
  Ti  Ti133  1  0.60184904  0.57572222  0.76930271  1
  Ti  Ti134  1  0.89195589  0.70553346  0.62332384  1
  Ti  Ti135  1  0.69416642  0.89347127  0.89022575  1
  Ti  Ti136  1  0.42499046  0.82328930  0.74781619  1
  Ti  Ti137  1  0.40989906  0.40765637  0.76959427  1
  Ti  Ti138  1  0.39863355  0.59969545  0.49432455  1
  Ti  Ti139  1  -0.01127552  0.20342256  -0.00371456  1
  Ti  Ti140  1  0.18781260  0.81216934  0.73736492  1
  Ti  Ti141  1  0.49862245  0.89266492  0.37354987  1
  Ti  Ti142  1  0.89010587  0.90603151  0.37777071  1
  Ti  Ti143  1  0.90208030  0.70344967  0.86292447  1
  Ti  Ti144  1  0.50290962  0.90840123  0.60929781  1
  Ti  Ti145  1  0.00252940  0.19868393  0.26543395  1
  Ti  Ti146  1  0.31963417  0.32210789  0.36309983  1
  Ti  Ti147  1  -0.00627208  0.80799854  0.50220121  1
  Ti  Ti148  1  0.91629426  0.48657879  0.88010810  1
  Ti  Ti149  1  0.30195504  0.50171729  0.88445897  1
  Ti  Ti150  1  0.91273868  0.89612476  0.13285767  1
  Ti  Ti151  1  0.79574148  0.80461001  0.49944681  1
  Ti  Ti152  1  0.50738633  0.09865837  0.37389532  1
  Ti  Ti153  1  0.09537648  0.90547356  0.61270729  1
  Ti  Ti154  1  0.11434588  0.90349891  0.13802934  1
  Ti  Ti155  1  0.41279115  0.19288233  0.75562997  1
  Ti  Ti156  1  0.60393353  0.80811774  0.75985220  1
  Ti  Ti157  1  0.69830356  0.08863425  0.88424988  1
  Ti  Ti158  1  0.00782169  0.80122390  0.26670837  1
  Ti  Ti159  1  0.89798919  0.90269971  0.87765513  1
  Mo  Mo160  1  0.80524163  0.19854398  0.23836389  1
  Mo  Mo161  1  0.89960845  0.29793370  0.86963166  1
  Mo  Mo162  1  0.60141226  0.39678160  0.01077022  1
  Mo  Mo163  1  0.39412473  0.39639541  0.22784224  1
  Mo  Mo164  1  -0.00467016  0.40252996  0.73505660  1
  Mo  Mo165  1  0.50208567  0.89546630  0.89374497  1
  Mo  Mo166  1  0.39981341  0.39874474  0.50688037  1
  Mo  Mo167  1  0.90625254  0.70639582  0.13788383  1
  Mo  Mo168  1  0.90438662  0.09778379  0.36831326  1
  Mo  Mo169  1  -0.00248023  0.39736393  0.01548111  1
  Mo  Mo170  1  -0.00089675  0.20247724  0.48908722  1
  Mo  Mo171  1  0.79602903  0.39212110  0.49032022  1
  Mo  Mo172  1  0.59695090  0.79311909  -0.00917622  1
  Mo  Mo173  1  0.20392015  0.40387625  -0.02034152  1
  Mo  Mo174  1  0.70396518  0.30270985  0.13255451  1
  Mo  Mo175  1  0.09697163  0.10455481  0.86480436  1
  Mo  Mo176  1  0.49720732  0.49722131  0.88584121  1
  Mo  Mo177  1  0.09295092  0.70856330  0.38846392  1
  Mo  Mo178  1  0.69551012  0.69632755  0.36706015  1
  Mo  Mo179  1  0.70586125  0.08682881  0.13664083  1
  Mo  Mo180  1  0.10182110  0.89936131  0.39363166  1
  Mo  Mo181  1  0.80604110  -0.00715771  0.23455563  1
  Mo  Mo182  1  0.41132080  0.00363057  0.75230773  1
  Mo  Mo183  1  0.90223538  0.30113617  0.63829139  1
  Mo  Mo184  1  -0.01003682  0.61312209  0.52307041  1
  Mo  Mo185  1  0.60118292  -0.00490476  -0.01352156  1
  Mo  Mo186  1  0.61004773  0.18920595  0.46495839  1
  Mo  Mo187  1  0.89286503  0.89561754  0.60611829  1
  Mo  Mo188  1  0.29563067  0.50119698  0.38385053  1
  Mo  Mo189  1  0.10460601  0.89860999  0.85570288  1
  Mo  Mo190  1  0.79558573  0.39792101  0.23893055  1
  Mo  Mo191  1  0.39834120  0.80274259  0.26673502  1
  Mo  Mo192  1  0.50123766  0.29928455  0.65906540  1
  Mo  Mo193  1  0.59741484  0.39513233  0.75879505  1
  Mo  Mo194  1  0.69735332  0.49605726  0.88644837  1
  Mo  Mo195  1  0.70508200  0.89845564  0.37310466  1
  Mo  Mo196  1  0.49692429  0.09635226  0.89336571  1
  Mo  Mo197  1  0.39997302  0.60776641  -0.01384492  1
  Mo  Mo198  1  0.41058672  -0.00901050  0.48196083  1
  Mo  Mo199  1  0.59560494  0.60255535  0.25907496  1
