# generated using pymatgen
data_HfZrTaTiMo
_symmetry_space_group_name_H-M   'P 1'
_cell_length_a   15.94298944
_cell_length_b   15.91954907
_cell_length_c   15.19666950
_cell_angle_alpha   89.94112620
_cell_angle_beta   89.99452978
_cell_angle_gamma   89.93063159
_symmetry_Int_Tables_number   1
_chemical_formula_structural   HfZrTaTiMo
_chemical_formula_sum   'Hf40 Zr40 Ta40 Ti40 Mo40'
_cell_volume   3856.98890377
_cell_formula_units_Z   40
loop_
 _symmetry_equiv_pos_site_id
 _symmetry_equiv_pos_as_xyz
  1  'x, y, z'
loop_
 _atom_site_type_symbol
 _atom_site_label
 _atom_site_symmetry_multiplicity
 _atom_site_fract_x
 _atom_site_fract_y
 _atom_site_fract_z
 _atom_site_occupancy
  Hf  Hf0  1  0.11199788  0.70339509  0.36979973  1
  Hf  Hf1  1  0.39518682  0.19627472  0.25934346  1
  Hf  Hf2  1  0.40736497  0.80128912  0.74233732  1
  Hf  Hf3  1  0.90549370  0.70299306  0.61119943  1
  Hf  Hf4  1  0.59994125  -0.00830377  0.00080861  1
  Hf  Hf5  1  0.29228974  0.30379168  0.38570091  1
  Hf  Hf6  1  0.79246828  0.61295212  0.73830089  1
  Hf  Hf7  1  0.80357728  0.59765803  0.49260599  1
  Hf  Hf8  1  0.50229895  0.89643555  0.60345351  1
  Hf  Hf9  1  0.91896941  0.70438972  0.36790494  1
  Hf  Hf10  1  0.09963575  0.50398363  0.36246413  1
  Hf  Hf11  1  0.49508313  0.71103393  0.13661102  1
  Hf  Hf12  1  0.49189704  0.30002729  0.10902599  1
  Hf  Hf13  1  0.59828603  0.19675791  0.26277274  1
  Hf  Hf14  1  0.79427536  0.40922009  0.74037133  1
  Hf  Hf15  1  0.80232262  0.41414720  -0.00843381  1
  Hf  Hf16  1  0.80431184  0.19088645  0.73761571  1
  Hf  Hf17  1  0.68994274  0.51002573  0.61057129  1
  Hf  Hf18  1  0.59321534  0.59686048  0.74984225  1
  Hf  Hf19  1  0.59633209  -0.00361001  0.25119372  1
  Hf  Hf20  1  0.30198961  0.69664429  0.86660965  1
  Hf  Hf21  1  0.29567626  0.30319536  0.10386397  1
  Hf  Hf22  1  0.20960478  0.79854232  0.02106833  1
  Hf  Hf23  1  0.90792746  0.08979120  0.87577589  1
  Hf  Hf24  1  0.00612085  0.19374367  0.00455495  1
  Hf  Hf25  1  0.49463594  0.10105870  0.11507575  1
  Hf  Hf26  1  0.39368793  0.39854791  0.73449378  1
  Hf  Hf27  1  0.29621981  0.10053451  0.12132162  1
  Hf  Hf28  1  0.70430648  0.10010291  0.12296440  1
  Hf  Hf29  1  0.18791707  -0.00312587  0.01177242  1
  Hf  Hf30  1  0.29769575  0.11598676  0.64743155  1
  Hf  Hf31  1  0.59472260  0.39328700  0.26353251  1
  Hf  Hf32  1  0.70191586  0.50368320  0.14715627  1
  Hf  Hf33  1  0.29359182  0.49581919  0.88724628  1
  Hf  Hf34  1  0.21048464  0.81210759  0.50504937  1
  Hf  Hf35  1  0.81164795  0.39191049  0.26206024  1
  Hf  Hf36  1  0.10698425  0.29162682  0.63967244  1
  Hf  Hf37  1  0.20005258  0.81568422  0.73571182  1
  Hf  Hf38  1  0.18786668  0.60624230  0.01122784  1
  Hf  Hf39  1  0.91015831  0.09801442  0.39225201  1
  Zr  Zr40  1  0.79389745  0.79961127  0.48325796  1
  Zr  Zr41  1  0.20600131  0.40018711  0.74316126  1
  Zr  Zr42  1  0.59659351  -0.00870683  0.75776144  1
  Zr  Zr43  1  0.69864216  0.88911610  0.13653387  1
  Zr  Zr44  1  0.60884569  0.79060246  0.74309630  1
  Zr  Zr45  1  0.70234445  0.69645690  0.14403066  1
  Zr  Zr46  1  0.49771306  0.50362723  0.13020747  1
  Zr  Zr47  1  0.47962318  0.50342569  0.88330701  1
  Zr  Zr48  1  0.01285460  0.80407604  0.00785191  1
  Zr  Zr49  1  0.00691874  0.01435477  0.23285161  1
  Zr  Zr50  1  0.10161929  0.90444330  0.37150884  1
  Zr  Zr51  1  0.61095822  0.59896974  -0.00228773  1
  Zr  Zr52  1  0.90550429  0.70356107  0.87365498  1
  Zr  Zr53  1  0.71035288  0.29441539  0.38939769  1
  Zr  Zr54  1  0.90831008  0.50563242  0.13972609  1
  Zr  Zr55  1  0.71127402  0.09014262  0.86962340  1
  Zr  Zr56  1  0.19050756  0.20000425  0.24888230  1
  Zr  Zr57  1  0.59523401  0.19554721  -0.02266893  1
  Zr  Zr58  1  0.00081187  0.40153336  0.50762524  1
  Zr  Zr59  1  0.70235571  0.30049651  0.11937217  1
  Zr  Zr60  1  0.90802175  0.90377707  0.60197554  1
  Zr  Zr61  1  0.48791501  0.08526940  0.38377017  1
  Zr  Zr62  1  0.60327308  0.40482463  -0.01598043  1
  Zr  Zr63  1  0.91059715  0.30654510  0.86382999  1
  Zr  Zr64  1  0.09117210  0.50429429  0.86989954  1
  Zr  Zr65  1  0.19900457  0.40571133  0.51061416  1
  Zr  Zr66  1  0.71294557  0.89046341  0.87655431  1
  Zr  Zr67  1  0.49539396  0.70044001  0.88671922  1
  Zr  Zr68  1  0.39209686  0.39994691  0.25460504  1
  Zr  Zr69  1  0.40014736  -0.00109545  0.76035145  1
  Zr  Zr70  1  0.59200237  0.39982275  0.50713391  1
  Zr  Zr71  1  0.47743070  0.28027789  0.61472321  1
  Zr  Zr72  1  0.61087062  0.18758873  0.49628309  1
  Zr  Zr73  1  0.80868274  0.19235725  0.25036799  1
  Zr  Zr74  1  0.00780315  0.80368324  0.74208630  1
  Zr  Zr75  1  0.49379943  0.09039377  0.61390277  1
  Zr  Zr76  1  -0.00205591  0.21055155  0.24174623  1
  Zr  Zr77  1  0.30682692  0.70032043  0.62184904  1
  Zr  Zr78  1  0.58898042  0.39697572  0.74553237  1
  Zr  Zr79  1  0.70520122  0.29800735  0.86457074  1
  Ta  Ta80  1  0.29329727  0.09798879  0.87525163  1
  Ta  Ta81  1  0.29638092  0.89617496  0.88010998  1
  Ta  Ta82  1  0.90274061  0.70059699  0.14131379  1
  Ta  Ta83  1  0.58086902  0.19089404  0.75788638  1
  Ta  Ta84  1  0.39914185  0.60441019  0.49154685  1
  Ta  Ta85  1  0.70895578  0.69945652  0.88352238  1
  Ta  Ta86  1  0.19251993  0.19811175  -0.01362097  1
  Ta  Ta87  1  0.80326012  0.39917037  0.50961894  1
  Ta  Ta88  1  0.00462474  -0.00137559  0.73670399  1
  Ta  Ta89  1  0.90155823  0.50804603  0.86142555  1
  Ta  Ta90  1  0.69968759  0.89725968  0.61160215  1
  Ta  Ta91  1  0.38337132  0.61245152  0.02383518  1
  Ta  Ta92  1  0.81195316  -0.00802677  0.01479338  1
  Ta  Ta93  1  0.48886818  0.29715888  0.39328969  1
  Ta  Ta94  1  0.69820196  0.08946903  0.63096215  1
  Ta  Ta95  1  0.90432426  0.30113814  0.63091321  1
  Ta  Ta96  1  0.10472448  0.09866070  0.38747965  1
  Ta  Ta97  1  0.21267106  0.00767794  0.50895590  1
  Ta  Ta98  1  0.09665571  0.49664699  0.13560964  1
  Ta  Ta99  1  0.80888197  0.79596306  0.01078118  1
  Ta  Ta100  1  0.19871962  0.60548468  0.74146717  1
  Ta  Ta101  1  0.90378698  0.89358505  0.13720578  1
  Ta  Ta102  1  0.49623962  0.50372399  0.37990669  1
  Ta  Ta103  1  0.00876606  0.59858815  0.49804245  1
  Ta  Ta104  1  0.80636137  -0.00127554  0.25636910  1
  Ta  Ta105  1  0.49350584  0.89086371  0.89332939  1
  Ta  Ta106  1  0.10300528  0.30260073  0.86860223  1
  Ta  Ta107  1  0.79527078  0.00675972  0.49423105  1
  Ta  Ta108  1  0.29400555  0.51073977  0.37847192  1
  Ta  Ta109  1  0.90449963  0.90227110  0.87548841  1
  Ta  Ta110  1  0.10583575  0.09564942  0.63315416  1
  Ta  Ta111  1  0.40216979  0.79835737  0.48551176  1
  Ta  Ta112  1  0.30056732  0.70402227  0.36543314  1
  Ta  Ta113  1  0.09291988  0.69897450  0.15125876  1
  Ta  Ta114  1  0.39196971  -0.01018533  0.00489886  1
  Ta  Ta115  1  0.00482827  0.19613861  0.51664490  1
  Ta  Ta116  1  0.00289016  -0.00208671  0.01404457  1
  Ta  Ta117  1  0.29090775  0.49503421  0.12099582  1
  Ta  Ta118  1  0.69812871  0.50142416  0.37771722  1
  Ta  Ta119  1  0.39853138  -0.01375918  0.23649793  1
  Ti  Ti120  1  0.37431806  0.17776264  0.48516551  1
  Ti  Ti121  1  0.00289456  0.19106336  0.74752548  1
  Ti  Ti122  1  0.80088749  0.80206882  0.73674148  1
  Ti  Ti123  1  0.90454335  0.30842581  0.11680265  1
  Ti  Ti124  1  0.80608121  0.19520749  0.51708511  1
  Ti  Ti125  1  0.09277274  0.30034168  0.38016073  1
  Ti  Ti126  1  0.80321759  0.60006987  0.27002305  1
  Ti  Ti127  1  0.00516891  0.60631909  0.74138219  1
  Ti  Ti128  1  0.49438439  0.89794416  0.38341076  1
  Ti  Ti129  1  0.81037901  -0.00836096  0.73301390  1
  Ti  Ti130  1  0.10379025  0.70002046  0.60871563  1
  Ti  Ti131  1  0.90855146  0.50212819  0.63140124  1
  Ti  Ti132  1  0.59391450  0.61165377  0.48746557  1
  Ti  Ti133  1  0.80497375  0.80482936  0.26123464  1
  Ti  Ti134  1  0.20839052  0.59904933  0.23966328  1
  Ti  Ti135  1  0.47451109  0.29944246  0.88109289  1
  Ti  Ti136  1  0.09976287  0.50918595  0.62867600  1
  Ti  Ti137  1  0.19693375  0.19756305  0.49847071  1
  Ti  Ti138  1  0.90736523  0.29779836  0.39280441  1
  Ti  Ti139  1  0.69505778  0.29187852  0.62807242  1
  Ti  Ti140  1  0.90841979  0.49463664  0.37361670  1
  Ti  Ti141  1  0.10079560  0.31130020  0.11388836  1
  Ti  Ti142  1  0.60337334  0.79715372  0.00594108  1
  Ti  Ti143  1  0.39881964  0.60317079  0.25403418  1
  Ti  Ti144  1  0.69784922  0.90114712  0.37204210  1
  Ti  Ti145  1  0.68866296  0.69963779  0.36641425  1
  Ti  Ti146  1  0.30087210  0.51172938  0.61758340  1
  Ti  Ti147  1  0.10519654  0.70473748  0.86994931  1
  Ti  Ti148  1  0.80909780  0.19810314  -0.00071326  1
  Ti  Ti149  1  0.00152083  0.40799803  -0.00289915  1
  Ti  Ti150  1  0.80670975  0.60163354  -0.00058748  1
  Ti  Ti151  1  0.91393974  0.90325512  0.37815106  1
  Ti  Ti152  1  0.50562744  0.69549010  0.61040915  1
  Ti  Ti153  1  0.19550375  0.39685441  0.24938166  1
  Ti  Ti154  1  0.29801459  0.90644161  0.36115156  1
  Ti  Ti155  1  0.58429110  0.80269552  0.26527546  1
  Ti  Ti156  1  0.39495996  0.40715575  0.50574149  1
  Ti  Ti157  1  -0.00336718  0.60441934  0.00551275  1
  Ti  Ti158  1  0.10084977  0.91361674  0.86873868  1
  Ti  Ti159  1  0.61001962  -0.00492665  0.48828315  1
  Mo  Mo160  1  0.40060751  0.80457920  0.26755098  1
  Mo  Mo161  1  0.71182625  0.51225149  0.86679509  1
  Mo  Mo162  1  0.19878544  0.20018204  0.77090362  1
  Mo  Mo163  1  0.49620189  0.69968552  0.36768172  1
  Mo  Mo164  1  0.00095871  0.80610438  0.24666065  1
  Mo  Mo165  1  0.28707854  0.08835118  0.36094196  1
  Mo  Mo166  1  0.39065258  0.19489894  -0.01566283  1
  Mo  Mo167  1  0.59964006  0.79788701  0.48592940  1
  Mo  Mo168  1  0.10592921  0.90668811  0.61069795  1
  Mo  Mo169  1  0.10414231  0.89933684  0.14386521  1
  Mo  Mo170  1  0.10328701  0.10718464  0.11975821  1
  Mo  Mo171  1  0.09905265  0.09569589  0.85948639  1
  Mo  Mo172  1  0.20626797  0.80392497  0.24127563  1
  Mo  Mo173  1  0.18580660  0.40066048  0.00154554  1
  Mo  Mo174  1  0.01026537  0.80083847  0.50022744  1
  Mo  Mo175  1  0.70825799  0.08856409  0.37097612  1
  Mo  Mo176  1  0.30398394  0.89470081  0.13426681  1
  Mo  Mo177  1  0.39312384  0.40553417  0.00765409  1
  Mo  Mo178  1  0.20042644  0.60291577  0.50526094  1
  Mo  Mo179  1  0.48871715  0.51382552  0.60823135  1
  Mo  Mo180  1  0.59628592  0.59858134  0.27001421  1
  Mo  Mo181  1  0.30793984  0.90977730  0.62403911  1
  Mo  Mo182  1  0.39671815  0.20324429  0.77228494  1
  Mo  Mo183  1  0.29638537  0.30019649  0.88884468  1
  Mo  Mo184  1  0.39515103  0.80025010  0.00361277  1
  Mo  Mo185  1  -0.00166437  0.40554583  0.73931921  1
  Mo  Mo186  1  0.90247796  0.10014762  0.61866822  1
  Mo  Mo187  1  0.38336436  -0.01037154  0.49646260  1
  Mo  Mo188  1  0.39932251  0.59631786  0.73035335  1
  Mo  Mo189  1  0.20389143  0.00137314  0.24101150  1
  Mo  Mo190  1  0.89717883  0.09858407  0.11131813  1
  Mo  Mo191  1  0.49584291  0.89413351  0.11415684  1
  Mo  Mo192  1  0.29933455  0.69804811  0.14801410  1
  Mo  Mo193  1  0.48967641  0.09492868  0.88727103  1
  Mo  Mo194  1  0.00536601  0.39203367  0.25492755  1
  Mo  Mo195  1  0.01060122  0.00437919  0.50923722  1
  Mo  Mo196  1  0.29902775  0.29433804  0.60866309  1
  Mo  Mo197  1  0.00324652  0.59850305  0.25885139  1
  Mo  Mo198  1  0.19767271  -0.00118051  0.75128903  1
  Mo  Mo199  1  0.69394894  0.70667816  0.60578225  1
