# generated using pymatgen
data_HfZrTaTiMo
_symmetry_space_group_name_H-M   'P 1'
_cell_length_a   15.93471246
_cell_length_b   15.92568832
_cell_length_c   15.20916104
_cell_angle_alpha   90.03074142
_cell_angle_beta   89.99339873
_cell_angle_gamma   89.93468043
_symmetry_Int_Tables_number   1
_chemical_formula_structural   HfZrTaTiMo
_chemical_formula_sum   'Hf40 Zr40 Ta40 Ti40 Mo40'
_cell_volume   3859.64493044
_cell_formula_units_Z   40
loop_
 _symmetry_equiv_pos_site_id
 _symmetry_equiv_pos_as_xyz
  1  'x, y, z'
loop_
 _atom_site_type_symbol
 _atom_site_label
 _atom_site_symmetry_multiplicity
 _atom_site_fract_x
 _atom_site_fract_y
 _atom_site_fract_z
 _atom_site_occupancy
  Hf  Hf0  1  0.19161709  0.40948000  0.25556763  1
  Hf  Hf1  1  0.29415398  0.69585933  0.86062792  1
  Hf  Hf2  1  0.29986931  0.89721027  0.37647408  1
  Hf  Hf3  1  0.20071113  0.01166931  -0.00278936  1
  Hf  Hf4  1  0.20601424  0.59828515  0.48691462  1
  Hf  Hf5  1  0.29943724  0.29926402  0.62881946  1
  Hf  Hf6  1  0.89985676  0.48493183  0.87180155  1
  Hf  Hf7  1  0.89325971  0.30215860  0.64707311  1
  Hf  Hf8  1  0.78717106  0.01280816  0.00084591  1
  Hf  Hf9  1  0.09550052  0.90402020  0.12484798  1
  Hf  Hf10  1  -0.02508024  0.20545569  0.49737192  1
  Hf  Hf11  1  0.20002324  0.79238117  0.00259594  1
  Hf  Hf12  1  0.19428948  0.38473415  -0.00384344  1
  Hf  Hf13  1  0.39712656  0.20092198  0.49872503  1
  Hf  Hf14  1  0.49190324  0.89414002  0.36871930  1
  Hf  Hf15  1  0.71567109  0.68684017  0.14402511  1
  Hf  Hf16  1  0.90172191  0.89411579  0.12452140  1
  Hf  Hf17  1  0.49895079  0.09481691  0.13574831  1
  Hf  Hf18  1  0.40572989  0.78962807  0.01106762  1
  Hf  Hf19  1  0.49965046  0.69753078  0.37224418  1
  Hf  Hf20  1  0.00636442  0.20181499  0.00510966  1
  Hf  Hf21  1  0.10102309  0.49689024  0.62652289  1
  Hf  Hf22  1  0.90182846  0.70318643  0.86276660  1
  Hf  Hf23  1  0.40244778  0.59615742  0.50326784  1
  Hf  Hf24  1  0.10543902  0.51129139  0.10690733  1
  Hf  Hf25  1  0.50675472  0.50328691  0.87880762  1
  Hf  Hf26  1  0.70375208  0.50401480  0.88885749  1
  Hf  Hf27  1  0.10143913  0.10472066  0.14119806  1
  Hf  Hf28  1  0.29813213  0.90172645  0.14254054  1
  Hf  Hf29  1  -0.00434844  -0.00520399  0.49215051  1
  Hf  Hf30  1  0.07478803  0.31457572  0.38072242  1
  Hf  Hf31  1  0.50089182  0.90155565  0.13334472  1
  Hf  Hf32  1  0.70353703  0.48735689  0.62257935  1
  Hf  Hf33  1  0.61567668  0.00525427  0.76822760  1
  Hf  Hf34  1  0.79675332  -0.00654781  0.48773960  1
  Hf  Hf35  1  0.19678185  0.19903423  0.49076994  1
  Hf  Hf36  1  0.70199636  0.68996132  0.36612648  1
  Hf  Hf37  1  0.18935581  -0.00796143  0.73499255  1
  Hf  Hf38  1  0.39736928  0.39568124  0.00372795  1
  Hf  Hf39  1  0.39455075  0.00163314  0.50898185  1
  Zr  Zr40  1  0.39691981  -0.00078004  0.73878349  1
  Zr  Zr41  1  0.61348122  0.80355137  0.49496180  1
  Zr  Zr42  1  0.77787128  0.19717979  0.75146243  1
  Zr  Zr43  1  -0.00416325  0.00764549  -0.00368825  1
  Zr  Zr44  1  0.00967483  0.59501665  0.25649867  1
  Zr  Zr45  1  0.50409842  0.89522300  0.87433509  1
  Zr  Zr46  1  0.20680123  0.40230694  0.48251249  1
  Zr  Zr47  1  0.89815955  0.89676665  0.87465772  1
  Zr  Zr48  1  0.48927260  0.10131957  0.36020250  1
  Zr  Zr49  1  0.10293985  0.71173399  0.38672571  1
  Zr  Zr50  1  0.40842820  0.39016567  0.76043803  1
  Zr  Zr51  1  0.09270616  0.70936142  0.13055036  1
  Zr  Zr52  1  0.50771333  0.49966166  0.12368733  1
  Zr  Zr53  1  0.69338865  0.09038763  0.61156002  1
  Zr  Zr54  1  0.61482609  0.38432945  0.75513806  1
  Zr  Zr55  1  0.19609364  0.39727136  0.76592090  1
  Zr  Zr56  1  0.60650636  0.61846693  0.00899590  1
  Zr  Zr57  1  0.79418156  0.60254972  0.74713942  1
  Zr  Zr58  1  0.29386764  0.29288688  0.13458729  1
  Zr  Zr59  1  0.51666240  0.29034669  0.89884119  1
  Zr  Zr60  1  0.89416625  0.29999718  0.10887507  1
  Zr  Zr61  1  0.60705809  0.39678982  0.24563039  1
  Zr  Zr62  1  0.49902382  0.11069409  0.87495187  1
  Zr  Zr63  1  -0.00433691  0.59984120  0.50234210  1
  Zr  Zr64  1  0.72056939  0.29663602  0.90491637  1
  Zr  Zr65  1  0.29835652  0.50949810  0.88246801  1
  Zr  Zr66  1  0.50626251  0.69851113  0.85541423  1
  Zr  Zr67  1  0.70734237  0.29497938  0.37718175  1
  Zr  Zr68  1  0.39602485  0.00325240  0.00156558  1
  Zr  Zr69  1  0.69930561  0.89938243  0.12498051  1
  Zr  Zr70  1  0.50899109  0.69908522  0.63265980  1
  Zr  Zr71  1  0.89033589  0.70329874  0.36598643  1
  Zr  Zr72  1  0.90766002  0.48555007  0.37641652  1
  Zr  Zr73  1  0.09907928  0.51605297  0.87977864  1
  Zr  Zr74  1  0.29476734  0.89818669  0.87352695  1
  Zr  Zr75  1  0.51798352  0.90390255  0.62513545  1
  Zr  Zr76  1  0.00099105  0.00485619  0.74553993  1
  Zr  Zr77  1  0.50863729  0.50160085  0.36606501  1
  Zr  Zr78  1  0.18772257  0.19950480  0.75327137  1
  Zr  Zr79  1  0.30140989  0.49891500  0.63474583  1
  Ta  Ta80  1  0.69512132  0.29935072  0.11294837  1
  Ta  Ta81  1  0.70940157  0.50152082  0.37905067  1
  Ta  Ta82  1  0.89171718  0.51632677  0.11459200  1
  Ta  Ta83  1  0.30843726  0.70538233  0.36537524  1
  Ta  Ta84  1  0.29726807  0.69832494  0.14362088  1
  Ta  Ta85  1  0.40637714  0.39866413  0.49376156  1
  Ta  Ta86  1  0.50653328  0.29831715  0.61749967  1
  Ta  Ta87  1  0.18664815  -0.00315815  0.26995651  1
  Ta  Ta88  1  0.89732782  0.89943517  0.62987033  1
  Ta  Ta89  1  0.89112069  0.11994106  0.87586932  1
  Ta  Ta90  1  0.79641569  0.78370483  -0.00249697  1
  Ta  Ta91  1  0.39145372  0.80492379  0.73148790  1
  Ta  Ta92  1  0.09852523  0.70322667  0.61951775  1
  Ta  Ta93  1  0.79621018  0.19730767  0.23289969  1
  Ta  Ta94  1  0.80833775  0.79755035  0.50877762  1
  Ta  Ta95  1  0.81387921  0.38885801  0.49817674  1
  Ta  Ta96  1  0.60846041  -0.00413225  0.26478828  1
  Ta  Ta97  1  0.50742218  0.49315426  0.62846003  1
  Ta  Ta98  1  0.69864381  0.29167683  0.60437589  1
  Ta  Ta99  1  0.80164132  0.40342886  0.23702923  1
  Ta  Ta100  1  0.50519055  0.28844208  0.11848955  1
  Ta  Ta101  1  0.00396755  0.60384194  0.74336901  1
  Ta  Ta102  1  0.59946095  0.79374735  0.24725147  1
  Ta  Ta103  1  0.29944971  0.10596163  0.85806023  1
  Ta  Ta104  1  0.79860309  0.60013516  0.51102142  1
  Ta  Ta105  1  0.29712218  0.09858613  0.15357016  1
  Ta  Ta106  1  0.59502240  0.19553142  0.49157102  1
  Ta  Ta107  1  0.29410712  0.10389737  0.63044882  1
  Ta  Ta108  1  0.08999830  0.30343344  0.62070189  1
  Ta  Ta109  1  0.29253210  0.69824588  0.62851661  1
  Ta  Ta110  1  0.90139697  0.49422769  0.63262036  1
  Ta  Ta111  1  0.39777850  0.60870536  0.01227652  1
  Ta  Ta112  1  0.09007538  0.10457463  0.37323458  1
  Ta  Ta113  1  0.19296460  0.80612544  0.73456124  1
  Ta  Ta114  1  0.29881656  0.50609548  0.12573786  1
  Ta  Ta115  1  0.60754589  0.59567511  0.50988989  1
  Ta  Ta116  1  0.89225432  0.10563155  0.36304163  1
  Ta  Ta117  1  -0.00052427  0.82318751  0.27342996  1
  Ta  Ta118  1  -0.00007130  0.39940370  0.22597785  1
  Ta  Ta119  1  -0.00776590  0.20543910  0.24688989  1
  Ti  Ti120  1  0.60821338  0.80248885  -0.00346456  1
  Ti  Ti121  1  -0.00562655  0.19604870  0.74952511  1
  Ti  Ti122  1  0.19548318  0.00190521  0.49869481  1
  Ti  Ti123  1  0.60063532  -0.00086693  0.48012494  1
  Ti  Ti124  1  0.70370321  0.10218332  0.36997186  1
  Ti  Ti125  1  0.09343073  0.10614907  0.61296450  1
  Ti  Ti126  1  0.07128735  0.30638999  0.86388263  1
  Ti  Ti127  1  0.50232074  0.10930337  0.63251192  1
  Ti  Ti128  1  0.19316906  0.80318638  0.25961608  1
  Ti  Ti129  1  0.20204142  0.60033089  0.26033548  1
  Ti  Ti130  1  -0.00629535  0.61779582  -0.00472632  1
  Ti  Ti131  1  0.62230019  0.16622181  0.01631950  1
  Ti  Ti132  1  0.49799089  0.29840111  0.36894220  1
  Ti  Ti133  1  0.09393444  0.89073558  0.88375563  1
  Ti  Ti134  1  0.18948719  0.20928113  0.26389342  1
  Ti  Ti135  1  0.69992455  0.70579062  0.63643118  1
  Ti  Ti136  1  0.09657538  0.10159990  0.87283526  1
  Ti  Ti137  1  0.31167780  0.28315913  0.87204528  1
  Ti  Ti138  1  0.00736045  0.80627965  0.73746735  1
  Ti  Ti139  1  0.59912516  0.39810453  0.49212166  1
  Ti  Ti140  1  0.30977432  0.29861303  0.36325165  1
  Ti  Ti141  1  0.29762149  0.10169098  0.35994646  1
  Ti  Ti142  1  0.88718861  0.09807391  0.62627941  1
  Ti  Ti143  1  0.38638052  0.19100853  0.01284639  1
  Ti  Ti144  1  0.10010835  0.70537189  0.86782378  1
  Ti  Ti145  1  0.80736787  -0.00135081  0.24963789  1
  Ti  Ti146  1  0.70948992  0.89553333  0.63613428  1
  Ti  Ti147  1  0.40296203  0.39478359  0.24185923  1
  Ti  Ti148  1  0.31477629  0.50353248  0.35899992  1
  Ti  Ti149  1  0.19949488  0.19850882  -0.00634806  1
  Ti  Ti150  1  0.60409776  0.19775615  0.24816211  1
  Ti  Ti151  1  0.90239917  0.70359327  0.13286896  1
  Ti  Ti152  1  0.90165978  0.70546145  0.63014477  1
  Ti  Ti153  1  0.80016939  -0.00102404  0.76322233  1
  Ti  Ti154  1  0.71530004  0.88507582  0.35803563  1
  Ti  Ti155  1  0.39376144  0.79881793  0.51664499  1
  Ti  Ti156  1  0.40916096  0.60507788  0.23741216  1
  Ti  Ti157  1  0.19956274  0.80869291  0.50937713  1
  Ti  Ti158  1  -0.00064897  0.40043580  0.00585621  1
  Ti  Ti159  1  0.40229152  0.59813299  0.74228596  1
  Mo  Mo160  1  0.60201666  0.40382455  0.01252649  1
  Mo  Mo161  1  0.20805878  0.60861947  0.01172410  1
  Mo  Mo162  1  0.89249775  0.29967699  0.35324538  1
  Mo  Mo163  1  0.39385328  -0.00005466  0.25480006  1
  Mo  Mo164  1  0.79752346  0.39852490  0.74646264  1
  Mo  Mo165  1  0.60535144  0.59643545  0.24891142  1
  Mo  Mo166  1  0.09859434  0.30207345  0.13061795  1
  Mo  Mo167  1  0.60216031  -0.00594884  -0.01021554  1
  Mo  Mo168  1  0.50401993  0.70306975  0.13908187  1
  Mo  Mo169  1  0.10181399  0.90457363  0.38966191  1
  Mo  Mo170  1  0.89986841  0.09491846  0.14218865  1
  Mo  Mo171  1  0.40246723  0.20014298  0.73566149  1
  Mo  Mo172  1  0.69546959  0.09411036  0.14747275  1
  Mo  Mo173  1  0.80351410  0.80514147  0.73815161  1
  Mo  Mo174  1  -0.00541839  0.39690369  0.51607683  1
  Mo  Mo175  1  -0.00233186  0.79716442  -0.00763586  1
  Mo  Mo176  1  0.29475847  0.89932549  0.61011037  1
  Mo  Mo177  1  0.70031511  0.10150403  0.87700539  1
  Mo  Mo178  1  0.59526254  0.20076714  0.73534340  1
  Mo  Mo179  1  0.19236502  0.61183791  0.73844948  1
  Mo  Mo180  1  0.80500830  0.80078340  0.24287234  1
  Mo  Mo181  1  0.70495436  0.89424618  0.88388701  1
  Mo  Mo182  1  0.79758734  0.19473118  0.49762827  1
  Mo  Mo183  1  0.80857121  0.60833038  -0.00945357  1
  Mo  Mo184  1  0.80609220  0.58778127  0.25490032  1
  Mo  Mo185  1  0.89389973  0.90202956  0.37423645  1
  Mo  Mo186  1  0.61555592  0.80178372  0.75677695  1
  Mo  Mo187  1  0.40021378  0.20784107  0.24777904  1
  Mo  Mo188  1  -0.00634427  0.80380277  0.50490491  1
  Mo  Mo189  1  0.09448800  0.89599242  0.60702805  1
  Mo  Mo190  1  0.70154853  0.70924309  0.86340188  1
  Mo  Mo191  1  -0.00111154  0.40068407  0.74568202  1
  Mo  Mo192  1  0.80215351  0.40833557  0.01487591  1
  Mo  Mo193  1  0.60063798  0.59592530  0.73775120  1
  Mo  Mo194  1  0.80348257  0.19096366  0.01614169  1
  Mo  Mo195  1  -0.00353764  0.00568500  0.26355436  1
  Mo  Mo196  1  0.90432118  0.29887100  0.87676689  1
  Mo  Mo197  1  0.39835811  0.79489790  0.24401820  1
  Mo  Mo198  1  0.10137031  0.49996408  0.37482396  1
  Mo  Mo199  1  0.70917617  0.49792602  0.11741273  1
