# generated using pymatgen
data_HfZrTaTiMo
_symmetry_space_group_name_H-M   'P 1'
_cell_length_a   15.93710028
_cell_length_b   15.92561010
_cell_length_c   15.21793377
_cell_angle_alpha   90.00880221
_cell_angle_beta   90.04544552
_cell_angle_gamma   89.86895299
_symmetry_Int_Tables_number   1
_chemical_formula_structural   HfZrTaTiMo
_chemical_formula_sum   'Hf40 Zr40 Ta40 Ti40 Mo40'
_cell_volume   3862.42265983
_cell_formula_units_Z   40
loop_
 _symmetry_equiv_pos_site_id
 _symmetry_equiv_pos_as_xyz
  1  'x, y, z'
loop_
 _atom_site_type_symbol
 _atom_site_label
 _atom_site_symmetry_multiplicity
 _atom_site_fract_x
 _atom_site_fract_y
 _atom_site_fract_z
 _atom_site_occupancy
  Hf  Hf0  1  0.81231418  0.79005656  0.01777315  1
  Hf  Hf1  1  0.29922681  0.49803151  0.40127956  1
  Hf  Hf2  1  0.49698352  0.50216296  0.62609241  1
  Hf  Hf3  1  0.70462633  0.69578272  0.86977690  1
  Hf  Hf4  1  0.79197355  0.39680014  -0.00414974  1
  Hf  Hf5  1  0.10082807  0.70872016  0.62327913  1
  Hf  Hf6  1  0.30531499  0.28705340  0.64041699  1
  Hf  Hf7  1  0.60347592  0.39102992  0.51069026  1
  Hf  Hf8  1  0.29861874  0.10514675  0.12043184  1
  Hf  Hf9  1  -0.00177771  0.39799932  -0.01543531  1
  Hf  Hf10  1  0.41537765  0.20446504  -0.00852228  1
  Hf  Hf11  1  -0.02304707  0.81427349  0.24698402  1
  Hf  Hf12  1  0.10076439  0.69710525  0.37084317  1
  Hf  Hf13  1  0.19972123  0.81194109  0.48474848  1
  Hf  Hf14  1  0.50882628  0.29888700  0.35965080  1
  Hf  Hf15  1  0.59726916  0.81107517  0.75902669  1
  Hf  Hf16  1  0.79045038  0.60679746  0.51112050  1
  Hf  Hf17  1  0.59490434  0.00088319  0.49278450  1
  Hf  Hf18  1  0.48801079  0.90273161  0.62683559  1
  Hf  Hf19  1  0.21781528  0.18963342  0.50074995  1
  Hf  Hf20  1  -0.01685215  0.60598757  0.50321325  1
  Hf  Hf21  1  0.90098839  0.30026037  0.36513236  1
  Hf  Hf22  1  -0.00812165  0.39603033  0.74861105  1
  Hf  Hf23  1  0.81151080  0.39781966  0.51399779  1
  Hf  Hf24  1  0.40696789  0.41752196  0.24445905  1
  Hf  Hf25  1  -0.00684350  0.20220131  -0.00282774  1
  Hf  Hf26  1  0.39487911  0.01055764  0.48302285  1
  Hf  Hf27  1  0.21372278  0.80790446  0.25693841  1
  Hf  Hf28  1  0.00555454  0.00403280  0.48800990  1
  Hf  Hf29  1  0.90038766  0.10462528  0.36914042  1
  Hf  Hf30  1  0.59608878  0.78328338  0.49664199  1
  Hf  Hf31  1  0.00106976  0.00482868  0.76937048  1
  Hf  Hf32  1  0.10094510  0.90261253  0.11723091  1
  Hf  Hf33  1  0.79220471  0.19552350  0.51660697  1
  Hf  Hf34  1  0.09442740  0.48902827  0.60877810  1
  Hf  Hf35  1  -0.01455248  0.61788344  -0.00304782  1
  Hf  Hf36  1  0.79267713  -0.00051969  0.74104605  1
  Hf  Hf37  1  0.09497323  0.70523649  0.12647304  1
  Hf  Hf38  1  0.28976059  0.30165110  0.88445141  1
  Hf  Hf39  1  0.29690106  0.69490810  0.87251500  1
  Zr  Zr40  1  0.70601940  0.90126842  0.88246905  1
  Zr  Zr41  1  0.39618009  -0.01206688  0.26708820  1
  Zr  Zr42  1  0.49728242  0.09219348  0.12707547  1
  Zr  Zr43  1  0.71031103  0.88262704  0.36723810  1
  Zr  Zr44  1  0.70097230  0.29288963  0.36963695  1
  Zr  Zr45  1  0.78689613  0.41504543  0.24705312  1
  Zr  Zr46  1  0.10188533  0.90861450  0.62663586  1
  Zr  Zr47  1  0.30358462  0.90746146  0.10425116  1
  Zr  Zr48  1  -0.00136567  0.59796697  0.74431881  1
  Zr  Zr49  1  0.89925315  0.30282576  0.13459644  1
  Zr  Zr50  1  0.29598921  0.90319367  0.63126217  1
  Zr  Zr51  1  0.31121626  0.70839204  0.62073444  1
  Zr  Zr52  1  0.10699071  0.30381703  0.12437367  1
  Zr  Zr53  1  0.10798973  0.30006465  0.36463790  1
  Zr  Zr54  1  0.00170122  0.80394571  0.76194914  1
  Zr  Zr55  1  0.50260386  0.30930843  0.13182426  1
  Zr  Zr56  1  0.30550141  0.09445385  0.88600271  1
  Zr  Zr57  1  0.89718784  0.50578839  0.12390808  1
  Zr  Zr58  1  0.31238288  0.27990349  0.35529077  1
  Zr  Zr59  1  -0.01374427  0.80678072  0.48737183  1
  Zr  Zr60  1  0.40305337  0.37528636  0.50948097  1
  Zr  Zr61  1  0.70440399  0.10089610  0.88077811  1
  Zr  Zr62  1  0.80662468  0.59083980  0.73502473  1
  Zr  Zr63  1  0.31282269  0.69076242  0.38076181  1
  Zr  Zr64  1  0.49646325  0.88856487  0.12622067  1
  Zr  Zr65  1  0.11345852  0.10048539  0.63414718  1
  Zr  Zr66  1  0.29791003  0.49867681  0.87599105  1
  Zr  Zr67  1  0.90967548  0.09745443  0.62854981  1
  Zr  Zr68  1  0.30271516  0.70806640  0.11645590  1
  Zr  Zr69  1  0.49977097  0.51815723  0.39700571  1
  Zr  Zr70  1  0.00807761  0.22250363  0.51461408  1
  Zr  Zr71  1  0.59407712  0.77660166  0.25841506  1
  Zr  Zr72  1  0.79882944  -0.00651399  0.50194784  1
  Zr  Zr73  1  0.31271842  0.08702370  0.65081626  1
  Zr  Zr74  1  0.80867815  -0.00949853  0.23895887  1
  Zr  Zr75  1  -0.00482647  0.60207714  0.25548031  1
  Zr  Zr76  1  -0.00815723  0.00034115  0.00108586  1
  Zr  Zr77  1  0.10665652  0.50107982  0.88007314  1
  Zr  Zr78  1  0.40692042  0.60474987  0.23411727  1
  Zr  Zr79  1  0.20453992  0.41467669  0.25054143  1
  Ta  Ta80  1  0.30186574  0.30250839  0.11700627  1
  Ta  Ta81  1  0.60248943  0.79699753  -0.00565770  1
  Ta  Ta82  1  0.50407479  0.69545398  0.87559805  1
  Ta  Ta83  1  0.69516882  0.30627018  0.12866446  1
  Ta  Ta84  1  0.69819030  0.29906911  0.63770540  1
  Ta  Ta85  1  0.29778528  0.49674969  0.10330751  1
  Ta  Ta86  1  0.69203709  0.50590695  0.38706743  1
  Ta  Ta87  1  0.69592032  0.89311891  0.12581682  1
  Ta  Ta88  1  0.40419522  0.39505069  0.75640929  1
  Ta  Ta89  1  0.86919030  0.70939581  0.36273162  1
  Ta  Ta90  1  0.30191541  0.90115115  0.88017606  1
  Ta  Ta91  1  0.79606576  0.79412606  0.51682451  1
  Ta  Ta92  1  0.10111282  0.50404690  0.11410150  1
  Ta  Ta93  1  0.18922955  0.80215112  -0.01593363  1
  Ta  Ta94  1  0.20039772  0.59818938  0.73636273  1
  Ta  Ta95  1  0.60106923  0.19580164  0.74662658  1
  Ta  Ta96  1  0.89186627  0.50406501  0.37865420  1
  Ta  Ta97  1  0.50245958  0.50223927  0.87088452  1
  Ta  Ta98  1  0.60017655  0.39745259  -0.01579715  1
  Ta  Ta99  1  0.10804502  0.10845427  0.89093365  1
  Ta  Ta100  1  0.10690750  0.10168236  0.12013020  1
  Ta  Ta101  1  0.30028863  0.49662645  0.62307994  1
  Ta  Ta102  1  0.69300616  0.70459752  0.64175743  1
  Ta  Ta103  1  0.80206548  0.20033365  0.73996003  1
  Ta  Ta104  1  0.40362104  0.80229247  0.76611047  1
  Ta  Ta105  1  0.40557321  0.59733525  -0.00441720  1
  Ta  Ta106  1  0.40167443  0.60116804  0.74838356  1
  Ta  Ta107  1  0.60974221  0.20388240  0.00427908  1
  Ta  Ta108  1  0.10492092  0.10970689  0.35717133  1
  Ta  Ta109  1  0.60912257  0.19223521  0.23492836  1
  Ta  Ta110  1  0.19994952  0.00433822  0.25532824  1
  Ta  Ta111  1  0.60333311  0.00067869  0.00925060  1
  Ta  Ta112  1  0.89408255  0.89774860  0.88359999  1
  Ta  Ta113  1  0.19487458  0.39656688  0.74071614  1
  Ta  Ta114  1  0.00307337  0.41207473  0.26013797  1
  Ta  Ta115  1  0.58823332  0.19489770  0.51942205  1
  Ta  Ta116  1  0.41998156  0.19377165  0.76675155  1
  Ta  Ta117  1  0.50425523  0.69633252  0.10651884  1
  Ta  Ta118  1  0.49787291  0.11489094  0.36300543  1
  Ta  Ta119  1  0.60059464  0.39664570  0.75709101  1
  Ti  Ti120  1  0.79850491  0.19570999  0.01614432  1
  Ti  Ti121  1  0.20407290  0.00361422  0.47326112  1
  Ti  Ti122  1  0.60194610  0.59129671  -0.00237416  1
  Ti  Ti123  1  0.09894318  0.69897620  0.87364643  1
  Ti  Ti124  1  -0.00371658  0.00539972  0.23909313  1
  Ti  Ti125  1  0.59760838  0.57832554  0.23554327  1
  Ti  Ti126  1  0.60425383  -0.00276440  0.25282401  1
  Ti  Ti127  1  0.09440201  0.90842119  0.35961624  1
  Ti  Ti128  1  0.20383012  0.59639037  0.24490545  1
  Ti  Ti129  1  0.69230781  0.90010647  0.62509253  1
  Ti  Ti130  1  0.09963119  0.50011058  0.39172052  1
  Ti  Ti131  1  0.40943762  0.40219251  -0.00913579  1
  Ti  Ti132  1  0.79696036  0.18694473  0.23159115  1
  Ti  Ti133  1  0.00416315  0.20631271  0.75876568  1
  Ti  Ti134  1  0.19738253  0.60525969  0.00334458  1
  Ti  Ti135  1  0.90009226  0.89296609  0.63375405  1
  Ti  Ti136  1  0.89096352  0.10308119  0.87549475  1
  Ti  Ti137  1  0.80278630  0.39797285  0.74212254  1
  Ti  Ti138  1  0.19448003  -0.00678101  0.77514624  1
  Ti  Ti139  1  0.69583203  0.10265261  0.37021655  1
  Ti  Ti140  1  0.00254342  0.19675608  0.23785602  1
  Ti  Ti141  1  0.41076840  0.80706764  0.47735450  1
  Ti  Ti142  1  0.89000803  0.70724919  0.86189649  1
  Ti  Ti143  1  0.69442532  0.49810859  0.62691127  1
  Ti  Ti144  1  0.59650996  0.59884129  0.74767999  1
  Ti  Ti145  1  0.19502564  0.20234511  0.76159956  1
  Ti  Ti146  1  0.19595276  0.38108781  0.50993292  1
  Ti  Ti147  1  0.79273338  0.59671119  0.00538794  1
  Ti  Ti148  1  0.20143687  0.60371617  0.51111468  1
  Ti  Ti149  1  0.78215716  0.60559795  0.24642029  1
  Ti  Ti150  1  0.70278157  0.29615522  0.86645721  1
  Ti  Ti151  1  0.19872731  0.80225416  0.76295873  1
  Ti  Ti152  1  0.89011398  0.50454177  0.87823603  1
  Ti  Ti153  1  0.69335528  0.69212207  0.12005276  1
  Ti  Ti154  1  0.40539113  0.79741259  -0.01771999  1
  Ti  Ti155  1  0.50002717  0.91283577  0.88294566  1
  Ti  Ti156  1  0.70075120  0.49943613  0.86822991  1
  Ti  Ti157  1  0.80125275  0.00503495  0.02137469  1
  Ti  Ti158  1  0.88877490  0.29255172  0.86814679  1
  Ti  Ti159  1  0.58688997  0.01295172  0.74531801  1
  Mo  Mo160  1  0.50215211  0.69258951  0.37593053  1
  Mo  Mo161  1  0.19805491  0.20470828  0.00255376  1
  Mo  Mo162  1  0.19793659  0.00061175  -0.00424686  1
  Mo  Mo163  1  0.89119734  0.69684989  0.13910933  1
  Mo  Mo164  1  0.79222626  0.79058806  0.23044294  1
  Mo  Mo165  1  0.09952587  0.29595680  0.86614083  1
  Mo  Mo166  1  0.10121767  0.90308301  0.88443586  1
  Mo  Mo167  1  0.51319617  0.09722961  0.88980858  1
  Mo  Mo168  1  0.20166230  0.19858385  0.23124100  1
  Mo  Mo169  1  0.90460923  0.10349224  0.13195973  1
  Mo  Mo170  1  0.90043752  0.49775799  0.61332079  1
  Mo  Mo171  1  0.69287163  0.09690810  0.63211398  1
  Mo  Mo172  1  0.00008107  0.40377872  0.48430094  1
  Mo  Mo173  1  0.29733062  0.90041043  0.37852541  1
  Mo  Mo174  1  0.19866187  0.40256715  0.00542577  1
  Mo  Mo175  1  0.41003983  -0.00497996  0.76941009  1
  Mo  Mo176  1  0.40531481  0.61040715  0.52432079  1
  Mo  Mo177  1  0.89493143  0.90003826  0.37980467  1
  Mo  Mo178  1  0.49793156  0.09842359  0.62575093  1
  Mo  Mo179  1  0.90037460  0.30061285  0.63986810  1
  Mo  Mo180  1  0.40852933  0.79543857  0.26600409  1
  Mo  Mo181  1  0.79985725  0.80429904  0.73736209  1
  Mo  Mo182  1  0.50237747  0.50041851  0.09963042  1
  Mo  Mo183  1  0.89514981  0.70892382  0.63469989  1
  Mo  Mo184  1  0.50209975  0.29680138  0.64765847  1
  Mo  Mo185  1  0.69000817  0.50188682  0.11039103  1
  Mo  Mo186  1  0.50326503  0.89887058  0.37066896  1
  Mo  Mo187  1  0.10434289  0.29688625  0.63861138  1
  Mo  Mo188  1  0.69998081  0.09746946  0.12034107  1
  Mo  Mo189  1  0.50796108  0.30099487  0.87050585  1
  Mo  Mo190  1  -0.00187987  0.79721117  -0.01141556  1
  Mo  Mo191  1  0.41326931  0.18932106  0.50857595  1
  Mo  Mo192  1  0.50123429  0.70423394  0.64842577  1
  Mo  Mo193  1  0.40600609  0.20123667  0.23056369  1
  Mo  Mo194  1  0.90076500  0.90039206  0.10890034  1
  Mo  Mo195  1  0.29909447  0.10518709  0.35684025  1
  Mo  Mo196  1  0.60215346  0.60095668  0.52382384  1
  Mo  Mo197  1  0.69396689  0.68010026  0.37355895  1
  Mo  Mo198  1  0.40743186  -0.00244438  -0.01052595  1
  Mo  Mo199  1  0.60308186  0.40857124  0.25522483  1
