# generated using pymatgen
data_HfZrTaTiMo
_symmetry_space_group_name_H-M   'P 1'
_cell_length_a   15.92114139
_cell_length_b   15.94064522
_cell_length_c   15.21436884
_cell_angle_alpha   90.01635979
_cell_angle_beta   89.96359804
_cell_angle_gamma   89.96398456
_symmetry_Int_Tables_number   1
_chemical_formula_structural   HfZrTaTiMo
_chemical_formula_sum   'Hf40 Zr40 Ta40 Ti40 Mo40'
_cell_volume   3861.30266407
_cell_formula_units_Z   40
loop_
 _symmetry_equiv_pos_site_id
 _symmetry_equiv_pos_as_xyz
  1  'x, y, z'
loop_
 _atom_site_type_symbol
 _atom_site_label
 _atom_site_symmetry_multiplicity
 _atom_site_fract_x
 _atom_site_fract_y
 _atom_site_fract_z
 _atom_site_occupancy
  Hf  Hf0  1  0.19930955  0.79574019  0.75472336  1
  Hf  Hf1  1  0.39829220  0.19594205  0.24871943  1
  Hf  Hf2  1  0.50126598  0.90163172  0.60807553  1
  Hf  Hf3  1  0.21128524  -0.00090848  0.23733474  1
  Hf  Hf4  1  0.88887233  0.49489656  0.39332880  1
  Hf  Hf5  1  0.09461218  0.50559303  0.63413840  1
  Hf  Hf6  1  0.90711388  0.70763015  0.62234501  1
  Hf  Hf7  1  0.38571426  0.59223680  0.25617089  1
  Hf  Hf8  1  0.80371222  0.00326369  0.73779377  1
  Hf  Hf9  1  0.69856095  0.29123541  0.61736861  1
  Hf  Hf10  1  0.70062673  0.10114142  0.87403907  1
  Hf  Hf11  1  0.40743239  0.20424205  0.75939889  1
  Hf  Hf12  1  0.69363189  0.50481542  0.87361959  1
  Hf  Hf13  1  -0.00690924  0.39299383  0.25896479  1
  Hf  Hf14  1  0.30536237  0.69551110  0.87893204  1
  Hf  Hf15  1  0.59457148  0.40010046  0.24288112  1
  Hf  Hf16  1  0.21370846  0.78842198  0.49310166  1
  Hf  Hf17  1  0.09848923  0.89612998  0.62404313  1
  Hf  Hf18  1  0.30418592  0.09426702  0.88118234  1
  Hf  Hf19  1  0.48804701  0.09991147  0.11411645  1
  Hf  Hf20  1  0.37448372  0.60809471  0.49854854  1
  Hf  Hf21  1  0.39607854  0.39523778  0.75642293  1
  Hf  Hf22  1  0.39208016  0.19238032  0.50198018  1
  Hf  Hf23  1  0.20101039  0.20441555  0.75427855  1
  Hf  Hf24  1  0.90075613  0.10290666  0.87274323  1
  Hf  Hf25  1  0.50472858  0.29971639  0.39580641  1
  Hf  Hf26  1  0.49193860  0.49889121  0.61784240  1
  Hf  Hf27  1  0.91200075  0.90507882  0.10643995  1
  Hf  Hf28  1  0.20886848  0.40501899  0.50849528  1
  Hf  Hf29  1  0.69667195  0.50202378  0.62472028  1
  Hf  Hf30  1  0.81062240  0.38967767  -0.01562969  1
  Hf  Hf31  1  0.80695612  0.80469912  0.75529767  1
  Hf  Hf32  1  0.00616329  0.80291010  0.48406408  1
  Hf  Hf33  1  0.31211301  0.89385551  0.62024400  1
  Hf  Hf34  1  0.49150893  0.70440205  0.14920697  1
  Hf  Hf35  1  -0.00811955  0.59851851  0.25681409  1
  Hf  Hf36  1  0.69473722  0.48661222  0.40140295  1
  Hf  Hf37  1  -0.00371366  0.80983143  0.25093473  1
  Hf  Hf38  1  0.01028414  0.38667490  0.50890364  1
  Hf  Hf39  1  0.79550947  0.60366013  -0.00350138  1
  Zr  Zr40  1  0.48702268  0.48929744  0.39766259  1
  Zr  Zr41  1  0.69175597  0.29276096  0.10264118  1
  Zr  Zr42  1  0.51005531  0.09628707  0.62230418  1
  Zr  Zr43  1  0.10681242  0.49880830  0.36882500  1
  Zr  Zr44  1  0.62455723  0.00530860  0.49529252  1
  Zr  Zr45  1  0.70330503  0.29094450  0.39948229  1
  Zr  Zr46  1  0.88798308  0.28303914  0.39736932  1
  Zr  Zr47  1  0.30511150  0.09059905  0.63347505  1
  Zr  Zr48  1  0.69805374  0.90218003  0.87194531  1
  Zr  Zr49  1  0.90773153  0.49630274  0.11027195  1
  Zr  Zr50  1  0.59477035  0.39308202  0.75601286  1
  Zr  Zr51  1  0.19932066  0.00306514  0.49782110  1
  Zr  Zr52  1  0.89960815  0.50428726  0.62479392  1
  Zr  Zr53  1  0.58672458  0.61425922  0.01135021  1
  Zr  Zr54  1  0.59559678  0.61977300  0.49884655  1
  Zr  Zr55  1  0.50003663  0.90494676  0.14380040  1
  Zr  Zr56  1  0.71756554  0.90301937  0.36141117  1
  Zr  Zr57  1  0.79730672  0.38851842  0.23900714  1
  Zr  Zr58  1  0.30504958  0.89616181  0.88609509  1
  Zr  Zr59  1  0.60080747  0.79943517  0.26689414  1
  Zr  Zr60  1  0.19731178  0.60245632  0.50408404  1
  Zr  Zr61  1  0.78966146  0.59493677  0.24601004  1
  Zr  Zr62  1  0.29732342  0.49530969  0.11541533  1
  Zr  Zr63  1  0.09422944  0.31205227  0.12506435  1
  Zr  Zr64  1  -0.01094557  0.21320836  0.00075606  1
  Zr  Zr65  1  0.19856932  0.19927791  -0.00139211  1
  Zr  Zr66  1  0.30001156  0.30266923  0.37774168  1
  Zr  Zr67  1  0.59416729  0.59103451  0.25410215  1
  Zr  Zr68  1  0.60436435  -0.00987179  0.01147127  1
  Zr  Zr69  1  0.30838487  0.29505457  0.11480318  1
  Zr  Zr70  1  0.29700633  0.50776672  0.87457110  1
  Zr  Zr71  1  0.60269915  0.19946621  0.24738538  1
  Zr  Zr72  1  -0.01179878  0.19416530  0.24353694  1
  Zr  Zr73  1  0.10720586  0.90655735  0.36581696  1
  Zr  Zr74  1  0.49574683  0.51726597  0.87483108  1
  Zr  Zr75  1  0.19184312  0.39983286  -0.02061654  1
  Zr  Zr76  1  0.41856030  0.79416957  0.00211820  1
  Zr  Zr77  1  0.79785409  0.60979876  0.75487590  1
  Zr  Zr78  1  0.89955073  0.70565097  0.11543793  1
  Zr  Zr79  1  0.09475011  0.09289891  0.63874906  1
  Ta  Ta80  1  0.79841128  0.61433133  0.50321028  1
  Ta  Ta81  1  0.72230079  0.10101942  0.36592607  1
  Ta  Ta82  1  0.00180270  0.61106640  0.48665703  1
  Ta  Ta83  1  0.00380522  0.60972164  0.76700859  1
  Ta  Ta84  1  0.40645694  0.39833170  0.24115363  1
  Ta  Ta85  1  0.20677358  0.40084742  0.25022496  1
  Ta  Ta86  1  0.09108609  0.08999264  0.11506249  1
  Ta  Ta87  1  0.80522268  0.15780910  0.52721540  1
  Ta  Ta88  1  -0.00061171  -0.01434032  0.76831529  1
  Ta  Ta89  1  0.50399863  0.09639617  0.37970789  1
  Ta  Ta90  1  0.40936783  0.79569004  0.75439656  1
  Ta  Ta91  1  0.90877888  0.90283322  0.61894495  1
  Ta  Ta92  1  0.20354097  -0.00205179  0.00875746  1
  Ta  Ta93  1  0.19773829  0.19327908  0.23803647  1
  Ta  Ta94  1  0.20531381  0.79605142  0.01763582  1
  Ta  Ta95  1  0.29750926  0.09665942  0.37361397  1
  Ta  Ta96  1  0.11013309  0.70138273  0.34904751  1
  Ta  Ta97  1  0.68368734  0.71018110  0.87744871  1
  Ta  Ta98  1  0.19627602  0.39838029  0.74939814  1
  Ta  Ta99  1  0.90450793  0.70843909  0.89198152  1
  Ta  Ta100  1  0.80307397  0.39242808  0.75432361  1
  Ta  Ta101  1  0.89694353  0.29188882  0.62925161  1
  Ta  Ta102  1  0.09555713  0.70088661  0.12582229  1
  Ta  Ta103  1  0.50671733  0.09170504  0.88131354  1
  Ta  Ta104  1  0.00192067  0.19184257  0.51029513  1
  Ta  Ta105  1  0.89164844  0.70940948  0.37372883  1
  Ta  Ta106  1  0.50192230  0.29647293  0.61031599  1
  Ta  Ta107  1  0.19865532  -0.00896360  0.76304095  1
  Ta  Ta108  1  0.68827625  0.49195326  0.10361651  1
  Ta  Ta109  1  0.19288935  0.60417545  0.00944265  1
  Ta  Ta110  1  0.30144851  0.30184458  0.62579269  1
  Ta  Ta111  1  0.59890662  0.19836650  0.75987502  1
  Ta  Ta112  1  -0.00065938  0.39823430  0.75454359  1
  Ta  Ta113  1  0.41317363  -0.01065291  0.76291905  1
  Ta  Ta114  1  0.09926882  0.10751388  0.37155872  1
  Ta  Ta115  1  0.18870182  0.20547485  0.51016596  1
  Ta  Ta116  1  0.09507573  0.70197842  0.63206084  1
  Ta  Ta117  1  0.71254668  0.89601348  0.13630394  1
  Ta  Ta118  1  0.09858550  0.09344568  0.87858035  1
  Ta  Ta119  1  0.00166561  0.80246251  0.76921262  1
  Ti  Ti120  1  0.71094088  0.70437121  0.37220288  1
  Ti  Ti121  1  0.69824045  0.90091668  0.62821188  1
  Ti  Ti122  1  0.10000669  0.89888851  0.11752153  1
  Ti  Ti123  1  0.70207905  0.09645454  0.12125740  1
  Ti  Ti124  1  0.90412790  0.50637327  0.87018904  1
  Ti  Ti125  1  0.37857730  0.81008342  0.26258411  1
  Ti  Ti126  1  0.20045130  0.60260298  0.74614814  1
  Ti  Ti127  1  0.79241210  0.80578830  -0.00419852  1
  Ti  Ti128  1  0.31487464  0.90848471  0.11886568  1
  Ti  Ti129  1  -0.00200697  0.00894295  0.24912654  1
  Ti  Ti130  1  0.48484979  0.71582900  0.61030645  1
  Ti  Ti131  1  -0.00420172  0.20067316  0.74514918  1
  Ti  Ti132  1  0.69692252  0.71147638  0.62582789  1
  Ti  Ti133  1  -0.01332749  0.01299492  0.49487934  1
  Ti  Ti134  1  0.60466223  0.00780901  0.25263892  1
  Ti  Ti135  1  0.79771058  0.80758079  0.50471695  1
  Ti  Ti136  1  0.69975244  0.29156004  0.87738623  1
  Ti  Ti137  1  0.40341095  0.20311480  -0.01371156  1
  Ti  Ti138  1  0.58686619  0.62015207  0.74205574  1
  Ti  Ti139  1  0.59355383  0.80346781  0.74144293  1
  Ti  Ti140  1  0.51255263  0.89280367  0.87854754  1
  Ti  Ti141  1  0.50462661  0.30420576  0.10130626  1
  Ti  Ti142  1  0.09133323  0.29668235  0.86429599  1
  Ti  Ti143  1  0.49051328  0.90772811  0.37844524  1
  Ti  Ti144  1  0.40741185  0.39725791  -0.01453107  1
  Ti  Ti145  1  0.81758838  0.01018134  0.23418762  1
  Ti  Ti146  1  0.09985787  0.89606469  0.89564308  1
  Ti  Ti147  1  0.48243271  0.70832781  0.37571021  1
  Ti  Ti148  1  0.00179609  0.40774456  -0.02401442  1
  Ti  Ti149  1  0.80774971  0.19500484  0.23132585  1
  Ti  Ti150  1  0.10465781  0.29182155  0.36992204  1
  Ti  Ti151  1  0.80554341  0.00222326  0.00108020  1
  Ti  Ti152  1  0.89449859  0.91145569  0.37656881  1
  Ti  Ti153  1  0.39668657  0.60481335  0.01719094  1
  Ti  Ti154  1  0.80400614  0.19625737  0.00574895  1
  Ti  Ti155  1  0.39572395  0.61004901  0.73337997  1
  Ti  Ti156  1  0.10196245  0.69828881  0.88970224  1
  Ti  Ti157  1  0.09633429  0.50542522  0.12689687  1
  Ti  Ti158  1  0.60285895  0.80261194  0.48825267  1
  Ti  Ti159  1  0.69919544  0.70956180  0.12892473  1
  Mo  Mo160  1  0.89775610  0.29805848  0.85390617  1
  Mo  Mo161  1  0.50302045  0.70505505  0.86294758  1
  Mo  Mo162  1  0.40008355  0.00285155  0.26548656  1
  Mo  Mo163  1  0.59637614  -0.00506990  0.74943158  1
  Mo  Mo164  1  0.29515691  0.70482547  0.13153750  1
  Mo  Mo165  1  0.09678418  0.50688640  0.86195622  1
  Mo  Mo166  1  0.61050413  0.79834066  0.01490362  1
  Mo  Mo167  1  0.40071565  -0.00209459  0.48281685  1
  Mo  Mo168  1  0.28776215  0.70154085  0.34975043  1
  Mo  Mo169  1  0.29568491  0.50210131  0.64645269  1
  Mo  Mo170  1  0.59952043  0.19494494  -0.01008531  1
  Mo  Mo171  1  0.39891907  0.79787622  0.48128674  1
  Mo  Mo172  1  0.60629060  0.19007813  0.49352875  1
  Mo  Mo173  1  0.00789616  0.59624512  -0.01396405  1
  Mo  Mo174  1  0.59720114  0.40025800  -0.01395884  1
  Mo  Mo175  1  0.80810779  -0.00944088  0.51648458  1
  Mo  Mo176  1  0.90249880  0.89964678  0.88892337  1
  Mo  Mo177  1  0.59880762  0.39736326  0.51841817  1
  Mo  Mo178  1  0.39172986  0.40051467  0.51796146  1
  Mo  Mo179  1  0.09828918  0.29906895  0.63716587  1
  Mo  Mo180  1  0.01021115  0.79857674  -0.00557855  1
  Mo  Mo181  1  0.40381272  -0.00212193  -0.01411057  1
  Mo  Mo182  1  0.30108791  0.09481068  0.11569428  1
  Mo  Mo183  1  0.20265477  0.80392013  0.22940748  1
  Mo  Mo184  1  0.29553582  0.49466089  0.36067861  1
  Mo  Mo185  1  0.89894350  0.09246258  0.37520090  1
  Mo  Mo186  1  0.91124728  0.09445071  0.64535407  1
  Mo  Mo187  1  0.80484459  0.40502994  0.52778037  1
  Mo  Mo188  1  0.89408224  0.30253739  0.12279527  1
  Mo  Mo189  1  0.30552637  0.90188022  0.37777095  1
  Mo  Mo190  1  0.29886167  0.70484719  0.64076361  1
  Mo  Mo191  1  0.80802738  0.80405936  0.24441565  1
  Mo  Mo192  1  0.30201217  0.29922219  0.87364038  1
  Mo  Mo193  1  0.00653969  0.00067192  -0.01297315  1
  Mo  Mo194  1  0.89717147  0.09654836  0.10767831  1
  Mo  Mo195  1  0.19358920  0.59906092  0.22952838  1
  Mo  Mo196  1  0.49477775  0.49069705  0.11339379  1
  Mo  Mo197  1  0.50613598  0.29449954  0.88963424  1
  Mo  Mo198  1  0.79686388  0.20297387  0.74336284  1
  Mo  Mo199  1  0.69708527  0.09840999  0.64816574  1
