# generated using pymatgen
data_HfZrTaTiMo
_symmetry_space_group_name_H-M   'P 1'
_cell_length_a   15.91958225
_cell_length_b   15.92594160
_cell_length_c   15.20302056
_cell_angle_alpha   90.03170522
_cell_angle_beta   90.01671885
_cell_angle_gamma   89.90145270
_symmetry_Int_Tables_number   1
_chemical_formula_structural   HfZrTaTiMo
_chemical_formula_sum   'Hf40 Zr40 Ta40 Ti40 Mo40'
_cell_volume   3854.48128569
_cell_formula_units_Z   40
loop_
 _symmetry_equiv_pos_site_id
 _symmetry_equiv_pos_as_xyz
  1  'x, y, z'
loop_
 _atom_site_type_symbol
 _atom_site_label
 _atom_site_symmetry_multiplicity
 _atom_site_fract_x
 _atom_site_fract_y
 _atom_site_fract_z
 _atom_site_occupancy
  Hf  Hf0  1  0.80589597  0.59148882  0.48856000  1
  Hf  Hf1  1  0.10167026  0.70235205  0.87269601  1
  Hf  Hf2  1  0.40798182  0.20812200  -0.01671874  1
  Hf  Hf3  1  0.89573237  0.09899958  0.38190814  1
  Hf  Hf4  1  -0.00322274  0.40669617  0.74959067  1
  Hf  Hf5  1  0.91184275  0.49363676  0.13860531  1
  Hf  Hf6  1  0.70364309  0.69872624  0.88187308  1
  Hf  Hf7  1  0.48303121  0.49807538  0.10330262  1
  Hf  Hf8  1  0.58819642  0.00464699  0.24814502  1
  Hf  Hf9  1  0.70227863  0.70378836  0.36825550  1
  Hf  Hf10  1  0.90930172  0.88263464  0.60878890  1
  Hf  Hf11  1  0.88742425  0.11803655  0.13628274  1
  Hf  Hf12  1  -0.01044925  -0.00907728  0.24956680  1
  Hf  Hf13  1  0.00095597  0.00367093  0.00380666  1
  Hf  Hf14  1  0.10525815  0.89328243  0.37647315  1
  Hf  Hf15  1  0.91011156  0.69792578  0.62235753  1
  Hf  Hf16  1  0.89924749  0.29896477  0.61925774  1
  Hf  Hf17  1  -0.00044138  0.21389280  0.26794717  1
  Hf  Hf18  1  0.30571682  0.51633473  0.85970915  1
  Hf  Hf19  1  0.89615871  0.50411927  0.87506014  1
  Hf  Hf20  1  0.80618651  0.80212001  0.75573246  1
  Hf  Hf21  1  0.89558611  0.29219201  0.86633498  1
  Hf  Hf22  1  0.49784884  0.69712644  0.11861070  1
  Hf  Hf23  1  0.48987966  0.49478176  0.63468120  1
  Hf  Hf24  1  0.00229115  0.59683069  0.00415483  1
  Hf  Hf25  1  0.60638413  0.81109599  0.49862273  1
  Hf  Hf26  1  0.29597468  0.89540431  0.88340962  1
  Hf  Hf27  1  0.70319778  0.28314007  0.13830688  1
  Hf  Hf28  1  0.00454596  0.60096060  0.48609464  1
  Hf  Hf29  1  0.10810941  0.69604366  0.36148009  1
  Hf  Hf30  1  0.90345379  0.89236665  0.88443977  1
  Hf  Hf31  1  0.19661530  0.21073665  -0.01545585  1
  Hf  Hf32  1  0.40665565  0.19744820  0.74947012  1
  Hf  Hf33  1  0.60091939  0.40129183  0.49492952  1
  Hf  Hf34  1  0.90265762  0.08962311  0.61790147  1
  Hf  Hf35  1  0.10778826  0.90195499  0.12104791  1
  Hf  Hf36  1  0.39843384  0.81297543  0.23311388  1
  Hf  Hf37  1  0.30468870  0.89692372  0.39293035  1
  Hf  Hf38  1  0.60009600  0.60184499  0.74468786  1
  Hf  Hf39  1  0.48673013  0.69546674  0.88781673  1
  Zr  Zr40  1  0.80739126  0.80753784  0.25330877  1
  Zr  Zr41  1  0.28821323  0.90872910  0.61994900  1
  Zr  Zr42  1  0.80100673  0.59383949  0.74540433  1
  Zr  Zr43  1  0.40759000  -0.00648715  0.01407631  1
  Zr  Zr44  1  0.29633435  0.10859836  0.11408851  1
  Zr  Zr45  1  0.59126034  0.59805781  0.50153616  1
  Zr  Zr46  1  0.21376350  -0.00316849  0.25113249  1
  Zr  Zr47  1  0.89693065  0.09963477  0.86791007  1
  Zr  Zr48  1  0.70996656  0.48688397  0.36471842  1
  Zr  Zr49  1  0.00946563  0.19576347  0.49744293  1
  Zr  Zr50  1  0.40311829  0.41395132  0.26812278  1
  Zr  Zr51  1  0.30544334  0.30186257  0.38734950  1
  Zr  Zr52  1  0.49846643  0.29347340  0.61553754  1
  Zr  Zr53  1  0.78721571  -0.01956981  0.49045669  1
  Zr  Zr54  1  0.59785649  0.80626220  0.00869463  1
  Zr  Zr55  1  0.39533945  0.80231461  0.73974949  1
  Zr  Zr56  1  0.00930001  -0.02640662  0.75049730  1
  Zr  Zr57  1  0.09933151  0.11043657  0.12967896  1
  Zr  Zr58  1  0.40147357  0.00703942  0.24424953  1
  Zr  Zr59  1  0.29900029  0.69705646  0.38692270  1
  Zr  Zr60  1  0.58808027  0.80347114  0.74070595  1
  Zr  Zr61  1  0.71013439  0.70542354  0.61447304  1
  Zr  Zr62  1  0.10446780  0.29695270  0.63337241  1
  Zr  Zr63  1  0.69661486  0.29387496  0.86910270  1
  Zr  Zr64  1  0.10371403  0.31046599  0.13536612  1
  Zr  Zr65  1  0.30442675  0.31087585  0.12697401  1
  Zr  Zr66  1  0.30243807  0.09557332  0.86958172  1
  Zr  Zr67  1  0.19946904  0.20123635  0.49728867  1
  Zr  Zr68  1  0.20020692  0.58719416  0.00991141  1
  Zr  Zr69  1  0.79433312  0.00386648  0.01383823  1
  Zr  Zr70  1  0.79086235  0.00117204  0.25495560  1
  Zr  Zr71  1  0.19186322  0.41999406  0.74791461  1
  Zr  Zr72  1  0.58596461  0.58890269  0.25335595  1
  Zr  Zr73  1  0.79680796  0.39936288  0.00210750  1
  Zr  Zr74  1  0.69424751  0.90754243  0.87539595  1
  Zr  Zr75  1  0.89227677  0.31524572  0.39369934  1
  Zr  Zr76  1  0.01779521  0.39814397  -0.01526459  1
  Zr  Zr77  1  0.48956138  0.70508096  0.37558292  1
  Zr  Zr78  1  0.69551681  0.48962229  0.13527304  1
  Zr  Zr79  1  0.50421745  0.30388136  0.12009116  1
  Ta  Ta80  1  0.59261802  0.19997252  0.27029032  1
  Ta  Ta81  1  0.79606520  -0.00047622  0.73781751  1
  Ta  Ta82  1  0.49476402  0.91143656  0.39448545  1
  Ta  Ta83  1  0.30106084  0.10808034  0.62742157  1
  Ta  Ta84  1  0.18259012  0.80797805  0.74569930  1
  Ta  Ta85  1  0.10475029  0.09553674  0.36706099  1
  Ta  Ta86  1  0.10234817  0.09796930  0.86554358  1
  Ta  Ta87  1  0.90391567  0.69380951  0.13681532  1
  Ta  Ta88  1  0.10922852  0.08921338  0.63794822  1
  Ta  Ta89  1  0.90344823  0.49600897  0.61540856  1
  Ta  Ta90  1  0.59554530  0.00244984  0.73132305  1
  Ta  Ta91  1  0.69716387  0.09821884  0.85997372  1
  Ta  Ta92  1  0.30543325  0.31019716  0.62937353  1
  Ta  Ta93  1  -0.00047421  0.79988571  0.24813768  1
  Ta  Ta94  1  0.49944776  0.49917138  0.86996088  1
  Ta  Ta95  1  0.69566565  0.89918889  0.13250016  1
  Ta  Ta96  1  0.29513818  0.70321565  0.87565744  1
  Ta  Ta97  1  0.78974810  0.19782768  0.50447080  1
  Ta  Ta98  1  0.10014404  0.69445730  0.13653331  1
  Ta  Ta99  1  0.60293137  0.01132173  0.01684632  1
  Ta  Ta100  1  0.39658565  0.41435969  0.49365235  1
  Ta  Ta101  1  0.19767286  0.41183172  0.50349518  1
  Ta  Ta102  1  0.80472586  0.79493292  0.01732294  1
  Ta  Ta103  1  0.79238933  0.40011919  0.73614435  1
  Ta  Ta104  1  0.21438868  0.59172359  0.23903070  1
  Ta  Ta105  1  0.49574893  0.10450725  0.40564773  1
  Ta  Ta106  1  -0.00035947  0.79510431  0.01357916  1
  Ta  Ta107  1  0.21090124  0.79532068  0.23375229  1
  Ta  Ta108  1  0.51339376  0.09318898  0.87123811  1
  Ta  Ta109  1  0.40393622  0.79528729  0.52315819  1
  Ta  Ta110  1  0.90372891  0.29971716  0.12466941  1
  Ta  Ta111  1  0.10591943  0.49956846  0.36679788  1
  Ta  Ta112  1  0.60639377  0.59225236  -0.00069110  1
  Ta  Ta113  1  0.79242533  0.19394326  0.73003599  1
  Ta  Ta114  1  0.40743400  0.20098067  0.26526253  1
  Ta  Ta115  1  0.41082400  -0.00198634  0.73832802  1
  Ta  Ta116  1  0.60434003  0.40158803  0.74590849  1
  Ta  Ta117  1  0.68878800  0.09983333  0.38481401  1
  Ta  Ta118  1  0.20846652  0.20247086  0.26742424  1
  Ta  Ta119  1  0.79979355  0.60338865  0.01383248  1
  Ti  Ti120  1  0.19363206  0.00651572  0.50112800  1
  Ti  Ti121  1  0.69921915  0.69568259  0.13509692  1
  Ti  Ti122  1  0.19068478  0.79475131  0.51397724  1
  Ti  Ti123  1  0.81064353  0.59722849  0.25493176  1
  Ti  Ti124  1  0.39682066  0.61577944  0.73315925  1
  Ti  Ti125  1  0.00934859  -0.00730922  0.49625732  1
  Ti  Ti126  1  0.00009621  0.18982636  0.74374158  1
  Ti  Ti127  1  0.90366393  0.69752457  0.87814150  1
  Ti  Ti128  1  0.19755134  0.59864832  0.51656798  1
  Ti  Ti129  1  0.29850696  0.30650939  0.85056299  1
  Ti  Ti130  1  0.60155424  0.19540762  0.74081902  1
  Ti  Ti131  1  0.20003853  0.79687827  0.00881774  1
  Ti  Ti132  1  0.69837702  0.49946086  0.87575091  1
  Ti  Ti133  1  0.01562792  0.59439457  0.74642073  1
  Ti  Ti134  1  0.50335522  0.30703105  0.86113312  1
  Ti  Ti135  1  0.01022290  0.40743996  0.49406663  1
  Ti  Ti136  1  0.39002702  0.59452197  0.24888164  1
  Ti  Ti137  1  0.58666661  0.39113252  0.26829862  1
  Ti  Ti138  1  0.79297522  0.19521807  -0.00294022  1
  Ti  Ti139  1  0.81136247  0.38748726  0.24926242  1
  Ti  Ti140  1  0.60646490  0.19571675  -0.00526304  1
  Ti  Ti141  1  0.10174525  0.29235491  0.85486136  1
  Ti  Ti142  1  0.68929073  0.09870430  0.61251538  1
  Ti  Ti143  1  0.20127838  0.40368774  -0.01650465  1
  Ti  Ti144  1  0.29885558  0.50763902  0.62855913  1
  Ti  Ti145  1  0.49847656  0.90461079  0.88088472  1
  Ti  Ti146  1  0.10276319  0.49482641  0.14602695  1
  Ti  Ti147  1  0.69757516  0.29968339  0.61836312  1
  Ti  Ti148  1  0.50527267  0.11611159  0.12269118  1
  Ti  Ti149  1  0.70040061  0.29301995  0.37891602  1
  Ti  Ti150  1  0.20909007  0.40417571  0.26489778  1
  Ti  Ti151  1  0.30795637  0.69323141  0.10838881  1
  Ti  Ti152  1  0.59425451  0.81040741  0.25301637  1
  Ti  Ti153  1  0.38929957  0.40119172  -0.02149657  1
  Ti  Ti154  1  0.19947652  -0.00500587  0.75650460  1
  Ti  Ti155  1  0.00020678  0.20331655  -0.00479699  1
  Ti  Ti156  1  0.30933088  0.09599890  0.39249392  1
  Ti  Ti157  1  0.59950046  0.39720572  -0.01076174  1
  Ti  Ti158  1  0.09316994  0.70864776  0.62883211  1
  Ti  Ti159  1  0.70201243  0.89990874  0.62868593  1
  Mo  Mo160  1  0.79617352  0.40056041  0.51566562  1
  Mo  Mo161  1  0.50002181  0.90464895  0.61205973  1
  Mo  Mo162  1  0.29709275  0.49317423  0.11638353  1
  Mo  Mo163  1  0.60322024  0.20071007  0.49582846  1
  Mo  Mo164  1  0.90488648  0.89165434  0.38929514  1
  Mo  Mo165  1  0.00608794  0.59852464  0.25494338  1
  Mo  Mo166  1  0.00433028  0.40094104  0.26523638  1
  Mo  Mo167  1  0.50431265  0.89971211  0.12031220  1
  Mo  Mo168  1  0.00250383  0.79292992  0.47862275  1
  Mo  Mo169  1  0.09750738  0.89638623  0.60767098  1
  Mo  Mo170  1  0.39103670  0.60159735  0.51903490  1
  Mo  Mo171  1  0.39890782  0.59670796  -0.00670711  1
  Mo  Mo172  1  0.39232686  0.79695409  0.00494863  1
  Mo  Mo173  1  0.20166264  0.19867231  0.75122504  1
  Mo  Mo174  1  0.10104136  0.50877500  0.86634026  1
  Mo  Mo175  1  0.80587126  0.79353639  0.47767643  1
  Mo  Mo176  1  0.69004623  0.10937319  0.13689438  1
  Mo  Mo177  1  0.00173954  0.79089620  0.76117336  1
  Mo  Mo178  1  0.19396349  0.00135287  -0.01316586  1
  Mo  Mo179  1  0.28847266  0.70179814  0.62595642  1
  Mo  Mo180  1  0.09426803  0.50860425  0.61369460  1
  Mo  Mo181  1  0.39652087  0.00368576  0.51597069  1
  Mo  Mo182  1  0.68638475  0.90145565  0.35930012  1
  Mo  Mo183  1  0.79359971  0.20417207  0.27302339  1
  Mo  Mo184  1  0.10619207  0.89671247  0.89540309  1
  Mo  Mo185  1  0.20049683  0.61538381  0.73463098  1
  Mo  Mo186  1  0.49678270  0.69757128  0.61909045  1
  Mo  Mo187  1  0.40099322  0.40068532  0.75499365  1
  Mo  Mo188  1  0.39680247  0.20267116  0.50899799  1
  Mo  Mo189  1  0.90697541  0.49759405  0.36720483  1
  Mo  Mo190  1  0.59691410  0.00035971  0.51181828  1
  Mo  Mo191  1  0.49194440  0.50463308  0.38555465  1
  Mo  Mo192  1  0.29770102  0.89288738  0.10644682  1
  Mo  Mo193  1  0.29290709  0.51138278  0.39060281  1
  Mo  Mo194  1  0.50030105  0.09942323  0.62084204  1
  Mo  Mo195  1  0.70034622  0.49184324  0.62427056  1
  Mo  Mo196  1  0.10665037  0.30792904  0.37242448  1
  Mo  Mo197  1  0.90564100  0.69652712  0.35779395  1
  Mo  Mo198  1  0.50110129  0.29810333  0.38817899  1
  Mo  Mo199  1  0.90060553  0.89597548  0.11447339  1
