# generated using pymatgen
data_HfZrTaTiMo
_symmetry_space_group_name_H-M   'P 1'
_cell_length_a   15.93781953
_cell_length_b   15.92755405
_cell_length_c   15.21067004
_cell_angle_alpha   89.94844745
_cell_angle_beta   90.01423925
_cell_angle_gamma   90.07824496
_symmetry_Int_Tables_number   1
_chemical_formula_structural   HfZrTaTiMo
_chemical_formula_sum   'Hf40 Zr40 Ta40 Ti40 Mo40'
_cell_volume   3861.23064072
_cell_formula_units_Z   40
loop_
 _symmetry_equiv_pos_site_id
 _symmetry_equiv_pos_as_xyz
  1  'x, y, z'
loop_
 _atom_site_type_symbol
 _atom_site_label
 _atom_site_symmetry_multiplicity
 _atom_site_fract_x
 _atom_site_fract_y
 _atom_site_fract_z
 _atom_site_occupancy
  Hf  Hf0  1  0.39323228  0.60259933  0.52413325  1
  Hf  Hf1  1  0.29425326  0.89821009  0.09808765  1
  Hf  Hf2  1  -0.00501621  0.60118516  0.74283615  1
  Hf  Hf3  1  0.80087516  0.59233384  0.74393706  1
  Hf  Hf4  1  0.70116493  0.69894655  0.61248590  1
  Hf  Hf5  1  0.59491550  0.59389813  0.25363651  1
  Hf  Hf6  1  0.48739832  0.89987338  0.11096296  1
  Hf  Hf7  1  0.38769861  0.00228548  0.74359493  1
  Hf  Hf8  1  0.48481199  0.69567090  0.38293581  1
  Hf  Hf9  1  0.88967447  0.70036891  0.88014318  1
  Hf  Hf10  1  0.89452769  0.90237167  0.14456489  1
  Hf  Hf11  1  0.69679950  0.48412934  0.61035659  1
  Hf  Hf12  1  0.50180819  0.70386980  0.64528133  1
  Hf  Hf13  1  0.30046867  0.28813649  0.87973910  1
  Hf  Hf14  1  0.18984676  0.59040119  0.74389020  1
  Hf  Hf15  1  0.89112737  0.30575737  0.37532551  1
  Hf  Hf16  1  0.49782073  0.29683223  0.39014786  1
  Hf  Hf17  1  0.81475437  0.40130879  0.00696376  1
  Hf  Hf18  1  0.89700067  0.10584503  0.86630967  1
  Hf  Hf19  1  0.20076423  -0.00235481  0.50948924  1
  Hf  Hf20  1  -0.01271564  0.59557785  0.00883117  1
  Hf  Hf21  1  0.01013140  0.60850034  0.49040664  1
  Hf  Hf22  1  0.80035581  0.80282111  0.73886306  1
  Hf  Hf23  1  0.20518816  0.39910750  0.52277638  1
  Hf  Hf24  1  0.41105619  0.39308397  0.24037843  1
  Hf  Hf25  1  0.10041670  0.70493894  0.87902210  1
  Hf  Hf26  1  0.89719774  0.90679423  0.87849098  1
  Hf  Hf27  1  0.69511302  0.89535157  0.86983661  1
  Hf  Hf28  1  0.49630676  0.10818072  0.10414396  1
  Hf  Hf29  1  0.89281166  0.50277763  0.59633418  1
  Hf  Hf30  1  0.10472388  0.30320086  0.87747432  1
  Hf  Hf31  1  0.51187830  0.30051375  0.62040795  1
  Hf  Hf32  1  0.00040948  0.80440614  0.74364979  1
  Hf  Hf33  1  0.29650939  0.70620495  0.85981695  1
  Hf  Hf34  1  0.01210251  0.40925472  0.73391668  1
  Hf  Hf35  1  0.09613181  0.09527180  0.62881952  1
  Hf  Hf36  1  0.20632404  0.20134869  0.24691266  1
  Hf  Hf37  1  0.41061120  0.38827635  0.76420391  1
  Hf  Hf38  1  0.88968667  0.30003696  0.61102167  1
  Hf  Hf39  1  0.80301985  0.19890703  0.01971530  1
  Zr  Zr40  1  0.49676415  0.90357640  0.38208088  1
  Zr  Zr41  1  0.68437603  0.69039775  0.86045626  1
  Zr  Zr42  1  0.10248711  0.50321730  0.12524142  1
  Zr  Zr43  1  0.52071710  0.50597596  0.86533957  1
  Zr  Zr44  1  0.79707587  0.38823825  0.75307339  1
  Zr  Zr45  1  0.69782266  0.10161180  0.88029419  1
  Zr  Zr46  1  0.31521586  0.50949694  0.11346393  1
  Zr  Zr47  1  0.20544603  0.60417269  0.51515764  1
  Zr  Zr48  1  0.01875970  0.39584830  0.49486785  1
  Zr  Zr49  1  0.29507434  0.89101388  0.37625793  1
  Zr  Zr50  1  0.23382627  0.62142156  0.24743594  1
  Zr  Zr51  1  0.11052944  0.70892575  0.12177100  1
  Zr  Zr52  1  0.00935848  0.80760277  0.49398144  1
  Zr  Zr53  1  0.70275809  0.49743553  0.38742548  1
  Zr  Zr54  1  0.29070603  0.08647317  0.88741554  1
  Zr  Zr55  1  -0.00126626  0.20796102  0.74751583  1
  Zr  Zr56  1  0.78657502  0.00375425  0.48678720  1
  Zr  Zr57  1  0.78811857  0.19904996  0.25415326  1
  Zr  Zr58  1  -0.00007240  0.60747832  0.25655601  1
  Zr  Zr59  1  0.31785244  0.50335400  0.37289088  1
  Zr  Zr60  1  0.89137495  0.10162029  0.62408768  1
  Zr  Zr61  1  -0.00972771  0.80647635  0.00901205  1
  Zr  Zr62  1  0.51379025  0.48681194  0.10251230  1
  Zr  Zr63  1  0.50284742  0.10715186  0.63306775  1
  Zr  Zr64  1  0.59965737  0.78692699  0.00780827  1
  Zr  Zr65  1  0.80221694  -0.00095148  0.01269415  1
  Zr  Zr66  1  0.11087050  0.90934948  0.87847470  1
  Zr  Zr67  1  -0.00582548  0.20266176  0.00844198  1
  Zr  Zr68  1  0.50738280  0.49661421  0.63900346  1
  Zr  Zr69  1  0.19818259  0.20409167  0.49942909  1
  Zr  Zr70  1  0.40911447  0.60380339  -0.02772117  1
  Zr  Zr71  1  0.59440843  0.79694263  0.24767328  1
  Zr  Zr72  1  0.09402228  0.30529198  0.12705958  1
  Zr  Zr73  1  0.38316341  0.78607463  0.24579724  1
  Zr  Zr74  1  0.00403171  0.19740966  0.48530399  1
  Zr  Zr75  1  0.90013072  0.90514574  0.61058519  1
  Zr  Zr76  1  0.30574198  0.09179815  0.11446192  1
  Zr  Zr77  1  0.39008848  0.19071691  0.49533071  1
  Zr  Zr78  1  0.70429187  0.49826518  0.12416065  1
  Zr  Zr79  1  0.11841043  0.50238344  0.36379786  1
  Ta  Ta80  1  0.31032842  0.29081429  0.64440776  1
  Ta  Ta81  1  0.29249077  0.49028870  0.86777053  1
  Ta  Ta82  1  0.61025371  0.21099686  0.75725539  1
  Ta  Ta83  1  0.89571809  0.50253162  0.37613178  1
  Ta  Ta84  1  0.90010510  0.90535185  0.36492435  1
  Ta  Ta85  1  0.21442162  0.39593885  0.23507717  1
  Ta  Ta86  1  0.68899436  0.29848333  0.38635937  1
  Ta  Ta87  1  0.09824481  0.90811634  0.13369539  1
  Ta  Ta88  1  0.78780510  0.18941615  0.48845352  1
  Ta  Ta89  1  0.59913638  0.39012960  0.25668641  1
  Ta  Ta90  1  0.19015034  0.19142750  0.01258685  1
  Ta  Ta91  1  0.50023128  0.09924375  0.87580444  1
  Ta  Ta92  1  0.00021742  0.20003670  0.26122547  1
  Ta  Ta93  1  0.10364764  0.90484240  0.35862429  1
  Ta  Ta94  1  0.40181329  0.19825655  0.25354196  1
  Ta  Ta95  1  0.79773203  0.60807187  0.25457785  1
  Ta  Ta96  1  0.68947899  0.90356651  0.62149139  1
  Ta  Ta97  1  0.31576382  0.29175187  0.10860662  1
  Ta  Ta98  1  0.10364439  0.09286981  0.36155427  1
  Ta  Ta99  1  0.68355309  0.29991837  0.11786844  1
  Ta  Ta100  1  0.20488633  0.39796048  0.00748089  1
  Ta  Ta101  1  0.68910029  0.09548022  0.13174179  1
  Ta  Ta102  1  0.69856736  0.89982076  0.13968354  1
  Ta  Ta103  1  0.49792484  0.89759799  0.86721896  1
  Ta  Ta104  1  0.20437494  0.80170042  0.52092275  1
  Ta  Ta105  1  0.20585981  0.19172423  0.74383500  1
  Ta  Ta106  1  0.69747677  0.70376011  0.38134394  1
  Ta  Ta107  1  0.51317556  0.29176034  0.89184747  1
  Ta  Ta108  1  0.59518638  0.60231517  0.50124493  1
  Ta  Ta109  1  0.79134600  0.00399227  0.74096579  1
  Ta  Ta110  1  0.89873296  0.30936889  0.14451800  1
  Ta  Ta111  1  0.29760486  0.89367107  0.87827156  1
  Ta  Ta112  1  0.79386805  0.60958099  0.01617081  1
  Ta  Ta113  1  0.39486504  -0.00402126  0.51488569  1
  Ta  Ta114  1  0.09838532  0.49446300  0.88802116  1
  Ta  Ta115  1  0.00500095  0.01365865  0.01499254  1
  Ta  Ta116  1  0.00112730  0.80144859  0.25592779  1
  Ta  Ta117  1  0.70497314  0.49939401  0.88672860  1
  Ta  Ta118  1  0.12516294  0.71878761  0.36752051  1
  Ta  Ta119  1  0.49263301  0.68656352  0.12118537  1
  Ti  Ti120  1  0.00099617  0.00362817  0.48433341  1
  Ti  Ti121  1  0.89664792  0.70146590  0.60652326  1
  Ti  Ti122  1  0.90390388  0.49597906  0.14377288  1
  Ti  Ti123  1  0.60164221  0.00227020  0.74578595  1
  Ti  Ti124  1  0.30141630  0.09057317  0.36901525  1
  Ti  Ti125  1  0.50235616  0.70619294  0.84994754  1
  Ti  Ti126  1  0.40486513  0.39438320  -0.01015555  1
  Ti  Ti127  1  0.29856897  0.30718803  0.37203205  1
  Ti  Ti128  1  0.79193784  0.00443975  0.26180620  1
  Ti  Ti129  1  0.90428826  0.09898844  0.14947440  1
  Ti  Ti130  1  0.67797788  0.10142544  0.36488891  1
  Ti  Ti131  1  0.69601406  0.29104584  0.60704942  1
  Ti  Ti132  1  0.69257208  0.89851508  0.36875540  1
  Ti  Ti133  1  0.88663060  0.70835235  0.13945565  1
  Ti  Ti134  1  0.90382822  0.30459318  0.87602015  1
  Ti  Ti135  1  0.10271469  0.70731325  0.63111100  1
  Ti  Ti136  1  -0.00096284  -0.00242503  0.74924002  1
  Ti  Ti137  1  0.58921074  0.00113626  0.24471412  1
  Ti  Ti138  1  0.40141653  0.00089246  0.25125496  1
  Ti  Ti139  1  0.10032358  0.09861860  0.86934351  1
  Ti  Ti140  1  0.20309864  -0.00009757  0.24100368  1
  Ti  Ti141  1  0.79527113  0.80652439  0.49000430  1
  Ti  Ti142  1  0.59599449  0.00698171  0.50654604  1
  Ti  Ti143  1  0.30845703  0.71002723  0.08970293  1
  Ti  Ti144  1  0.58498341  0.20449115  0.24456423  1
  Ti  Ti145  1  0.60116066  -0.00609088  0.00080162  1
  Ti  Ti146  1  0.39526974  0.39962831  0.51247617  1
  Ti  Ti147  1  0.59316204  0.80489745  0.50203797  1
  Ti  Ti148  1  0.78865576  0.79759623  0.01094578  1
  Ti  Ti149  1  0.89331777  0.70701665  0.37548982  1
  Ti  Ti150  1  0.70634905  0.29874587  0.88783340  1
  Ti  Ti151  1  0.00853967  0.39837789  0.26548512  1
  Ti  Ti152  1  0.79079851  0.40058613  0.25235541  1
  Ti  Ti153  1  0.50123778  0.49438226  0.38816332  1
  Ti  Ti154  1  0.49660288  0.09666398  0.37715910  1
  Ti  Ti155  1  0.20252594  0.59739174  -0.00913709  1
  Ti  Ti156  1  0.38999779  0.80088029  0.52149153  1
  Ti  Ti157  1  0.49917217  0.89743530  0.63552248  1
  Ti  Ti158  1  0.90266180  0.49761596  0.87814793  1
  Ti  Ti159  1  0.30628485  0.49287176  0.65204189  1
  Mo  Mo160  1  0.20269146  0.39353440  0.74518340  1
  Mo  Mo161  1  0.19669791  0.79966530  0.00238062  1
  Mo  Mo162  1  0.40442782  0.79700467  -0.02235499  1
  Mo  Mo163  1  0.10049236  0.50472940  0.62177468  1
  Mo  Mo164  1  0.50167219  0.29460413  0.11045400  1
  Mo  Mo165  1  -0.00188830  0.00443420  0.25296673  1
  Mo  Mo166  1  0.39876027  0.80640385  0.75326891  1
  Mo  Mo167  1  0.40764973  0.19796903  0.76795563  1
  Mo  Mo168  1  0.18445296  0.00329780  0.00958532  1
  Mo  Mo169  1  0.40005027  0.19778493  -0.01345641  1
  Mo  Mo170  1  0.59357425  0.39687715  0.48980340  1
  Mo  Mo171  1  0.60261975  0.18798859  0.49343692  1
  Mo  Mo172  1  0.79918467  0.39181413  0.49090639  1
  Mo  Mo173  1  0.39538333  0.59569992  0.75342102  1
  Mo  Mo174  1  0.11285413  0.30123445  0.35442994  1
  Mo  Mo175  1  0.30116288  0.70504788  0.39159797  1
  Mo  Mo176  1  0.89769928  0.09810999  0.36834099  1
  Mo  Mo177  1  0.70240348  0.70197183  0.14339094  1
  Mo  Mo178  1  0.20004349  0.80614788  0.73237253  1
  Mo  Mo179  1  0.69568972  0.10506820  0.63369993  1
  Mo  Mo180  1  0.60061967  0.81125021  0.73922889  1
  Mo  Mo181  1  0.30184879  0.70361436  0.64822850  1
  Mo  Mo182  1  0.10932863  0.29780768  0.64046844  1
  Mo  Mo183  1  0.30141852  0.89812071  0.63043380  1
  Mo  Mo184  1  0.79061644  0.20040529  0.74191850  1
  Mo  Mo185  1  0.60922921  0.60227659  0.00999514  1
  Mo  Mo186  1  0.19493894  -0.00072530  0.73577857  1
  Mo  Mo187  1  0.80260800  0.60861633  0.48213145  1
  Mo  Mo188  1  0.09615625  0.09888562  0.14312498  1
  Mo  Mo189  1  -0.00228363  0.40549437  -0.00164480  1
  Mo  Mo190  1  0.19963876  0.80783054  0.23418979  1
  Mo  Mo191  1  0.61221957  0.39492142  -0.01303997  1
  Mo  Mo192  1  0.40493550  -0.00534356  -0.02037878  1
  Mo  Mo193  1  0.61337082  0.39061437  0.76825708  1
  Mo  Mo194  1  0.10053274  0.90340715  0.63280650  1
  Mo  Mo195  1  0.60653244  0.19406620  -0.00144986  1
  Mo  Mo196  1  0.61094315  0.59644385  0.73225185  1
  Mo  Mo197  1  0.41315771  0.59625501  0.24875488  1
  Mo  Mo198  1  0.79742758  0.80272946  0.26788166  1
  Mo  Mo199  1  0.29978386  0.10054552  0.63076088  1
