# generated using pymatgen
data_HfZrTaTiMo
_symmetry_space_group_name_H-M   'P 1'
_cell_length_a   15.92731776
_cell_length_b   15.92623405
_cell_length_c   15.18506993
_cell_angle_alpha   89.97618325
_cell_angle_beta   90.00295030
_cell_angle_gamma   90.00621715
_symmetry_Int_Tables_number   1
_chemical_formula_structural   HfZrTaTiMo
_chemical_formula_sum   'Hf40 Zr40 Ta40 Ti40 Mo40'
_cell_volume   3851.87774036
_cell_formula_units_Z   40
loop_
 _symmetry_equiv_pos_site_id
 _symmetry_equiv_pos_as_xyz
  1  'x, y, z'
loop_
 _atom_site_type_symbol
 _atom_site_label
 _atom_site_symmetry_multiplicity
 _atom_site_fract_x
 _atom_site_fract_y
 _atom_site_fract_z
 _atom_site_occupancy
  Hf  Hf0  1  0.10144529  0.91098021  0.88471724  1
  Hf  Hf1  1  0.20559789  0.80970239  0.74156212  1
  Hf  Hf2  1  0.59202237  0.20948529  0.51931384  1
  Hf  Hf3  1  -0.00446540  0.00204293  0.24455985  1
  Hf  Hf4  1  0.90312600  0.29728414  0.11573861  1
  Hf  Hf5  1  0.59377516  0.39061729  0.73791303  1
  Hf  Hf6  1  0.10482328  0.70183938  0.61387341  1
  Hf  Hf7  1  0.79631109  0.20557434  0.73684801  1
  Hf  Hf8  1  0.89131717  0.49432754  0.38188207  1
  Hf  Hf9  1  0.60893679  0.79814563  0.26174009  1
  Hf  Hf10  1  0.79680809  0.19353313  -0.00301549  1
  Hf  Hf11  1  0.09913032  0.89907877  0.37500000  1
  Hf  Hf12  1  0.09592010  0.49896447  0.12745795  1
  Hf  Hf13  1  0.10105401  0.50158076  0.63436068  1
  Hf  Hf14  1  0.39850641  0.00939578  0.50152142  1
  Hf  Hf15  1  0.40136280  0.39649032  0.23623470  1
  Hf  Hf16  1  0.40187033  0.38618480  0.51085098  1
  Hf  Hf17  1  0.89934402  0.10121195  0.61880942  1
  Hf  Hf18  1  0.81358884  0.00979705  0.00545529  1
  Hf  Hf19  1  0.17922771  0.20033424  0.00268727  1
  Hf  Hf20  1  0.10719578  0.71436680  0.37878348  1
  Hf  Hf21  1  0.09366310  0.10826091  0.62931063  1
  Hf  Hf22  1  0.19189828  0.60603582  -0.01077992  1
  Hf  Hf23  1  0.29106698  0.09688862  0.88087410  1
  Hf  Hf24  1  0.50297147  0.91014507  0.37310131  1
  Hf  Hf25  1  0.90336569  0.69965144  0.12839852  1
  Hf  Hf26  1  0.60936908  0.59493395  0.49085887  1
  Hf  Hf27  1  0.70738879  0.48890304  0.86375622  1
  Hf  Hf28  1  0.59722646  0.39367346  0.23093542  1
  Hf  Hf29  1  0.20080840  -0.00055286  0.51207276  1
  Hf  Hf30  1  -0.00546847  0.39724882  0.51065632  1
  Hf  Hf31  1  0.79935334  0.59217136  -0.00351010  1
  Hf  Hf32  1  0.20910873  0.59948591  0.26094394  1
  Hf  Hf33  1  0.89214934  0.28905176  0.38656094  1
  Hf  Hf34  1  0.40561533  0.60797306  -0.00621236  1
  Hf  Hf35  1  0.19950765  0.39180196  0.24513138  1
  Hf  Hf36  1  0.60857220  0.59107033  0.25239798  1
  Hf  Hf37  1  0.70119283  0.90408244  0.12825272  1
  Hf  Hf38  1  0.00739292  0.79885583  0.74873162  1
  Hf  Hf39  1  0.59952676  0.00225772  -0.01453343  1
  Zr  Zr40  1  0.20179309  0.39974713  0.49785412  1
  Zr  Zr41  1  0.89851980  0.89451665  0.12561460  1
  Zr  Zr42  1  0.49952637  0.11277816  0.36367661  1
  Zr  Zr43  1  0.61924468  0.80985187  0.49208697  1
  Zr  Zr44  1  0.50450975  0.90249172  0.12930717  1
  Zr  Zr45  1  0.30280457  0.10649332  0.64512700  1
  Zr  Zr46  1  0.90874949  0.90090406  0.61214157  1
  Zr  Zr47  1  0.78171624  0.19428631  0.50646879  1
  Zr  Zr48  1  0.80577950  0.80162250  0.73498066  1
  Zr  Zr49  1  0.40199822  0.40092900  0.74889176  1
  Zr  Zr50  1  0.29836348  0.30067971  0.88456685  1
  Zr  Zr51  1  0.09987725  0.28693497  0.37823708  1
  Zr  Zr52  1  0.29964279  0.90541716  0.89211616  1
  Zr  Zr53  1  0.89414239  0.30409643  0.88202246  1
  Zr  Zr54  1  0.00589519  0.80152856  -0.00668756  1
  Zr  Zr55  1  0.80650595  0.60257427  0.50904071  1
  Zr  Zr56  1  0.59794796  0.19718301  -0.00953954  1
  Zr  Zr57  1  0.40875645  0.79482530  0.76345493  1
  Zr  Zr58  1  0.70875305  0.08984216  0.85308129  1
  Zr  Zr59  1  0.30086731  0.29823989  0.10704278  1
  Zr  Zr60  1  0.31003456  0.70798767  0.60856239  1
  Zr  Zr61  1  0.81257070  0.59705027  0.73709158  1
  Zr  Zr62  1  0.90178257  0.89558112  0.38206558  1
  Zr  Zr63  1  0.89709406  0.70585666  0.88625001  1
  Zr  Zr64  1  0.30212025  0.50203086  0.87701347  1
  Zr  Zr65  1  0.50723312  0.48428577  0.38049306  1
  Zr  Zr66  1  0.90143145  0.50069403  0.12028235  1
  Zr  Zr67  1  0.39651323  0.79232125  0.25087360  1
  Zr  Zr68  1  0.20759254  0.19962605  0.50152408  1
  Zr  Zr69  1  0.69613239  0.69937436  0.86312191  1
  Zr  Zr70  1  0.70991985  0.70833178  0.12265080  1
  Zr  Zr71  1  0.49931904  0.89256627  0.61332154  1
  Zr  Zr72  1  0.00128090  0.39449912  0.25704916  1
  Zr  Zr73  1  0.78608387  0.40025476  0.24662931  1
  Zr  Zr74  1  0.40896547  -0.00623726  0.75876611  1
  Zr  Zr75  1  0.29499195  0.89248789  0.38013516  1
  Zr  Zr76  1  0.29738084  0.50898049  0.63386738  1
  Zr  Zr77  1  0.50596043  0.10552330  0.13873049  1
  Zr  Zr78  1  0.09412863  0.69725348  0.13556544  1
  Zr  Zr79  1  0.60100148  0.60113312  0.00465409  1
  Ta  Ta80  1  0.19343275  0.00559065  0.02349897  1
  Ta  Ta81  1  0.89951095  0.09954825  0.37973589  1
  Ta  Ta82  1  0.69946954  0.10062634  0.14275638  1
  Ta  Ta83  1  0.20298128  0.80445724  0.23304370  1
  Ta  Ta84  1  0.29038927  0.29740921  0.64699125  1
  Ta  Ta85  1  0.30429006  0.69763169  0.12077801  1
  Ta  Ta86  1  0.18681475  0.39814572  0.76408263  1
  Ta  Ta87  1  0.10061040  0.09742806  0.36781055  1
  Ta  Ta88  1  0.20414223  0.80097396  0.01152878  1
  Ta  Ta89  1  0.09406068  0.29690121  0.63472425  1
  Ta  Ta90  1  0.79902264  0.59902538  0.25945809  1
  Ta  Ta91  1  0.40847083  0.20334389  0.76553515  1
  Ta  Ta92  1  0.91042201  0.48610823  0.87254172  1
  Ta  Ta93  1  0.49805670  0.70027003  0.38263091  1
  Ta  Ta94  1  0.49978173  0.50588561  0.61788117  1
  Ta  Ta95  1  0.78749955  0.39567243  0.51741586  1
  Ta  Ta96  1  0.40948165  0.79926234  -0.00180643  1
  Ta  Ta97  1  0.38968676  0.00352708  0.24290788  1
  Ta  Ta98  1  0.39858133  0.59538796  0.48632766  1
  Ta  Ta99  1  0.00204111  0.60079684  0.75402114  1
  Ta  Ta100  1  0.70760099  0.89904985  0.86574637  1
  Ta  Ta101  1  0.30513946  0.49085955  0.37056018  1
  Ta  Ta102  1  0.20340192  0.59689241  0.48169447  1
  Ta  Ta103  1  0.59238164  0.19850853  0.75242238  1
  Ta  Ta104  1  0.69923093  0.30538149  0.87037046  1
  Ta  Ta105  1  0.30001486  0.50366887  0.11592133  1
  Ta  Ta106  1  -0.00025055  0.59801565  0.27434648  1
  Ta  Ta107  1  0.69428255  0.50025817  0.62929225  1
  Ta  Ta108  1  0.19402823  -0.00442708  0.73909183  1
  Ta  Ta109  1  0.50313349  0.69564406  0.61002008  1
  Ta  Ta110  1  0.29373948  0.10408406  0.35704116  1
  Ta  Ta111  1  0.18324795  0.40488669  -0.00473720  1
  Ta  Ta112  1  0.69123100  0.70329475  0.63037517  1
  Ta  Ta113  1  0.89888801  0.91722179  0.87166615  1
  Ta  Ta114  1  0.50646475  0.49777286  0.87929553  1
  Ta  Ta115  1  0.60517001  0.40101565  0.00825647  1
  Ta  Ta116  1  0.00476243  0.59645873  0.49434983  1
  Ta  Ta117  1  0.78371565  -0.00569327  0.50255419  1
  Ta  Ta118  1  0.60916505  0.01137876  0.50384474  1
  Ta  Ta119  1  0.59777750  0.80159871  -0.01332432  1
  Ti  Ti120  1  0.40282041  0.59693337  0.25448394  1
  Ti  Ti121  1  0.81328799  0.39584200  0.72495582  1
  Ti  Ti122  1  0.30365111  0.90158419  0.11923132  1
  Ti  Ti123  1  0.68540421  0.30885726  0.37932941  1
  Ti  Ti124  1  0.49503643  0.50056965  0.11575984  1
  Ti  Ti125  1  0.39600016  0.20025504  0.50847958  1
  Ti  Ti126  1  0.69368747  0.10231019  0.36202881  1
  Ti  Ti127  1  0.00434177  0.00591024  0.49543020  1
  Ti  Ti128  1  0.29811652  0.70716720  0.88028768  1
  Ti  Ti129  1  0.49968960  0.29475801  0.37254089  1
  Ti  Ti130  1  0.79707839  0.20076492  0.25122066  1
  Ti  Ti131  1  0.08591857  0.09415955  0.87445650  1
  Ti  Ti132  1  0.49910439  0.30781283  0.89132241  1
  Ti  Ti133  1  -0.00003199  -0.00121599  0.74479653  1
  Ti  Ti134  1  -0.01289405  0.18038875  -0.00144497  1
  Ti  Ti135  1  0.71263603  0.69883089  0.37710425  1
  Ti  Ti136  1  0.18783113  0.20355103  0.76744769  1
  Ti  Ti137  1  0.80535230  0.79924961  0.26320270  1
  Ti  Ti138  1  0.90862284  0.70682000  0.38120115  1
  Ti  Ti139  1  0.09534294  0.89846617  0.12623695  1
  Ti  Ti140  1  0.40437966  0.19211264  -0.00142783  1
  Ti  Ti141  1  0.69870276  0.29397674  0.11682678  1
  Ti  Ti142  1  0.40419447  0.00586882  0.00494869  1
  Ti  Ti143  1  0.79825247  0.00297262  0.25843078  1
  Ti  Ti144  1  0.07902914  0.31188162  0.87887761  1
  Ti  Ti145  1  0.59035466  0.60193437  0.74710725  1
  Ti  Ti146  1  0.50316010  0.09802812  0.63810937  1
  Ti  Ti147  1  0.19686180  0.19571609  0.23165422  1
  Ti  Ti148  1  -0.00836776  0.20695903  0.75524012  1
  Ti  Ti149  1  0.80117990  0.79860498  0.50877038  1
  Ti  Ti150  1  0.00937127  0.59184375  -0.02249057  1
  Ti  Ti151  1  0.50243279  0.70106646  0.13193057  1
  Ti  Ti152  1  0.30668306  0.29144666  0.36701060  1
  Ti  Ti153  1  0.59332569  0.80621300  0.75443064  1
  Ti  Ti154  1  0.08658872  0.10251501  0.12753155  1
  Ti  Ti155  1  -0.00379999  0.19737823  0.24705287  1
  Ti  Ti156  1  0.39714634  0.20509997  0.23606341  1
  Ti  Ti157  1  0.19365066  0.60969580  0.76552171  1
  Ti  Ti158  1  0.40888613  0.60646009  0.75728820  1
  Ti  Ti159  1  0.20100571  0.00316239  0.23437848  1
  Mo  Mo160  1  0.09229266  0.29379016  0.11536326  1
  Mo  Mo161  1  0.48832316  0.29053592  0.62905801  1
  Mo  Mo162  1  0.60589228  0.00339234  0.26215270  1
  Mo  Mo163  1  0.60098443  -0.00594994  0.74756056  1
  Mo  Mo164  1  0.90382379  0.49930454  0.62694381  1
  Mo  Mo165  1  0.70303468  0.49232338  0.38746218  1
  Mo  Mo166  1  0.50655692  0.90074550  0.88624019  1
  Mo  Mo167  1  0.00079229  0.19211979  0.49329163  1
  Mo  Mo168  1  0.70174113  0.49844393  0.11867209  1
  Mo  Mo169  1  0.29768759  0.09824336  0.12609973  1
  Mo  Mo170  1  0.89250576  0.10560967  0.14814282  1
  Mo  Mo171  1  0.90296684  0.29564825  0.61600511  1
  Mo  Mo172  1  -0.00600492  0.39679515  0.73514518  1
  Mo  Mo173  1  0.00270891  0.79663580  0.50801032  1
  Mo  Mo174  1  0.49589299  0.10088460  0.87015378  1
  Mo  Mo175  1  0.69527062  0.30015858  0.63786505  1
  Mo  Mo176  1  0.79195946  0.39731337  0.00566092  1
  Mo  Mo177  1  0.49974381  0.29977379  0.10866861  1
  Mo  Mo178  1  0.10674393  0.70429535  0.86730596  1
  Mo  Mo179  1  0.30406924  0.69595812  0.37750534  1
  Mo  Mo180  1  0.70698272  0.90927712  0.36595012  1
  Mo  Mo181  1  0.10076235  0.50118691  0.37629302  1
  Mo  Mo182  1  0.40585825  0.79667345  0.48635805  1
  Mo  Mo183  1  0.79573063  0.81038980  -0.01533399  1
  Mo  Mo184  1  0.60987827  0.21136016  0.24960763  1
  Mo  Mo185  1  0.10029682  0.90507005  0.61798823  1
  Mo  Mo186  1  0.00266664  0.39863986  0.00387497  1
  Mo  Mo187  1  0.00239613  0.79725149  0.25024641  1
  Mo  Mo188  1  0.69781016  0.90255612  0.64063346  1
  Mo  Mo189  1  0.60200009  0.39556095  0.51777009  1
  Mo  Mo190  1  0.69033642  0.09140910  0.63702485  1
  Mo  Mo191  1  0.80313540  -0.00314279  0.73280642  1
  Mo  Mo192  1  0.09373712  0.49924541  0.86289273  1
  Mo  Mo193  1  0.20467071  0.80455097  0.51235481  1
  Mo  Mo194  1  0.00413217  0.00997358  0.01004180  1
  Mo  Mo195  1  0.90886440  0.09567041  0.85521657  1
  Mo  Mo196  1  0.50127001  0.69779499  0.86946471  1
  Mo  Mo197  1  0.30093357  0.89974381  0.61435358  1
  Mo  Mo198  1  0.40684870  0.40599290  0.00674661  1
  Mo  Mo199  1  0.91026069  0.69754140  0.61105258  1
