# generated using pymatgen
data_HfZrTaTiMo
_symmetry_space_group_name_H-M   'P 1'
_cell_length_a   15.93514259
_cell_length_b   15.93362682
_cell_length_c   15.20296118
_cell_angle_alpha   89.93105077
_cell_angle_beta   89.97442775
_cell_angle_gamma   89.92925171
_symmetry_Int_Tables_number   1
_chemical_formula_structural   HfZrTaTiMo
_chemical_formula_sum   'Hf40 Zr40 Ta40 Ti40 Mo40'
_cell_volume   3860.09588999
_cell_formula_units_Z   40
loop_
 _symmetry_equiv_pos_site_id
 _symmetry_equiv_pos_as_xyz
  1  'x, y, z'
loop_
 _atom_site_type_symbol
 _atom_site_label
 _atom_site_symmetry_multiplicity
 _atom_site_fract_x
 _atom_site_fract_y
 _atom_site_fract_z
 _atom_site_occupancy
  Hf  Hf0  1  0.38422476  -0.00622980  0.73896001  1
  Hf  Hf1  1  0.89357828  0.70982108  0.89506796  1
  Hf  Hf2  1  0.91084393  0.10029169  0.61944637  1
  Hf  Hf3  1  0.79896062  0.81037386  0.50159445  1
  Hf  Hf4  1  0.57990702  0.00852201  0.00785710  1
  Hf  Hf5  1  0.10378217  0.07031538  0.60940138  1
  Hf  Hf6  1  0.90514185  0.31010845  0.63747569  1
  Hf  Hf7  1  0.69977064  0.70653030  0.36769994  1
  Hf  Hf8  1  0.20366291  -0.01480259  -0.00457613  1
  Hf  Hf9  1  0.91205421  0.70153567  0.36304329  1
  Hf  Hf10  1  0.21204353  0.18469223  0.73790370  1
  Hf  Hf11  1  0.01685306  0.40852890  -0.00898366  1
  Hf  Hf12  1  0.88961589  0.89449047  0.89483418  1
  Hf  Hf13  1  0.10790452  0.10264638  0.11841345  1
  Hf  Hf14  1  0.29887772  0.70104942  0.61962607  1
  Hf  Hf15  1  0.01633245  0.60650770  0.49337263  1
  Hf  Hf16  1  0.90324083  0.50639590  0.63269196  1
  Hf  Hf17  1  0.68733917  0.89731159  0.13214246  1
  Hf  Hf18  1  0.69375265  0.69460246  0.60647471  1
  Hf  Hf19  1  0.68841517  0.49750288  0.12913114  1
  Hf  Hf20  1  0.00991829  0.61657287  0.76217229  1
  Hf  Hf21  1  0.39904425  0.60111561  -0.00811866  1
  Hf  Hf22  1  0.39954003  0.78994346  0.26717141  1
  Hf  Hf23  1  0.70236407  0.10054990  0.37989208  1
  Hf  Hf24  1  0.49861486  0.30584227  0.61858708  1
  Hf  Hf25  1  0.89734758  0.11048500  0.11836814  1
  Hf  Hf26  1  0.59695629  0.20427662  0.25917862  1
  Hf  Hf27  1  0.91327095  0.71105596  0.61496920  1
  Hf  Hf28  1  0.50685200  0.50627971  0.61943758  1
  Hf  Hf29  1  0.00606013  0.20336642  0.25986377  1
  Hf  Hf30  1  0.29801405  0.50675242  0.36050082  1
  Hf  Hf31  1  0.81099664  0.80343607  0.23275907  1
  Hf  Hf32  1  0.19273973  0.59282756  0.00040552  1
  Hf  Hf33  1  0.49370285  0.69861519  0.62117284  1
  Hf  Hf34  1  0.10030681  0.50240786  0.63511451  1
  Hf  Hf35  1  0.78390972  0.41448597  0.76283547  1
  Hf  Hf36  1  0.79352214  0.61593378  0.75716680  1
  Hf  Hf37  1  0.79846949  -0.01450170  0.73193872  1
  Hf  Hf38  1  0.89779572  0.09821613  0.38395797  1
  Hf  Hf39  1  0.90439066  0.30323369  0.11839421  1
  Zr  Zr40  1  0.30565470  0.09780118  0.88467825  1
  Zr  Zr41  1  0.50131778  0.09254874  0.85572677  1
  Zr  Zr42  1  0.27524662  0.89391082  0.62147131  1
  Zr  Zr43  1  0.89549984  0.29841824  0.37655055  1
  Zr  Zr44  1  0.30144827  0.29798854  0.12795625  1
  Zr  Zr45  1  0.30177231  0.49792656  0.13769974  1
  Zr  Zr46  1  0.90973638  0.49883464  0.12948925  1
  Zr  Zr47  1  0.90595830  0.50771498  0.87818870  1
  Zr  Zr48  1  0.01324181  -0.01169092  0.76928972  1
  Zr  Zr49  1  0.80442788  0.40344770  0.49708268  1
  Zr  Zr50  1  0.59020594  0.80029089  -0.00693480  1
  Zr  Zr51  1  0.51199211  0.30107981  0.11664570  1
  Zr  Zr52  1  0.30214402  0.30138435  0.37659883  1
  Zr  Zr53  1  0.60122382  -0.01150758  0.51260189  1
  Zr  Zr54  1  0.30531429  0.10086818  0.37741720  1
  Zr  Zr55  1  0.20162607  0.40546967  0.50532634  1
  Zr  Zr56  1  0.19407108  0.78882839  0.00861809  1
  Zr  Zr57  1  0.70302382  0.50891226  0.37514629  1
  Zr  Zr58  1  0.10667634  0.51008926  0.35821597  1
  Zr  Zr59  1  0.89232136  0.09524732  0.87941288  1
  Zr  Zr60  1  0.00101864  -0.00004144  0.24704306  1
  Zr  Zr61  1  0.70160223  0.30093596  0.11848289  1
  Zr  Zr62  1  0.18826662  0.80526759  0.77485685  1
  Zr  Zr63  1  0.69249335  0.90766954  0.87339929  1
  Zr  Zr64  1  0.79618780  0.20225542  0.75205032  1
  Zr  Zr65  1  0.79899424  -0.00551172  0.51180625  1
  Zr  Zr66  1  0.39598589  0.39687918  0.74392407  1
  Zr  Zr67  1  0.60858664  0.59509212  0.76753941  1
  Zr  Zr68  1  0.01053467  0.18781806  0.76196314  1
  Zr  Zr69  1  0.60535120  0.79911720  0.75195872  1
  Zr  Zr70  1  0.39364786  -0.01216434  0.50136139  1
  Zr  Zr71  1  0.39565731  0.80458440  0.00368938  1
  Zr  Zr72  1  0.19411742  0.19954520  0.25893946  1
  Zr  Zr73  1  0.09696466  0.29943713  0.62875147  1
  Zr  Zr74  1  0.11292511  0.30786853  0.86199433  1
  Zr  Zr75  1  0.40662892  0.40221568  -0.00294812  1
  Zr  Zr76  1  0.78781106  0.00320587  0.01585652  1
  Zr  Zr77  1  0.59110269  0.60023131  -0.00846070  1
  Zr  Zr78  1  0.20236329  0.60133581  0.76202428  1
  Zr  Zr79  1  0.50019939  0.10062214  0.38529653  1
  Ta  Ta80  1  0.18642494  -0.01888121  0.47063990  1
  Ta  Ta81  1  0.39698907  0.79864431  0.47957323  1
  Ta  Ta82  1  0.79334234  0.20703670  -0.01400032  1
  Ta  Ta83  1  0.40296953  0.00027725  0.24704418  1
  Ta  Ta84  1  0.49527973  0.29502661  0.38992773  1
  Ta  Ta85  1  0.59227425  0.80337567  0.49005440  1
  Ta  Ta86  1  0.59469887  0.20689725  0.74459876  1
  Ta  Ta87  1  0.69276805  0.31150180  0.62879887  1
  Ta  Ta88  1  0.79704906  0.40452298  -0.00829817  1
  Ta  Ta89  1  0.29651741  0.89771634  0.14542132  1
  Ta  Ta90  1  0.79710533  0.00666107  0.24015555  1
  Ta  Ta91  1  0.89987337  0.90066663  0.36629910  1
  Ta  Ta92  1  0.69091935  0.10166062  0.63452931  1
  Ta  Ta93  1  0.39877997  0.59976327  0.75978931  1
  Ta  Ta94  1  0.49510103  0.10141136  0.62539541  1
  Ta  Ta95  1  0.69613985  0.50299680  0.61233410  1
  Ta  Ta96  1  0.59890760  0.40263692  0.48703568  1
  Ta  Ta97  1  0.40125035  0.60441025  0.47937990  1
  Ta  Ta98  1  0.80990408  0.60338288  0.49522779  1
  Ta  Ta99  1  0.79811233  0.39921212  0.25296815  1
  Ta  Ta100  1  0.41363508  0.39731445  0.25948166  1
  Ta  Ta101  1  0.41330256  0.18744308  0.00807998  1
  Ta  Ta102  1  0.00342125  0.40382187  0.48809207  1
  Ta  Ta103  1  0.00151487  0.80424685  0.76204703  1
  Ta  Ta104  1  0.79426268  0.20284558  0.51820612  1
  Ta  Ta105  1  0.30485209  0.09372512  0.12482660  1
  Ta  Ta106  1  0.20417667  0.20230103  -0.00110828  1
  Ta  Ta107  1  0.68894207  0.69823373  0.13350602  1
  Ta  Ta108  1  0.00726354  0.20185717  -0.01117961  1
  Ta  Ta109  1  0.80222841  0.60184455  0.23839938  1
  Ta  Ta110  1  0.20004050  0.19291173  0.50308539  1
  Ta  Ta111  1  0.69866606  0.90362333  0.35663044  1
  Ta  Ta112  1  0.79343044  0.60544163  0.01263760  1
  Ta  Ta113  1  0.30991468  0.29371835  0.88020540  1
  Ta  Ta114  1  0.60269233  0.20326136  0.51034170  1
  Ta  Ta115  1  0.59754629  0.39936809  0.26909894  1
  Ta  Ta116  1  -0.00431513  0.80134117  0.02710270  1
  Ta  Ta117  1  0.90175586  0.30622370  0.87468487  1
  Ta  Ta118  1  0.00501829  -0.00451751  0.00638196  1
  Ta  Ta119  1  0.20231904  0.79149051  0.46483173  1
  Ti  Ti120  1  0.50134854  0.48953463  0.86185033  1
  Ti  Ti121  1  0.79619766  0.20163979  0.24733283  1
  Ti  Ti122  1  0.69080844  0.10028033  0.86355484  1
  Ti  Ti123  1  0.80435517  0.80259618  0.73610485  1
  Ti  Ti124  1  0.70151793  0.29745917  0.38287397  1
  Ti  Ti125  1  0.29757254  0.49104509  0.87307099  1
  Ti  Ti126  1  0.30300019  0.70445069  0.87304362  1
  Ti  Ti127  1  0.49838100  0.69663131  0.13847270  1
  Ti  Ti128  1  0.10397847  0.89493728  0.13817557  1
  Ti  Ti129  1  0.00789359  0.20286629  0.49258417  1
  Ti  Ti130  1  0.39983092  0.40628663  0.49565663  1
  Ti  Ti131  1  0.68643416  0.11506549  0.11983973  1
  Ti  Ti132  1  0.49583498  0.89454087  0.14246717  1
  Ti  Ti133  1  0.10817052  0.71808805  0.61667276  1
  Ti  Ti134  1  0.00801479  0.60596504  0.00671578  1
  Ti  Ti135  1  0.40861138  0.19623013  0.23874829  1
  Ti  Ti136  1  0.30227805  0.69411751  0.14064991  1
  Ti  Ti137  1  0.49431198  0.88912643  0.63409079  1
  Ti  Ti138  1  0.20148431  -0.00207047  0.26090761  1
  Ti  Ti139  1  0.60303281  0.40208644  -0.01727709  1
  Ti  Ti140  1  0.01990820  0.81252732  0.47485063  1
  Ti  Ti141  1  0.39168552  0.20044807  0.73148585  1
  Ti  Ti142  1  0.19148415  -0.00606251  0.77251118  1
  Ti  Ti143  1  0.10371128  0.30533776  0.12277513  1
  Ti  Ti144  1  0.09246416  0.69287170  0.14753362  1
  Ti  Ti145  1  0.49826327  0.50454539  0.13843864  1
  Ti  Ti146  1  0.40019791  -0.01090334  0.00762629  1
  Ti  Ti147  1  0.93384262  0.90258494  0.61033094  1
  Ti  Ti148  1  0.10551954  0.49569436  0.14399481  1
  Ti  Ti149  1  0.30533818  0.51028586  0.61682671  1
  Ti  Ti150  1  0.69071514  0.30140903  0.87261906  1
  Ti  Ti151  1  0.00874167  0.39226662  0.26110263  1
  Ti  Ti152  1  0.58509614  0.60183279  0.26518153  1
  Ti  Ti153  1  0.50013966  0.29204441  0.87176057  1
  Ti  Ti154  1  0.49135058  0.70986408  0.86198015  1
  Ti  Ti155  1  0.90493493  0.50482271  0.36232329  1
  Ti  Ti156  1  0.59566985  0.00868711  0.24254468  1
  Ti  Ti157  1  0.21342420  0.39582429  0.73897738  1
  Ti  Ti158  1  0.50861060  0.89915775  0.36257354  1
  Ti  Ti159  1  0.20374677  0.39929848  -0.00142797  1
  Mo  Mo160  1  0.39589296  0.20055467  0.51795110  1
  Mo  Mo161  1  0.89989756  0.69674577  0.12144365  1
  Mo  Mo162  1  -0.00298361  0.59818072  0.24534251  1
  Mo  Mo163  1  0.79201304  0.79485523  0.02110302  1
  Mo  Mo164  1  0.60224934  0.19897571  -0.02340226  1
  Mo  Mo165  1  0.59983582  0.60202500  0.49075964  1
  Mo  Mo166  1  0.10474682  0.69992479  0.35353053  1
  Mo  Mo167  1  0.30215140  0.29766067  0.61080811  1
  Mo  Mo168  1  0.09929504  0.30152630  0.39105508  1
  Mo  Mo169  1  0.08828809  0.70107769  0.89629828  1
  Mo  Mo170  1  0.09778832  0.88446097  0.61578390  1
  Mo  Mo171  1  0.11089626  0.49818261  0.86363216  1
  Mo  Mo172  1  0.00062786  0.40875564  0.76442493  1
  Mo  Mo173  1  0.20035382  0.79607925  0.24830950  1
  Mo  Mo174  1  0.89864065  0.90540736  0.12296821  1
  Mo  Mo175  1  0.40635607  0.59786180  0.25589428  1
  Mo  Mo176  1  0.59327719  0.00055184  0.73481345  1
  Mo  Mo177  1  0.30014621  0.89892425  0.35940899  1
  Mo  Mo178  1  0.68681511  0.89322984  0.63108450  1
  Mo  Mo179  1  0.20154669  0.60351877  0.23103312  1
  Mo  Mo180  1  0.70883744  0.70815195  0.89600353  1
  Mo  Mo181  1  0.10546396  0.09940889  0.89486867  1
  Mo  Mo182  1  0.49875109  0.09837604  0.12872931  1
  Mo  Mo183  1  0.59976934  0.39793546  0.75976340  1
  Mo  Mo184  1  0.29466805  0.09389557  0.60786727  1
  Mo  Mo185  1  0.59677612  0.80024435  0.25709180  1
  Mo  Mo186  1  0.09783749  0.89271801  0.34653189  1
  Mo  Mo187  1  0.69909713  0.50297333  0.89536753  1
  Mo  Mo188  1  0.09872249  0.09707939  0.38567033  1
  Mo  Mo189  1  0.09005049  0.89392155  0.89959317  1
  Mo  Mo190  1  0.49826588  0.49590152  0.37926415  1
  Mo  Mo191  1  0.48515629  0.89824028  0.86017719  1
  Mo  Mo192  1  0.19483506  0.39458199  0.24724410  1
  Mo  Mo193  1  0.30330443  0.89496979  0.87356729  1
  Mo  Mo194  1  0.00249870  -0.00732779  0.47839416  1
  Mo  Mo195  1  0.29545381  0.69114884  0.36942103  1
  Mo  Mo196  1  0.39538657  0.79922196  0.75715368  1
  Mo  Mo197  1  0.50413738  0.69699341  0.38280800  1
  Mo  Mo198  1  0.20474788  0.60826794  0.50860426  1
  Mo  Mo199  1  0.00197046  0.80095403  0.23981217  1
