# generated using pymatgen
data_HfZrTaTiMo
_symmetry_space_group_name_H-M   'P 1'
_cell_length_a   15.93018267
_cell_length_b   15.93243541
_cell_length_c   15.19708798
_cell_angle_alpha   90.04316779
_cell_angle_beta   89.94957514
_cell_angle_gamma   89.88017041
_symmetry_Int_Tables_number   1
_chemical_formula_structural   HfZrTaTiMo
_chemical_formula_sum   'Hf40 Zr40 Ta40 Ti40 Mo40'
_cell_volume   3857.11029873
_cell_formula_units_Z   40
loop_
 _symmetry_equiv_pos_site_id
 _symmetry_equiv_pos_as_xyz
  1  'x, y, z'
loop_
 _atom_site_type_symbol
 _atom_site_label
 _atom_site_symmetry_multiplicity
 _atom_site_fract_x
 _atom_site_fract_y
 _atom_site_fract_z
 _atom_site_occupancy
  Hf  Hf0  1  0.59884651  0.20555871  0.49791199  1
  Hf  Hf1  1  0.38612344  -0.00520679  0.25250289  1
  Hf  Hf2  1  0.50504206  0.30241968  0.87284700  1
  Hf  Hf3  1  0.80087753  0.60171878  0.49955844  1
  Hf  Hf4  1  0.80196252  0.18912146  -0.01126220  1
  Hf  Hf5  1  0.69899540  0.50091948  0.86903889  1
  Hf  Hf6  1  0.39569554  0.40129765  0.00107422  1
  Hf  Hf7  1  0.50541413  0.90123810  0.11202073  1
  Hf  Hf8  1  0.09686233  0.50631410  0.35829719  1
  Hf  Hf9  1  0.90516669  0.28598644  0.13724665  1
  Hf  Hf10  1  0.61203317  0.78892283  0.24180483  1
  Hf  Hf11  1  0.20777872  0.81254063  0.49229290  1
  Hf  Hf12  1  0.90710342  0.50631434  0.14059473  1
  Hf  Hf13  1  0.40489646  0.39982033  0.23464963  1
  Hf  Hf14  1  0.60423783  0.40172651  0.24414132  1
  Hf  Hf15  1  0.50022190  0.30225888  0.62526021  1
  Hf  Hf16  1  0.59690364  0.19961553  0.26873945  1
  Hf  Hf17  1  0.00328070  0.60303182  0.75561092  1
  Hf  Hf18  1  0.70947472  0.89183017  0.10804497  1
  Hf  Hf19  1  0.20698588  0.19788217  0.50063401  1
  Hf  Hf20  1  0.09452047  0.10949589  0.88554158  1
  Hf  Hf21  1  -0.01464228  0.80825038  0.25940761  1
  Hf  Hf22  1  -0.00472434  0.19807486  0.73351949  1
  Hf  Hf23  1  0.80379456  0.60380110  0.74644875  1
  Hf  Hf24  1  0.20845156  0.40921585  0.49918461  1
  Hf  Hf25  1  0.10105420  0.50879106  0.13839386  1
  Hf  Hf26  1  0.20302367  0.38682660  0.02024353  1
  Hf  Hf27  1  0.28268460  0.09843463  0.85461750  1
  Hf  Hf28  1  0.60423298  0.59555420  0.22902249  1
  Hf  Hf29  1  -0.00293539  0.80121789  0.74848246  1
  Hf  Hf30  1  0.70557744  0.08688686  0.39241153  1
  Hf  Hf31  1  0.29497573  0.52691485  0.12579998  1
  Hf  Hf32  1  0.79157139  0.60089401  0.01106344  1
  Hf  Hf33  1  0.59844586  0.61972902  0.75998050  1
  Hf  Hf34  1  0.90135494  0.30011849  0.60517024  1
  Hf  Hf35  1  0.40660760  0.79737899  0.75812534  1
  Hf  Hf36  1  0.69423083  0.88792550  0.87119698  1
  Hf  Hf37  1  0.39907187  0.20245166  0.74842962  1
  Hf  Hf38  1  0.81280993  -0.02105042  0.26035621  1
  Hf  Hf39  1  0.50120263  0.69186469  0.37747969  1
  Zr  Zr40  1  0.39126873  0.80846067  -0.01004640  1
  Zr  Zr41  1  0.50048668  0.10016693  0.12302291  1
  Zr  Zr42  1  0.11353086  0.08471060  0.37599703  1
  Zr  Zr43  1  0.30681644  0.51008653  0.35644834  1
  Zr  Zr44  1  0.48481635  0.88230592  0.38661466  1
  Zr  Zr45  1  0.90666525  0.49334225  0.88397001  1
  Zr  Zr46  1  0.19834843  0.60841435  0.49369383  1
  Zr  Zr47  1  0.49415504  0.28321857  0.11848448  1
  Zr  Zr48  1  0.59997549  -0.01140192  0.25756819  1
  Zr  Zr49  1  0.60611078  0.40924670  0.01419050  1
  Zr  Zr50  1  0.29736015  0.70416549  0.63311963  1
  Zr  Zr51  1  0.79647361  0.79261742  0.74070498  1
  Zr  Zr52  1  0.69857933  0.09767736  0.62033123  1
  Zr  Zr53  1  0.01577498  0.60298093  -0.00585037  1
  Zr  Zr54  1  0.09920655  0.30361665  0.37537650  1
  Zr  Zr55  1  0.50413714  0.49898002  0.38131074  1
  Zr  Zr56  1  0.81125879  0.39283335  0.74955037  1
  Zr  Zr57  1  0.50113976  0.08683774  0.62168424  1
  Zr  Zr58  1  0.39451803  0.59947567  0.51020314  1
  Zr  Zr59  1  0.80676272  0.39617447  0.01097992  1
  Zr  Zr60  1  0.90038785  0.90225042  0.88551086  1
  Zr  Zr61  1  0.49361625  0.08980243  0.39002174  1
  Zr  Zr62  1  0.00647396  -0.00369320  0.73601666  1
  Zr  Zr63  1  0.70575496  0.88620328  0.39169830  1
  Zr  Zr64  1  0.91165970  0.49634393  0.61117062  1
  Zr  Zr65  1  0.70360383  0.09341657  0.13335946  1
  Zr  Zr66  1  0.18114598  0.21133497  0.73073330  1
  Zr  Zr67  1  0.29330507  0.12676977  0.14483349  1
  Zr  Zr68  1  0.70654834  0.28633309  0.13569538  1
  Zr  Zr69  1  0.29165541  0.49786977  0.87525014  1
  Zr  Zr70  1  0.50010089  0.50346441  0.62688859  1
  Zr  Zr71  1  0.09824749  0.89713038  0.12645083  1
  Zr  Zr72  1  0.79366647  0.61716751  0.24970412  1
  Zr  Zr73  1  0.80350730  -0.00090219  0.74557596  1
  Zr  Zr74  1  0.37903135  0.20593615  -0.02034845  1
  Zr  Zr75  1  0.70206595  0.29605426  0.86975453  1
  Zr  Zr76  1  0.20396197  0.77910983  -0.00232109  1
  Zr  Zr77  1  0.01807964  0.39228454  0.75582471  1
  Zr  Zr78  1  0.40150186  0.00668978  -0.01420589  1
  Zr  Zr79  1  0.21083998  -0.00041159  0.01445730  1
  Ta  Ta80  1  0.70540848  0.30588937  0.38058605  1
  Ta  Ta81  1  0.39779730  0.40316034  0.75537633  1
  Ta  Ta82  1  0.90642994  0.08366994  0.39182513  1
  Ta  Ta83  1  0.00575225  0.79807063  -0.00051584  1
  Ta  Ta84  1  0.70378857  0.30332646  0.62224207  1
  Ta  Ta85  1  0.68799001  0.90221940  0.62420438  1
  Ta  Ta86  1  0.90103572  0.71113423  0.12118148  1
  Ta  Ta87  1  0.49307330  0.70163864  0.11220527  1
  Ta  Ta88  1  -0.00195849  -0.00152921  0.24936262  1
  Ta  Ta89  1  0.91073975  0.70210833  0.60923936  1
  Ta  Ta90  1  0.89923249  0.09482961  0.60364362  1
  Ta  Ta91  1  0.37662238  -0.01123057  0.50194922  1
  Ta  Ta92  1  0.59715716  0.60894515  -0.00501749  1
  Ta  Ta93  1  0.69830168  0.49993694  0.62191282  1
  Ta  Ta94  1  0.10245114  0.90710720  0.88340419  1
  Ta  Ta95  1  0.00133817  0.19618250  0.49323203  1
  Ta  Ta96  1  0.29702409  0.09354933  0.63109275  1
  Ta  Ta97  1  0.19003074  0.60556545  0.76006656  1
  Ta  Ta98  1  0.09655732  0.10572286  0.13368062  1
  Ta  Ta99  1  0.40068030  -0.00530532  0.75272902  1
  Ta  Ta100  1  0.20640868  0.81035792  0.25322906  1
  Ta  Ta101  1  0.90138346  0.50010257  0.36752215  1
  Ta  Ta102  1  0.00132045  0.60730788  0.48284287  1
  Ta  Ta103  1  0.39008709  0.61683357  -0.01575279  1
  Ta  Ta104  1  0.20435893  0.39540575  0.24092902  1
  Ta  Ta105  1  -0.00129529  0.00467429  0.01058309  1
  Ta  Ta106  1  0.60049541  0.40329589  0.74416111  1
  Ta  Ta107  1  0.80663262  0.19546793  0.74996957  1
  Ta  Ta108  1  0.10372795  0.69372797  0.14693547  1
  Ta  Ta109  1  0.31351217  0.71375468  0.36431288  1
  Ta  Ta110  1  0.59522721  0.79460594  0.51210810  1
  Ta  Ta111  1  0.30460907  0.29772597  0.36391617  1
  Ta  Ta112  1  -0.00451445  0.18904526  0.26635278  1
  Ta  Ta113  1  0.90042173  0.09525926  0.12986415  1
  Ta  Ta114  1  0.89419858  0.70339607  0.88893346  1
  Ta  Ta115  1  0.39121541  0.20039602  0.50036722  1
  Ta  Ta116  1  0.40107589  0.60413857  0.76504010  1
  Ta  Ta117  1  0.69945563  0.50267930  0.38245949  1
  Ta  Ta118  1  0.18651167  0.80396593  0.75320115  1
  Ta  Ta119  1  0.01101050  0.38536211  0.01364860  1
  Ti  Ti120  1  0.49460671  0.30552747  0.38248133  1
  Ti  Ti121  1  0.49965154  0.50287294  0.87681269  1
  Ti  Ti122  1  0.79905964  0.40333364  0.49315865  1
  Ti  Ti123  1  0.29251157  0.90307729  0.63960139  1
  Ti  Ti124  1  0.29861950  0.30856066  0.63080552  1
  Ti  Ti125  1  0.80209140  0.20193953  0.49292543  1
  Ti  Ti126  1  0.10794302  0.28005739  0.13941939  1
  Ti  Ti127  1  0.27486561  0.30590808  0.85780985  1
  Ti  Ti128  1  0.49214140  0.51278789  0.11242427  1
  Ti  Ti129  1  0.89317523  0.71213550  0.38114496  1
  Ti  Ti130  1  0.80562550  0.80365628  0.51550628  1
  Ti  Ti131  1  0.90680257  0.10006021  0.87725038  1
  Ti  Ti132  1  0.69466500  0.69796652  0.61636096  1
  Ti  Ti133  1  0.60558604  0.18814343  -0.01155857  1
  Ti  Ti134  1  0.90004046  0.30446944  0.37733694  1
  Ti  Ti135  1  0.60764272  0.00689455  -0.01771023  1
  Ti  Ti136  1  0.28863927  0.90420328  0.85862777  1
  Ti  Ti137  1  0.49685427  0.89787359  0.62262855  1
  Ti  Ti138  1  0.92015145  0.28788349  0.88588271  1
  Ti  Ti139  1  0.09315852  0.31601167  0.60060883  1
  Ti  Ti140  1  0.51228443  0.89615175  0.86992807  1
  Ti  Ti141  1  0.79769462  0.00538577  -0.00997995  1
  Ti  Ti142  1  0.49854531  0.70262511  0.62000946  1
  Ti  Ti143  1  0.39856341  0.80089754  0.23253419  1
  Ti  Ti144  1  0.29492619  0.50076599  0.64333854  1
  Ti  Ti145  1  0.60513593  0.40326092  0.50347632  1
  Ti  Ti146  1  0.51040241  0.09665306  0.85950425  1
  Ti  Ti147  1  0.79618874  0.40392575  0.25261859  1
  Ti  Ti148  1  0.60898842  0.19789936  0.74677969  1
  Ti  Ti149  1  0.69566476  0.69831604  0.38926616  1
  Ti  Ti150  1  0.00021727  0.39209516  0.24780455  1
  Ti  Ti151  1  0.10138560  0.08693422  0.60775305  1
  Ti  Ti152  1  0.10940114  0.48692630  0.88335726  1
  Ti  Ti153  1  0.09694621  0.90405440  0.38011702  1
  Ti  Ti154  1  0.09693365  0.70564783  0.61697264  1
  Ti  Ti155  1  0.89666945  0.89834312  0.11056289  1
  Ti  Ti156  1  0.80662176  0.19026487  0.27184050  1
  Ti  Ti157  1  0.10167699  0.70602187  0.36343531  1
  Ti  Ti158  1  0.09976335  0.50605946  0.61660100  1
  Ti  Ti159  1  0.39444358  0.39821962  0.50367256  1
  Mo  Mo160  1  0.80262782  0.79838873  0.24402772  1
  Mo  Mo161  1  0.50169251  0.70671920  0.88547982  1
  Mo  Mo162  1  0.30000286  0.90189138  0.13531658  1
  Mo  Mo163  1  0.29935669  0.70400230  0.13947703  1
  Mo  Mo164  1  0.90164494  0.89658214  0.60910033  1
  Mo  Mo165  1  0.00529747  0.79538355  0.48882483  1
  Mo  Mo166  1  -0.00084299  0.19743939  0.01597651  1
  Mo  Mo167  1  0.29554156  0.70214417  0.85530952  1
  Mo  Mo168  1  0.30027767  0.10070345  0.37801493  1
  Mo  Mo169  1  0.00420193  -0.00994573  0.50801945  1
  Mo  Mo170  1  0.69910469  0.09501616  0.86156747  1
  Mo  Mo171  1  0.19369636  -0.00425364  0.73816986  1
  Mo  Mo172  1  0.80305003  0.79712053  -0.00329101  1
  Mo  Mo173  1  0.28949361  0.90621335  0.36507454  1
  Mo  Mo174  1  0.10018567  0.29989121  0.88720290  1
  Mo  Mo175  1  0.59586845  0.79987410  0.73083572  1
  Mo  Mo176  1  0.19725572  0.19929573  0.27063302  1
  Mo  Mo177  1  0.59233811  -0.00675384  0.75567073  1
  Mo  Mo178  1  0.20354679  0.61427531  0.26473509  1
  Mo  Mo179  1  0.19534071  -0.00336426  0.23981746  1
  Mo  Mo180  1  0.60566258  0.60209616  0.50863526  1
  Mo  Mo181  1  0.40309321  0.19966632  0.27733222  1
  Mo  Mo182  1  0.59888601  0.79647345  0.00173057  1
  Mo  Mo183  1  -0.00472056  0.61333942  0.26368640  1
  Mo  Mo184  1  0.90654985  0.89721786  0.39633378  1
  Mo  Mo185  1  0.59236931  -0.01124499  0.50360875  1
  Mo  Mo186  1  0.19594838  0.40685682  0.73220439  1
  Mo  Mo187  1  0.40670328  0.61326277  0.23755731  1
  Mo  Mo188  1  0.70008031  0.49928818  0.12815819  1
  Mo  Mo189  1  0.19125910  0.20729678  -0.00324735  1
  Mo  Mo190  1  0.69747722  0.70457513  0.10782667  1
  Mo  Mo191  1  0.09563839  0.70609460  0.86841368  1
  Mo  Mo192  1  0.69864841  0.70392771  0.88564638  1
  Mo  Mo193  1  0.80254278  -0.00867487  0.51034501  1
  Mo  Mo194  1  0.10057328  0.89262521  0.61441692  1
  Mo  Mo195  1  0.39649526  0.80293855  0.51328751  1
  Mo  Mo196  1  0.00036684  0.40629139  0.48430641  1
  Mo  Mo197  1  0.19904281  0.60286611  -0.01472580  1
  Mo  Mo198  1  0.20217959  -0.00530640  0.51637083  1
  Mo  Mo199  1  0.29819356  0.30033063  0.14470866  1
