# generated using pymatgen
data_HfZrTaTiMo
_symmetry_space_group_name_H-M   'P 1'
_cell_length_a   15.93650226
_cell_length_b   15.93398765
_cell_length_c   15.21269155
_cell_angle_alpha   89.94178635
_cell_angle_beta   89.98202722
_cell_angle_gamma   89.96775200
_symmetry_Int_Tables_number   1
_chemical_formula_structural   HfZrTaTiMo
_chemical_formula_sum   'Hf40 Zr40 Ta40 Ti40 Mo40'
_cell_volume   3862.98685757
_cell_formula_units_Z   40
loop_
 _symmetry_equiv_pos_site_id
 _symmetry_equiv_pos_as_xyz
  1  'x, y, z'
loop_
 _atom_site_type_symbol
 _atom_site_label
 _atom_site_symmetry_multiplicity
 _atom_site_fract_x
 _atom_site_fract_y
 _atom_site_fract_z
 _atom_site_occupancy
  Hf  Hf0  1  0.20089780  0.38885750  0.48280789  1
  Hf  Hf1  1  0.08202566  0.09420089  0.64753295  1
  Hf  Hf2  1  0.10214033  0.49855370  0.12420367  1
  Hf  Hf3  1  0.88955647  0.11356594  0.35774848  1
  Hf  Hf4  1  0.39256755  0.79970624  0.26795361  1
  Hf  Hf5  1  0.91764446  0.70940416  0.38364788  1
  Hf  Hf6  1  0.09206182  0.09881593  0.87106507  1
  Hf  Hf7  1  0.69243938  0.10757285  0.12077873  1
  Hf  Hf8  1  0.62001549  0.59731096  0.50386582  1
  Hf  Hf9  1  0.79985216  0.80420130  0.50460231  1
  Hf  Hf10  1  0.39430493  0.20863018  -0.01767423  1
  Hf  Hf11  1  0.39493900  -0.00111129  -0.01245932  1
  Hf  Hf12  1  0.89072706  0.29942886  0.64166952  1
  Hf  Hf13  1  0.49972192  0.89488830  0.39218389  1
  Hf  Hf14  1  0.90425782  0.92014565  0.63069540  1
  Hf  Hf15  1  0.80261093  0.60867917  0.72881167  1
  Hf  Hf16  1  0.00643606  0.80523731  0.74213588  1
  Hf  Hf17  1  0.59892293  0.78937296  -0.00030218  1
  Hf  Hf18  1  0.89475173  0.51433820  0.88364339  1
  Hf  Hf19  1  0.90177014  0.91212254  0.11736454  1
  Hf  Hf20  1  0.19654620  0.79456510  0.73252958  1
  Hf  Hf21  1  0.00628251  0.60817354  0.73445893  1
  Hf  Hf22  1  0.70441620  0.90958361  0.12006929  1
  Hf  Hf23  1  0.11245440  0.48636577  0.62868584  1
  Hf  Hf24  1  0.80577097  0.80864227  0.75354718  1
  Hf  Hf25  1  0.39586541  0.00094799  0.25610049  1
  Hf  Hf26  1  0.70111394  0.50006071  0.86541863  1
  Hf  Hf27  1  0.69381727  0.91216262  0.88154833  1
  Hf  Hf28  1  0.29620442  0.90097166  0.11478230  1
  Hf  Hf29  1  0.29602737  0.30851639  0.63958178  1
  Hf  Hf30  1  0.00611334  0.59836081  0.51119111  1
  Hf  Hf31  1  0.10562539  0.89404816  0.37780646  1
  Hf  Hf32  1  -0.01239889  0.20423137  -0.00693277  1
  Hf  Hf33  1  0.60526909  0.79754920  0.74265139  1
  Hf  Hf34  1  0.10823695  0.50360266  0.88145313  1
  Hf  Hf35  1  0.51468528  0.09446090  0.88256511  1
  Hf  Hf36  1  0.09625321  0.69636431  0.88377215  1
  Hf  Hf37  1  0.51461719  0.49127516  0.86168813  1
  Hf  Hf38  1  0.49540292  0.11192149  0.11868908  1
  Hf  Hf39  1  0.09909418  0.90198587  0.88941713  1
  Zr  Zr40  1  0.81050896  0.79573382  0.24279532  1
  Zr  Zr41  1  0.00304537  -0.00383096  0.25307484  1
  Zr  Zr42  1  0.49771756  0.48936308  0.61609452  1
  Zr  Zr43  1  0.68887542  0.49900620  0.13638864  1
  Zr  Zr44  1  0.60342130  0.79117794  0.25035925  1
  Zr  Zr45  1  0.30802324  0.69828489  0.12488863  1
  Zr  Zr46  1  0.39817471  0.58896620  0.27247818  1
  Zr  Zr47  1  0.80324352  0.59402494  0.26218725  1
  Zr  Zr48  1  0.37659744  -0.00923569  0.50419467  1
  Zr  Zr49  1  0.19093047  0.19258487  0.50338819  1
  Zr  Zr50  1  0.00051543  0.00701566  0.48904637  1
  Zr  Zr51  1  0.50615531  0.67955376  0.13694369  1
  Zr  Zr52  1  0.70052094  0.47997006  0.63551348  1
  Zr  Zr53  1  -0.00463444  0.39553475  0.00554042  1
  Zr  Zr54  1  -0.00394669  0.39696313  0.48378053  1
  Zr  Zr55  1  0.69718536  0.10782815  0.36321993  1
  Zr  Zr56  1  0.00010799  0.60659915  0.24066428  1
  Zr  Zr57  1  0.38982154  0.19716140  0.51189710  1
  Zr  Zr58  1  0.10470733  0.51064567  0.36876257  1
  Zr  Zr59  1  0.29334471  0.69055304  0.87045165  1
  Zr  Zr60  1  0.31318602  0.49435002  0.12028207  1
  Zr  Zr61  1  0.40097600  -0.00124697  0.75091406  1
  Zr  Zr62  1  0.70468676  0.69143435  0.87533467  1
  Zr  Zr63  1  0.50137742  0.89841714  0.61778372  1
  Zr  Zr64  1  0.00137608  0.40116137  0.77170934  1
  Zr  Zr65  1  0.49999499  0.69768631  0.61149760  1
  Zr  Zr66  1  0.49734653  0.89666012  0.11496465  1
  Zr  Zr67  1  0.80906878  0.59210181  0.49818897  1
  Zr  Zr68  1  0.89025255  0.10724436  0.13346114  1
  Zr  Zr69  1  -0.00715423  0.21011564  0.48650840  1
  Zr  Zr70  1  0.50910769  0.10216691  0.61824162  1
  Zr  Zr71  1  0.39973700  0.59625989  0.74713550  1
  Zr  Zr72  1  0.09862192  0.29015979  0.65407732  1
  Zr  Zr73  1  0.41012323  0.39155531  0.25906146  1
  Zr  Zr74  1  0.88771345  0.10920650  0.64100725  1
  Zr  Zr75  1  0.70468518  0.29094492  0.62708396  1
  Zr  Zr76  1  0.20186008  0.39671462  0.25150401  1
  Zr  Zr77  1  0.09874381  0.09666116  0.11293533  1
  Zr  Zr78  1  0.29324544  0.10452880  0.12423581  1
  Zr  Zr79  1  0.59175317  0.00093406  0.25350357  1
  Ta  Ta80  1  0.40891624  0.39574147  -0.00983694  1
  Ta  Ta81  1  0.41087077  0.59379511  -0.01002646  1
  Ta  Ta82  1  0.50460579  0.30456279  0.62015223  1
  Ta  Ta83  1  0.79934535  0.00746436  0.48744271  1
  Ta  Ta84  1  0.58221077  0.21505071  0.25392842  1
  Ta  Ta85  1  0.30481761  0.28689637  0.36808056  1
  Ta  Ta86  1  0.60878950  0.00295177  0.49551285  1
  Ta  Ta87  1  0.70569323  0.90152778  0.37349013  1
  Ta  Ta88  1  0.80259465  0.39407767  0.47679387  1
  Ta  Ta89  1  0.11096729  0.70751497  0.38494626  1
  Ta  Ta90  1  0.79082306  0.39627680  -0.00126541  1
  Ta  Ta91  1  0.29404043  0.89509958  0.87350387  1
  Ta  Ta92  1  0.10459140  0.90516601  0.10962530  1
  Ta  Ta93  1  0.59817513  0.58877738  0.00189221  1
  Ta  Ta94  1  0.40038566  0.79894408  0.75709935  1
  Ta  Ta95  1  0.80645804  0.80061714  -0.00213573  1
  Ta  Ta96  1  0.30739021  0.69951450  0.61415773  1
  Ta  Ta97  1  0.70363955  0.30145228  0.36046386  1
  Ta  Ta98  1  0.40376864  0.20071141  0.75477689  1
  Ta  Ta99  1  0.20610210  0.38936123  -0.00164989  1
  Ta  Ta100  1  0.50220228  0.69448305  0.39296953  1
  Ta  Ta101  1  0.19481209  -0.01142876  0.74546895  1
  Ta  Ta102  1  0.80281965  0.01578868  -0.01741298  1
  Ta  Ta103  1  0.30175771  0.49397658  0.87929612  1
  Ta  Ta104  1  0.01171097  0.79586638  0.23067147  1
  Ta  Ta105  1  0.49173495  0.10780245  0.38239017  1
  Ta  Ta106  1  -0.00223419  0.79706584  0.01159275  1
  Ta  Ta107  1  0.10548613  0.10434965  0.36224431  1
  Ta  Ta108  1  0.59598987  0.20248729  0.75543515  1
  Ta  Ta109  1  0.29190051  0.30086989  0.86101370  1
  Ta  Ta110  1  0.50158012  0.49526433  0.40268219  1
  Ta  Ta111  1  0.20082486  0.79342844  0.00460806  1
  Ta  Ta112  1  0.20414761  0.59658922  0.01013462  1
  Ta  Ta113  1  -0.01152492  0.40126078  0.25292539  1
  Ta  Ta114  1  0.68931771  0.30972007  0.86982504  1
  Ta  Ta115  1  0.40346633  0.78996268  -0.02097228  1
  Ta  Ta116  1  0.70691659  0.91602041  0.62571015  1
  Ta  Ta117  1  0.21287814  0.81336409  0.51125162  1
  Ta  Ta118  1  0.69396583  0.30549535  0.13391278  1
  Ta  Ta119  1  0.29264747  0.09800246  0.36698921  1
  Ti  Ti120  1  0.00321069  0.21277555  0.24831367  1
  Ti  Ti121  1  0.70892563  0.69072722  0.12008444  1
  Ti  Ti122  1  0.88415624  0.30530190  0.13596367  1
  Ti  Ti123  1  -0.00328174  0.60803850  0.01794070  1
  Ti  Ti124  1  0.20332480  0.59576300  0.73648869  1
  Ti  Ti125  1  0.10196786  0.29852261  0.12486291  1
  Ti  Ti126  1  0.78484873  0.18784221  0.77680022  1
  Ti  Ti127  1  0.50291157  0.31171647  0.12083251  1
  Ti  Ti128  1  0.59798710  0.21834676  -0.00601484  1
  Ti  Ti129  1  0.28739856  0.10267293  0.64452898  1
  Ti  Ti130  1  0.60869336  0.20338095  0.49348066  1
  Ti  Ti131  1  0.50508657  0.89791397  0.87462722  1
  Ti  Ti132  1  0.19960306  0.20180487  0.24780921  1
  Ti  Ti133  1  0.30736786  0.29324304  0.12739045  1
  Ti  Ti134  1  0.20334551  0.60934016  0.24853797  1
  Ti  Ti135  1  0.01611655  0.80522888  0.51811518  1
  Ti  Ti136  1  0.89981337  0.90045551  0.37011095  1
  Ti  Ti137  1  0.61382758  0.80132888  0.50597472  1
  Ti  Ti138  1  0.40444326  0.39328599  0.75798594  1
  Ti  Ti139  1  0.29689817  0.70093451  0.39087619  1
  Ti  Ti140  1  0.88849501  0.30011134  0.86832977  1
  Ti  Ti141  1  0.59500248  0.40973972  0.26632695  1
  Ti  Ti142  1  0.19625554  0.20547392  -0.01127312  1
  Ti  Ti143  1  0.70767264  0.10326906  0.61758704  1
  Ti  Ti144  1  0.49979319  0.29952668  0.39422152  1
  Ti  Ti145  1  0.51107431  0.68846009  0.86236396  1
  Ti  Ti146  1  0.20511842  0.60028021  0.50536584  1
  Ti  Ti147  1  0.28844873  0.09849479  0.86550470  1
  Ti  Ti148  1  0.88672910  0.50159281  0.11840872  1
  Ti  Ti149  1  0.61475430  0.01167768  0.74632909  1
  Ti  Ti150  1  0.70000662  0.70093314  0.37339318  1
  Ti  Ti151  1  0.19705645  0.79637903  0.24258118  1
  Ti  Ti152  1  0.89902539  0.48339252  0.63162090  1
  Ti  Ti153  1  0.90584720  0.91241692  0.87850698  1
  Ti  Ti154  1  0.90404061  0.71012326  0.61732576  1
  Ti  Ti155  1  0.30618157  0.49446698  0.61411966  1
  Ti  Ti156  1  0.19633109  -0.00096746  0.51178276  1
  Ti  Ti157  1  0.90084508  0.70040496  0.88493585  1
  Ti  Ti158  1  0.20035741  -0.00727254  0.25287310  1
  Ti  Ti159  1  0.79278054  0.20821359  -0.00497149  1
  Mo  Mo160  1  0.80157638  0.40114420  0.25240850  1
  Mo  Mo161  1  0.79918128  0.59984055  0.01085361  1
  Mo  Mo162  1  0.50292851  0.49259184  0.11742549  1
  Mo  Mo163  1  0.59891726  0.39729066  0.00413253  1
  Mo  Mo164  1  0.59889112  0.00009548  0.00661655  1
  Mo  Mo165  1  0.10110215  0.29391613  0.35228783  1
  Mo  Mo166  1  0.40108858  0.20115155  0.25664259  1
  Mo  Mo167  1  0.30263092  0.49822996  0.38871809  1
  Mo  Mo168  1  -0.00701264  -0.00046291  -0.00512593  1
  Mo  Mo169  1  0.80192262  0.39825163  0.76908571  1
  Mo  Mo170  1  0.69452476  0.11040548  0.89238693  1
  Mo  Mo171  1  0.30208512  0.89817499  0.64331144  1
  Mo  Mo172  1  0.49750887  0.29881478  0.86696003  1
  Mo  Mo173  1  0.89365083  0.30123180  0.35305432  1
  Mo  Mo174  1  0.10211312  0.90509869  0.61583786  1
  Mo  Mo175  1  0.79680470  -0.00237403  0.26306939  1
  Mo  Mo176  1  0.39327659  0.79595447  0.48978749  1
  Mo  Mo177  1  0.20145385  0.19427323  0.75762926  1
  Mo  Mo178  1  -0.00917949  0.20209378  0.77349192  1
  Mo  Mo179  1  0.90094547  0.50124248  0.37493913  1
  Mo  Mo180  1  0.39472839  0.39246738  0.49073442  1
  Mo  Mo181  1  0.10493775  0.70095918  0.11803084  1
  Mo  Mo182  1  0.20318729  -0.00066132  -0.01619483  1
  Mo  Mo183  1  0.78919980  0.20742449  0.23338293  1
  Mo  Mo184  1  0.28811950  0.89832995  0.36478980  1
  Mo  Mo185  1  0.10937469  0.69639572  0.60643677  1
  Mo  Mo186  1  0.10443436  0.29803827  0.88100273  1
  Mo  Mo187  1  0.79248740  0.00537215  0.76550258  1
  Mo  Mo188  1  0.70467564  0.71032120  0.62926301  1
  Mo  Mo189  1  0.69662680  0.49551300  0.36953004  1
  Mo  Mo190  1  0.79547001  0.20593980  0.49415686  1
  Mo  Mo191  1  0.39022338  0.59506380  0.49573452  1
  Mo  Mo192  1  0.89412327  0.10318492  0.86888918  1
  Mo  Mo193  1  -0.00669120  -0.00458587  0.76317817  1
  Mo  Mo194  1  0.60546209  0.38928778  0.48672811  1
  Mo  Mo195  1  0.20788828  0.40831045  0.76323637  1
  Mo  Mo196  1  0.59767147  0.59382219  0.27805702  1
  Mo  Mo197  1  0.89684975  0.70121513  0.11300558  1
  Mo  Mo198  1  0.60455923  0.60220480  0.72894315  1
  Mo  Mo199  1  0.59515824  0.39055222  0.74395231  1
