# generated using pymatgen
data_HfZrTaTiMo
_symmetry_space_group_name_H-M   'P 1'
_cell_length_a   15.93133218
_cell_length_b   15.92853032
_cell_length_c   15.17822862
_cell_angle_alpha   89.95557173
_cell_angle_beta   89.93098940
_cell_angle_gamma   90.02642762
_symmetry_Int_Tables_number   1
_chemical_formula_structural   HfZrTaTiMo
_chemical_formula_sum   'Hf40 Zr40 Ta40 Ti40 Mo40'
_cell_volume   3851.66402913
_cell_formula_units_Z   40
loop_
 _symmetry_equiv_pos_site_id
 _symmetry_equiv_pos_as_xyz
  1  'x, y, z'
loop_
 _atom_site_type_symbol
 _atom_site_label
 _atom_site_symmetry_multiplicity
 _atom_site_fract_x
 _atom_site_fract_y
 _atom_site_fract_z
 _atom_site_occupancy
  Hf  Hf0  1  0.69853982  0.69997782  0.87458640  1
  Hf  Hf1  1  0.69249291  0.89627472  0.14888589  1
  Hf  Hf2  1  0.90023179  0.69157147  0.37876525  1
  Hf  Hf3  1  0.18961355  0.00100026  0.47434969  1
  Hf  Hf4  1  0.79660029  0.19614736  -0.00876371  1
  Hf  Hf5  1  0.39258725  0.40771061  0.76041679  1
  Hf  Hf6  1  0.59701917  0.79850563  0.01244859  1
  Hf  Hf7  1  0.69011516  0.68838350  0.12997490  1
  Hf  Hf8  1  -0.00371948  0.80391615  0.74356685  1
  Hf  Hf9  1  0.90153690  0.10103760  0.12293290  1
  Hf  Hf10  1  0.79552743  0.40253638  0.51137185  1
  Hf  Hf11  1  0.30772038  0.49830310  0.36110918  1
  Hf  Hf12  1  0.69721139  0.09100513  0.87079720  1
  Hf  Hf13  1  0.29755480  0.30070206  0.11538398  1
  Hf  Hf14  1  0.79058931  0.00433491  0.49719156  1
  Hf  Hf15  1  0.69622226  0.50496924  0.37598266  1
  Hf  Hf16  1  0.80107292  0.59828227  0.73699552  1
  Hf  Hf17  1  0.10192873  0.90120614  0.88337692  1
  Hf  Hf18  1  0.39922348  0.61413430  0.75067536  1
  Hf  Hf19  1  0.10230278  0.29512130  0.86901579  1
  Hf  Hf20  1  0.79863354  0.00783361  0.25991794  1
  Hf  Hf21  1  0.31137150  0.69092702  0.36861867  1
  Hf  Hf22  1  0.09682712  0.69622996  0.36189011  1
  Hf  Hf23  1  -0.00410839  0.18289548  0.75843389  1
  Hf  Hf24  1  0.90878674  0.89706556  0.36884327  1
  Hf  Hf25  1  0.20689604  0.60317072  -0.01001988  1
  Hf  Hf26  1  0.59029174  -0.01272718  0.72490671  1
  Hf  Hf27  1  0.48592141  0.09358227  0.88513717  1
  Hf  Hf28  1  0.69382475  0.29606636  0.12871324  1
  Hf  Hf29  1  0.20074688  0.81086981  0.25334417  1
  Hf  Hf30  1  0.10397559  0.70814199  0.87095947  1
  Hf  Hf31  1  0.09937416  0.30527433  0.37247545  1
  Hf  Hf32  1  0.69203050  0.89203721  0.37316206  1
  Hf  Hf33  1  0.40677797  0.81651748  0.73603139  1
  Hf  Hf34  1  0.39517642  0.39791771  0.52177094  1
  Hf  Hf35  1  0.49063916  0.30212911  0.37533392  1
  Hf  Hf36  1  0.81573525  0.39494189  -0.00192158  1
  Hf  Hf37  1  0.00146051  0.20134860  0.50277981  1
  Hf  Hf38  1  0.30106921  0.50745797  0.12679952  1
  Hf  Hf39  1  0.93311721  0.48319681  0.13610558  1
  Zr  Zr40  1  0.90350542  0.89749950  0.14017577  1
  Zr  Zr41  1  0.59003740  -0.01003668  0.01058943  1
  Zr  Zr42  1  0.59052713  0.18228017  0.74585572  1
  Zr  Zr43  1  0.39632032  0.19202556  0.23850670  1
  Zr  Zr44  1  0.81143713  0.39044473  0.24957857  1
  Zr  Zr45  1  0.40727748  0.61264162  -0.00825689  1
  Zr  Zr46  1  0.29980638  0.30603383  0.36073076  1
  Zr  Zr47  1  0.09058275  0.09278479  0.62334348  1
  Zr  Zr48  1  0.51168506  0.71510806  0.61712295  1
  Zr  Zr49  1  0.20649431  0.20548141  0.51023245  1
  Zr  Zr50  1  0.90107085  0.29386095  0.63650867  1
  Zr  Zr51  1  0.21688059  0.60420896  0.76391814  1
  Zr  Zr52  1  0.20240370  0.40330056  0.51411074  1
  Zr  Zr53  1  0.89810290  0.70591147  0.87604675  1
  Zr  Zr54  1  0.70875401  0.29008081  0.65191369  1
  Zr  Zr55  1  0.18437563  0.19176691  0.23112002  1
  Zr  Zr56  1  -0.00992061  0.21395877  0.24233698  1
  Zr  Zr57  1  0.40336054  0.40115028  -0.00604111  1
  Zr  Zr58  1  0.20147381  0.00495661  0.75224177  1
  Zr  Zr59  1  0.80567230  0.59509618  0.24750407  1
  Zr  Zr60  1  0.43620418  0.60105394  0.23772016  1
  Zr  Zr61  1  0.59601699  0.19417364  0.50976793  1
  Zr  Zr62  1  0.10016627  0.90452853  0.62908004  1
  Zr  Zr63  1  0.69875510  0.89281782  0.86570189  1
  Zr  Zr64  1  0.00463005  0.80510863  0.50197215  1
  Zr  Zr65  1  0.68690949  0.30730322  0.36959081  1
  Zr  Zr66  1  0.39597820  0.01983068  0.72586706  1
  Zr  Zr67  1  0.00709247  0.58679556  -0.00976310  1
  Zr  Zr68  1  0.31263582  0.91702410  0.88930975  1
  Zr  Zr69  1  0.11402364  0.69799681  0.62865822  1
  Zr  Zr70  1  0.69217817  0.49744281  0.12038650  1
  Zr  Zr71  1  0.59401645  0.40125613  0.52740532  1
  Zr  Zr72  1  0.10486636  0.50514449  0.36270432  1
  Zr  Zr73  1  0.69094205  0.09906906  0.12836657  1
  Zr  Zr74  1  0.20569861  0.79978020  0.48615902  1
  Zr  Zr75  1  0.30618971  0.70834687  0.13762301  1
  Zr  Zr76  1  0.80365514  0.80880408  0.72986188  1
  Zr  Zr77  1  0.81173683  0.59672912  0.00352864  1
  Zr  Zr78  1  0.70649551  0.49235779  0.86829929  1
  Zr  Zr79  1  0.09912300  0.90422523  0.12510963  1
  Ta  Ta80  1  0.58231575  0.77918444  0.25818492  1
  Ta  Ta81  1  0.80169016  0.80082267  0.01684441  1
  Ta  Ta82  1  0.01772500  0.01533065  0.26129968  1
  Ta  Ta83  1  0.58594834  0.19635268  0.25206241  1
  Ta  Ta84  1  0.90831294  0.49820301  0.38612693  1
  Ta  Ta85  1  0.30068930  0.90317405  0.60542462  1
  Ta  Ta86  1  0.00715233  0.59282873  0.51229337  1
  Ta  Ta87  1  0.00530180  0.40159164  0.51040259  1
  Ta  Ta88  1  0.22238609  0.80253869  0.75210204  1
  Ta  Ta89  1  0.29485031  0.11239310  0.89661059  1
  Ta  Ta90  1  0.70287614  0.69855788  0.60757526  1
  Ta  Ta91  1  0.29531663  0.29406411  0.87511292  1
  Ta  Ta92  1  0.89431398  0.29692717  0.86186855  1
  Ta  Ta93  1  0.79342072  0.19840786  0.49157688  1
  Ta  Ta94  1  0.40094315  0.59309907  0.51790248  1
  Ta  Ta95  1  0.50128113  0.49735570  0.38559379  1
  Ta  Ta96  1  0.20537378  0.01243822  0.25068192  1
  Ta  Ta97  1  0.48695116  0.29335341  0.64673390  1
  Ta  Ta98  1  0.19184166  0.40721531  -0.00357461  1
  Ta  Ta99  1  -0.01691740  -0.00152968  0.76796280  1
  Ta  Ta100  1  0.90145247  0.49726779  0.62617207  1
  Ta  Ta101  1  0.59616746  0.39246440  -0.00863734  1
  Ta  Ta102  1  0.30971711  0.91034523  0.13324545  1
  Ta  Ta103  1  0.60018417  0.60142440  0.74045025  1
  Ta  Ta104  1  0.09969864  0.68955056  0.13572429  1
  Ta  Ta105  1  -0.00252615  0.59970600  0.74521988  1
  Ta  Ta106  1  0.50831579  0.50757978  0.87230066  1
  Ta  Ta107  1  0.10148803  0.09801236  0.88870785  1
  Ta  Ta108  1  0.79826692  -0.00892969  0.00451236  1
  Ta  Ta109  1  0.41120595  0.81347356  0.01472441  1
  Ta  Ta110  1  0.68558746  0.88672451  0.60640681  1
  Ta  Ta111  1  0.10137984  0.49705315  0.64063211  1
  Ta  Ta112  1  0.50712660  0.71391924  0.86835835  1
  Ta  Ta113  1  0.20876296  0.80102537  0.00615215  1
  Ta  Ta114  1  0.10300456  0.49309851  0.85708632  1
  Ta  Ta115  1  0.90251077  0.10507340  0.37985173  1
  Ta  Ta116  1  0.18979909  0.39978736  0.22702966  1
  Ta  Ta117  1  0.00044527  0.79511292  0.01015818  1
  Ta  Ta118  1  0.49515064  0.89774601  0.37585256  1
  Ta  Ta119  1  0.79573051  0.19989371  0.26216967  1
  Ti  Ti120  1  0.89900391  0.30429158  0.38762822  1
  Ti  Ti121  1  0.80022952  0.79999452  0.49811423  1
  Ti  Ti122  1  0.89034939  0.09937076  0.61802051  1
  Ti  Ti123  1  0.41158958  0.39973886  0.22656020  1
  Ti  Ti124  1  0.21256319  0.19184711  0.74264580  1
  Ti  Ti125  1  0.50264733  0.90142707  0.87238284  1
  Ti  Ti126  1  0.40238368  0.20251548  0.00775860  1
  Ti  Ti127  1  -0.00383132  0.40097458  0.75069334  1
  Ti  Ti128  1  0.68778960  0.10353896  0.37246813  1
  Ti  Ti129  1  0.90364012  0.91492245  0.61067849  1
  Ti  Ti130  1  0.18690935  0.20199751  0.01293383  1
  Ti  Ti131  1  0.89372415  0.89749183  0.88574524  1
  Ti  Ti132  1  -0.00653271  0.00179720  -0.00640190  1
  Ti  Ti133  1  0.79814736  0.78916702  0.25252888  1
  Ti  Ti134  1  0.59108597  0.00193704  0.49952197  1
  Ti  Ti135  1  0.60150766  0.58756391  0.51778965  1
  Ti  Ti136  1  0.50660195  0.68853106  0.39321338  1
  Ti  Ti137  1  0.40037191  0.00780635  0.49595874  1
  Ti  Ti138  1  0.79848448  0.00444431  0.73804477  1
  Ti  Ti139  1  0.59672847  0.40431505  0.74782144  1
  Ti  Ti140  1  0.58313021  0.41028810  0.23617380  1
  Ti  Ti141  1  0.49344066  0.09642849  0.11902352  1
  Ti  Ti142  1  -0.00753352  0.20475167  -0.00470237  1
  Ti  Ti143  1  0.69775261  0.29522010  0.86400838  1
  Ti  Ti144  1  0.20881097  0.59832598  0.50740411  1
  Ti  Ti145  1  0.10653758  0.30452075  0.64507728  1
  Ti  Ti146  1  0.39614099  0.19794647  0.51774355  1
  Ti  Ti147  1  0.30949582  0.90430032  0.36757254  1
  Ti  Ti148  1  0.40050551  0.00679834  0.25162579  1
  Ti  Ti149  1  0.29384490  0.50203783  0.63753138  1
  Ti  Ti150  1  0.91091102  0.69720784  0.13533213  1
  Ti  Ti151  1  0.07319722  0.32237010  0.11061068  1
  Ti  Ti152  1  0.40155348  0.80046780  0.49597874  1
  Ti  Ti153  1  0.69827563  0.69199744  0.38800845  1
  Ti  Ti154  1  0.30436770  0.10842498  0.37875425  1
  Ti  Ti155  1  0.59109326  0.20527011  -0.00140872  1
  Ti  Ti156  1  0.20187673  0.00774466  0.01627564  1
  Ti  Ti157  1  0.89960141  0.69587231  0.60922786  1
  Ti  Ti158  1  0.58186637  0.00665268  0.26139335  1
  Ti  Ti159  1  0.49755317  0.29427652  0.86495239  1
  Mo  Mo160  1  0.90660324  0.49362319  0.85266323  1
  Mo  Mo161  1  0.49575059  0.09975754  0.60686320  1
  Mo  Mo162  1  0.30527903  0.70496742  0.60813362  1
  Mo  Mo163  1  0.49620185  0.90209013  0.59244367  1
  Mo  Mo164  1  0.30012644  0.49609107  0.88211373  1
  Mo  Mo165  1  0.29543831  0.09753539  0.60642934  1
  Mo  Mo166  1  0.39052352  0.19964889  0.75282845  1
  Mo  Mo167  1  0.50707762  0.70105359  0.11655945  1
  Mo  Mo168  1  0.49116598  0.09867459  0.38571959  1
  Mo  Mo169  1  0.49614616  0.89911543  0.15575404  1
  Mo  Mo170  1  0.09171067  0.09998960  0.10328770  1
  Mo  Mo171  1  0.49792116  0.50195577  0.64158373  1
  Mo  Mo172  1  0.00255422  0.39674434  0.26766549  1
  Mo  Mo173  1  0.59987700  0.59824082  -0.02087991  1
  Mo  Mo174  1  0.51211540  0.50206910  0.09945995  1
  Mo  Mo175  1  -0.00047213  0.79650044  0.23965002  1
  Mo  Mo176  1  0.20639833  0.59929662  0.24233421  1
  Mo  Mo177  1  0.09853235  0.10730643  0.37970674  1
  Mo  Mo178  1  0.39813200  0.00315082  0.01826239  1
  Mo  Mo179  1  0.80384930  0.59759622  0.50966653  1
  Mo  Mo180  1  0.60281272  0.59502280  0.26626343  1
  Mo  Mo181  1  0.09996870  0.90335792  0.35459683  1
  Mo  Mo182  1  0.40522814  0.80506333  0.25863589  1
  Mo  Mo183  1  0.00407420  0.39469575  -0.02635007  1
  Mo  Mo184  1  -0.00529681  0.00477875  0.48083927  1
  Mo  Mo185  1  0.70574307  0.08940982  0.62355458  1
  Mo  Mo186  1  0.80292638  0.39803934  0.75298178  1
  Mo  Mo187  1  0.80192137  0.18417631  0.76534750  1
  Mo  Mo188  1  0.29903876  0.29639221  0.64844897  1
  Mo  Mo189  1  0.00179078  0.59807408  0.25376878  1
  Mo  Mo190  1  0.69993449  0.50083128  0.63590008  1
  Mo  Mo191  1  0.89736980  0.09004150  0.88830418  1
  Mo  Mo192  1  0.60004078  0.79888141  0.74377171  1
  Mo  Mo193  1  0.29763869  0.09920857  0.11250704  1
  Mo  Mo194  1  0.89717203  0.29573791  0.11242752  1
  Mo  Mo195  1  0.10653647  0.50171279  0.12669226  1
  Mo  Mo196  1  0.50533658  0.29803664  0.12268954  1
  Mo  Mo197  1  0.20053180  0.39649800  0.75400063  1
  Mo  Mo198  1  0.31003866  0.72471638  0.88738480  1
  Mo  Mo199  1  0.60112665  0.79436545  0.47716499  1
