# generated using pymatgen
data_HfZrTaTiMo
_symmetry_space_group_name_H-M   'P 1'
_cell_length_a   15.93277673
_cell_length_b   15.93242615
_cell_length_c   15.21283326
_cell_angle_alpha   90.10432464
_cell_angle_beta   89.92873176
_cell_angle_gamma   90.14717037
_symmetry_Int_Tables_number   1
_chemical_formula_structural   HfZrTaTiMo
_chemical_formula_sum   'Hf40 Zr40 Ta40 Ti40 Mo40'
_cell_volume   3861.72197544
_cell_formula_units_Z   40
loop_
 _symmetry_equiv_pos_site_id
 _symmetry_equiv_pos_as_xyz
  1  'x, y, z'
loop_
 _atom_site_type_symbol
 _atom_site_label
 _atom_site_symmetry_multiplicity
 _atom_site_fract_x
 _atom_site_fract_y
 _atom_site_fract_z
 _atom_site_occupancy
  Hf  Hf0  1  0.29752720  0.30085692  0.87848063  1
  Hf  Hf1  1  0.89952666  0.70326801  0.88353308  1
  Hf  Hf2  1  0.80875045  0.01242752  0.75292352  1
  Hf  Hf3  1  0.90096703  0.49861342  0.63479538  1
  Hf  Hf4  1  0.69968335  0.49595397  0.38007386  1
  Hf  Hf5  1  0.30743067  0.89840030  0.13258153  1
  Hf  Hf6  1  0.10277739  0.29308853  0.86427665  1
  Hf  Hf7  1  0.10358109  0.70094955  0.35214311  1
  Hf  Hf8  1  0.32334363  0.91118451  0.35140834  1
  Hf  Hf9  1  0.29305843  0.88582917  0.88288494  1
  Hf  Hf10  1  0.57972843  0.38292510  0.50281768  1
  Hf  Hf11  1  0.69791618  0.30190464  0.13666391  1
  Hf  Hf12  1  0.59094418  0.60580826  0.74573246  1
  Hf  Hf13  1  0.00078035  0.80238896  0.48454122  1
  Hf  Hf14  1  0.29467401  0.49916851  0.90043620  1
  Hf  Hf15  1  0.10237639  0.50524802  0.35419754  1
  Hf  Hf16  1  0.01173012  0.60134627  0.76865257  1
  Hf  Hf17  1  0.29229059  0.09290414  0.63411582  1
  Hf  Hf18  1  0.10643441  0.89923679  0.62319278  1
  Hf  Hf19  1  0.09902141  0.50850007  0.61505469  1
  Hf  Hf20  1  0.50428405  0.09676641  0.87444583  1
  Hf  Hf21  1  0.29143845  0.30308707  0.63084156  1
  Hf  Hf22  1  0.11233153  0.70716191  0.61609936  1
  Hf  Hf23  1  0.70592041  0.49839949  0.86271847  1
  Hf  Hf24  1  0.09161576  0.30284381  0.64458256  1
  Hf  Hf25  1  0.19769202  0.42018289  0.75480340  1
  Hf  Hf26  1  0.48837330  0.08172517  0.38231327  1
  Hf  Hf27  1  0.10426109  0.90838246  0.13172019  1
  Hf  Hf28  1  0.60079033  0.39471923  -0.00857411  1
  Hf  Hf29  1  0.38320367  0.18269096  0.24713100  1
  Hf  Hf30  1  0.08769414  0.10951735  0.35394189  1
  Hf  Hf31  1  0.79866699  0.80386947  0.01714962  1
  Hf  Hf32  1  0.70307747  0.08586708  0.39472978  1
  Hf  Hf33  1  0.90755566  0.29315885  0.36256080  1
  Hf  Hf34  1  0.59537430  0.39495815  0.73421594  1
  Hf  Hf35  1  0.89042773  0.30222753  0.63715404  1
  Hf  Hf36  1  0.20736619  0.61359742  0.75557097  1
  Hf  Hf37  1  0.60024237  0.79996541  0.49318144  1
  Hf  Hf38  1  0.50305574  0.70252063  0.14824598  1
  Hf  Hf39  1  0.39706236  -0.00986339  0.75140459  1
  Zr  Zr40  1  0.50042833  0.88408352  0.87025608  1
  Zr  Zr41  1  0.70477899  0.70273875  0.62176976  1
  Zr  Zr42  1  0.01705877  0.81418552  0.76894814  1
  Zr  Zr43  1  0.28735975  0.48971662  0.13773054  1
  Zr  Zr44  1  0.90781052  0.70952739  0.63123761  1
  Zr  Zr45  1  0.40396861  0.19780881  0.00871749  1
  Zr  Zr46  1  0.81482815  0.60204372  0.49791158  1
  Zr  Zr47  1  0.50700664  0.89889111  0.13911293  1
  Zr  Zr48  1  -0.00042057  0.20757277  0.50456003  1
  Zr  Zr49  1  0.40680248  0.21391506  0.50112049  1
  Zr  Zr50  1  0.70860687  0.69969752  0.37298426  1
  Zr  Zr51  1  0.48852496  0.50204040  0.87743236  1
  Zr  Zr52  1  0.49670655  0.30303050  0.86695704  1
  Zr  Zr53  1  0.00308811  0.00177298  0.50088481  1
  Zr  Zr54  1  0.91032194  0.92115507  0.89960552  1
  Zr  Zr55  1  0.71168682  0.89935205  0.61693040  1
  Zr  Zr56  1  0.10047409  0.10869233  0.64847740  1
  Zr  Zr57  1  0.27360118  0.28842178  0.12252203  1
  Zr  Zr58  1  0.40435224  0.19924204  0.74228382  1
  Zr  Zr59  1  0.70013326  0.29220579  0.38407758  1
  Zr  Zr60  1  -0.02059157  0.80159817  0.23250178  1
  Zr  Zr61  1  0.19369756  0.40018595  0.49338731  1
  Zr  Zr62  1  0.39362653  0.59686583  0.74317889  1
  Zr  Zr63  1  0.69940429  0.70227241  0.14208360  1
  Zr  Zr64  1  0.19937012  0.19842446  0.48504192  1
  Zr  Zr65  1  0.50813838  0.49230906  0.13996680  1
  Zr  Zr66  1  0.08553645  0.08715430  0.88440213  1
  Zr  Zr67  1  -0.01226293  0.21625093  -0.00322355  1
  Zr  Zr68  1  0.80146231  0.18389025  0.24945518  1
  Zr  Zr69  1  0.60891549  -0.00370396  0.74961704  1
  Zr  Zr70  1  0.59528926  0.61150036  -0.00870796  1
  Zr  Zr71  1  0.21844050  0.02843300  0.24440251  1
  Zr  Zr72  1  0.90022779  0.49124451  0.12396766  1
  Zr  Zr73  1  0.69550703  0.09686580  0.11511369  1
  Zr  Zr74  1  0.20557172  -0.00017539  0.48580726  1
  Zr  Zr75  1  0.40620212  0.80933182  0.48778912  1
  Zr  Zr76  1  0.80605216  0.37970363  -0.01508353  1
  Zr  Zr77  1  0.70518363  0.49452064  0.61796586  1
  Zr  Zr78  1  0.70013516  0.49923116  0.13132570  1
  Zr  Zr79  1  0.58805407  0.19348621  0.26178225  1
  Ta  Ta80  1  0.61110977  0.19575593  0.74323728  1
  Ta  Ta81  1  0.39847414  0.60257327  0.02359174  1
  Ta  Ta82  1  0.70444896  0.90137700  0.88350378  1
  Ta  Ta83  1  0.89582544  0.09732141  0.10370552  1
  Ta  Ta84  1  0.89370021  0.09269029  0.37890509  1
  Ta  Ta85  1  0.10046138  0.90459846  0.34937366  1
  Ta  Ta86  1  0.40803633  0.79018186  0.00798931  1
  Ta  Ta87  1  0.29637739  0.69851457  0.36300986  1
  Ta  Ta88  1  0.09634809  0.30455852  0.34824789  1
  Ta  Ta89  1  0.00548039  0.79730665  0.01461702  1
  Ta  Ta90  1  0.19314132  0.60178597  0.02099488  1
  Ta  Ta91  1  -0.00480885  0.40812019  0.77087297  1
  Ta  Ta92  1  0.49116172  0.48895436  0.37595673  1
  Ta  Ta93  1  0.29245731  0.88459232  0.63495863  1
  Ta  Ta94  1  0.11494974  0.70852251  0.89377450  1
  Ta  Ta95  1  0.79854198  -0.01878947  0.23250343  1
  Ta  Ta96  1  -0.01323972  0.00980821  0.23578740  1
  Ta  Ta97  1  0.00409446  0.60241913  0.00472171  1
  Ta  Ta98  1  0.80372343  0.81018195  0.76468306  1
  Ta  Ta99  1  0.39932948  0.59565696  0.25596274  1
  Ta  Ta100  1  0.30017291  0.30667963  0.36519901  1
  Ta  Ta101  1  0.29898193  0.70071355  0.59983122  1
  Ta  Ta102  1  0.70625189  0.10500603  0.60996908  1
  Ta  Ta103  1  0.50692271  0.09421145  0.62253583  1
  Ta  Ta104  1  0.60072869  -0.00457985  -0.00405509  1
  Ta  Ta105  1  0.60766903  0.20430816  -0.00879316  1
  Ta  Ta106  1  0.40108824  -0.00461190  0.00290292  1
  Ta  Ta107  1  0.80032758  0.40054389  0.25881062  1
  Ta  Ta108  1  0.29789429  0.50171497  0.37068621  1
  Ta  Ta109  1  0.20386528  0.80721482  0.47464179  1
  Ta  Ta110  1  0.00613967  0.40773073  -0.01281434  1
  Ta  Ta111  1  -0.00389744  0.40548447  0.48872103  1
  Ta  Ta112  1  0.10499357  0.12158723  0.11913858  1
  Ta  Ta113  1  0.30003660  0.70351384  0.14441049  1
  Ta  Ta114  1  0.29304721  0.09826625  0.87912521  1
  Ta  Ta115  1  0.30641279  0.69572782  0.89710526  1
  Ta  Ta116  1  0.40009232  0.39729764  0.01952738  1
  Ta  Ta117  1  0.49341453  0.69851558  0.61379477  1
  Ta  Ta118  1  0.90753336  0.50372240  0.35968901  1
  Ta  Ta119  1  0.19100749  -0.01651085  0.76849341  1
  Ti  Ti120  1  0.90143840  0.70039466  0.36581535  1
  Ti  Ti121  1  0.81120027  0.39564193  0.48987069  1
  Ti  Ti122  1  0.40203755  0.39026712  0.24825944  1
  Ti  Ti123  1  0.89929208  0.29768851  0.13652588  1
  Ti  Ti124  1  -0.00625187  -0.00097385  0.74515820  1
  Ti  Ti125  1  0.20067311  0.00270329  0.00245322  1
  Ti  Ti126  1  0.20238053  0.79538430  0.02050706  1
  Ti  Ti127  1  0.39951034  -0.00615260  0.51778121  1
  Ti  Ti128  1  0.59830336  0.59174959  0.26678990  1
  Ti  Ti129  1  0.50225821  0.09578591  0.12088159  1
  Ti  Ti130  1  0.61354349  0.81265552  0.26566607  1
  Ti  Ti131  1  0.60810270  -0.00305160  0.25446306  1
  Ti  Ti132  1  0.09394864  0.31625746  0.13457607  1
  Ti  Ti133  1  0.39667883  0.40696738  0.73429627  1
  Ti  Ti134  1  0.79926482  0.60281704  0.00344391  1
  Ti  Ti135  1  -0.02658871  0.18853186  0.76400571  1
  Ti  Ti136  1  0.89438587  0.50407583  0.87590679  1
  Ti  Ti137  1  0.39407250  0.78084894  0.75036400  1
  Ti  Ti138  1  0.60020296  0.79856763  -0.00096041  1
  Ti  Ti139  1  0.88889814  0.10647613  0.61201617  1
  Ti  Ti140  1  0.80114185  0.60882401  0.75054818  1
  Ti  Ti141  1  0.81180611  0.60504076  0.24477738  1
  Ti  Ti142  1  0.00491749  0.60237690  0.22039811  1
  Ti  Ti143  1  0.50631308  0.29713608  0.13444097  1
  Ti  Ti144  1  0.59136740  0.59981786  0.49561143  1
  Ti  Ti145  1  0.29693044  0.50934918  0.59922027  1
  Ti  Ti146  1  0.48606541  0.50018974  0.60562580  1
  Ti  Ti147  1  0.71560679  0.90136975  0.38734117  1
  Ti  Ti148  1  0.49820564  0.70193643  0.36613585  1
  Ti  Ti149  1  0.49726177  0.88816297  0.63631878  1
  Ti  Ti150  1  0.60194120  0.79252727  0.75042139  1
  Ti  Ti151  1  0.39872069  0.60143086  0.48261952  1
  Ti  Ti152  1  0.89954568  0.89763263  0.61960778  1
  Ti  Ti153  1  0.00368861  0.60144377  0.49080729  1
  Ti  Ti154  1  0.70908126  0.29258385  0.62383080  1
  Ti  Ti155  1  0.89495684  0.90553103  0.37320042  1
  Ti  Ti156  1  0.59422351  0.19801098  0.50797843  1
  Ti  Ti157  1  0.59118096  -0.01248496  0.50710606  1
  Ti  Ti158  1  0.70980877  0.10297144  0.88582325  1
  Ti  Ti159  1  0.70057268  0.70597138  0.87190906  1
  Mo  Mo160  1  0.89189599  0.10442831  0.89271930  1
  Mo  Mo161  1  0.10261900  0.70202015  0.12626324  1
  Mo  Mo162  1  0.80166674  0.20009609  0.49564697  1
  Mo  Mo163  1  0.80852254  -0.00196061  0.50967348  1
  Mo  Mo164  1  0.81387323  0.80454921  0.48227101  1
  Mo  Mo165  1  0.79863825  0.80395264  0.25302843  1
  Mo  Mo166  1  0.49994710  0.29613185  0.63582632  1
  Mo  Mo167  1  0.79780130  0.39935075  0.75651120  1
  Mo  Mo168  1  0.59687108  0.39475314  0.26889244  1
  Mo  Mo169  1  0.19322192  0.19760367  -0.01527895  1
  Mo  Mo170  1  0.19723983  0.20562717  0.25582838  1
  Mo  Mo171  1  0.51592929  0.90446916  0.36373390  1
  Mo  Mo172  1  0.10646386  0.89531497  0.90212307  1
  Mo  Mo173  1  0.00540239  0.00204825  0.02464805  1
  Mo  Mo174  1  -0.00366392  0.40207001  0.24421829  1
  Mo  Mo175  1  0.20034249  0.60280634  0.23630124  1
  Mo  Mo176  1  0.89779319  0.90393113  0.11852802  1
  Mo  Mo177  1  0.49594135  0.70072878  0.87939067  1
  Mo  Mo178  1  0.79307286  0.19659620  0.75746768  1
  Mo  Mo179  1  0.39351914  0.40531195  0.49998131  1
  Mo  Mo180  1  0.20172258  0.80612237  0.25340637  1
  Mo  Mo181  1  0.69876948  0.29388945  0.85681999  1
  Mo  Mo182  1  0.18866836  0.39943405  -0.00576243  1
  Mo  Mo183  1  0.79448282  0.00033617  0.00635327  1
  Mo  Mo184  1  0.30512384  0.10252660  0.39113773  1
  Mo  Mo185  1  0.20090192  0.18886864  0.76436939  1
  Mo  Mo186  1  0.49138451  0.29916982  0.35926890  1
  Mo  Mo187  1  0.40785024  0.79547211  0.26060235  1
  Mo  Mo188  1  0.79442263  0.20198198  -0.00905037  1
  Mo  Mo189  1  0.20326393  0.60830875  0.48956465  1
  Mo  Mo190  1  0.69326813  0.89985263  0.11859223  1
  Mo  Mo191  1  -0.00430816  0.19851603  0.22730562  1
  Mo  Mo192  1  0.29653639  0.09770773  0.09770070  1
  Mo  Mo193  1  0.41206877  0.00850867  0.22970495  1
  Mo  Mo194  1  0.21079614  0.79512841  0.75749310  1
  Mo  Mo195  1  0.10122430  0.50695281  0.89128768  1
  Mo  Mo196  1  0.19974579  0.40102224  0.25890049  1
  Mo  Mo197  1  0.89537624  0.30189266  0.85550474  1
  Mo  Mo198  1  0.89708281  0.69243981  0.11297577  1
  Mo  Mo199  1  0.09748529  0.49565365  0.12215621  1
