# generated using pymatgen
data_HfZrTaTiMo
_symmetry_space_group_name_H-M   'P 1'
_cell_length_a   15.93835124
_cell_length_b   15.92248861
_cell_length_c   15.19632268
_cell_angle_alpha   90.03430125
_cell_angle_beta   90.02254890
_cell_angle_gamma   90.02788844
_symmetry_Int_Tables_number   1
_chemical_formula_structural   HfZrTaTiMo
_chemical_formula_sum   'Hf40 Zr40 Ta40 Ti40 Mo40'
_cell_volume   3856.49421681
_cell_formula_units_Z   40
loop_
 _symmetry_equiv_pos_site_id
 _symmetry_equiv_pos_as_xyz
  1  'x, y, z'
loop_
 _atom_site_type_symbol
 _atom_site_label
 _atom_site_symmetry_multiplicity
 _atom_site_fract_x
 _atom_site_fract_y
 _atom_site_fract_z
 _atom_site_occupancy
  Hf  Hf0  1  0.80109831  0.18495237  0.47142541  1
  Hf  Hf1  1  0.30179754  0.09187520  0.37944830  1
  Hf  Hf2  1  0.70282412  0.71143475  0.36638360  1
  Hf  Hf3  1  0.20378354  0.79594723  0.73103406  1
  Hf  Hf4  1  -0.00970757  0.79997667  0.74850455  1
  Hf  Hf5  1  0.78819725  0.59606631  0.50049433  1
  Hf  Hf6  1  0.91270180  0.29825229  0.14226281  1
  Hf  Hf7  1  0.60642855  -0.00085273  0.49619326  1
  Hf  Hf8  1  0.48877447  0.10705003  0.11442372  1
  Hf  Hf9  1  0.28114597  0.49666429  0.85662918  1
  Hf  Hf10  1  0.70014013  0.50950716  0.13373732  1
  Hf  Hf11  1  0.40621420  0.40352655  0.75249137  1
  Hf  Hf12  1  0.39637716  0.40888914  0.49543088  1
  Hf  Hf13  1  0.40631800  -0.00264444  0.74820748  1
  Hf  Hf14  1  0.20233299  0.79588464  -0.00153708  1
  Hf  Hf15  1  0.29831198  0.29839869  0.11916522  1
  Hf  Hf16  1  0.38429612  0.41503055  0.00104692  1
  Hf  Hf17  1  0.19962982  0.19873435  0.25752509  1
  Hf  Hf18  1  0.10509086  0.49490620  0.14900079  1
  Hf  Hf19  1  0.49056638  0.29809172  0.89849900  1
  Hf  Hf20  1  0.20470086  0.60300330  0.51447139  1
  Hf  Hf21  1  0.61185051  0.20348790  0.00157828  1
  Hf  Hf22  1  0.20327817  0.59328998  0.00246625  1
  Hf  Hf23  1  0.48269117  0.88888258  0.37560865  1
  Hf  Hf24  1  0.80590826  -0.00227050  0.25791697  1
  Hf  Hf25  1  0.59505400  0.40678669  0.48603949  1
  Hf  Hf26  1  0.70309385  0.10447641  0.13414260  1
  Hf  Hf27  1  0.20349827  0.80780186  0.24736325  1
  Hf  Hf28  1  0.59929993  0.19758782  0.76042700  1
  Hf  Hf29  1  0.40333494  0.20843696  0.26117661  1
  Hf  Hf30  1  0.59695339  0.20095422  0.47977502  1
  Hf  Hf31  1  0.91010334  0.50181167  0.13583078  1
  Hf  Hf32  1  0.09909597  0.69524336  0.13343618  1
  Hf  Hf33  1  0.89061026  0.48459225  0.86403178  1
  Hf  Hf34  1  0.58840783  0.39979329  0.25350561  1
  Hf  Hf35  1  0.89748654  0.28509428  0.61613830  1
  Hf  Hf36  1  0.29184259  0.50979190  0.35924115  1
  Hf  Hf37  1  0.10698631  0.30782921  0.86319099  1
  Hf  Hf38  1  0.80068635  -0.00160349  0.00620420  1
  Hf  Hf39  1  -0.00238563  -0.00030743  -0.01351910  1
  Zr  Zr40  1  0.90624689  0.49441017  0.61841372  1
  Zr  Zr41  1  0.59383504  0.79978890  0.51019409  1
  Zr  Zr42  1  0.58820460  0.79641174  0.24576058  1
  Zr  Zr43  1  0.00450489  -0.00237725  0.25963966  1
  Zr  Zr44  1  0.00048074  0.20594673  -0.00817128  1
  Zr  Zr45  1  0.69470654  0.70082745  0.87898286  1
  Zr  Zr46  1  0.89989233  0.70749274  0.39323911  1
  Zr  Zr47  1  0.89701231  0.69692831  0.13071997  1
  Zr  Zr48  1  0.60024827  0.40088395  0.76027731  1
  Zr  Zr49  1  0.39970641  0.60373626  0.75443978  1
  Zr  Zr50  1  0.09810164  0.10444434  0.62944277  1
  Zr  Zr51  1  0.00009730  0.79934328  -0.01286295  1
  Zr  Zr52  1  0.09813443  0.10611108  0.12779170  1
  Zr  Zr53  1  0.59556843  0.59644814  0.48810604  1
  Zr  Zr54  1  0.79597262  0.80152956  0.73746355  1
  Zr  Zr55  1  0.70065564  0.29963769  0.36002708  1
  Zr  Zr56  1  0.61754509  0.40832971  -0.00786760  1
  Zr  Zr57  1  0.29764050  0.10728932  0.63170831  1
  Zr  Zr58  1  0.50407977  0.70097098  0.10524261  1
  Zr  Zr59  1  -0.00137586  0.80185248  0.26235450  1
  Zr  Zr60  1  0.41196791  0.19672774  0.75772649  1
  Zr  Zr61  1  0.73634458  0.30183440  0.85963543  1
  Zr  Zr62  1  0.59573820  -0.00082656  0.74808933  1
  Zr  Zr63  1  0.79250278  0.39499819  0.49601869  1
  Zr  Zr64  1  -0.01370492  0.19560917  0.76255292  1
  Zr  Zr65  1  0.29669900  0.30585556  0.63257316  1
  Zr  Zr66  1  0.70901468  0.10556906  0.62654563  1
  Zr  Zr67  1  0.80811868  -0.00268799  0.75609767  1
  Zr  Zr68  1  0.40182900  0.60794884  0.49933751  1
  Zr  Zr69  1  0.19133654  0.21864766  0.49115748  1
  Zr  Zr70  1  0.20320290  -0.00632307  0.00062088  1
  Zr  Zr71  1  0.69831602  0.89919307  0.88046139  1
  Zr  Zr72  1  0.20246093  0.79404441  0.51215094  1
  Zr  Zr73  1  0.50151955  0.50714195  0.11295911  1
  Zr  Zr74  1  0.90823483  0.49299506  0.38156767  1
  Zr  Zr75  1  0.59218154  0.00151330  0.25070685  1
  Zr  Zr76  1  0.40985999  0.61216271  0.25132639  1
  Zr  Zr77  1  0.20568270  -0.01015605  0.51043911  1
  Zr  Zr78  1  0.00166167  0.59248445  -0.00967705  1
  Zr  Zr79  1  0.91036827  0.08436510  0.60159419  1
  Ta  Ta80  1  0.79683095  0.59541237  0.74657249  1
  Ta  Ta81  1  0.09019140  0.90854281  0.63437320  1
  Ta  Ta82  1  0.29144602  0.29784653  0.87423437  1
  Ta  Ta83  1  0.80181375  0.39976221  0.24874677  1
  Ta  Ta84  1  0.30169918  0.10424490  0.87737145  1
  Ta  Ta85  1  0.80146544  0.60155327  0.26154820  1
  Ta  Ta86  1  0.11278027  0.09786189  0.86262124  1
  Ta  Ta87  1  0.89677380  0.89834453  0.39681771  1
  Ta  Ta88  1  0.59862406  0.00145088  0.00318383  1
  Ta  Ta89  1  0.40474790  -0.00574667  0.51571770  1
  Ta  Ta90  1  0.80251318  0.79770209  0.00653479  1
  Ta  Ta91  1  0.79404228  0.59099845  -0.00783034  1
  Ta  Ta92  1  0.38959579  0.80557595  -0.00493509  1
  Ta  Ta93  1  0.39234492  0.60816151  -0.01547871  1
  Ta  Ta94  1  0.70111436  0.69681237  0.12365086  1
  Ta  Ta95  1  0.80827949  0.39686458  0.01876144  1
  Ta  Ta96  1  0.59653699  0.59578635  0.76374267  1
  Ta  Ta97  1  0.50426840  0.29897494  0.61397273  1
  Ta  Ta98  1  0.30104957  0.10040900  0.11906371  1
  Ta  Ta99  1  0.90083775  0.69512196  0.61670349  1
  Ta  Ta100  1  0.40492351  0.80528136  0.74719234  1
  Ta  Ta101  1  0.39877930  0.40343029  0.24755108  1
  Ta  Ta102  1  0.10350977  0.49202293  0.63039113  1
  Ta  Ta103  1  0.59348371  0.80463377  0.74028248  1
  Ta  Ta104  1  0.70623488  0.89640300  0.37288076  1
  Ta  Ta105  1  0.59435958  0.20355410  0.25026129  1
  Ta  Ta106  1  0.50156166  0.69716301  0.63441215  1
  Ta  Ta107  1  -0.00662391  -0.00543536  0.76744324  1
  Ta  Ta108  1  0.10681771  0.89687142  0.85968987  1
  Ta  Ta109  1  0.30877725  0.71610386  0.36808715  1
  Ta  Ta110  1  0.01854353  0.37982062  0.49182303  1
  Ta  Ta111  1  0.89400929  0.69326941  0.87074957  1
  Ta  Ta112  1  0.48994750  0.90299119  0.11332278  1
  Ta  Ta113  1  0.10427784  0.68970060  0.85634158  1
  Ta  Ta114  1  0.09699334  0.09611896  0.38746235  1
  Ta  Ta115  1  0.09590604  0.49887042  0.85145023  1
  Ta  Ta116  1  0.09843160  0.89912797  0.12330004  1
  Ta  Ta117  1  0.90308172  0.10249411  0.13092263  1
  Ta  Ta118  1  0.11281091  0.48959288  0.37482433  1
  Ta  Ta119  1  0.00881418  0.60239345  0.27554144  1
  Ti  Ti120  1  0.20092162  -0.00196872  0.24709173  1
  Ti  Ti121  1  0.39175253  0.80293488  0.52614828  1
  Ti  Ti122  1  0.38902954  -0.00659018  0.23860259  1
  Ti  Ti123  1  0.90148545  0.90099619  0.60591169  1
  Ti  Ti124  1  -0.00368530  0.60113676  0.74256754  1
  Ti  Ti125  1  -0.00135185  0.19975965  0.27551004  1
  Ti  Ti126  1  0.01646689  0.60121121  0.49741349  1
  Ti  Ti127  1  0.69881075  0.29794734  0.62840443  1
  Ti  Ti128  1  0.60189342  0.80673336  0.00538789  1
  Ti  Ti129  1  0.50000357  0.70799179  0.87901356  1
  Ti  Ti130  1  0.09947254  0.30423883  0.13942984  1
  Ti  Ti131  1  0.69673725  0.49424184  0.63854805  1
  Ti  Ti132  1  0.30298064  0.90062043  0.37422543  1
  Ti  Ti133  1  0.40056273  0.20668538  0.48975556  1
  Ti  Ti134  1  0.88464423  0.11212929  0.88323276  1
  Ti  Ti135  1  0.59697103  0.59950020  0.26897247  1
  Ti  Ti136  1  0.69316389  0.69068953  0.63388649  1
  Ti  Ti137  1  0.01363596  0.79310442  0.51015260  1
  Ti  Ti138  1  0.49905401  0.89812066  0.88604192  1
  Ti  Ti139  1  0.70197131  0.89267857  0.13274386  1
  Ti  Ti140  1  0.80361433  0.21037887  0.01621893  1
  Ti  Ti141  1  0.00312471  0.39891692  -0.00458248  1
  Ti  Ti142  1  0.19106388  0.40342119  0.00782958  1
  Ti  Ti143  1  0.78706706  0.80454377  0.51980157  1
  Ti  Ti144  1  0.90317798  0.89791800  0.12513070  1
  Ti  Ti145  1  0.80588019  0.19600321  0.25815981  1
  Ti  Ti146  1  0.50368150  0.50017427  0.62727873  1
  Ti  Ti147  1  0.49199800  0.09332138  0.37515079  1
  Ti  Ti148  1  0.50156219  0.10795939  0.61211751  1
  Ti  Ti149  1  -0.00788533  0.39200090  0.74499311  1
  Ti  Ti150  1  0.10244899  0.89670686  0.38568861  1
  Ti  Ti151  1  0.29456905  0.70324434  0.86493414  1
  Ti  Ti152  1  0.70368759  0.10233760  0.87808647  1
  Ti  Ti153  1  0.09985825  0.29669962  0.63706058  1
  Ti  Ti154  1  0.28851445  0.31822709  0.37326493  1
  Ti  Ti155  1  0.39723276  0.00051858  -0.00931239  1
  Ti  Ti156  1  0.29702120  0.90248077  0.86230019  1
  Ti  Ti157  1  0.49822247  0.30187979  0.11342563  1
  Ti  Ti158  1  0.30240142  0.69902351  0.13028670  1
  Ti  Ti159  1  0.19838544  0.20118101  -0.00271855  1
  Mo  Mo160  1  0.30243764  0.90326370  0.63867016  1
  Mo  Mo161  1  0.39091849  0.20015044  -0.00400486  1
  Mo  Mo162  1  0.49996760  0.90040944  0.61888706  1
  Mo  Mo163  1  0.20847507  0.39827002  0.23772987  1
  Mo  Mo164  1  0.79611941  -0.00909572  0.48722386  1
  Mo  Mo165  1  0.49120136  0.70754723  0.38103355  1
  Mo  Mo166  1  0.08783339  0.69283699  0.63465810  1
  Mo  Mo167  1  0.19708879  0.39859338  0.73594849  1
  Mo  Mo168  1  0.30854009  0.69996151  0.63534310  1
  Mo  Mo169  1  0.19705667  0.40712560  0.51220569  1
  Mo  Mo170  1  0.70752433  0.50102917  0.86688175  1
  Mo  Mo171  1  0.20017525  -0.00228363  0.75254967  1
  Mo  Mo172  1  0.00491018  0.39675046  0.26834396  1
  Mo  Mo173  1  0.00115987  0.19925697  0.48265467  1
  Mo  Mo174  1  0.70131861  0.50478363  0.35566203  1
  Mo  Mo175  1  0.00638336  -0.01201636  0.48957786  1
  Mo  Mo176  1  0.70128192  0.90006725  0.62211813  1
  Mo  Mo177  1  0.90494176  0.30337330  0.88440870  1
  Mo  Mo178  1  0.80480591  0.39834143  0.72411073  1
  Mo  Mo179  1  0.59972808  0.60316766  -0.01941181  1
  Mo  Mo180  1  0.80071690  0.19418305  0.74318117  1
  Mo  Mo181  1  0.90050996  0.89391483  0.88618429  1
  Mo  Mo182  1  0.29911153  0.50117680  0.63575156  1
  Mo  Mo183  1  0.49349154  0.50049482  0.36406878  1
  Mo  Mo184  1  0.70815955  0.30033010  0.13972755  1
  Mo  Mo185  1  0.19583663  0.60114928  0.73436460  1
  Mo  Mo186  1  0.10444325  0.30448195  0.36135764  1
  Mo  Mo187  1  0.50205370  0.09283201  0.89664946  1
  Mo  Mo188  1  0.90496906  0.09465420  0.37393960  1
  Mo  Mo189  1  0.79909975  0.80381964  0.23626080  1
  Mo  Mo190  1  0.49874817  0.50826481  0.88749909  1
  Mo  Mo191  1  0.39266742  0.80984536  0.23056179  1
  Mo  Mo192  1  0.20164710  0.19998961  0.75957793  1
  Mo  Mo193  1  0.48858395  0.29943029  0.38072492  1
  Mo  Mo194  1  0.20229668  0.60993882  0.25589619  1
  Mo  Mo195  1  0.11096915  0.69515982  0.37470264  1
  Mo  Mo196  1  0.69409100  0.09398867  0.35477009  1
  Mo  Mo197  1  0.90584612  0.29720997  0.36976934  1
  Mo  Mo198  1  0.30226949  0.90460899  0.12227730  1
  Mo  Mo199  1  0.29746904  0.50633229  0.13451067  1
