# generated using pymatgen
data_HfZrTaTiMo
_symmetry_space_group_name_H-M   'P 1'
_cell_length_a   16.46463135
_cell_length_b   16.38713660
_cell_length_c   14.25002822
_cell_angle_alpha   90.11287127
_cell_angle_beta   89.92243773
_cell_angle_gamma   90.51775566
_symmetry_Int_Tables_number   1
_chemical_formula_structural   HfZrTaTiMo
_chemical_formula_sum   'Hf40 Zr40 Ta40 Ti40 Mo40'
_cell_volume   3844.60606681
_cell_formula_units_Z   40
loop_
 _symmetry_equiv_pos_site_id
 _symmetry_equiv_pos_as_xyz
  1  'x, y, z'
loop_
 _atom_site_type_symbol
 _atom_site_label
 _atom_site_symmetry_multiplicity
 _atom_site_fract_x
 _atom_site_fract_y
 _atom_site_fract_z
 _atom_site_occupancy
  Hf  Hf0  1  0.59950584  0.81345612  0.47263934  1
  Hf  Hf1  1  0.79917227  0.81725580  0.50639574  1
  Hf  Hf2  1  0.19641695  0.60156077  0.26433256  1
  Hf  Hf3  1  0.88975908  0.49093548  0.37671452  1
  Hf  Hf4  1  0.09602493  0.69527118  0.12038354  1
  Hf  Hf5  1  0.00896517  0.59430884  0.26390787  1
  Hf  Hf6  1  -0.00000816  0.80401041  0.25595656  1
  Hf  Hf7  1  0.40639217  0.40757668  0.50722567  1
  Hf  Hf8  1  0.09644605  0.09646630  0.38449605  1
  Hf  Hf9  1  0.48661794  0.10207555  0.38749863  1
  Hf  Hf10  1  0.69459275  0.09826788  0.63497865  1
  Hf  Hf11  1  0.89645984  0.70400839  0.11850896  1
  Hf  Hf12  1  0.30035802  0.30188126  0.87063950  1
  Hf  Hf13  1  0.30105157  0.49405801  0.86885652  1
  Hf  Hf14  1  0.49223898  0.30225886  0.87087593  1
  Hf  Hf15  1  0.49854559  0.70649936  0.87951217  1
  Hf  Hf16  1  0.50424569  0.09855786  0.12106634  1
  Hf  Hf17  1  -0.00177489  0.19512364  0.23989701  1
  Hf  Hf18  1  0.70396603  0.49978783  0.36996971  1
  Hf  Hf19  1  0.10199410  0.90516654  0.86956784  1
  Hf  Hf20  1  0.71261515  0.89585710  0.12320330  1
  Hf  Hf21  1  0.00073243  0.19174508  -0.00048743  1
  Hf  Hf22  1  0.09189743  0.29254305  0.39015807  1
  Hf  Hf23  1  -0.00081409  0.19650622  0.74797441  1
  Hf  Hf24  1  0.10278560  0.09193757  0.12708763  1
  Hf  Hf25  1  0.50598240  0.49855356  0.36451948  1
  Hf  Hf26  1  0.50225338  0.30093456  0.63351729  1
  Hf  Hf27  1  0.78929310  0.40501603  -0.00728344  1
  Hf  Hf28  1  0.60030754  -0.00640969  -0.00850195  1
  Hf  Hf29  1  0.19766781  0.60601673  -0.01907218  1
  Hf  Hf30  1  0.00339260  0.00082607  0.74421465  1
  Hf  Hf31  1  0.61044075  0.40833910  0.76080146  1
  Hf  Hf32  1  0.29757032  0.50372126  0.62773053  1
  Hf  Hf33  1  0.39992211  0.60596529  0.24958571  1
  Hf  Hf34  1  0.60326367  0.19849719  0.25152371  1
  Hf  Hf35  1  0.90791588  0.30902182  0.37421636  1
  Hf  Hf36  1  0.20220440  0.79905035  -0.00276758  1
  Hf  Hf37  1  0.58609048  0.60936302  0.48800016  1
  Hf  Hf38  1  0.70931665  0.10022223  0.11725187  1
  Hf  Hf39  1  0.71464585  0.31546686  0.35851365  1
  Zr  Zr40  1  0.49865882  0.89832221  0.86098881  1
  Zr  Zr41  1  0.80096656  0.21055216  0.51244188  1
  Zr  Zr42  1  0.60761570  0.20563422  0.49981785  1
  Zr  Zr43  1  0.69984509  0.50847619  0.61075224  1
  Zr  Zr44  1  0.79610372  0.79808214  0.75670110  1
  Zr  Zr45  1  0.30549695  0.29756663  0.63219292  1
  Zr  Zr46  1  0.79510793  0.59674718  0.75440785  1
  Zr  Zr47  1  0.90041397  0.69503087  0.38702131  1
  Zr  Zr48  1  0.39813565  0.60212361  0.75040646  1
  Zr  Zr49  1  0.19316398  0.79252908  0.74472608  1
  Zr  Zr50  1  0.30469157  0.09160579  0.86435403  1
  Zr  Zr51  1  0.30571152  0.29001415  0.38811520  1
  Zr  Zr52  1  0.90382905  0.50918692  0.12210496  1
  Zr  Zr53  1  0.60991798  -0.00516047  0.48974076  1
  Zr  Zr54  1  0.90255816  0.50116147  0.87212731  1
  Zr  Zr55  1  0.90020014  0.09645032  0.38534126  1
  Zr  Zr56  1  0.69288517  0.70692441  0.61944005  1
  Zr  Zr57  1  0.39000679  0.00064575  0.24811648  1
  Zr  Zr58  1  0.19245949  0.59354592  0.49170199  1
  Zr  Zr59  1  0.89427805  0.30451686  0.12803836  1
  Zr  Zr60  1  0.60381008  -0.00739535  0.26173025  1
  Zr  Zr61  1  0.70956568  0.69605519  0.36903436  1
  Zr  Zr62  1  0.50416306  0.90484913  0.63315044  1
  Zr  Zr63  1  0.29302609  0.30147906  0.11235991  1
  Zr  Zr64  1  0.00347461  0.40173114  -0.00452398  1
  Zr  Zr65  1  0.50048928  0.71134415  0.63785362  1
  Zr  Zr66  1  0.20762843  0.18964786  0.24952845  1
  Zr  Zr67  1  0.80234555  -0.00937982  0.74273696  1
  Zr  Zr68  1  0.28620618  0.50106348  0.11706631  1
  Zr  Zr69  1  0.70741947  0.10129805  0.87498609  1
  Zr  Zr70  1  0.18986705  0.40487873  0.26707521  1
  Zr  Zr71  1  0.30990410  0.89788654  0.85508229  1
  Zr  Zr72  1  0.39927232  0.40254270  0.24028704  1
  Zr  Zr73  1  0.50192694  0.30123006  0.37202828  1
  Zr  Zr74  1  0.59798222  0.79771650  0.25185598  1
  Zr  Zr75  1  0.18957688  0.18936926  0.74623884  1
  Zr  Zr76  1  0.89973142  0.69728013  0.89221782  1
  Zr  Zr77  1  0.89296569  0.29213036  0.86880079  1
  Zr  Zr78  1  0.09957470  0.90145364  0.38538038  1
  Zr  Zr79  1  0.20579181  -0.00199588  0.00674803  1
  Ta  Ta80  1  0.20203931  0.79773017  0.25894543  1
  Ta  Ta81  1  0.19616742  0.19491821  -0.00777711  1
  Ta  Ta82  1  0.59768811  0.20407859  -0.00940901  1
  Ta  Ta83  1  0.09425977  0.69831129  0.61514778  1
  Ta  Ta84  1  0.30580134  0.89801615  0.61700709  1
  Ta  Ta85  1  0.09888286  0.50054806  0.86286648  1
  Ta  Ta86  1  0.80461969  0.19526268  0.24220359  1
  Ta  Ta87  1  0.00193999  0.60596722  0.74659764  1
  Ta  Ta88  1  0.29745140  0.89926787  0.38590030  1
  Ta  Ta89  1  0.69857049  0.29858494  0.11914558  1
  Ta  Ta90  1  0.79904551  0.39588061  0.74244844  1
  Ta  Ta91  1  0.40607066  0.79932133  0.48860019  1
  Ta  Ta92  1  0.60726875  0.60528452  0.77130073  1
  Ta  Ta93  1  0.19370462  0.39800986  0.51014244  1
  Ta  Ta94  1  0.89728564  0.09714738  0.87976539  1
  Ta  Ta95  1  0.09157840  0.49729792  0.63119394  1
  Ta  Ta96  1  0.39797948  0.79921660  0.25331473  1
  Ta  Ta97  1  0.59791480  0.40368977  -0.00079724  1
  Ta  Ta98  1  0.10411180  0.30727881  0.11913176  1
  Ta  Ta99  1  0.39700809  0.19581005  0.23419012  1
  Ta  Ta100  1  0.49618123  0.09723588  0.62685955  1
  Ta  Ta101  1  0.90205803  0.89939527  0.88192145  1
  Ta  Ta102  1  0.60138014  0.20088919  0.75561396  1
  Ta  Ta103  1  0.40553032  0.40512590  0.00326294  1
  Ta  Ta104  1  0.39993306  -0.00453766  0.01003011  1
  Ta  Ta105  1  0.50109891  0.50499532  0.88253743  1
  Ta  Ta106  1  0.50204844  0.29839552  0.11664606  1
  Ta  Ta107  1  -0.00502153  0.79828235  0.74473770  1
  Ta  Ta108  1  0.40063541  0.60274036  0.00619639  1
  Ta  Ta109  1  0.29702606  0.70572706  0.61200178  1
  Ta  Ta110  1  0.69691767  0.50659873  0.12087128  1
  Ta  Ta111  1  0.00663801  0.80412081  -0.00511039  1
  Ta  Ta112  1  0.19248271  0.39863867  0.74326358  1
  Ta  Ta113  1  0.50342785  0.69984996  0.11993694  1
  Ta  Ta114  1  -0.01100313  -0.00603481  0.24406002  1
  Ta  Ta115  1  0.39920979  0.19254335  0.00132849  1
  Ta  Ta116  1  0.60614763  0.79920194  -0.00156933  1
  Ta  Ta117  1  0.39840194  0.80176756  0.01648351  1
  Ta  Ta118  1  0.20301416  0.00017724  0.50996084  1
  Ta  Ta119  1  0.10188781  0.30350445  0.87384963  1
  Ti  Ti120  1  0.89742808  0.10489670  0.62462667  1
  Ti  Ti121  1  0.50369897  0.50452950  0.63705210  1
  Ti  Ti122  1  0.29697148  0.70180892  0.12741079  1
  Ti  Ti123  1  0.80690439  0.39949962  0.52573365  1
  Ti  Ti124  1  0.71513425  0.09630182  0.36928126  1
  Ti  Ti125  1  0.20239996  0.19675106  0.51332672  1
  Ti  Ti126  1  0.81218857  0.81324428  0.26039902  1
  Ti  Ti127  1  0.70529628  0.69941826  0.11327086  1
  Ti  Ti128  1  0.19878589  0.00429358  0.73002432  1
  Ti  Ti129  1  0.29812552  0.70598208  0.38538358  1
  Ti  Ti130  1  0.40118050  0.18998222  0.74526089  1
  Ti  Ti131  1  0.79920494  -0.00828723  0.51036818  1
  Ti  Ti132  1  0.20243123  -0.00305009  0.25735051  1
  Ti  Ti133  1  0.60012712  0.40332856  0.22845603  1
  Ti  Ti134  1  0.29584385  0.89527140  0.13585686  1
  Ti  Ti135  1  0.40357986  0.60590440  0.49452716  1
  Ti  Ti136  1  0.09779448  0.70855808  0.39516740  1
  Ti  Ti137  1  0.10221570  0.89440193  0.61817888  1
  Ti  Ti138  1  0.00079806  -0.00096504  0.00070109  1
  Ti  Ti139  1  0.80756271  -0.00355295  -0.00295106  1
  Ti  Ti140  1  0.19387941  0.60523048  0.74753893  1
  Ti  Ti141  1  0.30793055  0.70648319  0.86773119  1
  Ti  Ti142  1  0.70305901  0.29285019  0.87473713  1
  Ti  Ti143  1  0.30280034  0.49791240  0.38282483  1
  Ti  Ti144  1  0.60600657  0.39694682  0.50739120  1
  Ti  Ti145  1  -0.01037534  0.58858211  0.51229024  1
  Ti  Ti146  1  0.10199180  0.89722330  0.13021172  1
  Ti  Ti147  1  0.59773247  0.60304673  0.23824056  1
  Ti  Ti148  1  0.90206000  0.89909417  0.11371587  1
  Ti  Ti149  1  0.89567453  0.69374319  0.62004437  1
  Ti  Ti150  1  0.50010680  0.89611331  0.12633404  1
  Ti  Ti151  1  -0.00828026  0.80496871  0.51131940  1
  Ti  Ti152  1  0.09995333  0.49911595  0.11273354  1
  Ti  Ti153  1  0.08815369  0.30242770  0.62125458  1
  Ti  Ti154  1  0.07706008  0.47795887  0.39511272  1
  Ti  Ti155  1  0.09309252  0.10023073  0.60654755  1
  Ti  Ti156  1  -0.01135658  -0.00943601  0.51253541  1
  Ti  Ti157  1  0.30367470  0.09768113  0.39750145  1
  Ti  Ti158  1  0.79891482  0.60036705  0.23962673  1
  Ti  Ti159  1  0.49865735  0.09303379  0.86453628  1
  Mo  Mo160  1  0.90513735  0.90566185  0.38705794  1
  Mo  Mo161  1  0.40573025  0.40686131  0.75318806  1
  Mo  Mo162  1  0.39979214  0.00365059  0.73292530  1
  Mo  Mo163  1  0.79009844  0.60326981  0.00406420  1
  Mo  Mo164  1  0.00152439  0.39963436  0.74702422  1
  Mo  Mo165  1  0.59925628  0.00470315  0.75791009  1
  Mo  Mo166  1  0.09517751  0.70074033  0.86578504  1
  Mo  Mo167  1  0.19663894  0.39946099  -0.01842184  1
  Mo  Mo168  1  0.69218436  0.90130662  0.64537291  1
  Mo  Mo169  1  0.80016710  0.20060450  0.74711233  1
  Mo  Mo170  1  0.70353963  0.89676950  0.88210349  1
  Mo  Mo171  1  0.48200613  0.90075896  0.37052941  1
  Mo  Mo172  1  0.39897578  0.19630286  0.51739710  1
  Mo  Mo173  1  0.61188585  0.80383470  0.77121077  1
  Mo  Mo174  1  0.01019342  0.60428471  -0.01349392  1
  Mo  Mo175  1  0.39613469  -0.00284425  0.50158583  1
  Mo  Mo176  1  0.81325756  0.00165876  0.23991714  1
  Mo  Mo177  1  0.49379212  0.69924466  0.35799942  1
  Mo  Mo178  1  0.89937852  0.09006590  0.11597120  1
  Mo  Mo179  1  0.59748030  0.60232256  0.00365278  1
  Mo  Mo180  1  0.69693534  0.50217705  0.88823733  1
  Mo  Mo181  1  0.79449689  0.40365061  0.23103397  1
  Mo  Mo182  1  -0.00142174  0.19809187  0.51512700  1
  Mo  Mo183  1  0.79737303  0.19871433  0.00360811  1
  Mo  Mo184  1  0.09642577  0.09847453  0.88261540  1
  Mo  Mo185  1  0.20090876  0.79963955  0.50037412  1
  Mo  Mo186  1  0.90525397  0.89621064  0.62783334  1
  Mo  Mo187  1  0.00702670  0.40088311  0.23671594  1
  Mo  Mo188  1  0.90217557  0.50040382  0.62981206  1
  Mo  Mo189  1  -0.00732952  0.39715791  0.52349465  1
  Mo  Mo190  1  0.72591490  0.91319139  0.35464677  1
  Mo  Mo191  1  0.69755163  0.69797720  0.89624633  1
  Mo  Mo192  1  0.70047694  0.30195413  0.64119162  1
  Mo  Mo193  1  0.80480309  0.59956151  0.50641403  1
  Mo  Mo194  1  0.90205916  0.30278447  0.63376075  1
  Mo  Mo195  1  0.50540242  0.50353663  0.11804506  1
  Mo  Mo196  1  0.30119908  0.09697268  0.11352310  1
  Mo  Mo197  1  0.30229054  0.09520724  0.62057188  1
  Mo  Mo198  1  0.80197382  0.80603397  -0.00149362  1
  Mo  Mo199  1  0.39312165  0.79811465  0.73311489  1
