# generated using pymatgen
data_Ca2Al2SiO7
_symmetry_space_group_name_H-M   'P 1'
_cell_length_a   15.45896891
_cell_length_b   15.46000032
_cell_length_c   15.28405000
_cell_angle_alpha   89.99361504
_cell_angle_beta   89.99307987
_cell_angle_gamma   89.99042324
_symmetry_Int_Tables_number   1
_chemical_formula_structural   Ca2Al2SiO7
_chemical_formula_sum   'Ca48 Al48 Si24 O168'
_cell_volume   3652.82158230
_cell_formula_units_Z   24
loop_
 _symmetry_equiv_pos_site_id
 _symmetry_equiv_pos_as_xyz
  1  'x, y, z'
loop_
 _atom_type_symbol
 _atom_type_oxidation_number
  Ca2+  2.0
  Al0+  0.0
  Si0+  0.0
  O2-  -2.0
loop_
 _atom_site_type_symbol
 _atom_site_label
 _atom_site_symmetry_multiplicity
 _atom_site_fract_x
 _atom_site_fract_y
 _atom_site_fract_z
 _atom_site_occupancy
  Ca2+  Ca0  1  0.17201873  0.08390690  0.17170597  1
  Ca2+  Ca1  1  0.17719992  0.08711177  0.50629975  1
  Ca2+  Ca2  1  0.16796885  0.08545872  0.83420558  1
  Ca2+  Ca3  1  0.16437732  0.58238815  0.17717168  1
  Ca2+  Ca4  1  0.16252190  0.57782835  0.49753480  1
  Ca2+  Ca5  1  0.16741873  0.58415112  0.83905390  1
  Ca2+  Ca6  1  0.67017559  0.07749232  0.17199069  1
  Ca2+  Ca7  1  0.67129863  0.07562634  0.50285908  1
  Ca2+  Ca8  1  0.68156138  0.08504684  0.83795076  1
  Ca2+  Ca9  1  0.67577232  0.57919387  0.17546882  1
  Ca2+  Ca10  1  0.67055132  0.58804210  0.50324363  1
  Ca2+  Ca11  1  0.67418046  0.58507742  0.83722248  1
  Ca2+  Ca12  1  0.07590223  0.33325273  0.16723363  1
  Ca2+  Ca13  1  0.07801373  0.33006703  0.49258392  1
  Ca2+  Ca14  1  0.08043840  0.31981852  0.82875666  1
  Ca2+  Ca15  1  0.08544345  0.81826248  0.16276445  1
  Ca2+  Ca16  1  0.07403375  0.82819510  0.49690755  1
  Ca2+  Ca17  1  0.07570985  0.82650119  0.82925680  1
  Ca2+  Ca18  1  0.58124709  0.34494468  0.16721793  1
  Ca2+  Ca19  1  0.57323886  0.33510398  0.49195041  1
  Ca2+  Ca20  1  0.58087872  0.33598658  0.82872261  1
  Ca2+  Ca21  1  0.57852112  0.83537747  0.17003834  1
  Ca2+  Ca22  1  0.58244771  0.82594281  0.49212185  1
  Ca2+  Ca23  1  0.57504379  0.82949732  0.82479862  1
  Ca2+  Ca24  1  0.32388376  0.41577415  0.17765553  1
  Ca2+  Ca25  1  0.32901468  0.40796573  0.50300204  1
  Ca2+  Ca26  1  0.33446604  0.41626428  0.83351486  1
  Ca2+  Ca27  1  0.33868922  0.91977331  0.17580562  1
  Ca2+  Ca28  1  0.34027847  0.92404540  0.50389777  1
  Ca2+  Ca29  1  0.33964404  0.91837577  0.83554469  1
  Ca2+  Ca30  1  0.82507113  0.42271532  0.17540411  1
  Ca2+  Ca31  1  0.83239212  0.42634276  0.49944556  1
  Ca2+  Ca32  1  0.82559282  0.42819038  0.84161750  1
  Ca2+  Ca33  1  0.83097997  0.92477262  0.17216937  1
  Ca2+  Ca34  1  0.82784200  0.91345085  0.50694063  1
  Ca2+  Ca35  1  0.84019607  0.92308636  0.83285709  1
  Ca2+  Ca36  1  0.41554234  0.17022768  0.17016224  1
  Ca2+  Ca37  1  0.40957270  0.17215245  0.49525721  1
  Ca2+  Ca38  1  0.41830024  0.17290188  0.82405630  1
  Ca2+  Ca39  1  0.42265334  0.67702328  0.16335020  1
  Ca2+  Ca40  1  0.42985948  0.67641456  0.49260353  1
  Ca2+  Ca41  1  0.42398157  0.67795391  0.82397401  1
  Ca2+  Ca42  1  0.91624710  0.17384926  0.15929542  1
  Ca2+  Ca43  1  0.92055475  0.16882483  0.49590938  1
  Ca2+  Ca44  1  0.92522053  0.15664715  0.82649254  1
  Ca2+  Ca45  1  0.92376723  0.65419846  0.16639323  1
  Ca2+  Ca46  1  0.91413183  0.66532948  0.49440644  1
  Ca2+  Ca47  1  0.91567394  0.66484562  0.82867251  1
  Al0+  Al48  1  0.00262038  -0.00083288  0.00303099  1
  Al0+  Al49  1  0.00323892  -0.00040958  0.33282742  1
  Al0+  Al50  1  0.00250628  -0.00292386  0.66002014  1
  Al0+  Al51  1  0.00081010  0.49743430  -0.00372247  1
  Al0+  Al52  1  0.00005859  0.49736482  0.33438368  1
  Al0+  Al53  1  -0.00031488  0.49676908  0.67378275  1
  Al0+  Al54  1  0.49998663  0.00392073  -0.00450616  1
  Al0+  Al55  1  0.50176288  0.00217617  0.33895683  1
  Al0+  Al56  1  0.50000890  0.00214834  0.67040258  1
  Al0+  Al57  1  0.49752759  0.50254467  0.00153608  1
  Al0+  Al58  1  0.49917009  0.50111742  0.32669115  1
  Al0+  Al59  1  0.49739233  0.49961710  0.65983955  1
  Al0+  Al60  1  0.24960619  0.24966419  -0.00344984  1
  Al0+  Al61  1  0.25042819  0.24968897  0.33612357  1
  Al0+  Al62  1  0.24890699  0.24738216  0.66619805  1
  Al0+  Al63  1  0.24901268  0.75137577  -0.00888225  1
  Al0+  Al64  1  0.24840660  0.75105669  0.32874265  1
  Al0+  Al65  1  0.24915900  0.74874809  0.66321755  1
  Al0+  Al66  1  0.74806734  0.25089792  0.00656469  1
  Al0+  Al67  1  0.74994858  0.25137125  0.33333957  1
  Al0+  Al68  1  0.75059841  0.25035662  0.67120816  1
  Al0+  Al69  1  0.74972299  0.75118809  0.00518257  1
  Al0+  Al70  1  0.75050395  0.75230624  0.33455647  1
  Al0+  Al71  1  0.75121400  0.74918169  0.66681108  1
  Al0+  Al72  1  0.42746557  0.82404664  0.65021857  1
  Al0+  Al73  1  0.82265172  0.07031707  0.67809393  1
  Al0+  Al74  1  0.93073258  0.81852106  0.65399441  1
  Al0+  Al75  1  0.82057510  0.56977184  0.34934378  1
  Al0+  Al76  1  0.18023749  0.42985519  0.34699729  1
  Al0+  Al77  1  0.92837328  0.31905904  0.32032872  1
  Al0+  Al78  1  0.57418262  0.67880423  0.31524947  1
  Al0+  Al79  1  0.43036395  0.82358160  0.31909148  1
  Al0+  Al80  1  0.06798311  0.67956070  0.32183490  1
  Al0+  Al81  1  0.06934764  0.17830320  0.65134528  1
  Al0+  Al82  1  0.43015722  0.82310412  0.98515377  1
  Al0+  Al83  1  0.67583797  0.43029272  0.01527415  1
  Al0+  Al84  1  0.67550746  0.42818650  0.35074800  1
  Al0+  Al85  1  0.32046079  0.07004761  0.68314041  1
  Al0+  Al86  1  0.82372251  0.06937926  0.01400657  1
  Al0+  Al87  1  0.68143411  0.93105334  0.34712503  1
  Al0+  Al88  1  0.82076047  0.57087052  0.68189226  1
  Al0+  Al89  1  0.42993137  0.31861381  0.65339537  1
  Al0+  Al90  1  0.31914848  0.06892810  0.34652894  1
  Al0+  Al91  1  0.57148649  0.67977253  0.65224160  1
  Al0+  Al92  1  0.42811871  0.32080936  0.31867389  1
  Al0+  Al93  1  0.06897506  0.67671018  0.98520531  1
  Al0+  Al94  1  0.07021083  0.17875343  0.98670227  1
  Al0+  Al95  1  0.82298259  0.57231265  0.01643037  1
  Si0+  Si96  1  0.17858153  0.92550977  0.68412434  1
  Si0+  Si97  1  0.18079433  0.92810931  0.01486548  1
  Si0+  Si98  1  0.57182195  0.67824129  0.98356323  1
  Si0+  Si99  1  0.17932078  0.42742977  0.68420981  1
  Si0+  Si100  1  0.57146819  0.17989030  0.98472652  1
  Si0+  Si101  1  0.92561993  0.31997494  0.98192689  1
  Si0+  Si102  1  0.57236197  0.17895385  0.31695406  1
  Si0+  Si103  1  0.32032297  0.57070880  0.68063644  1
  Si0+  Si104  1  0.32118501  0.07209501  0.01502058  1
  Si0+  Si105  1  0.42830502  0.32153125  0.98559115  1
  Si0+  Si106  1  0.31815403  0.57359069  0.01362415  1
  Si0+  Si107  1  0.07207285  0.67313839  0.65002264  1
  Si0+  Si108  1  0.07277815  0.17769286  0.31664382  1
  Si0+  Si109  1  0.82532143  0.07330075  0.34931720  1
  Si0+  Si110  1  0.67470063  0.42870057  0.68216164  1
  Si0+  Si111  1  0.67893626  0.92792296  0.68470409  1
  Si0+  Si112  1  0.92716245  0.32256996  0.65157354  1
  Si0+  Si113  1  0.57586991  0.17843989  0.65107875  1
  Si0+  Si114  1  0.92732003  0.82484395  0.31537501  1
  Si0+  Si115  1  0.32157903  0.57482931  0.34871142  1
  Si0+  Si116  1  0.18164170  0.42729310  0.01364255  1
  Si0+  Si117  1  0.92758660  0.82278175  0.98586753  1
  Si0+  Si118  1  0.17679154  0.92470302  0.35088313  1
  Si0+  Si119  1  0.67513439  0.93053168  0.01560437  1
  O2-  O120  1  0.25304084  -0.00152577  0.05684994  1
  O2-  O121  1  0.24615891  -0.00704435  0.39376024  1
  O2-  O122  1  0.25029396  -0.00923040  0.73013848  1
  O2-  O123  1  0.24738295  0.50264357  0.05654896  1
  O2-  O124  1  0.25663440  0.50276113  0.39430598  1
  O2-  O125  1  0.24829913  0.50115438  0.72561767  1
  O2-  O126  1  0.74862287  -0.00532641  0.05950911  1
  O2-  O127  1  0.76021911  0.00190932  0.39356768  1
  O2-  O128  1  0.74696461  -0.00193783  0.72816953  1
  O2-  O129  1  0.74921297  0.50111335  0.06420229  1
  O2-  O130  1  0.74421928  0.50291450  0.40088616  1
  O2-  O131  1  0.74343710  0.49731732  0.72641300  1
  O2-  O132  1  -0.00098416  0.24027273  0.27240965  1
  O2-  O133  1  -0.00762427  0.25098022  0.60672730  1
  O2-  O134  1  -0.00893932  0.24773088  0.93787015  1
  O2-  O135  1  -0.00551276  0.75416774  0.27235802  1
  O2-  O136  1  0.00145424  0.73987995  0.60746368  1
  O2-  O137  1  -0.01051251  0.74763973  0.94120557  1
  O2-  O138  1  0.50707485  0.25083436  0.27123480  1
  O2-  O139  1  0.50568275  0.24531822  0.60699276  1
  O2-  O140  1  0.50348941  0.25499240  0.94414765  1
  O2-  O141  1  0.49975290  0.75028034  0.26717274  1
  O2-  O142  1  0.50217079  0.75456159  0.60249890  1
  O2-  O143  1  0.50609490  0.74967125  0.93907232  1
  O2-  O144  1  0.07365110  0.18280318  0.09943217  1
  O2-  O145  1  0.07270207  0.17915949  0.42217691  1
  O2-  O146  1  0.06956722  0.17980376  0.76498639  1
  O2-  O147  1  0.07340142  0.67807518  0.09793232  1
  O2-  O148  1  0.06729877  0.68051488  0.43493314  1
  O2-  O149  1  0.07305885  0.67439352  0.75598866  1
  O2-  O150  1  0.56826712  0.17373510  0.08926345  1
  O2-  O151  1  0.57111204  0.17798826  0.42247251  1
  O2-  O152  1  0.57647728  0.18118141  0.75728953  1
  O2-  O153  1  0.56844748  0.67714592  0.08853677  1
  O2-  O154  1  0.57340536  0.68132117  0.42877746  1
  O2-  O155  1  0.56911675  0.68019346  0.76670407  1
  O2-  O156  1  0.18061808  0.43004357  0.23320385  1
  O2-  O157  1  0.17833120  0.42740123  0.57935064  1
  O2-  O158  1  0.18589213  0.42539329  0.90823900  1
  O2-  O159  1  0.17525330  0.92574218  0.24487204  1
  O2-  O160  1  0.17769828  0.92676617  0.57885228  1
  O2-  O161  1  0.17986667  0.92864436  0.90988959  1
  O2-  O162  1  0.67970233  0.42861742  0.23723867  1
  O2-  O163  1  0.67435640  0.42704191  0.57730345  1
  O2-  O164  1  0.67488582  0.43099606  0.90105060  1
  O2-  O165  1  0.68129863  0.93539805  0.23345206  1
  O2-  O166  1  0.68013135  0.92877263  0.57923901  1
  O2-  O167  1  0.67289680  0.93368465  0.91012269  1
  O2-  O168  1  0.42385625  0.31875619  0.09025099  1
  O2-  O169  1  0.42495369  0.31534544  0.43143745  1
  O2-  O170  1  0.43074479  0.31897219  0.76755753  1
  O2-  O171  1  0.42963147  0.82344445  0.09782707  1
  O2-  O172  1  0.43211137  0.82341799  0.43207050  1
  O2-  O173  1  0.42895950  0.82057438  0.76454351  1
  O2-  O174  1  0.92892078  0.32012299  0.08750676  1
  O2-  O175  1  0.93158988  0.31780542  0.43365493  1
  O2-  O176  1  0.93023233  0.32341540  0.75735231  1
  O2-  O177  1  0.93273427  0.82731332  0.09099737  1
  O2-  O178  1  0.92974757  0.82723571  0.42094094  1
  O2-  O179  1  0.93366282  0.81966752  0.76751844  1
  O2-  O180  1  0.31710663  0.06989982  0.23241823  1
  O2-  O181  1  0.31697872  0.07336412  0.57055684  1
  O2-  O182  1  0.32005009  0.07401835  0.91001954  1
  O2-  O183  1  0.31658439  0.57476844  0.24249580  1
  O2-  O184  1  0.31881651  0.56965327  0.57611283  1
  O2-  O185  1  0.31844299  0.57077348  0.90801437  1
  O2-  O186  1  0.82455378  0.07205139  0.24328139  1
  O2-  O187  1  0.82025131  0.06947165  0.56532232  1
  O2-  O188  1  0.82399886  0.06696175  0.90070165  1
  O2-  O189  1  0.82337814  0.56584881  0.23596686  1
  O2-  O190  1  0.82445919  0.56871967  0.56962970  1
  O2-  O191  1  0.82107141  0.57117305  0.90232071  1
  O2-  O192  1  0.05487655  0.08143407  0.27209390  1
  O2-  O193  1  0.04336604  0.08197036  0.59604003  1
  O2-  O194  1  0.04463047  0.07982349  0.93439895  1
  O2-  O195  1  0.03893337  0.58267842  0.26768084  1
  O2-  O196  1  0.04840958  0.57750110  0.60815323  1
  O2-  O197  1  0.04593620  0.57836149  0.93003858  1
  O2-  O198  1  0.54112114  0.08770549  0.26926771  1
  O2-  O199  1  0.55181003  0.08373713  0.60794045  1
  O2-  O200  1  0.54044442  0.09172611  0.93210295  1
  O2-  O201  1  0.54666892  0.58082994  0.26148577  1
  O2-  O202  1  0.54023987  0.58307453  0.59855827  1
  O2-  O203  1  0.54158951  0.58619129  0.93604873  1
  O2-  O204  1  0.16394065  0.20938511  0.26991581  1
  O2-  O205  1  0.16427273  0.21358445  0.59834805  1
  O2-  O206  1  0.16522272  0.21403322  0.93048663  1
  O2-  O207  1  0.16388263  0.70952588  0.26465053  1
  O2-  O208  1  0.16479217  0.69898392  0.60327446  1
  O2-  O209  1  0.16294554  0.71218224  0.92781865  1
  O2-  O210  1  0.66721512  0.19917753  0.27115761  1
  O2-  O211  1  0.66933989  0.20320058  0.60462111  1
  O2-  O212  1  0.66446013  0.20570430  0.93816544  1
  O2-  O213  1  0.67188968  0.71120482  0.26305747  1
  O2-  O214  1  0.67048683  0.70566307  0.60126886  1
  O2-  O215  1  0.66764388  0.70122829  0.94067412  1
  O2-  O216  1  0.08709685  0.44896498  0.05703953  1
  O2-  O217  1  0.08577063  0.46171800  0.40334274  1
  O2-  O218  1  0.08809286  0.45212122  0.73474198  1
  O2-  O219  1  0.09081785  0.95612946  0.06520295  1
  O2-  O220  1  0.08337094  0.95110617  0.39784561  1
  O2-  O221  1  0.08641413  0.95580346  0.73070786  1
  O2-  O222  1  0.57605897  0.45760258  0.06694531  1
  O2-  O223  1  0.57278782  0.45067037  0.39712438  1
  O2-  O224  1  0.57994777  0.45364385  0.72731322  1
  O2-  O225  1  0.58412130  0.96437417  0.06282217  1
  O2-  O226  1  0.58812348  0.96607007  0.40416376  1
  O2-  O227  1  0.58523209  0.95297155  0.73100240  1
  O2-  O228  1  0.21500372  0.33778248  0.06229012  1
  O2-  O229  1  0.21086188  0.33393042  0.40194112  1
  O2-  O230  1  0.21154771  0.33724576  0.73231918  1
  O2-  O231  1  0.20902364  0.83561279  0.06078300  1
  O2-  O232  1  0.19977285  0.83084341  0.39693046  1
  O2-  O233  1  0.19945028  0.82963287  0.72931083  1
  O2-  O234  1  0.69895390  0.33068325  0.06825952  1
  O2-  O235  1  0.70483139  0.32898859  0.40212468  1
  O2-  O236  1  0.70038248  0.33539842  0.73034590  1
  O2-  O237  1  0.69402763  0.83538029  0.06051209  1
  O2-  O238  1  0.70989723  0.83506792  0.40239732  1
  O2-  O239  1  0.70644320  0.83550751  0.73178570  1
  O2-  O240  1  0.45000635  0.41869033  0.26314952  1
  O2-  O241  1  0.45407454  0.41530492  0.59785390  1
  O2-  O242  1  0.45100164  0.41545826  0.93924180  1
  O2-  O243  1  0.46219228  0.92226371  0.26744456  1
  O2-  O244  1  0.45174526  0.92577392  0.60375815  1
  O2-  O245  1  0.45918259  0.92077651  0.93138459  1
  O2-  O246  1  0.96603732  0.41216661  0.26477698  1
  O2-  O247  1  0.95893061  0.41429141  0.60551432  1
  O2-  O248  1  0.95612529  0.41119570  0.93378292  1
  O2-  O249  1  0.95548818  0.91819857  0.26848741  1
  O2-  O250  1  0.96461328  0.91140286  0.59531496  1
  O2-  O251  1  0.96176077  0.91304660  0.93742324  1
  O2-  O252  1  0.33287061  0.28404054  0.26388249  1
  O2-  O253  1  0.33361512  0.28575038  0.60136707  1
  O2-  O254  1  0.33938069  0.28881033  0.93500323  1
  O2-  O255  1  0.33030835  0.79858483  0.26703389  1
  O2-  O256  1  0.32873202  0.79478924  0.59937683  1
  O2-  O257  1  0.33465524  0.79178741  0.92930091  1
  O2-  O258  1  0.83177205  0.29113541  0.26461802  1
  O2-  O259  1  0.83185731  0.30118104  0.60830198  1
  O2-  O260  1  0.82968545  0.29855414  0.93947849  1
  O2-  O261  1  0.83319440  0.80389339  0.27029339  1
  O2-  O262  1  0.83346377  0.79229064  0.60075567  1
  O2-  O263  1  0.83061136  0.80621183  0.94297223  1
  O2-  O264  1  0.41440705  0.04748884  0.06068685  1
  O2-  O265  1  0.41595846  0.04321916  0.40155442  1
  O2-  O266  1  0.41948301  0.04731514  0.73800899  1
  O2-  O267  1  0.40970193  0.54733905  0.06122761  1
  O2-  O268  1  0.41699839  0.55314299  0.39042989  1
  O2-  O269  1  0.41116575  0.54016863  0.72918591  1
  O2-  O270  1  0.91987463  0.03980371  0.06986775  1
  O2-  O271  1  0.92119199  0.05137339  0.39249574  1
  O2-  O272  1  0.91955695  0.03529179  0.72985065  1
  O2-  O273  1  0.92289678  0.54071459  0.06487387  1
  O2-  O274  1  0.91715673  0.53554199  0.40267463  1
  O2-  O275  1  0.91677948  0.53831989  0.73810181  1
  O2-  O276  1  0.28964488  0.16321009  0.06209696  1
  O2-  O277  1  0.28504601  0.16367189  0.40161286  1
  O2-  O278  1  0.28413082  0.16532576  0.73820696  1
  O2-  O279  1  0.28927645  0.66579704  0.05873417  1
  O2-  O280  1  0.29148770  0.66686712  0.39520308  1
  O2-  O281  1  0.29288824  0.66276882  0.72911385  1
  O2-  O282  1  0.79201268  0.16566130  0.06739708  1
  O2-  O283  1  0.79755962  0.16564564  0.39527065  1
  O2-  O284  1  0.79517811  0.16737260  0.73497914  1
  O2-  O285  1  0.80050649  0.67281041  0.06813098  1
  O2-  O286  1  0.79931389  0.67166160  0.39757886  1
  O2-  O287  1  0.79208485  0.66808261  0.73658642  1
