# generated using pymatgen
data_Ca2Al2SiO7
_symmetry_space_group_name_H-M   'P 1'
_cell_length_a   15.45951235
_cell_length_b   15.46003912
_cell_length_c   15.28466518
_cell_angle_alpha   89.98556340
_cell_angle_beta   90.00385091
_cell_angle_gamma   89.99716516
_symmetry_Int_Tables_number   1
_chemical_formula_structural   Ca2Al2SiO7
_chemical_formula_sum   'Ca48 Al48 Si24 O168'
_cell_volume   3653.10616599
_cell_formula_units_Z   24
loop_
 _symmetry_equiv_pos_site_id
 _symmetry_equiv_pos_as_xyz
  1  'x, y, z'
loop_
 _atom_type_symbol
 _atom_type_oxidation_number
  Ca2+  2.0
  Al0+  0.0
  Si0+  0.0
  O2-  -2.0
loop_
 _atom_site_type_symbol
 _atom_site_label
 _atom_site_symmetry_multiplicity
 _atom_site_fract_x
 _atom_site_fract_y
 _atom_site_fract_z
 _atom_site_occupancy
  Ca2+  Ca0  1  0.16961268  0.08054179  0.17581553  1
  Ca2+  Ca1  1  0.17339936  0.09011770  0.50879348  1
  Ca2+  Ca2  1  0.16111985  0.07285518  0.83287670  1
  Ca2+  Ca3  1  0.18061634  0.57673440  0.17654519  1
  Ca2+  Ca4  1  0.16553174  0.57758768  0.50193761  1
  Ca2+  Ca5  1  0.17082227  0.58653180  0.83791276  1
  Ca2+  Ca6  1  0.65595699  0.08045538  0.16883548  1
  Ca2+  Ca7  1  0.66958244  0.08965841  0.50872512  1
  Ca2+  Ca8  1  0.67031337  0.08490178  0.83670775  1
  Ca2+  Ca9  1  0.66892734  0.57538129  0.17773292  1
  Ca2+  Ca10  1  0.67519112  0.57502850  0.50475207  1
  Ca2+  Ca11  1  0.66984599  0.58931062  0.83465736  1
  Ca2+  Ca12  1  0.08703898  0.33317376  0.17286030  1
  Ca2+  Ca13  1  0.07655518  0.32729931  0.49290593  1
  Ca2+  Ca14  1  0.07600353  0.32628696  0.82131420  1
  Ca2+  Ca15  1  0.08296171  0.83409310  0.16195924  1
  Ca2+  Ca16  1  0.08225044  0.83330646  0.50376968  1
  Ca2+  Ca17  1  0.08363559  0.83131654  0.82164251  1
  Ca2+  Ca18  1  0.58346299  0.32617626  0.16770039  1
  Ca2+  Ca19  1  0.57994875  0.32275504  0.49133612  1
  Ca2+  Ca20  1  0.58017145  0.32215592  0.82742858  1
  Ca2+  Ca21  1  0.58043142  0.82664856  0.15714221  1
  Ca2+  Ca22  1  0.58625273  0.82548611  0.49965516  1
  Ca2+  Ca23  1  0.58932595  0.82439291  0.82985967  1
  Ca2+  Ca24  1  0.33551087  0.42399910  0.17801912  1
  Ca2+  Ca25  1  0.33145321  0.41314352  0.49678998  1
  Ca2+  Ca26  1  0.33233318  0.42328859  0.83662541  1
  Ca2+  Ca27  1  0.32781190  0.92201391  0.17168389  1
  Ca2+  Ca28  1  0.32794177  0.93140852  0.50772774  1
  Ca2+  Ca29  1  0.32223150  0.91874133  0.83236743  1
  Ca2+  Ca30  1  0.82701854  0.42093651  0.18066592  1
  Ca2+  Ca31  1  0.83650830  0.41787334  0.50458682  1
  Ca2+  Ca32  1  0.83746253  0.42135681  0.83055306  1
  Ca2+  Ca33  1  0.82320174  0.91779151  0.16823106  1
  Ca2+  Ca34  1  0.83426862  0.92435446  0.50932971  1
  Ca2+  Ca35  1  0.83321413  0.92209276  0.83269313  1
  Ca2+  Ca36  1  0.42068007  0.16979176  0.16869391  1
  Ca2+  Ca37  1  0.42181735  0.16448038  0.49056440  1
  Ca2+  Ca38  1  0.42622551  0.15765924  0.82837757  1
  Ca2+  Ca39  1  0.42000662  0.65927013  0.15954339  1
  Ca2+  Ca40  1  0.41946178  0.66547839  0.49665867  1
  Ca2+  Ca41  1  0.42665101  0.66479758  0.82848523  1
  Ca2+  Ca42  1  0.91944279  0.17502652  0.16917119  1
  Ca2+  Ca43  1  0.92418758  0.17292341  0.49626637  1
  Ca2+  Ca44  1  0.91992742  0.17135898  0.81883967  1
  Ca2+  Ca45  1  0.91614962  0.66315614  0.16664458  1
  Ca2+  Ca46  1  0.91487440  0.66675303  0.50142076  1
  Ca2+  Ca47  1  0.92215854  0.67603800  0.81736259  1
  Al0+  Al48  1  -0.00096513  0.00130689  0.00595810  1
  Al0+  Al49  1  -0.00318679  -0.00231966  0.32695896  1
  Al0+  Al50  1  -0.00059186  0.00011655  0.66708906  1
  Al0+  Al51  1  0.00077878  0.50025084  0.00012806  1
  Al0+  Al52  1  0.00146960  0.50267746  0.33471223  1
  Al0+  Al53  1  -0.00045502  0.50140333  0.66628678  1
  Al0+  Al54  1  0.49936483  -0.00070753  -0.00087554  1
  Al0+  Al55  1  0.49758344  -0.00470168  0.33340322  1
  Al0+  Al56  1  0.49943863  -0.00232036  0.66772833  1
  Al0+  Al57  1  0.50175648  0.49921533  -0.00215665  1
  Al0+  Al58  1  0.50271263  0.49893497  0.33908991  1
  Al0+  Al59  1  0.50117201  0.49892150  0.66355493  1
  Al0+  Al60  1  0.24849885  0.25012551  -0.00237672  1
  Al0+  Al61  1  0.25183941  0.24985283  0.33168546  1
  Al0+  Al62  1  0.25208810  0.25249385  0.67248145  1
  Al0+  Al63  1  0.25032059  0.75050279  0.00856695  1
  Al0+  Al64  1  0.24912014  0.75080179  0.33619737  1
  Al0+  Al65  1  0.25131947  0.75033732  0.66548054  1
  Al0+  Al66  1  0.75093160  0.25188841  -0.00411669  1
  Al0+  Al67  1  0.75094514  0.24739551  0.32753573  1
  Al0+  Al68  1  0.74721102  0.25110753  0.66578434  1
  Al0+  Al69  1  0.75098914  0.75250387  0.00046056  1
  Al0+  Al70  1  0.74976187  0.75042489  0.33524420  1
  Al0+  Al71  1  0.75070465  0.74846093  0.66161977  1
  Al0+  Al72  1  0.07263658  0.17875420  0.65406710  1
  Al0+  Al73  1  0.82061644  0.57044160  0.68215190  1
  Al0+  Al74  1  0.17893366  0.92976985  0.68020484  1
  Al0+  Al75  1  0.17814163  0.93023909  0.01557631  1
  Al0+  Al76  1  0.31963201  0.06905898  0.34523741  1
  Al0+  Al77  1  0.92991572  0.32361764  0.31745567  1
  Al0+  Al78  1  0.07210376  0.17773504  0.31761024  1
  Al0+  Al79  1  0.67947683  0.92987927  0.01266761  1
  Al0+  Al80  1  0.57135133  0.67869716  0.98731484  1
  Al0+  Al81  1  0.81913510  0.07276301  0.67817532  1
  Al0+  Al82  1  0.07414726  0.67869073  0.65151139  1
  Al0+  Al83  1  0.56817992  0.17746520  0.65420308  1
  Al0+  Al84  1  0.57174809  0.67805704  0.65099420  1
  Al0+  Al85  1  0.92897106  0.82235308  0.65139688  1
  Al0+  Al86  1  0.56981417  0.17861730  0.98449694  1
  Al0+  Al87  1  0.92792662  0.32172939  0.65215771  1
  Al0+  Al88  1  0.43010678  0.32194261  0.31851727  1
  Al0+  Al89  1  0.32340471  0.57284868  0.35097741  1
  Al0+  Al90  1  0.32181663  0.56847233  0.01191133  1
  Al0+  Al91  1  0.82131111  0.57230734  0.34906747  1
  Al0+  Al92  1  0.32311376  0.07444606  0.68360977  1
  Al0+  Al93  1  0.57180508  0.17495644  0.31800643  1
  Al0+  Al94  1  0.68027121  0.42482557  0.34908973  1
  Al0+  Al95  1  0.18022939  0.42864583  0.34932212  1
  Si0+  Si96  1  0.82038403  0.06867081  0.34633394  1
  Si0+  Si97  1  0.07231377  0.68033809  0.31627303  1
  Si0+  Si98  1  0.42774078  0.32345638  0.65073682  1
  Si0+  Si99  1  0.92957826  0.32234316  0.98392658  1
  Si0+  Si100  1  0.57083259  0.68070271  0.31897200  1
  Si0+  Si101  1  0.67798410  0.92648926  0.68223561  1
  Si0+  Si102  1  0.82105576  0.07478616  0.01829364  1
  Si0+  Si103  1  0.67650552  0.42898863  0.68656123  1
  Si0+  Si104  1  0.42678609  0.32234090  0.98239435  1
  Si0+  Si105  1  0.17628261  0.42737427  0.01626093  1
  Si0+  Si106  1  0.42592275  0.82152151  0.98339579  1
  Si0+  Si107  1  0.92938746  0.82190508  0.98576005  1
  Si0+  Si108  1  0.68093188  0.42874739  0.01371552  1
  Si0+  Si109  1  0.82191639  0.57184038  0.01355039  1
  Si0+  Si110  1  0.42732577  0.81913968  0.31768391  1
  Si0+  Si111  1  0.07038456  0.17827527  0.98452718  1
  Si0+  Si112  1  0.42809563  0.82062086  0.64913725  1
  Si0+  Si113  1  0.67762673  0.92842461  0.34836436  1
  Si0+  Si114  1  0.32279628  0.57113655  0.68176751  1
  Si0+  Si115  1  0.17395657  0.92832715  0.35064094  1
  Si0+  Si116  1  0.07113996  0.68057391  0.98789619  1
  Si0+  Si117  1  0.32199642  0.07303207  0.01759941  1
  Si0+  Si118  1  0.92702067  0.82022422  0.31484693  1
  Si0+  Si119  1  0.17841485  0.43048147  0.68305504  1
  O2-  O120  1  0.25158681  0.00590985  0.06196451  1
  O2-  O121  1  0.23893958  0.00101352  0.39236973  1
  O2-  O122  1  0.24753386  0.00462434  0.73193894  1
  O2-  O123  1  0.24868285  0.49275034  0.05875273  1
  O2-  O124  1  0.25242817  0.50012679  0.40068753  1
  O2-  O125  1  0.24938626  0.50277148  0.72461664  1
  O2-  O126  1  0.74939859  0.00821932  0.06186365  1
  O2-  O127  1  0.74392770  0.00373480  0.38870528  1
  O2-  O128  1  0.74430593  -0.00212254  0.72575156  1
  O2-  O129  1  0.75026207  0.50193399  0.05563617  1
  O2-  O130  1  0.75561819  0.49424221  0.39811210  1
  O2-  O131  1  0.74566713  0.49734440  0.73175762  1
  O2-  O132  1  0.00293754  0.25264132  0.26615723  1
  O2-  O133  1  -0.00015630  0.24932117  0.60390566  1
  O2-  O134  1  0.00064909  0.25086665  0.94323679  1
  O2-  O135  1  -0.00071104  0.74986869  0.27332863  1
  O2-  O136  1  0.00138805  0.75029491  0.60186383  1
  O2-  O137  1  0.00166861  0.75198984  0.94435132  1
  O2-  O138  1  0.50217397  0.24968020  0.26822100  1
  O2-  O139  1  0.49014438  0.24832744  0.60886499  1
  O2-  O140  1  0.49184772  0.25030619  0.93802671  1
  O2-  O141  1  0.49480244  0.74493836  0.27468943  1
  O2-  O142  1  0.49730315  0.75258900  0.60432675  1
  O2-  O143  1  0.49596338  0.75316862  0.94012964  1
  O2-  O144  1  0.07060698  0.17820295  0.08932207  1
  O2-  O145  1  0.06856487  0.17457166  0.43046246  1
  O2-  O146  1  0.06947434  0.18105907  0.76879550  1
  O2-  O147  1  0.06808891  0.68013632  0.09299117  1
  O2-  O148  1  0.07465938  0.68269765  0.42060406  1
  O2-  O149  1  0.07398152  0.67995660  0.76645584  1
  O2-  O150  1  0.56929271  0.18063154  0.09704337  1
  O2-  O151  1  0.56974298  0.17289760  0.43128599  1
  O2-  O152  1  0.56913237  0.17971469  0.76790916  1
  O2-  O153  1  0.57128351  0.67900850  0.10067429  1
  O2-  O154  1  0.57247179  0.68579420  0.42367088  1
  O2-  O155  1  0.57003120  0.67967147  0.76475802  1
  O2-  O156  1  0.18110360  0.43362908  0.23489035  1
  O2-  O157  1  0.17926896  0.42936506  0.57875903  1
  O2-  O158  1  0.17310770  0.43009032  0.91054992  1
  O2-  O159  1  0.17641610  0.92702142  0.24432288  1
  O2-  O160  1  0.18282706  0.92767424  0.56704484  1
  O2-  O161  1  0.17646648  0.92903812  0.90313159  1
  O2-  O162  1  0.67990098  0.42974305  0.23413989  1
  O2-  O163  1  0.67506749  0.42985338  0.58162883  1
  O2-  O164  1  0.68237620  0.42779714  0.90877561  1
  O2-  O165  1  0.67956014  0.92497809  0.24288817  1
  O2-  O166  1  0.67841962  0.92684254  0.57630933  1
  O2-  O167  1  0.68487502  0.92683894  0.90019938  1
  O2-  O168  1  0.42766570  0.32448511  0.08737963  1
  O2-  O169  1  0.43075539  0.31921775  0.43196425  1
  O2-  O170  1  0.43136020  0.32914614  0.75680161  1
  O2-  O171  1  0.42702439  0.82038258  0.08938592  1
  O2-  O172  1  0.43035426  0.82068304  0.42236183  1
  O2-  O173  1  0.42706163  0.81797554  0.75501392  1
  O2-  O174  1  0.92860725  0.32390108  0.08851816  1
  O2-  O175  1  0.92981522  0.32009603  0.43027914  1
  O2-  O176  1  0.93099487  0.32136481  0.76699980  1
  O2-  O177  1  0.92832458  0.81947329  0.09123151  1
  O2-  O178  1  0.92566129  0.82311458  0.41900583  1
  O2-  O179  1  0.92851534  0.82046450  0.76590346  1
  O2-  O180  1  0.32099057  0.06372508  0.23164618  1
  O2-  O181  1  0.32414580  0.07223345  0.57006714  1
  O2-  O182  1  0.32105826  0.07167148  0.91232281  1
  O2-  O183  1  0.32164466  0.57392976  0.23674333  1
  O2-  O184  1  0.32405603  0.56973022  0.57738658  1
  O2-  O185  1  0.31951069  0.56859551  0.89839642  1
  O2-  O186  1  0.82230924  0.06425580  0.24084096  1
  O2-  O187  1  0.81742950  0.07175476  0.56491518  1
  O2-  O188  1  0.82312359  0.07356495  0.91280419  1
  O2-  O189  1  0.81592476  0.57552641  0.23406019  1
  O2-  O190  1  0.81874615  0.56991775  0.56990518  1
  O2-  O191  1  0.82359042  0.57110213  0.90874111  1
  O2-  O192  1  0.03880767  0.08021383  0.26254902  1
  O2-  O193  1  0.04814156  0.07998437  0.60290367  1
  O2-  O194  1  0.03950392  0.08619889  0.93923660  1
  O2-  O195  1  0.04620355  0.58914052  0.26698786  1
  O2-  O196  1  0.04465177  0.58118861  0.59976350  1
  O2-  O197  1  0.04466671  0.58814381  0.94047235  1
  O2-  O198  1  0.53910491  0.07615059  0.26601987  1
  O2-  O199  1  0.54453995  0.07832577  0.60251743  1
  O2-  O200  1  0.54271761  0.08013994  0.93191963  1
  O2-  O201  1  0.54905727  0.58631818  0.27479310  1
  O2-  O202  1  0.54026190  0.58199844  0.59788860  1
  O2-  O203  1  0.54284751  0.58221170  0.93167973  1
  O2-  O204  1  0.17069144  0.20390034  0.26383314  1
  O2-  O205  1  0.17223679  0.20925823  0.60592503  1
  O2-  O206  1  0.16287337  0.20302749  0.93670293  1
  O2-  O207  1  0.16350721  0.71107773  0.26763119  1
  O2-  O208  1  0.17245990  0.70542113  0.59830798  1
  O2-  O209  1  0.16421938  0.70755421  0.94301433  1
  O2-  O210  1  0.67076115  0.19802187  0.26343130  1
  O2-  O211  1  0.66309835  0.21142974  0.60036256  1
  O2-  O212  1  0.66697041  0.21161755  0.93180279  1
  O2-  O213  1  0.66063387  0.71451893  0.27039979  1
  O2-  O214  1  0.66631555  0.70961110  0.59539126  1
  O2-  O215  1  0.66807642  0.71226025  0.93418855  1
  O2-  O216  1  0.08429393  0.45669046  0.06422095  1
  O2-  O217  1  0.08256027  0.45970628  0.40118757  1
  O2-  O218  1  0.08733447  0.45853013  0.73205195  1
  O2-  O219  1  0.08125460  0.95934806  0.07121884  1
  O2-  O220  1  0.07740041  0.94825486  0.39151574  1
  O2-  O221  1  0.07984797  0.95390320  0.73438191  1
  O2-  O222  1  0.58853335  0.45488750  0.06009064  1
  O2-  O223  1  0.58458278  0.45585972  0.40419818  1
  O2-  O224  1  0.58329269  0.45689073  0.73340491  1
  O2-  O225  1  0.58065458  0.95481704  0.06599879  1
  O2-  O226  1  0.58433256  0.94877824  0.39489379  1
  O2-  O227  1  0.58351401  0.94669299  0.72830807  1
  O2-  O228  1  0.19768784  0.33176753  0.05960965  1
  O2-  O229  1  0.20636552  0.32946290  0.40019521  1
  O2-  O230  1  0.20737231  0.34095407  0.73524900  1
  O2-  O231  1  0.20876289  0.83470889  0.07260565  1
  O2-  O232  1  0.20271666  0.83619626  0.39623465  1
  O2-  O233  1  0.21182793  0.83161981  0.73432515  1
  O2-  O234  1  0.71122125  0.33796711  0.06163586  1
  O2-  O235  1  0.70410491  0.32358223  0.39720227  1
  O2-  O236  1  0.70255658  0.33567445  0.73314889  1
  O2-  O237  1  0.71460297  0.83516241  0.07016289  1
  O2-  O238  1  0.71116762  0.83944535  0.39730010  1
  O2-  O239  1  0.70687150  0.83356083  0.72775718  1
  O2-  O240  1  0.45982962  0.42168946  0.26692036  1
  O2-  O241  1  0.45795830  0.41378025  0.60158616  1
  O2-  O242  1  0.45720078  0.41377964  0.93395853  1
  O2-  O243  1  0.45918718  0.90776687  0.26645440  1
  O2-  O244  1  0.45445873  0.91359369  0.60281017  1
  O2-  O245  1  0.44955695  0.91509060  0.93759080  1
  O2-  O246  1  0.95595100  0.42388441  0.26528016  1
  O2-  O247  1  0.95650803  0.41991645  0.60159319  1
  O2-  O248  1  0.95851723  0.41453275  0.93639746  1
  O2-  O249  1  0.95347715  0.91031608  0.26274540  1
  O2-  O250  1  0.95623022  0.92008082  0.59767468  1
  O2-  O251  1  0.95489417  0.91591834  0.94206298  1
  O2-  O252  1  0.33231313  0.29530162  0.26334202  1
  O2-  O253  1  0.33160940  0.30519384  0.60895306  1
  O2-  O254  1  0.33101500  0.30212387  0.93702686  1
  O2-  O255  1  0.33356172  0.79627141  0.27101068  1
  O2-  O256  1  0.33632080  0.79396594  0.60111837  1
  O2-  O257  1  0.33212506  0.79347643  0.93897959  1
  O2-  O258  1  0.83330065  0.29138559  0.26151819  1
  O2-  O259  1  0.82867939  0.29593568  0.60201835  1
  O2-  O260  1  0.83837790  0.29596949  0.93482904  1
  O2-  O261  1  0.83537424  0.78988924  0.26667395  1
  O2-  O262  1  0.83183660  0.79347599  0.59676649  1
  O2-  O263  1  0.83886917  0.79335872  0.93733532  1
  O2-  O264  1  0.41509240  0.04573748  0.06316429  1
  O2-  O265  1  0.41345872  0.03046830  0.40021872  1
  O2-  O266  1  0.41939606  0.03767876  0.73733187  1
  O2-  O267  1  0.41939708  0.53888950  0.06506865  1
  O2-  O268  1  0.42242426  0.54795294  0.40252811  1
  O2-  O269  1  0.41381529  0.53952470  0.72965193  1
  O2-  O270  1  0.91247691  0.04577427  0.06698277  1
  O2-  O271  1  0.90980872  0.03355748  0.39339715  1
  O2-  O272  1  0.91484396  0.04181362  0.73421773  1
  O2-  O273  1  0.91370529  0.54310225  0.06158810  1
  O2-  O274  1  0.92298821  0.55493134  0.39702540  1
  O2-  O275  1  0.91781191  0.54110238  0.73746353  1
  O2-  O276  1  0.29718783  0.16832284  0.06086922  1
  O2-  O277  1  0.29732830  0.16752066  0.39692644  1
  O2-  O278  1  0.30249451  0.17442938  0.73744752  1
  O2-  O279  1  0.29194545  0.66393630  0.06842106  1
  O2-  O280  1  0.29333316  0.67162853  0.40235522  1
  O2-  O281  1  0.29812788  0.66369881  0.72898365  1
  O2-  O282  1  0.79762435  0.16993892  0.06184692  1
  O2-  O283  1  0.79928882  0.16233468  0.39080900  1
  O2-  O284  1  0.78747504  0.16837045  0.73482060  1
  O2-  O285  1  0.79692289  0.66443993  0.06031236  1
  O2-  O286  1  0.78728355  0.66914909  0.40176298  1
  O2-  O287  1  0.78879838  0.66810340  0.73473558  1
