# generated using pymatgen
data_Ca2Al2SiO7
_symmetry_space_group_name_H-M   'P 1'
_cell_length_a   15.46475325
_cell_length_b   15.46654318
_cell_length_c   15.28864852
_cell_angle_alpha   90.01160662
_cell_angle_beta   89.99925461
_cell_angle_gamma   90.02059382
_symmetry_Int_Tables_number   1
_chemical_formula_structural   Ca2Al2SiO7
_chemical_formula_sum   'Ca48 Al48 Si24 O168'
_cell_volume   3656.83456155
_cell_formula_units_Z   24
loop_
 _symmetry_equiv_pos_site_id
 _symmetry_equiv_pos_as_xyz
  1  'x, y, z'
loop_
 _atom_type_symbol
 _atom_type_oxidation_number
  Ca2+  2.0
  Al0+  0.0
  Si0+  0.0
  O2-  -2.0
loop_
 _atom_site_type_symbol
 _atom_site_label
 _atom_site_symmetry_multiplicity
 _atom_site_fract_x
 _atom_site_fract_y
 _atom_site_fract_z
 _atom_site_occupancy
  Ca2+  Ca0  1  0.16766032  0.07873439  0.17927210  1
  Ca2+  Ca1  1  0.16834625  0.07663939  0.49767180  1
  Ca2+  Ca2  1  0.16503187  0.07606494  0.83115078  1
  Ca2+  Ca3  1  0.16340848  0.57566753  0.16654589  1
  Ca2+  Ca4  1  0.17284830  0.56941041  0.51051289  1
  Ca2+  Ca5  1  0.17781997  0.58175711  0.84172898  1
  Ca2+  Ca6  1  0.67703703  0.08141436  0.17240376  1
  Ca2+  Ca7  1  0.67393008  0.08020740  0.50521052  1
  Ca2+  Ca8  1  0.66106711  0.07278637  0.83454220  1
  Ca2+  Ca9  1  0.66746923  0.58582060  0.16414315  1
  Ca2+  Ca10  1  0.66952949  0.58255349  0.50730996  1
  Ca2+  Ca11  1  0.67330806  0.57700290  0.83896436  1
  Ca2+  Ca12  1  0.08574185  0.33087144  0.16168604  1
  Ca2+  Ca13  1  0.08981362  0.32942345  0.49155813  1
  Ca2+  Ca14  1  0.08282043  0.34335307  0.83272854  1
  Ca2+  Ca15  1  0.07854048  0.83078041  0.15725021  1
  Ca2+  Ca16  1  0.08254278  0.83829915  0.49898873  1
  Ca2+  Ca17  1  0.07525382  0.82566606  0.82743463  1
  Ca2+  Ca18  1  0.57852909  0.33570233  0.16225823  1
  Ca2+  Ca19  1  0.57027904  0.34269592  0.49769928  1
  Ca2+  Ca20  1  0.58166910  0.34067887  0.82630275  1
  Ca2+  Ca21  1  0.58348037  0.81898145  0.16075695  1
  Ca2+  Ca22  1  0.58000092  0.82955359  0.49794623  1
  Ca2+  Ca23  1  0.57876317  0.82534443  0.82483340  1
  Ca2+  Ca24  1  0.32498139  0.42005724  0.17028428  1
  Ca2+  Ca25  1  0.32832935  0.41518304  0.50673085  1
  Ca2+  Ca26  1  0.32719492  0.42450487  0.83554199  1
  Ca2+  Ca27  1  0.32417701  0.92427096  0.17739636  1
  Ca2+  Ca28  1  0.32409593  0.91586857  0.50749931  1
  Ca2+  Ca29  1  0.32757442  0.90774683  0.83284018  1
  Ca2+  Ca30  1  0.83327245  0.41839103  0.16384906  1
  Ca2+  Ca31  1  0.82425759  0.42591657  0.51207612  1
  Ca2+  Ca32  1  0.82825875  0.42731567  0.84281514  1
  Ca2+  Ca33  1  0.83852720  0.92111851  0.17273283  1
  Ca2+  Ca34  1  0.83040941  0.92084199  0.50701370  1
  Ca2+  Ca35  1  0.83340058  0.90961675  0.83280559  1
  Ca2+  Ca36  1  0.40726361  0.17394965  0.16792252  1
  Ca2+  Ca37  1  0.40975695  0.17840848  0.49437475  1
  Ca2+  Ca38  1  0.41916259  0.17679787  0.82445649  1
  Ca2+  Ca39  1  0.42658172  0.65854337  0.16171709  1
  Ca2+  Ca40  1  0.41868656  0.66692113  0.49905814  1
  Ca2+  Ca41  1  0.41952438  0.65949278  0.82808970  1
  Ca2+  Ca42  1  0.92221332  0.17007136  0.16335862  1
  Ca2+  Ca43  1  0.92319078  0.16705341  0.49194221  1
  Ca2+  Ca44  1  0.91675700  0.17759166  0.83206195  1
  Ca2+  Ca45  1  0.92379929  0.67197318  0.15217460  1
  Ca2+  Ca46  1  0.91289543  0.67072869  0.50140135  1
  Ca2+  Ca47  1  0.91377419  0.66903785  0.83089703  1
  Al0+  Al48  1  -0.00012540  0.00111957  -0.00499190  1
  Al0+  Al49  1  -0.00088629  0.00224191  0.33684718  1
  Al0+  Al50  1  0.00100102  0.00006709  0.66696166  1
  Al0+  Al51  1  0.00036200  0.49944992  -0.00008338  1
  Al0+  Al52  1  -0.00196202  0.50156157  0.33850351  1
  Al0+  Al53  1  -0.00064617  0.50049523  0.67009672  1
  Al0+  Al54  1  0.50068473  0.00063960  0.00300035  1
  Al0+  Al55  1  0.50057618  0.00123008  0.33513002  1
  Al0+  Al56  1  0.50112042  0.00006496  0.66516036  1
  Al0+  Al57  1  0.49953865  0.49877888  0.00198826  1
  Al0+  Al58  1  0.49989679  0.50000994  0.32372044  1
  Al0+  Al59  1  0.50001839  0.49903481  0.66667809  1
  Al0+  Al60  1  0.25114892  0.24860378  -0.00009964  1
  Al0+  Al61  1  0.24854856  0.24934026  0.33034116  1
  Al0+  Al62  1  0.25037335  0.24827913  0.66663902  1
  Al0+  Al63  1  0.25042452  0.75149716  0.00403985  1
  Al0+  Al64  1  0.24950203  0.74847717  0.33558737  1
  Al0+  Al65  1  0.24966638  0.74965778  0.66927159  1
  Al0+  Al66  1  0.75046349  0.24743029  -0.00071879  1
  Al0+  Al67  1  0.74846411  0.25142273  0.33882043  1
  Al0+  Al68  1  0.75191940  0.24893724  0.66770307  1
  Al0+  Al69  1  0.74686475  0.74922758  -0.00417758  1
  Al0+  Al70  1  0.75022586  0.74996416  0.32828956  1
  Al0+  Al71  1  0.75072619  0.75270015  0.66830008  1
  Al0+  Al72  1  0.92928976  0.31980720  0.98721776  1
  Al0+  Al73  1  0.82095552  0.57329721  0.68169361  1
  Al0+  Al74  1  0.07333233  0.67846419  0.98526543  1
  Al0+  Al75  1  0.67891911  0.42802272  0.67980428  1
  Al0+  Al76  1  0.06826779  0.18058301  0.32014638  1
  Al0+  Al77  1  0.42715155  0.82166877  0.65303646  1
  Al0+  Al78  1  0.42911295  0.31880361  0.31720295  1
  Al0+  Al79  1  0.32147693  0.57313715  0.01758692  1
  Al0+  Al80  1  0.57053661  0.68119693  0.31905840  1
  Al0+  Al81  1  0.81986405  0.07213160  0.34669947  1
  Al0+  Al82  1  0.82004822  0.57252459  0.01674243  1
  Al0+  Al83  1  0.43070865  0.32033040  0.65349628  1
  Al0+  Al84  1  0.17838924  0.43077774  0.34652083  1
  Al0+  Al85  1  0.17872573  0.92686689  0.34814360  1
  Al0+  Al86  1  0.67935553  0.42621813  0.01693460  1
  Al0+  Al87  1  0.56833682  0.67732292  0.98339651  1
  Al0+  Al88  1  0.32053750  0.57118829  0.68006299  1
  Al0+  Al89  1  0.92956604  0.82058057  0.65029481  1
  Al0+  Al90  1  0.32238692  0.07218212  0.34862266  1
  Al0+  Al91  1  0.17892279  0.42489599  0.68143650  1
  Al0+  Al92  1  0.17883146  0.42779711  0.01634359  1
  Al0+  Al93  1  0.67837310  0.93120630  0.67965584  1
  Al0+  Al94  1  0.17885396  0.92904156  0.68211153  1
  Al0+  Al95  1  0.92832513  0.82262748  0.98442765  1
  Si0+  Si96  1  0.67744490  0.43063834  0.34777047  1
  Si0+  Si97  1  0.32228583  0.07030584  0.01408687  1
  Si0+  Si98  1  0.42923306  0.31870395  0.98391636  1
  Si0+  Si99  1  0.82017793  0.57295106  0.34815468  1
  Si0+  Si100  1  0.67768481  0.92929653  0.01554786  1
  Si0+  Si101  1  0.17798478  0.93127961  0.01398568  1
  Si0+  Si102  1  0.93118760  0.82023945  0.31999883  1
  Si0+  Si103  1  0.57518546  0.17714199  0.31650778  1
  Si0+  Si104  1  0.92539202  0.32444329  0.31896695  1
  Si0+  Si105  1  0.07110093  0.67629293  0.32067158  1
  Si0+  Si106  1  0.07221890  0.67729135  0.64843314  1
  Si0+  Si107  1  0.57167804  0.17728809  0.98550066  1
  Si0+  Si108  1  0.82173140  0.06951446  0.01406363  1
  Si0+  Si109  1  0.92832163  0.32264155  0.65106144  1
  Si0+  Si110  1  0.32478494  0.57024342  0.34984434  1
  Si0+  Si111  1  0.42557863  0.82384089  0.31726479  1
  Si0+  Si112  1  0.32233890  0.07120398  0.68355410  1
  Si0+  Si113  1  0.57426639  0.17666196  0.64915661  1
  Si0+  Si114  1  0.67979489  0.92569194  0.34812294  1
  Si0+  Si115  1  0.82385725  0.07164822  0.68541250  1
  Si0+  Si116  1  0.42990566  0.82502103  0.98552838  1
  Si0+  Si117  1  0.07425517  0.17799357  0.98120224  1
  Si0+  Si118  1  0.06986640  0.17958451  0.65085193  1
  Si0+  Si119  1  0.57105990  0.67922104  0.65028994  1
  O2-  O120  1  0.24992335  0.00099228  0.05594284  1
  O2-  O121  1  0.25559750  -0.00530790  0.39737327  1
  O2-  O122  1  0.25761120  -0.00034454  0.72938574  1
  O2-  O123  1  0.24771637  0.50240827  0.06701323  1
  O2-  O124  1  0.25356848  0.50443596  0.39360278  1
  O2-  O125  1  0.24729748  0.50048821  0.72982672  1
  O2-  O126  1  0.75473611  -0.00540905  0.05664605  1
  O2-  O127  1  0.74344836  -0.00113380  0.39240792  1
  O2-  O128  1  0.75235533  0.00571427  0.72896806  1
  O2-  O129  1  0.74983234  0.49916637  0.06855993  1
  O2-  O130  1  0.74948589  0.50096637  0.38898442  1
  O2-  O131  1  0.75208638  0.49774469  0.72991471  1
  O2-  O132  1  -0.00531894  0.25668750  0.27419657  1
  O2-  O133  1  0.00214808  0.25441131  0.60912675  1
  O2-  O134  1  0.00850661  0.24998699  0.93856258  1
  O2-  O135  1  0.00462892  0.75205158  0.27870311  1
  O2-  O136  1  0.00308153  0.74537722  0.60244144  1
  O2-  O137  1  -0.00198581  0.74776907  0.93560015  1
  O2-  O138  1  0.50316057  0.24167882  0.27127185  1
  O2-  O139  1  0.50786990  0.24766612  0.60578444  1
  O2-  O140  1  0.50402237  0.25064373  0.94270864  1
  O2-  O141  1  0.49469649  0.75590693  0.27267529  1
  O2-  O142  1  0.50100099  0.74648941  0.60563163  1
  O2-  O143  1  0.49160134  0.75133870  0.93970721  1
  O2-  O144  1  0.07259288  0.17368458  0.08668144  1
  O2-  O145  1  0.06666252  0.18017511  0.43343784  1
  O2-  O146  1  0.06796585  0.17724827  0.75612676  1
  O2-  O147  1  0.07188062  0.68435314  0.10002124  1
  O2-  O148  1  0.06779984  0.67381125  0.42541071  1
  O2-  O149  1  0.07269695  0.67955079  0.75361988  1
  O2-  O150  1  0.57064427  0.17427730  0.09046161  1
  O2-  O151  1  0.57952718  0.17999934  0.42159191  1
  O2-  O152  1  0.57174505  0.17425366  0.75514465  1
  O2-  O153  1  0.56892868  0.68157330  0.09696536  1
  O2-  O154  1  0.57276767  0.68214958  0.43213503  1
  O2-  O155  1  0.57027398  0.68030997  0.75560505  1
  O2-  O156  1  0.17662879  0.43258035  0.23391287  1
  O2-  O157  1  0.18160931  0.42389690  0.56734690  1
  O2-  O158  1  0.18478490  0.42439137  0.90333619  1
  O2-  O159  1  0.17708303  0.92917403  0.23387338  1
  O2-  O160  1  0.17788565  0.93298928  0.56939336  1
  O2-  O161  1  0.17822967  0.93294117  0.90899068  1
  O2-  O162  1  0.67867733  0.42869677  0.24302642  1
  O2-  O163  1  0.67930563  0.43068131  0.56533696  1
  O2-  O164  1  0.68109961  0.42523644  0.90377600  1
  O2-  O165  1  0.68424703  0.92462988  0.24220998  1
  O2-  O166  1  0.68034226  0.93306150  0.56621002  1
  O2-  O167  1  0.67248922  0.93431486  0.91092345  1
  O2-  O168  1  0.42761825  0.31430119  0.08905728  1
  O2-  O169  1  0.43126125  0.32039765  0.43031626  1
  O2-  O170  1  0.43081522  0.31677361  0.76672251  1
  O2-  O171  1  0.43534079  0.83120684  0.09097435  1
  O2-  O172  1  0.42649771  0.82249281  0.42270114  1
  O2-  O173  1  0.43041748  0.82275746  0.76616645  1
  O2-  O174  1  0.92691110  0.31327496  0.10043878  1
  O2-  O175  1  0.92552856  0.32319262  0.42469723  1
  O2-  O176  1  0.92602834  0.31914087  0.75596252  1
  O2-  O177  1  0.93241171  0.82788304  0.09891475  1
  O2-  O178  1  0.92777380  0.81859182  0.42485375  1
  O2-  O179  1  0.93155509  0.82143246  0.76274457  1
  O2-  O180  1  0.31841348  0.07040923  0.23422729  1
  O2-  O181  1  0.31932309  0.07276116  0.57836552  1
  O2-  O182  1  0.32432489  0.07005897  0.90914201  1
  O2-  O183  1  0.32499636  0.56873745  0.24448259  1
  O2-  O184  1  0.32029726  0.56990965  0.56590676  1
  O2-  O185  1  0.32257430  0.57059298  0.90425709  1
  O2-  O186  1  0.82035845  0.06975206  0.23308520  1
  O2-  O187  1  0.82346666  0.07138649  0.57954459  1
  O2-  O188  1  0.82002437  0.07126681  0.90928988  1
  O2-  O189  1  0.82192059  0.57434417  0.24360821  1
  O2-  O190  1  0.81821245  0.57206825  0.56679647  1
  O2-  O191  1  0.81726684  0.57218321  0.90366876  1
  O2-  O192  1  0.03476206  0.08437386  0.26538528  1
  O2-  O193  1  0.03770540  0.08972648  0.60250890  1
  O2-  O194  1  0.04376740  0.08692909  0.93240711  1
  O2-  O195  1  0.03742504  0.58704338  0.27152120  1
  O2-  O196  1  0.04615874  0.58290716  0.60285835  1
  O2-  O197  1  0.05185222  0.57802020  0.93549312  1
  O2-  O198  1  0.55621316  0.08085955  0.27198159  1
  O2-  O199  1  0.54799628  0.08437294  0.60128051  1
  O2-  O200  1  0.53902682  0.08693509  0.93685254  1
  O2-  O201  1  0.54105963  0.58586178  0.26226152  1
  O2-  O202  1  0.54667066  0.58548858  0.60384729  1
  O2-  O203  1  0.53993572  0.57933284  0.93154883  1
  O2-  O204  1  0.16409798  0.20836062  0.26393737  1
  O2-  O205  1  0.16295294  0.20347145  0.60447378  1
  O2-  O206  1  0.16920285  0.19912480  0.93572938  1
  O2-  O207  1  0.16527602  0.69776507  0.27496520  1
  O2-  O208  1  0.16532274  0.70422352  0.60247043  1
  O2-  O209  1  0.17149061  0.71124632  0.93379801  1
  O2-  O210  1  0.66742672  0.20756304  0.26870896  1
  O2-  O211  1  0.67008380  0.19805156  0.60519788  1
  O2-  O212  1  0.66424810  0.19894501  0.93747828  1
  O2-  O213  1  0.66618230  0.71372726  0.26227714  1
  O2-  O214  1  0.66374938  0.70856485  0.60443896  1
  O2-  O215  1  0.66318065  0.71059049  0.92886711  1
  O2-  O216  1  0.07859377  0.45015146  0.06766896  1
  O2-  O217  1  0.08149593  0.45995957  0.40202383  1
  O2-  O218  1  0.07832516  0.44850478  0.73000937  1
  O2-  O219  1  0.08632983  0.96168319  0.06058222  1
  O2-  O220  1  0.08237321  0.96089129  0.40136938  1
  O2-  O221  1  0.08455667  0.96596223  0.73646746  1
  O2-  O222  1  0.58027892  0.45319108  0.06816709  1
  O2-  O223  1  0.58566426  0.46179725  0.39273209  1
  O2-  O224  1  0.58137652  0.45624026  0.73246686  1
  O2-  O225  1  0.58977564  0.96418949  0.06687243  1
  O2-  O226  1  0.58381429  0.94490209  0.39099643  1
  O2-  O227  1  0.58268009  0.96254491  0.73581516  1
  O2-  O228  1  0.21054992  0.32828316  0.06770695  1
  O2-  O229  1  0.20876590  0.33314586  0.39693697  1
  O2-  O230  1  0.20825311  0.32726823  0.73470167  1
  O2-  O231  1  0.20315351  0.84026244  0.06334181  1
  O2-  O232  1  0.20152581  0.82678926  0.40084755  1
  O2-  O233  1  0.20704133  0.83264390  0.73614838  1
  O2-  O234  1  0.70775923  0.32630169  0.06861098  1
  O2-  O235  1  0.70213649  0.33925397  0.39710691  1
  O2-  O236  1  0.70284818  0.32734864  0.73019239  1
  O2-  O237  1  0.70002487  0.83586223  0.06044316  1
  O2-  O238  1  0.71122234  0.83462226  0.39551679  1
  O2-  O239  1  0.70899980  0.83593702  0.73447102  1
  O2-  O240  1  0.46180619  0.41336911  0.26089326  1
  O2-  O241  1  0.46037291  0.41650886  0.59739074  1
  O2-  O242  1  0.45467676  0.41118986  0.93880751  1
  O2-  O243  1  0.44909959  0.91899901  0.27243395  1
  O2-  O244  1  0.45900757  0.91820171  0.59869604  1
  O2-  O245  1  0.46074488  0.91657412  0.93723701  1
  O2-  O246  1  0.94954462  0.41912089  0.27468191  1
  O2-  O247  1  0.95057820  0.41618671  0.60454350  1
  O2-  O248  1  0.95449651  0.41723478  0.93361607  1
  O2-  O249  1  0.95679044  0.91325661  0.27413561  1
  O2-  O250  1  0.96153502  0.91826027  0.59781299  1
  O2-  O251  1  0.95755028  0.92047292  0.93012638  1
  O2-  O252  1  0.33358505  0.28667287  0.26205999  1
  O2-  O253  1  0.33470217  0.28541305  0.59959666  1
  O2-  O254  1  0.33960069  0.28557406  0.93534824  1
  O2-  O255  1  0.33129797  0.79910907  0.27136498  1
  O2-  O256  1  0.32989272  0.79266564  0.59936818  1
  O2-  O257  1  0.33292212  0.80641242  0.94513141  1
  O2-  O258  1  0.83159967  0.29750632  0.27406365  1
  O2-  O259  1  0.83745572  0.29183752  0.60204021  1
  O2-  O260  1  0.83517290  0.28169032  0.93166442  1
  O2-  O261  1  0.84067529  0.79167307  0.27023212  1
  O2-  O262  1  0.83181026  0.79191322  0.59632261  1
  O2-  O263  1  0.82808586  0.79865570  0.93444859  1
  O2-  O264  1  0.41308295  0.04266048  0.06403762  1
  O2-  O265  1  0.42460605  0.05473209  0.39847450  1
  O2-  O266  1  0.41781690  0.05103711  0.72719803  1
  O2-  O267  1  0.41843869  0.53987134  0.07007199  1
  O2-  O268  1  0.41828458  0.54175347  0.39412263  1
  O2-  O269  1  0.41844933  0.54141344  0.73191375  1
  O2-  O270  1  0.91515215  0.04493360  0.06065593  1
  O2-  O271  1  0.91407296  0.03992367  0.40300640  1
  O2-  O272  1  0.91565664  0.04332280  0.73202742  1
  O2-  O273  1  0.91972912  0.54577351  0.06768605  1
  O2-  O274  1  0.91056235  0.54682478  0.39892240  1
  O2-  O275  1  0.91999715  0.54841764  0.73305189  1
  O2-  O276  1  0.29474715  0.16162749  0.06184457  1
  O2-  O277  1  0.28746161  0.16819807  0.40099642  1
  O2-  O278  1  0.29146292  0.16199175  0.73232064  1
  O2-  O279  1  0.29824953  0.67344162  0.07061217  1
  O2-  O280  1  0.30333816  0.66568415  0.39344513  1
  O2-  O281  1  0.29540387  0.66935340  0.73422755  1
  O2-  O282  1  0.78946501  0.15819012  0.06416235  1
  O2-  O283  1  0.79075452  0.16825428  0.40314733  1
  O2-  O284  1  0.80083546  0.16614404  0.73046310  1
  O2-  O285  1  0.78939709  0.67188008  0.06835267  1
  O2-  O286  1  0.78987261  0.66455543  0.39488261  1
  O2-  O287  1  0.79206651  0.67081898  0.73363718  1
