# generated using pymatgen
data_Ca2Al2SiO7
_symmetry_space_group_name_H-M   'P 1'
_cell_length_a   15.45949914
_cell_length_b   15.45993646
_cell_length_c   15.28481671
_cell_angle_alpha   89.98083946
_cell_angle_beta   90.01090694
_cell_angle_gamma   89.99353821
_symmetry_Int_Tables_number   1
_chemical_formula_structural   Ca2Al2SiO7
_chemical_formula_sum   'Ca48 Al48 Si24 O168'
_cell_volume   3653.11483576
_cell_formula_units_Z   24
loop_
 _symmetry_equiv_pos_site_id
 _symmetry_equiv_pos_as_xyz
  1  'x, y, z'
loop_
 _atom_type_symbol
 _atom_type_oxidation_number
  Ca2+  2.0
  Al0+  0.0
  Si0+  0.0
  O2-  -2.0
loop_
 _atom_site_type_symbol
 _atom_site_label
 _atom_site_symmetry_multiplicity
 _atom_site_fract_x
 _atom_site_fract_y
 _atom_site_fract_z
 _atom_site_occupancy
  Ca2+  Ca0  1  0.17138338  0.08297408  0.17902253  1
  Ca2+  Ca1  1  0.16903344  0.08708562  0.50235769  1
  Ca2+  Ca2  1  0.16289921  0.08384316  0.83387217  1
  Ca2+  Ca3  1  0.16792170  0.58225248  0.16971576  1
  Ca2+  Ca4  1  0.16746008  0.57298332  0.51190559  1
  Ca2+  Ca5  1  0.17450478  0.59366842  0.83694882  1
  Ca2+  Ca6  1  0.67321048  0.08168089  0.17332404  1
  Ca2+  Ca7  1  0.67332823  0.08339091  0.50388097  1
  Ca2+  Ca8  1  0.66206090  0.08377975  0.83890891  1
  Ca2+  Ca9  1  0.66677070  0.57598123  0.17503292  1
  Ca2+  Ca10  1  0.67185792  0.58366346  0.50684097  1
  Ca2+  Ca11  1  0.66264297  0.57406622  0.83838128  1
  Ca2+  Ca12  1  0.07906342  0.33240025  0.16544088  1
  Ca2+  Ca13  1  0.09320875  0.32782072  0.49419660  1
  Ca2+  Ca14  1  0.07802086  0.33496167  0.82627942  1
  Ca2+  Ca15  1  0.07073167  0.82949002  0.16187616  1
  Ca2+  Ca16  1  0.07820119  0.82307822  0.49579859  1
  Ca2+  Ca17  1  0.07996544  0.82154313  0.83388955  1
  Ca2+  Ca18  1  0.59280699  0.32979030  0.15954032  1
  Ca2+  Ca19  1  0.58901227  0.33620187  0.49984395  1
  Ca2+  Ca20  1  0.59259884  0.32760754  0.82835780  1
  Ca2+  Ca21  1  0.58153338  0.81830653  0.16711869  1
  Ca2+  Ca22  1  0.57878569  0.81892393  0.49260068  1
  Ca2+  Ca23  1  0.58324574  0.81611317  0.82925701  1
  Ca2+  Ca24  1  0.32740471  0.42292113  0.17015515  1
  Ca2+  Ca25  1  0.32304163  0.42073318  0.50498853  1
  Ca2+  Ca26  1  0.32713651  0.42749736  0.83286851  1
  Ca2+  Ca27  1  0.33576148  0.92256703  0.17520645  1
  Ca2+  Ca28  1  0.34283145  0.92154798  0.49899560  1
  Ca2+  Ca29  1  0.33167061  0.91735327  0.83780570  1
  Ca2+  Ca30  1  0.82557734  0.42003316  0.17294304  1
  Ca2+  Ca31  1  0.82311760  0.42949585  0.50331803  1
  Ca2+  Ca32  1  0.82788599  0.42094468  0.83512426  1
  Ca2+  Ca33  1  0.83934427  0.91947597  0.17521862  1
  Ca2+  Ca34  1  0.84251392  0.92143586  0.49781008  1
  Ca2+  Ca35  1  0.83657374  0.91911048  0.83697218  1
  Ca2+  Ca36  1  0.42127949  0.16928009  0.16317796  1
  Ca2+  Ca37  1  0.42161313  0.16757446  0.49490383  1
  Ca2+  Ca38  1  0.42891408  0.17096207  0.82742234  1
  Ca2+  Ca39  1  0.42572272  0.66098845  0.16322403  1
  Ca2+  Ca40  1  0.42636717  0.66036779  0.49637046  1
  Ca2+  Ca41  1  0.42341507  0.65370544  0.82977567  1
  Ca2+  Ca42  1  0.91801502  0.17235896  0.16360743  1
  Ca2+  Ca43  1  0.92786227  0.16886013  0.49292647  1
  Ca2+  Ca44  1  0.91869517  0.17946547  0.82859824  1
  Ca2+  Ca45  1  0.91533400  0.67357606  0.16136115  1
  Ca2+  Ca46  1  0.91541643  0.66346178  0.49440868  1
  Ca2+  Ca47  1  0.92396678  0.66467348  0.82741331  1
  Al0+  Al48  1  0.00070306  -0.00020760  -0.00248608  1
  Al0+  Al49  1  0.00265794  -0.00097382  0.33056955  1
  Al0+  Al50  1  0.00091903  0.00260354  0.66515987  1
  Al0+  Al51  1  0.00002408  0.49949353  -0.00719504  1
  Al0+  Al52  1  -0.00123203  0.49677532  0.34015699  1
  Al0+  Al53  1  -0.00329379  0.49993593  0.66833535  1
  Al0+  Al54  1  0.50090952  -0.00009629  -0.00171620  1
  Al0+  Al55  1  0.50089033  -0.00026696  0.33408261  1
  Al0+  Al56  1  0.50155792  0.00171154  0.66410419  1
  Al0+  Al57  1  0.49726787  0.49758394  0.00553514  1
  Al0+  Al58  1  0.49734535  0.49594449  0.33236944  1
  Al0+  Al59  1  0.49848747  0.49761723  0.66852087  1
  Al0+  Al60  1  0.25151996  0.25024343  -0.00024344  1
  Al0+  Al61  1  0.25256528  0.24797436  0.33529614  1
  Al0+  Al62  1  0.25163977  0.24984074  0.66962641  1
  Al0+  Al63  1  0.24958054  0.75262929  0.00523582  1
  Al0+  Al64  1  0.25031867  0.75175382  0.33048264  1
  Al0+  Al65  1  0.24747184  0.75355408  0.66567795  1
  Al0+  Al66  1  0.75197476  0.24889806  -0.00449784  1
  Al0+  Al67  1  0.75219513  0.24921449  0.34226838  1
  Al0+  Al68  1  0.75215540  0.24906184  0.66395463  1
  Al0+  Al69  1  0.74756256  0.75172442  -0.00778509  1
  Al0+  Al70  1  0.74970288  0.75034504  0.32797240  1
  Al0+  Al71  1  0.74879699  0.75373639  0.66634486  1
  Al0+  Al72  1  0.67617972  0.42784964  0.34862261  1
  Al0+  Al73  1  0.17970145  0.42977779  0.34497699  1
  Al0+  Al74  1  0.92698758  0.82316014  0.98332927  1
  Al0+  Al75  1  0.68134269  0.42833859  0.01355659  1
  Al0+  Al76  1  0.57031542  0.18002445  0.98827517  1
  Al0+  Al77  1  0.17727640  0.42695437  0.68284429  1
  Al0+  Al78  1  0.31922850  0.57140634  0.01622633  1
  Al0+  Al79  1  0.81941579  0.57357600  0.34581366  1
  Al0+  Al80  1  0.56918687  0.67725528  0.65370338  1
  Al0+  Al81  1  0.81973403  0.57586856  0.68384902  1
  Al0+  Al82  1  0.07005980  0.67885352  0.65211778  1
  Al0+  Al83  1  0.07136840  0.67952510  0.98658275  1
  Al0+  Al84  1  0.56822345  0.67617384  0.98601653  1
  Al0+  Al85  1  0.67945628  0.42893034  0.68322152  1
  Al0+  Al86  1  0.07108077  0.18140818  0.65280546  1
  Al0+  Al87  1  0.82375414  0.06989093  0.34679486  1
  Al0+  Al88  1  0.93038673  0.81887890  0.32070492  1
  Al0+  Al89  1  0.31840786  0.57331963  0.68029390  1
  Al0+  Al90  1  0.07262428  0.18036611  0.31938528  1
  Al0+  Al91  1  0.32206515  0.06936745  0.34757004  1
  Al0+  Al92  1  0.92928327  0.32062475  0.98687656  1
  Al0+  Al93  1  0.56960376  0.67546015  0.31785203  1
  Al0+  Al94  1  0.42830705  0.82251062  0.31799038  1
  Al0+  Al95  1  0.57245503  0.17885101  0.65011517  1
  Si0+  Si96  1  0.32071296  0.57388487  0.34911691  1
  Si0+  Si97  1  0.07428559  0.17849297  0.98444614  1
  Si0+  Si98  1  0.32322916  0.07037994  0.68335733  1
  Si0+  Si99  1  0.17740391  0.93154735  0.68279603  1
  Si0+  Si100  1  0.67742297  0.92810785  0.01519328  1
  Si0+  Si101  1  0.07204013  0.67327710  0.31879689  1
  Si0+  Si102  1  0.92741126  0.32286818  0.64631098  1
  Si0+  Si103  1  0.42843127  0.31813035  0.31769757  1
  Si0+  Si104  1  0.67874970  0.92865096  0.34986367  1
  Si0+  Si105  1  0.42854505  0.82276420  0.98392367  1
  Si0+  Si106  1  0.82265719  0.57388492  0.01455870  1
  Si0+  Si107  1  0.17784619  0.92753033  0.35117222  1
  Si0+  Si108  1  0.92735557  0.32086199  0.31780040  1
  Si0+  Si109  1  0.92816976  0.82359757  0.64960972  1
  Si0+  Si110  1  0.42716662  0.82369324  0.65161498  1
  Si0+  Si111  1  0.32238022  0.07097258  0.01431005  1
  Si0+  Si112  1  0.17868672  0.93133543  0.01675111  1
  Si0+  Si113  1  0.82099133  0.06917081  0.01371932  1
  Si0+  Si114  1  0.42863072  0.32026350  0.64895466  1
  Si0+  Si115  1  0.67720713  0.93175883  0.68266518  1
  Si0+  Si116  1  0.17562972  0.42618094  0.01673554  1
  Si0+  Si117  1  0.82246158  0.06941862  0.68278989  1
  Si0+  Si118  1  0.42540541  0.32169409  0.98222638  1
  Si0+  Si119  1  0.57375006  0.17980634  0.31947617  1
  O2-  O120  1  0.24894977  0.00375090  0.05775919  1
  O2-  O121  1  0.25033252  -0.00756042  0.39558941  1
  O2-  O122  1  0.25125684  0.00033029  0.72556013  1
  O2-  O123  1  0.24182158  0.49757504  0.06048311  1
  O2-  O124  1  0.24681556  0.51088776  0.39232148  1
  O2-  O125  1  0.24242018  0.50574229  0.73207057  1
  O2-  O126  1  0.75266615  -0.00431661  0.05656028  1
  O2-  O127  1  0.74965949  -0.00499198  0.39477672  1
  O2-  O128  1  0.74950926  0.00128665  0.72609376  1
  O2-  O129  1  0.75298739  0.50640555  0.05961508  1
  O2-  O130  1  0.74281224  0.50606330  0.39553942  1
  O2-  O131  1  0.74696236  0.50452483  0.73413944  1
  O2-  O132  1  -0.00301842  0.25323359  0.27234930  1
  O2-  O133  1  0.00293696  0.26015450  0.60377853  1
  O2-  O134  1  0.00848580  0.24931858  0.94089774  1
  O2-  O135  1  0.00210801  0.74095494  0.27473718  1
  O2-  O136  1  -0.00928565  0.74933780  0.60601888  1
  O2-  O137  1  -0.00522436  0.74662757  0.93540711  1
  O2-  O138  1  0.50593646  0.25307110  0.27631862  1
  O2-  O139  1  0.49984103  0.25455206  0.60329712  1
  O2-  O140  1  0.49749674  0.25533699  0.93980034  1
  O2-  O141  1  0.49490340  0.74594491  0.26810954  1
  O2-  O142  1  0.49038059  0.74956266  0.60911615  1
  O2-  O143  1  0.49228208  0.75057480  0.93906577  1
  O2-  O144  1  0.07497390  0.17676752  0.08992599  1
  O2-  O145  1  0.07322462  0.18185128  0.43237335  1
  O2-  O146  1  0.06637342  0.17810471  0.76625369  1
  O2-  O147  1  0.07118778  0.68213947  0.10047156  1
  O2-  O148  1  0.07243583  0.67542773  0.42439884  1
  O2-  O149  1  0.07341900  0.68513283  0.76483962  1
  O2-  O150  1  0.56968538  0.17861383  0.10170415  1
  O2-  O151  1  0.57167653  0.17864130  0.42443121  1
  O2-  O152  1  0.56914843  0.17606316  0.76340363  1
  O2-  O153  1  0.56887000  0.67768915  0.09874614  1
  O2-  O154  1  0.56881992  0.67715200  0.43161659  1
  O2-  O155  1  0.56785457  0.67882975  0.76697711  1
  O2-  O156  1  0.18157875  0.42945752  0.23150939  1
  O2-  O157  1  0.18380797  0.42464460  0.56919723  1
  O2-  O158  1  0.17869341  0.42120068  0.91184933  1
  O2-  O159  1  0.17651295  0.93143565  0.24537627  1
  O2-  O160  1  0.17558462  0.93314395  0.57811392  1
  O2-  O161  1  0.17964672  0.93266275  0.91126066  1
  O2-  O162  1  0.68086877  0.42415367  0.23466369  1
  O2-  O163  1  0.68147024  0.42916251  0.56999861  1
  O2-  O164  1  0.68265559  0.42655068  0.90097934  1
  O2-  O165  1  0.67804189  0.93216224  0.24390542  1
  O2-  O166  1  0.67608984  0.93356612  0.57780736  1
  O2-  O167  1  0.67439020  0.93163092  0.91000855  1
  O2-  O168  1  0.42064280  0.31719419  0.08792085  1
  O2-  O169  1  0.42546179  0.31518795  0.42256808  1
  O2-  O170  1  0.42690624  0.31620936  0.75456182  1
  O2-  O171  1  0.43198429  0.82708357  0.08894801  1
  O2-  O172  1  0.43272543  0.82439529  0.43165464  1
  O2-  O173  1  0.43027781  0.82911699  0.75728027  1
  O2-  O174  1  0.92868749  0.31667784  0.10016562  1
  O2-  O175  1  0.92762461  0.31850715  0.42292213  1
  O2-  O176  1  0.92501612  0.31709993  0.75231511  1
  O2-  O177  1  0.93062683  0.82714627  0.09672987  1
  O2-  O178  1  0.93425822  0.82152633  0.43364357  1
  O2-  O179  1  0.93206637  0.82795534  0.75494916  1
  O2-  O180  1  0.32091376  0.07014632  0.23390553  1
  O2-  O181  1  0.32473467  0.06905437  0.57845742  1
  O2-  O182  1  0.32286140  0.06866315  0.90905284  1
  O2-  O183  1  0.32096661  0.57081480  0.24333616  1
  O2-  O184  1  0.31833556  0.57144820  0.56656155  1
  O2-  O185  1  0.31886572  0.57091141  0.90339682  1
  O2-  O186  1  0.82073082  0.07077469  0.23312981  1
  O2-  O187  1  0.82426417  0.06628924  0.57782745  1
  O2-  O188  1  0.82029651  0.06874146  0.90838126  1
  O2-  O189  1  0.82132430  0.57172231  0.23174523  1
  O2-  O190  1  0.81754513  0.57640920  0.57024963  1
  O2-  O191  1  0.82154303  0.57209082  0.90928237  1
  O2-  O192  1  0.04352622  0.08354197  0.26548606  1
  O2-  O193  1  0.03660682  0.08605126  0.59806279  1
  O2-  O194  1  0.04650828  0.08597198  0.93754488  1
  O2-  O195  1  0.04843580  0.57862511  0.27449178  1
  O2-  O196  1  0.04359957  0.58000394  0.60118322  1
  O2-  O197  1  0.05238829  0.57977327  0.93339185  1
  O2-  O198  1  0.54411189  0.08860002  0.27218638  1
  O2-  O199  1  0.53838966  0.08353200  0.59541444  1
  O2-  O200  1  0.53730597  0.08429768  0.93263500  1
  O2-  O201  1  0.54103129  0.57624477  0.26582002  1
  O2-  O202  1  0.54010660  0.58004181  0.60085739  1
  O2-  O203  1  0.53556702  0.57893568  0.93497124  1
  O2-  O204  1  0.16937254  0.21129207  0.26551828  1
  O2-  O205  1  0.17155058  0.20438455  0.60303362  1
  O2-  O206  1  0.16933325  0.19955054  0.93860499  1
  O2-  O207  1  0.16571407  0.69969436  0.27310989  1
  O2-  O208  1  0.16477308  0.71553443  0.59693282  1
  O2-  O209  1  0.16819140  0.71741646  0.93484609  1
  O2-  O210  1  0.66732633  0.20510408  0.27421283  1
  O2-  O211  1  0.67085112  0.20447183  0.59799883  1
  O2-  O212  1  0.66664179  0.20705129  0.93264973  1
  O2-  O213  1  0.66618188  0.70775690  0.26344484  1
  O2-  O214  1  0.66414246  0.71520438  0.60070654  1
  O2-  O215  1  0.66288324  0.70913533  0.93004626  1
  O2-  O216  1  0.08044395  0.44901218  0.06075796  1
  O2-  O217  1  0.08200821  0.44975654  0.40085691  1
  O2-  O218  1  0.07511727  0.44573017  0.72957872  1
  O2-  O219  1  0.08662560  0.95983497  0.06377993  1
  O2-  O220  1  0.08689846  0.95751783  0.39909818  1
  O2-  O221  1  0.08793862  0.96486065  0.73214871  1
  O2-  O222  1  0.58211772  0.45158533  0.06605386  1
  O2-  O223  1  0.57415268  0.44669361  0.39794202  1
  O2-  O224  1  0.57840264  0.44976999  0.73381839  1
  O2-  O225  1  0.58758382  0.96093479  0.06391968  1
  O2-  O226  1  0.58717560  0.95759600  0.39762356  1
  O2-  O227  1  0.58685233  0.96282419  0.73158999  1
  O2-  O228  1  0.20469329  0.33281684  0.06371369  1
  O2-  O229  1  0.21905394  0.33600203  0.39855658  1
  O2-  O230  1  0.21122122  0.33031975  0.73784407  1
  O2-  O231  1  0.20638475  0.84159503  0.06714882  1
  O2-  O232  1  0.19907182  0.83201220  0.39568886  1
  O2-  O233  1  0.20407077  0.84054347  0.73198179  1
  O2-  O234  1  0.71556693  0.33099415  0.06572102  1
  O2-  O235  1  0.70846537  0.33189616  0.40413131  1
  O2-  O236  1  0.71210663  0.32901224  0.73285962  1
  O2-  O237  1  0.70109039  0.83466797  0.06093601  1
  O2-  O238  1  0.70235149  0.83425207  0.39372740  1
  O2-  O239  1  0.70361745  0.84034202  0.73109985  1
  O2-  O240  1  0.44804664  0.41127780  0.26968797  1
  O2-  O241  1  0.45085129  0.41401989  0.60269829  1
  O2-  O242  1  0.44803560  0.41608287  0.93900445  1
  O2-  O243  1  0.46076438  0.92033689  0.26431945  1
  O2-  O244  1  0.45963937  0.91461268  0.60343797  1
  O2-  O245  1  0.45722881  0.91474365  0.93497047  1
  O2-  O246  1  0.95268327  0.41461103  0.27195938  1
  O2-  O247  1  0.94404523  0.41897660  0.60383236  1
  O2-  O248  1  0.95504108  0.41641936  0.92980103  1
  O2-  O249  1  0.96541594  0.91382688  0.26476457  1
  O2-  O250  1  0.96179044  0.91484283  0.60266948  1
  O2-  O251  1  0.96135195  0.92002580  0.92889635  1
  O2-  O252  1  0.34121409  0.28206338  0.26677361  1
  O2-  O253  1  0.33676041  0.28925878  0.60237161  1
  O2-  O254  1  0.33408115  0.29198770  0.93290886  1
  O2-  O255  1  0.32678172  0.80393063  0.26638232  1
  O2-  O256  1  0.33109236  0.80789549  0.60753288  1
  O2-  O257  1  0.33222955  0.80329837  0.94166890  1
  O2-  O258  1  0.83432147  0.29116916  0.27220429  1
  O2-  O259  1  0.83804079  0.28784665  0.59841876  1
  O2-  O260  1  0.83767611  0.28221218  0.92850686  1
  O2-  O261  1  0.83276790  0.79660230  0.26466483  1
  O2-  O262  1  0.83167121  0.80811819  0.60632435  1
  O2-  O263  1  0.82664550  0.80448533  0.93120404  1
  O2-  O264  1  0.41333248  0.04058149  0.06243650  1
  O2-  O265  1  0.41914721  0.04034636  0.40251081  1
  O2-  O266  1  0.41454565  0.04029354  0.73125074  1
  O2-  O267  1  0.41299996  0.53589314  0.07306029  1
  O2-  O268  1  0.41172872  0.54075234  0.39536865  1
  O2-  O269  1  0.41458794  0.53843127  0.73404097  1
  O2-  O270  1  0.91448069  0.04430568  0.06008020  1
  O2-  O271  1  0.92015660  0.03728608  0.40029260  1
  O2-  O272  1  0.91302020  0.03912614  0.73186912  1
  O2-  O273  1  0.91745698  0.54824048  0.05837128  1
  O2-  O274  1  0.91581989  0.54180623  0.40148732  1
  O2-  O275  1  0.91788707  0.54551428  0.73605904  1
  O2-  O276  1  0.29822133  0.16418055  0.06090625  1
  O2-  O277  1  0.28932630  0.16371754  0.40359527  1
  O2-  O278  1  0.29648606  0.16134481  0.73213317  1
  O2-  O279  1  0.29189850  0.66942705  0.07003813  1
  O2-  O280  1  0.30398853  0.67063899  0.39156612  1
  O2-  O281  1  0.29496800  0.67459305  0.73156787  1
  O2-  O282  1  0.79044403  0.15960323  0.06134340  1
  O2-  O283  1  0.79336480  0.16384135  0.40485630  1
  O2-  O284  1  0.79606680  0.16191397  0.72862058  1
  O2-  O285  1  0.79823926  0.67008071  0.05629337  1
  O2-  O286  1  0.79630408  0.67397697  0.39725148  1
  O2-  O287  1  0.79665269  0.67721881  0.73390110  1
