# generated using pymatgen
data_Ca2Al2SiO7
_symmetry_space_group_name_H-M   'P 1'
_cell_length_a   15.46620336
_cell_length_b   15.46381842
_cell_length_c   15.28763202
_cell_angle_alpha   89.99357923
_cell_angle_beta   89.99286507
_cell_angle_gamma   89.96723769
_symmetry_Int_Tables_number   1
_chemical_formula_structural   Ca2Al2SiO7
_chemical_formula_sum   'Ca48 Al48 Si24 O168'
_cell_volume   3656.28971898
_cell_formula_units_Z   24
loop_
 _symmetry_equiv_pos_site_id
 _symmetry_equiv_pos_as_xyz
  1  'x, y, z'
loop_
 _atom_type_symbol
 _atom_type_oxidation_number
  Ca2+  2.0
  Al0+  0.0
  Si0+  0.0
  O2-  -2.0
loop_
 _atom_site_type_symbol
 _atom_site_label
 _atom_site_symmetry_multiplicity
 _atom_site_fract_x
 _atom_site_fract_y
 _atom_site_fract_z
 _atom_site_occupancy
  Ca2+  Ca0  1  0.16968981  0.07572407  0.17535314  1
  Ca2+  Ca1  1  0.17893561  0.09103785  0.50194623  1
  Ca2+  Ca2  1  0.17170988  0.07652423  0.83699600  1
  Ca2+  Ca3  1  0.16846473  0.57738711  0.17742808  1
  Ca2+  Ca4  1  0.17420529  0.58323068  0.50075446  1
  Ca2+  Ca5  1  0.17015014  0.58912088  0.83396735  1
  Ca2+  Ca6  1  0.67285176  0.08926997  0.17681821  1
  Ca2+  Ca7  1  0.66438198  0.08262863  0.50609215  1
  Ca2+  Ca8  1  0.66219309  0.07930299  0.83054126  1
  Ca2+  Ca9  1  0.66585006  0.58459890  0.16896434  1
  Ca2+  Ca10  1  0.66561942  0.58303153  0.50930870  1
  Ca2+  Ca11  1  0.66489146  0.58745713  0.83779189  1
  Ca2+  Ca12  1  0.08814061  0.32564978  0.16692852  1
  Ca2+  Ca13  1  0.08105026  0.33198581  0.49418795  1
  Ca2+  Ca14  1  0.07023571  0.33812228  0.82893961  1
  Ca2+  Ca15  1  0.09240185  0.82107257  0.16100599  1
  Ca2+  Ca16  1  0.08974614  0.82183217  0.49744955  1
  Ca2+  Ca17  1  0.08538724  0.82614441  0.82822126  1
  Ca2+  Ca18  1  0.56973679  0.32954918  0.16671320  1
  Ca2+  Ca19  1  0.56927372  0.32279220  0.49853161  1
  Ca2+  Ca20  1  0.57236893  0.32630907  0.82617918  1
  Ca2+  Ca21  1  0.56829343  0.82995797  0.16249677  1
  Ca2+  Ca22  1  0.58087827  0.83068339  0.49861910  1
  Ca2+  Ca23  1  0.58379651  0.82516992  0.82763518  1
  Ca2+  Ca24  1  0.33225500  0.42254982  0.17875103  1
  Ca2+  Ca25  1  0.33566449  0.42306361  0.50482310  1
  Ca2+  Ca26  1  0.34388160  0.42253509  0.83339506  1
  Ca2+  Ca27  1  0.33236490  0.91493429  0.17209107  1
  Ca2+  Ca28  1  0.34168107  0.92852047  0.50219951  1
  Ca2+  Ca29  1  0.33311616  0.92202358  0.83799199  1
  Ca2+  Ca30  1  0.83212282  0.41338230  0.17023386  1
  Ca2+  Ca31  1  0.83138544  0.41505760  0.50625451  1
  Ca2+  Ca32  1  0.83406631  0.41361169  0.83878266  1
  Ca2+  Ca33  1  0.82778915  0.92350907  0.17598081  1
  Ca2+  Ca34  1  0.82868563  0.92023674  0.50835249  1
  Ca2+  Ca35  1  0.82751513  0.90682719  0.83237406  1
  Ca2+  Ca36  1  0.40665722  0.17813889  0.16866651  1
  Ca2+  Ca37  1  0.41902722  0.16806665  0.49033497  1
  Ca2+  Ca38  1  0.41530878  0.17631462  0.82275279  1
  Ca2+  Ca39  1  0.41126270  0.67716300  0.16277150  1
  Ca2+  Ca40  1  0.41377619  0.66854778  0.49562038  1
  Ca2+  Ca41  1  0.42328033  0.67187162  0.82821190  1
  Ca2+  Ca42  1  0.92123059  0.16782260  0.16651771  1
  Ca2+  Ca43  1  0.92084839  0.16799434  0.49389645  1
  Ca2+  Ca44  1  0.91556086  0.17790879  0.82865849  1
  Ca2+  Ca45  1  0.93154499  0.66369668  0.16315078  1
  Ca2+  Ca46  1  0.92779220  0.67295679  0.49993181  1
  Ca2+  Ca47  1  0.93224385  0.67061956  0.82368645  1
  Al0+  Al48  1  0.00046120  -0.00068225  0.00527737  1
  Al0+  Al49  1  -0.00238641  0.00008470  0.33505610  1
  Al0+  Al50  1  -0.00114720  0.00174698  0.66663440  1
  Al0+  Al51  1  0.00057387  0.50033527  -0.00604503  1
  Al0+  Al52  1  -0.00168143  0.50135684  0.33428735  1
  Al0+  Al53  1  0.00002722  0.50124136  0.65871245  1
  Al0+  Al54  1  0.50105334  0.00140782  0.00001975  1
  Al0+  Al55  1  0.50116478  -0.00267980  0.32784752  1
  Al0+  Al56  1  0.50189516  -0.00070565  0.67578291  1
  Al0+  Al57  1  0.50195932  0.49855761  -0.00333687  1
  Al0+  Al58  1  0.50206489  0.49918236  0.33482483  1
  Al0+  Al59  1  0.50071260  0.49943408  0.66495002  1
  Al0+  Al60  1  0.24900835  0.25060884  -0.00600519  1
  Al0+  Al61  1  0.24639275  0.24911117  0.33185121  1
  Al0+  Al62  1  0.24658702  0.25360658  0.67137258  1
  Al0+  Al63  1  0.25155755  0.75080513  -0.00513060  1
  Al0+  Al64  1  0.24995829  0.74782131  0.32900845  1
  Al0+  Al65  1  0.25177289  0.74913147  0.66732857  1
  Al0+  Al66  1  0.74973507  0.25114888  -0.00150341  1
  Al0+  Al67  1  0.74959800  0.25012811  0.33627014  1
  Al0+  Al68  1  0.74840133  0.25040479  0.66156304  1
  Al0+  Al69  1  0.75138457  0.74971806  0.00344993  1
  Al0+  Al70  1  0.75064633  0.75010624  0.33359738  1
  Al0+  Al71  1  0.75126083  0.74998732  0.66392565  1
  Al0+  Al72  1  0.92877367  0.82278847  0.65224621  1
  Al0+  Al73  1  0.82079200  0.07142244  0.34867957  1
  Al0+  Al74  1  0.68101038  0.92826775  0.68157606  1
  Al0+  Al75  1  0.92829667  0.32076670  0.65171339  1
  Al0+  Al76  1  0.07129363  0.67933502  0.98570746  1
  Al0+  Al77  1  0.32095341  0.07285066  0.68032273  1
  Al0+  Al78  1  0.56788867  0.17635642  0.65266557  1
  Al0+  Al79  1  0.17703502  0.42783393  0.34756920  1
  Al0+  Al80  1  0.57118090  0.17783522  0.31821942  1
  Al0+  Al81  1  0.07057008  0.17764646  0.32020923  1
  Al0+  Al82  1  0.42705852  0.32140544  0.31924369  1
  Al0+  Al83  1  0.18070859  0.92870438  0.01364512  1
  Al0+  Al84  1  0.06949358  0.67984550  0.31832680  1
  Al0+  Al85  1  0.07452007  0.68036324  0.64852768  1
  Al0+  Al86  1  0.42738591  0.32001708  0.98552358  1
  Al0+  Al87  1  0.42602068  0.32120129  0.65109628  1
  Al0+  Al88  1  0.42865431  0.82331694  0.98251752  1
  Al0+  Al89  1  0.42979063  0.81924031  0.32143621  1
  Al0+  Al90  1  0.57210673  0.67991592  0.98636761  1
  Al0+  Al91  1  0.57078388  0.67941204  0.65313472  1
  Al0+  Al92  1  0.32020114  0.06868051  0.34414530  1
  Al0+  Al93  1  0.32212427  0.57029414  0.68239781  1
  Al0+  Al94  1  0.92973788  0.31901760  0.98830065  1
  Al0+  Al95  1  0.32237346  0.57107953  0.34728021  1
  Si0+  Si96  1  0.92645422  0.82192918  0.31554755  1
  Si0+  Si97  1  0.67838138  0.92717573  0.35006086  1
  Si0+  Si98  1  0.57502408  0.67674561  0.31770099  1
  Si0+  Si99  1  0.81890291  0.07285129  0.01509177  1
  Si0+  Si100  1  0.17731818  0.92605659  0.34943212  1
  Si0+  Si101  1  0.07141988  0.17535470  0.98265822  1
  Si0+  Si102  1  0.32245516  0.07438037  0.01698536  1
  Si0+  Si103  1  0.07141133  0.17789285  0.65136385  1
  Si0+  Si104  1  0.92752981  0.32208566  0.31740322  1
  Si0+  Si105  1  0.82127266  0.57002753  0.68195147  1
  Si0+  Si106  1  0.68030676  0.42875242  0.68305604  1
  Si0+  Si107  1  0.82238005  0.07413189  0.68511121  1
  Si0+  Si108  1  0.42886487  0.82239196  0.65100708  1
  Si0+  Si109  1  0.82047414  0.57218033  0.34965230  1
  Si0+  Si110  1  0.57402888  0.17950447  0.98374220  1
  Si0+  Si111  1  0.82297947  0.57057158  0.01491962  1
  Si0+  Si112  1  0.92826814  0.82370447  0.98610786  1
  Si0+  Si113  1  0.17766534  0.92813058  0.68161576  1
  Si0+  Si114  1  0.17486453  0.43023729  0.68554130  1
  Si0+  Si115  1  0.17626272  0.42973960  0.01316244  1
  Si0+  Si116  1  0.67967149  0.42897776  0.35031440  1
  Si0+  Si117  1  0.32218803  0.56856248  0.01327111  1
  Si0+  Si118  1  0.67998306  0.42880403  0.01588458  1
  Si0+  Si119  1  0.67911679  0.92710969  0.01756863  1
  O2-  O120  1  0.25622620  0.00287035  0.06046779  1
  O2-  O121  1  0.24465252  -0.00419031  0.39351170  1
  O2-  O122  1  0.24569953  -0.00240414  0.72593163  1
  O2-  O123  1  0.25072657  0.49735381  0.05498903  1
  O2-  O124  1  0.25288097  0.49616438  0.39684713  1
  O2-  O125  1  0.24665151  0.49586630  0.72997367  1
  O2-  O126  1  0.74856975  0.00097732  0.05790880  1
  O2-  O127  1  0.74558359  -0.00286490  0.39399075  1
  O2-  O128  1  0.75658035  0.00274810  0.72985011  1
  O2-  O129  1  0.75022021  0.50135529  0.05808436  1
  O2-  O130  1  0.74869763  0.50248336  0.39219733  1
  O2-  O131  1  0.75163283  0.49906015  0.72681320  1
  O2-  O132  1  -0.00296294  0.25439227  0.27349642  1
  O2-  O133  1  0.00172491  0.24526566  0.60682278  1
  O2-  O134  1  0.00370917  0.24541030  0.93928900  1
  O2-  O135  1  -0.00317219  0.75607031  0.27005058  1
  O2-  O136  1  0.00520410  0.75670122  0.60134370  1
  O2-  O137  1  -0.00198724  0.75673272  0.94179902  1
  O2-  O138  1  0.49653188  0.24687341  0.26795681  1
  O2-  O139  1  0.48964008  0.24112918  0.60277021  1
  O2-  O140  1  0.49840423  0.24080123  0.94108128  1
  O2-  O141  1  0.50262706  0.74165978  0.27520090  1
  O2-  O142  1  0.49548448  0.75223442  0.60609163  1
  O2-  O143  1  0.50278085  0.75256407  0.93419305  1
  O2-  O144  1  0.07071797  0.17559337  0.08818779  1
  O2-  O145  1  0.06837216  0.17768457  0.43305726  1
  O2-  O146  1  0.06901884  0.17765853  0.75736686  1
  O2-  O147  1  0.06892009  0.67659515  0.09882133  1
  O2-  O148  1  0.06847997  0.68096744  0.43071873  1
  O2-  O149  1  0.07229753  0.68023416  0.76250834  1
  O2-  O150  1  0.57985884  0.18374303  0.08889228  1
  O2-  O151  1  0.57049264  0.17902216  0.43130508  1
  O2-  O152  1  0.56971536  0.18044666  0.76683639  1
  O2-  O153  1  0.57235539  0.68029368  0.10007690  1
  O2-  O154  1  0.57946262  0.67919797  0.42300547  1
  O2-  O155  1  0.57184026  0.68095580  0.76608426  1
  O2-  O156  1  0.17590568  0.43059391  0.23289662  1
  O2-  O157  1  0.17248327  0.43046122  0.58040924  1
  O2-  O158  1  0.17225972  0.43209859  0.90844358  1
  O2-  O159  1  0.17878068  0.92636379  0.24344421  1
  O2-  O160  1  0.17814250  0.92807267  0.57619563  1
  O2-  O161  1  0.17845355  0.93212664  0.90047989  1
  O2-  O162  1  0.68132799  0.42939098  0.24462195  1
  O2-  O163  1  0.68251026  0.43058599  0.57787143  1
  O2-  O164  1  0.68219649  0.42723252  0.91094475  1
  O2-  O165  1  0.68200661  0.92492262  0.24410229  1
  O2-  O166  1  0.68214820  0.92765395  0.56870244  1
  O2-  O167  1  0.68173564  0.92447575  0.91273871  1
  O2-  O168  1  0.42769472  0.32225096  0.09841002  1
  O2-  O169  1  0.42953205  0.32207577  0.43205379  1
  O2-  O170  1  0.43220678  0.32154155  0.76513644  1
  O2-  O171  1  0.42871909  0.82072510  0.09632444  1
  O2-  O172  1  0.43273921  0.82116548  0.43435938  1
  O2-  O173  1  0.43007959  0.82127613  0.75661942  1
  O2-  O174  1  0.92831690  0.31759377  0.10100501  1
  O2-  O175  1  0.92682270  0.32142554  0.42285252  1
  O2-  O176  1  0.92848011  0.32060681  0.76537941  1
  O2-  O177  1  0.92680252  0.82224847  0.09168845  1
  O2-  O178  1  0.92364678  0.81875570  0.42058596  1
  O2-  O179  1  0.92891648  0.81763153  0.76644601  1
  O2-  O180  1  0.31744692  0.06751887  0.23094686  1
  O2-  O181  1  0.32114830  0.07120140  0.56704682  1
  O2-  O182  1  0.31964827  0.07525783  0.91128017  1
  O2-  O183  1  0.32018230  0.57201327  0.23277048  1
  O2-  O184  1  0.32211876  0.57038957  0.56975148  1
  O2-  O185  1  0.32262627  0.56697736  0.90819552  1
  O2-  O186  1  0.81960753  0.07045528  0.23447907  1
  O2-  O187  1  0.82138958  0.07471782  0.57987492  1
  O2-  O188  1  0.81796376  0.07507034  0.91028248  1
  O2-  O189  1  0.82034514  0.57151372  0.24402273  1
  O2-  O190  1  0.81926964  0.56824665  0.57660070  1
  O2-  O191  1  0.82341742  0.56967007  0.91003929  1
  O2-  O192  1  0.03738174  0.08146986  0.26547265  1
  O2-  O193  1  0.04888122  0.08425363  0.60502081  1
  O2-  O194  1  0.04311171  0.08232808  0.93738917  1
  O2-  O195  1  0.03393975  0.58411129  0.26445719  1
  O2-  O196  1  0.04020595  0.58485296  0.59514551  1
  O2-  O197  1  0.03721687  0.58542818  0.92920325  1
  O2-  O198  1  0.55098829  0.07802208  0.26546858  1
  O2-  O199  1  0.54830974  0.07442904  0.60477078  1
  O2-  O200  1  0.55680767  0.08267434  0.94198206  1
  O2-  O201  1  0.55539416  0.58134866  0.27372805  1
  O2-  O202  1  0.54346389  0.58241994  0.59972033  1
  O2-  O203  1  0.54679565  0.58084411  0.93424863  1
  O2-  O204  1  0.16484655  0.20696238  0.26124836  1
  O2-  O205  1  0.16411466  0.20624012  0.60622682  1
  O2-  O206  1  0.16431218  0.19991082  0.93547246  1
  O2-  O207  1  0.16550069  0.70846703  0.26267767  1
  O2-  O208  1  0.17336933  0.70779652  0.59677839  1
  O2-  O209  1  0.16699225  0.70907247  0.93127276  1
  O2-  O210  1  0.66900270  0.21252547  0.26631922  1
  O2-  O211  1  0.66425603  0.20986045  0.59950276  1
  O2-  O212  1  0.66383917  0.21198356  0.93416976  1
  O2-  O213  1  0.66747417  0.70512652  0.26936463  1
  O2-  O214  1  0.66697883  0.70949399  0.59889505  1
  O2-  O215  1  0.67290808  0.70609259  0.93622806  1
  O2-  O216  1  0.08557147  0.45990015  0.06180656  1
  O2-  O217  1  0.07884965  0.45889866  0.40019050  1
  O2-  O218  1  0.08142624  0.46111126  0.73099151  1
  O2-  O219  1  0.08362582  0.95734649  0.06982369  1
  O2-  O220  1  0.08241800  0.94833369  0.39337988  1
  O2-  O221  1  0.08357463  0.95333677  0.72838137  1
  O2-  O222  1  0.58864865  0.45687765  0.06427586  1
  O2-  O223  1  0.58832535  0.45466851  0.39878053  1
  O2-  O224  1  0.58922452  0.45748778  0.73061759  1
  O2-  O225  1  0.58595423  0.95286110  0.06346294  1
  O2-  O226  1  0.58435008  0.95054146  0.39458147  1
  O2-  O227  1  0.58655794  0.95739664  0.74114776  1
  O2-  O228  1  0.20028335  0.33476494  0.05670624  1
  O2-  O229  1  0.19744225  0.32732644  0.39835770  1
  O2-  O230  1  0.19309790  0.33565309  0.73329616  1
  O2-  O231  1  0.21192103  0.83105363  0.06651076  1
  O2-  O232  1  0.20519525  0.83289825  0.39381494  1
  O2-  O233  1  0.20411170  0.83506688  0.72843206  1
  O2-  O234  1  0.71146634  0.33854537  0.06468082  1
  O2-  O235  1  0.71110590  0.33950205  0.39921756  1
  O2-  O236  1  0.70916730  0.33689802  0.73023020  1
  O2-  O237  1  0.70949817  0.83704706  0.06772558  1
  O2-  O238  1  0.70586676  0.83376276  0.39648702  1
  O2-  O239  1  0.71527556  0.83184847  0.73614178  1
  O2-  O240  1  0.46111294  0.41897749  0.26597757  1
  O2-  O241  1  0.46388402  0.41576397  0.59829405  1
  O2-  O242  1  0.46463790  0.41401184  0.93134711  1
  O2-  O243  1  0.46236732  0.91244155  0.26199357  1
  O2-  O244  1  0.45814324  0.91569574  0.60791527  1
  O2-  O245  1  0.45461367  0.92394073  0.93320131  1
  O2-  O246  1  0.94928851  0.41684555  0.27233733  1
  O2-  O247  1  0.95724917  0.41660628  0.59666403  1
  O2-  O248  1  0.95928478  0.41473752  0.93210240  1
  O2-  O249  1  0.94790610  0.91694454  0.27150412  1
  O2-  O250  1  0.94773699  0.92466616  0.60327893  1
  O2-  O251  1  0.95041964  0.91835761  0.94111279  1
  O2-  O252  1  0.32836576  0.29465217  0.26622692  1
  O2-  O253  1  0.32258662  0.30486052  0.60627859  1
  O2-  O254  1  0.33005470  0.29518247  0.92975155  1
  O2-  O255  1  0.33415561  0.78955244  0.26465775  1
  O2-  O256  1  0.33507463  0.79939665  0.60570179  1
  O2-  O257  1  0.33221959  0.79373559  0.92797003  1
  O2-  O258  1  0.83452656  0.29480738  0.27118819  1
  O2-  O259  1  0.83207034  0.29198834  0.59742756  1
  O2-  O260  1  0.83361495  0.28868387  0.93268469  1
  O2-  O261  1  0.83357462  0.79372568  0.26793366  1
  O2-  O262  1  0.83407276  0.78824684  0.59675384  1
  O2-  O263  1  0.83518163  0.79576725  0.94082029  1
  O2-  O264  1  0.41861999  0.05458301  0.06029839  1
  O2-  O265  1  0.41759591  0.03608068  0.39582846  1
  O2-  O266  1  0.41580323  0.04206747  0.73774773  1
  O2-  O267  1  0.41418666  0.54061698  0.06028379  1
  O2-  O268  1  0.42309971  0.54810932  0.39841207  1
  O2-  O269  1  0.41910304  0.53771575  0.73622889  1
  O2-  O270  1  0.91125665  0.04676757  0.06267926  1
  O2-  O271  1  0.91664084  0.04058320  0.40390801  1
  O2-  O272  1  0.91738356  0.05362432  0.73136111  1
  O2-  O273  1  0.91371414  0.53861542  0.06271065  1
  O2-  O274  1  0.91093089  0.54373852  0.39826682  1
  O2-  O275  1  0.91403265  0.54193971  0.72750789  1
  O2-  O276  1  0.29239208  0.16797978  0.06155912  1
  O2-  O277  1  0.28913838  0.16517096  0.39731032  1
  O2-  O278  1  0.28850618  0.16906310  0.73555543  1
  O2-  O279  1  0.29457793  0.66171705  0.05730385  1
  O2-  O280  1  0.29020839  0.66874334  0.39968226  1
  O2-  O281  1  0.29244889  0.66784865  0.73648135  1
  O2-  O282  1  0.78924082  0.16401872  0.06363599  1
  O2-  O283  1  0.79243154  0.16864352  0.40218596  1
  O2-  O284  1  0.79198103  0.16727546  0.73077252  1
  O2-  O285  1  0.79776279  0.66229055  0.06474724  1
  O2-  O286  1  0.79362371  0.66434988  0.39683131  1
  O2-  O287  1  0.79312858  0.66138540  0.72921113  1
