# generated using pymatgen
data_Ca2Al2SiO7
_symmetry_space_group_name_H-M   'P 1'
_cell_length_a   15.45360305
_cell_length_b   15.45395123
_cell_length_c   15.28044841
_cell_angle_alpha   89.99084131
_cell_angle_beta   89.99284180
_cell_angle_gamma   90.00613446
_symmetry_Int_Tables_number   1
_chemical_formula_structural   Ca2Al2SiO7
_chemical_formula_sum   'Ca48 Al48 Si24 O168'
_cell_volume   3649.26479462
_cell_formula_units_Z   24
loop_
 _symmetry_equiv_pos_site_id
 _symmetry_equiv_pos_as_xyz
  1  'x, y, z'
loop_
 _atom_type_symbol
 _atom_type_oxidation_number
  Ca2+  2.0
  Al0+  0.0
  Si0+  0.0
  O2-  -2.0
loop_
 _atom_site_type_symbol
 _atom_site_label
 _atom_site_symmetry_multiplicity
 _atom_site_fract_x
 _atom_site_fract_y
 _atom_site_fract_z
 _atom_site_occupancy
  Ca2+  Ca0  1  0.17920102  0.07808037  0.17026333  1
  Ca2+  Ca1  1  0.18302290  0.08510846  0.50492508  1
  Ca2+  Ca2  1  0.17692155  0.07991763  0.84217982  1
  Ca2+  Ca3  1  0.17128918  0.57656173  0.17992324  1
  Ca2+  Ca4  1  0.16107426  0.58118015  0.49991859  1
  Ca2+  Ca5  1  0.16079615  0.58016718  0.83128972  1
  Ca2+  Ca6  1  0.67272321  0.09269420  0.17077958  1
  Ca2+  Ca7  1  0.66668287  0.08027332  0.50524480  1
  Ca2+  Ca8  1  0.66695641  0.08237343  0.83472400  1
  Ca2+  Ca9  1  0.67469610  0.58973492  0.16993492  1
  Ca2+  Ca10  1  0.67320908  0.57794984  0.50656682  1
  Ca2+  Ca11  1  0.67192468  0.57876695  0.84178850  1
  Ca2+  Ca12  1  0.08582549  0.33379145  0.16645833  1
  Ca2+  Ca13  1  0.08275029  0.34005470  0.49995073  1
  Ca2+  Ca14  1  0.07639796  0.33380533  0.82415376  1
  Ca2+  Ca15  1  0.08229498  0.83251782  0.16583802  1
  Ca2+  Ca16  1  0.07422999  0.82419330  0.49163498  1
  Ca2+  Ca17  1  0.07855135  0.83056751  0.82408028  1
  Ca2+  Ca18  1  0.57572941  0.32338842  0.15848600  1
  Ca2+  Ca19  1  0.58974222  0.32137930  0.49700370  1
  Ca2+  Ca20  1  0.58074243  0.32207851  0.82772714  1
  Ca2+  Ca21  1  0.57651641  0.82886427  0.16566660  1
  Ca2+  Ca22  1  0.57953516  0.83706332  0.49575368  1
  Ca2+  Ca23  1  0.59011248  0.82916011  0.83006069  1
  Ca2+  Ca24  1  0.33162739  0.41937603  0.17503772  1
  Ca2+  Ca25  1  0.32148473  0.42166898  0.50269061  1
  Ca2+  Ca26  1  0.32833075  0.41139433  0.83604501  1
  Ca2+  Ca27  1  0.33509487  0.92261197  0.17133213  1
  Ca2+  Ca28  1  0.34213677  0.92542782  0.50272241  1
  Ca2+  Ca29  1  0.32740719  0.92794980  0.83909135  1
  Ca2+  Ca30  1  0.83215368  0.43059081  0.17240715  1
  Ca2+  Ca31  1  0.83234806  0.42147896  0.50558877  1
  Ca2+  Ca32  1  0.82891808  0.41742882  0.83457433  1
  Ca2+  Ca33  1  0.83226013  0.92698481  0.17373134  1
  Ca2+  Ca34  1  0.83236517  0.91641761  0.50270380  1
  Ca2+  Ca35  1  0.83024065  0.91845390  0.83756217  1
  Ca2+  Ca36  1  0.42394427  0.16547986  0.15988515  1
  Ca2+  Ca37  1  0.42721324  0.15798882  0.49423583  1
  Ca2+  Ca38  1  0.42067894  0.16390574  0.83115677  1
  Ca2+  Ca39  1  0.41640708  0.66948527  0.16294009  1
  Ca2+  Ca40  1  0.41530587  0.67338453  0.48959176  1
  Ca2+  Ca41  1  0.42404423  0.66740932  0.83219101  1
  Ca2+  Ca42  1  0.91409240  0.16374390  0.16226356  1
  Ca2+  Ca43  1  0.91156325  0.17454153  0.49478882  1
  Ca2+  Ca44  1  0.91550317  0.16987093  0.82771434  1
  Ca2+  Ca45  1  0.91589639  0.66771764  0.16644346  1
  Ca2+  Ca46  1  0.92249867  0.67403769  0.49292439  1
  Ca2+  Ca47  1  0.92074858  0.67203369  0.82326286  1
  Al0+  Al48  1  -0.00082675  -0.00072936  0.00604351  1
  Al0+  Al49  1  -0.00047127  0.00193251  0.33485183  1
  Al0+  Al50  1  0.00190526  0.00115199  0.66085446  1
  Al0+  Al51  1  -0.00090894  0.50100377  0.00350493  1
  Al0+  Al52  1  -0.00223753  0.50025448  0.33627251  1
  Al0+  Al53  1  0.00122368  0.49985130  0.66383896  1
  Al0+  Al54  1  0.50003987  -0.00130956  -0.00112607  1
  Al0+  Al55  1  0.50165100  -0.00142467  0.32549660  1
  Al0+  Al56  1  0.50276059  0.00003391  0.67389817  1
  Al0+  Al57  1  0.49845019  0.49900247  -0.00850659  1
  Al0+  Al58  1  0.49949919  0.49790883  0.33809553  1
  Al0+  Al59  1  0.49993658  0.49850350  0.67046485  1
  Al0+  Al60  1  0.24850511  0.24897075  0.00038518  1
  Al0+  Al61  1  0.24989104  0.24928959  0.34205115  1
  Al0+  Al62  1  0.25118150  0.25299448  0.67542593  1
  Al0+  Al63  1  0.24803174  0.74791232  0.00063824  1
  Al0+  Al64  1  0.24927987  0.75011820  0.32752657  1
  Al0+  Al65  1  0.25163182  0.75029515  0.66360894  1
  Al0+  Al66  1  0.74860196  0.25138938  -0.00026124  1
  Al0+  Al67  1  0.75102455  0.24950811  0.33095916  1
  Al0+  Al68  1  0.74964464  0.25070625  0.66240215  1
  Al0+  Al69  1  0.75075564  0.75062720  0.00042275  1
  Al0+  Al70  1  0.75039746  0.75113609  0.33439412  1
  Al0+  Al71  1  0.74983195  0.75094054  0.66599158  1
  Al0+  Al72  1  0.57193941  0.68075190  0.98647038  1
  Al0+  Al73  1  0.42922792  0.82006222  0.31982097  1
  Al0+  Al74  1  0.92731506  0.82326946  0.31476984  1
  Al0+  Al75  1  0.17856680  0.42851405  0.34909710  1
  Al0+  Al76  1  0.67859289  0.42711151  0.68109420  1
  Al0+  Al77  1  0.17890179  0.43245903  0.68307819  1
  Al0+  Al78  1  0.56794816  0.17928134  0.65160437  1
  Al0+  Al79  1  0.57113786  0.17951311  0.31876109  1
  Al0+  Al80  1  0.32184557  0.07117283  0.01716124  1
  Al0+  Al81  1  0.68118192  0.92900310  0.68023835  1
  Al0+  Al82  1  0.17804556  0.92650163  0.01529006  1
  Al0+  Al83  1  0.81846534  0.07198589  0.01194886  1
  Al0+  Al84  1  0.32285412  0.06792561  0.34709802  1
  Al0+  Al85  1  0.92673411  0.82369376  0.65114874  1
  Al0+  Al86  1  0.82026050  0.57107155  0.01288114  1
  Al0+  Al87  1  0.57253850  0.17771456  0.98230608  1
  Al0+  Al88  1  0.82166997  0.07229609  0.34843650  1
  Al0+  Al89  1  0.07225481  0.67956061  0.65062436  1
  Al0+  Al90  1  0.32206774  0.07043938  0.68169216  1
  Al0+  Al91  1  0.42599084  0.32042200  0.98403119  1
  Al0+  Al92  1  0.32274798  0.57345845  0.34723163  1
  Al0+  Al93  1  0.81888693  0.57267135  0.34902713  1
  Al0+  Al94  1  0.92949573  0.31862048  0.65324090  1
  Al0+  Al95  1  0.06872018  0.67795862  0.31472486  1
  Si0+  Si96  1  0.42638979  0.32124379  0.32015961  1
  Si0+  Si97  1  0.17785621  0.42982941  0.01433397  1
  Si0+  Si98  1  0.17739121  0.92779302  0.35101009  1
  Si0+  Si99  1  0.07331812  0.17987123  0.31919149  1
  Si0+  Si100  1  0.32321802  0.57514712  0.68545568  1
  Si0+  Si101  1  0.43196869  0.82007258  0.65438289  1
  Si0+  Si102  1  0.07568184  0.17861340  0.65076953  1
  Si0+  Si103  1  0.82056473  0.57093580  0.68289817  1
  Si0+  Si104  1  0.82366932  0.07277776  0.68069108  1
  Si0+  Si105  1  0.67814674  0.92627087  0.01787417  1
  Si0+  Si106  1  0.57179709  0.67446864  0.31982431  1
  Si0+  Si107  1  0.42563100  0.82066102  0.98138823  1
  Si0+  Si108  1  0.57147299  0.67645443  0.65218206  1
  Si0+  Si109  1  0.93041286  0.82189475  0.98528748  1
  Si0+  Si110  1  0.93046744  0.32312344  0.98686984  1
  Si0+  Si111  1  0.67615085  0.42903333  0.01634459  1
  Si0+  Si112  1  0.67874052  0.92926033  0.34837601  1
  Si0+  Si113  1  0.32199863  0.56990330  0.01297060  1
  Si0+  Si114  1  0.67840588  0.42699923  0.34879505  1
  Si0+  Si115  1  0.92913922  0.32038061  0.31652316  1
  Si0+  Si116  1  0.42593978  0.32347191  0.64773499  1
  Si0+  Si117  1  0.06887372  0.17805244  0.98690301  1
  Si0+  Si118  1  0.17808071  0.92751418  0.68025512  1
  Si0+  Si119  1  0.07057591  0.67712740  0.98445629  1
  O2-  O120  1  0.25275848  -0.00453801  0.06572753  1
  O2-  O121  1  0.24923338  -0.00700726  0.39592450  1
  O2-  O122  1  0.24239550  -0.00066717  0.72598505  1
  O2-  O123  1  0.25227358  0.49753730  0.05486742  1
  O2-  O124  1  0.24871749  0.50367686  0.39714139  1
  O2-  O125  1  0.25392642  0.50690621  0.73009085  1
  O2-  O126  1  0.74070709  0.00122885  0.06046891  1
  O2-  O127  1  0.74897407  -0.00426239  0.39344219  1
  O2-  O128  1  0.76017654  0.00000206  0.72576352  1
  O2-  O129  1  0.74284592  0.49948373  0.06097841  1
  O2-  O130  1  0.74215770  0.49956551  0.39413285  1
  O2-  O131  1  0.75138542  0.50358990  0.72855351  1
  O2-  O132  1  0.00155047  0.25009603  0.27520339  1
  O2-  O133  1  0.00377419  0.24352207  0.60581088  1
  O2-  O134  1  -0.00213657  0.24896845  0.94415502  1
  O2-  O135  1  -0.00150782  0.75111047  0.26304795  1
  O2-  O136  1  0.00025194  0.75255048  0.60284377  1
  O2-  O137  1  0.00150587  0.75053858  0.94318560  1
  O2-  O138  1  0.49480878  0.25361366  0.27435367  1
  O2-  O139  1  0.49358795  0.25401977  0.60329535  1
  O2-  O140  1  0.49717018  0.24744912  0.93381457  1
  O2-  O141  1  0.49904205  0.73896414  0.27557060  1
  O2-  O142  1  0.49954198  0.74635772  0.61060253  1
  O2-  O143  1  0.49780223  0.75520435  0.93716814  1
  O2-  O144  1  0.06919440  0.18047716  0.09216197  1
  O2-  O145  1  0.07367494  0.18124832  0.42415814  1
  O2-  O146  1  0.07361884  0.17914389  0.75696301  1
  O2-  O147  1  0.06999726  0.67359039  0.08877421  1
  O2-  O148  1  0.06652827  0.67896875  0.42810585  1
  O2-  O149  1  0.07020029  0.68093288  0.76544374  1
  O2-  O150  1  0.57437654  0.18298575  0.09596225  1
  O2-  O151  1  0.57141895  0.17873859  0.43204389  1
  O2-  O152  1  0.56807348  0.17902752  0.76428580  1
  O2-  O153  1  0.57028544  0.68182616  0.09966135  1
  O2-  O154  1  0.57205821  0.67577711  0.42568206  1
  O2-  O155  1  0.57194192  0.67786538  0.75742807  1
  O2-  O156  1  0.18111723  0.42675403  0.23458008  1
  O2-  O157  1  0.18005583  0.43240557  0.57074797  1
  O2-  O158  1  0.17393247  0.43234919  0.90947977  1
  O2-  O159  1  0.17753608  0.93178043  0.24532716  1
  O2-  O160  1  0.18121992  0.92731763  0.57499371  1
  O2-  O161  1  0.17709662  0.92876640  0.90100054  1
  O2-  O162  1  0.68031040  0.42707073  0.24302957  1
  O2-  O163  1  0.68075959  0.42943960  0.56784350  1
  O2-  O164  1  0.68024313  0.42915394  0.91070956  1
  O2-  O165  1  0.67858480  0.92921244  0.24274353  1
  O2-  O166  1  0.67682846  0.93075539  0.56740841  1
  O2-  O167  1  0.68338272  0.92244780  0.91221945  1
  O2-  O168  1  0.42695562  0.32258269  0.09806632  1
  O2-  O169  1  0.42736131  0.32091414  0.42553862  1
  O2-  O170  1  0.42706176  0.32261051  0.75335581  1
  O2-  O171  1  0.42513442  0.81744448  0.08692545  1
  O2-  O172  1  0.43455843  0.82293459  0.43349972  1
  O2-  O173  1  0.43218671  0.81767495  0.75946934  1
  O2-  O174  1  0.93364638  0.32521037  0.09200455  1
  O2-  O175  1  0.92709485  0.31910002  0.42152808  1
  O2-  O176  1  0.93039797  0.31760327  0.76728768  1
  O2-  O177  1  0.93006706  0.82181874  0.08986628  1
  O2-  O178  1  0.92808187  0.82195283  0.42814332  1
  O2-  O179  1  0.92753834  0.82233941  0.76580473  1
  O2-  O180  1  0.32143689  0.06862890  0.23444090  1
  O2-  O181  1  0.32397307  0.06722441  0.56832409  1
  O2-  O182  1  0.31759776  0.07066076  0.90338313  1
  O2-  O183  1  0.32462077  0.56881264  0.23293780  1
  O2-  O184  1  0.32555353  0.57607667  0.58040543  1
  O2-  O185  1  0.31988667  0.57226616  0.90790430  1
  O2-  O186  1  0.81905416  0.07396985  0.23510326  1
  O2-  O187  1  0.82019052  0.07411603  0.57531246  1
  O2-  O188  1  0.82254091  0.06948986  0.89880602  1
  O2-  O189  1  0.81764982  0.57051905  0.23540820  1
  O2-  O190  1  0.81773175  0.57029081  0.57738320  1
  O2-  O191  1  0.82233789  0.56851734  0.89977095  1
  O2-  O192  1  0.04619496  0.08839758  0.27138603  1
  O2-  O193  1  0.05765266  0.08392083  0.60411205  1
  O2-  O194  1  0.04041546  0.08635041  0.93969545  1
  O2-  O195  1  0.03852388  0.57838134  0.26390944  1
  O2-  O196  1  0.04353755  0.58162013  0.59883167  1
  O2-  O197  1  0.03895313  0.58618603  0.93634868  1
  O2-  O198  1  0.54234525  0.08405457  0.26268332  1
  O2-  O199  1  0.53652817  0.08119932  0.60038674  1
  O2-  O200  1  0.54927209  0.07622648  0.93297852  1
  O2-  O201  1  0.55183573  0.57901065  0.27464217  1
  O2-  O202  1  0.54543850  0.58378113  0.60598548  1
  O2-  O203  1  0.54172032  0.58494172  0.93030975  1
  O2-  O204  1  0.16474852  0.20993030  0.27135560  1
  O2-  O205  1  0.16844225  0.20990767  0.60654257  1
  O2-  O206  1  0.15968321  0.20630200  0.93819235  1
  O2-  O207  1  0.16853104  0.70299046  0.26259416  1
  O2-  O208  1  0.17190001  0.70555045  0.59866025  1
  O2-  O209  1  0.16324270  0.70150528  0.93648530  1
  O2-  O210  1  0.66687281  0.21355028  0.26444873  1
  O2-  O211  1  0.66457750  0.21053560  0.59792475  1
  O2-  O212  1  0.67068400  0.20981462  0.92913032  1
  O2-  O213  1  0.66333843  0.70540356  0.27276588  1
  O2-  O214  1  0.66246376  0.70518612  0.60434574  1
  O2-  O215  1  0.66855288  0.71186259  0.93130602  1
  O2-  O216  1  0.08823820  0.46061242  0.06439945  1
  O2-  O217  1  0.07920767  0.45462496  0.40021897  1
  O2-  O218  1  0.08169146  0.46300414  0.73772214  1
  O2-  O219  1  0.08182941  0.95780854  0.07035596  1
  O2-  O220  1  0.08520575  0.95681221  0.39742767  1
  O2-  O221  1  0.08250809  0.94941026  0.72493460  1
  O2-  O222  1  0.58084502  0.45317314  0.05884289  1
  O2-  O223  1  0.58358656  0.44504755  0.39540601  1
  O2-  O224  1  0.58156591  0.45535724  0.73565106  1
  O2-  O225  1  0.58119196  0.94333557  0.05944349  1
  O2-  O226  1  0.58602517  0.95781549  0.39404173  1
  O2-  O227  1  0.58791525  0.96139985  0.73943955  1
  O2-  O228  1  0.20103518  0.33652489  0.06040782  1
  O2-  O229  1  0.20702729  0.33200334  0.40594682  1
  O2-  O230  1  0.20781286  0.33640779  0.74006685  1
  O2-  O231  1  0.20278133  0.82628937  0.06677378  1
  O2-  O232  1  0.19949501  0.83223425  0.39267877  1
  O2-  O233  1  0.20703128  0.83508845  0.72775822  1
  O2-  O234  1  0.70415764  0.33687506  0.06337359  1
  O2-  O235  1  0.71132151  0.33599817  0.39534594  1
  O2-  O236  1  0.71351442  0.33178071  0.73489340  1
  O2-  O237  1  0.70942456  0.83572030  0.06652837  1
  O2-  O238  1  0.70073362  0.83525752  0.39549584  1
  O2-  O239  1  0.70834549  0.83107541  0.73521098  1
  O2-  O240  1  0.45144752  0.41547137  0.27372902  1
  O2-  O241  1  0.45126014  0.41836686  0.60406007  1
  O2-  O242  1  0.45179179  0.41836918  0.92795296  1
  O2-  O243  1  0.46644365  0.91162960  0.26006735  1
  O2-  O244  1  0.46494682  0.91051644  0.60814643  1
  O2-  O245  1  0.44789627  0.91544191  0.93709708  1
  O2-  O246  1  0.95632317  0.41230461  0.26937439  1
  O2-  O247  1  0.96068055  0.41481999  0.59951690  1
  O2-  O248  1  0.96259902  0.41299604  0.93768620  1
  O2-  O249  1  0.95602284  0.92366639  0.26487160  1
  O2-  O250  1  0.95193088  0.92298622  0.59801560  1
  O2-  O251  1  0.95847004  0.91381973  0.93784117  1
  O2-  O252  1  0.33207051  0.29580698  0.27551475  1
  O2-  O253  1  0.33058829  0.29939241  0.60539491  1
  O2-  O254  1  0.32615104  0.29329597  0.93155696  1
  O2-  O255  1  0.33223339  0.79626254  0.26372865  1
  O2-  O256  1  0.33985157  0.79694107  0.60548063  1
  O2-  O257  1  0.33314331  0.79047341  0.93473144  1
  O2-  O258  1  0.83891479  0.29120520  0.26675456  1
  O2-  O259  1  0.83452399  0.28902868  0.59592053  1
  O2-  O260  1  0.83727574  0.29894990  0.94112027  1
  O2-  O261  1  0.82752045  0.79521446  0.26375434  1
  O2-  O262  1  0.82851088  0.79407751  0.59825264  1
  O2-  O263  1  0.83873408  0.79355434  0.93799860  1
  O2-  O264  1  0.42234132  0.04509164  0.06656747  1
  O2-  O265  1  0.42012454  0.03420080  0.39805826  1
  O2-  O266  1  0.41487080  0.03363789  0.73799217  1
  O2-  O267  1  0.41472337  0.54390634  0.05905585  1
  O2-  O268  1  0.42067879  0.54578903  0.40291498  1
  O2-  O269  1  0.41649678  0.54848182  0.73246158  1
  O2-  O270  1  0.91366586  0.04028368  0.06816090  1
  O2-  O271  1  0.91965361  0.04719276  0.40213848  1
  O2-  O272  1  0.92069882  0.05407572  0.72361054  1
  O2-  O273  1  0.91476684  0.53656210  0.06931697  1
  O2-  O274  1  0.91322793  0.53776685  0.40293245  1
  O2-  O275  1  0.91432604  0.54433995  0.72717446  1
  O2-  O276  1  0.28840658  0.16873977  0.06929993  1
  O2-  O277  1  0.29148984  0.16307441  0.40322756  1
  O2-  O278  1  0.29439427  0.16754422  0.73556573  1
  O2-  O279  1  0.29334092  0.66087848  0.06113371  1
  O2-  O280  1  0.29759572  0.67392555  0.39712009  1
  O2-  O281  1  0.29813017  0.66910856  0.73208700  1
  O2-  O282  1  0.79267517  0.17049681  0.06603967  1
  O2-  O283  1  0.78933174  0.16898946  0.40120996  1
  O2-  O284  1  0.79382705  0.16474967  0.72727775  1
  O2-  O285  1  0.79091551  0.66791492  0.06683994  1
  O2-  O286  1  0.78977969  0.66937381  0.40307877  1
  O2-  O287  1  0.79495618  0.66483449  0.72830796  1
