# generated using pymatgen
data_Ca2Al2SiO7
_symmetry_space_group_name_H-M   'P 1'
_cell_length_a   15.46714180
_cell_length_b   15.46867822
_cell_length_c   15.29080271
_cell_angle_alpha   90.01493023
_cell_angle_beta   90.00693531
_cell_angle_gamma   89.99952253
_symmetry_Int_Tables_number   1
_chemical_formula_structural   Ca2Al2SiO7
_chemical_formula_sum   'Ca48 Al48 Si24 O168'
_cell_volume   3658.41980424
_cell_formula_units_Z   24
loop_
 _symmetry_equiv_pos_site_id
 _symmetry_equiv_pos_as_xyz
  1  'x, y, z'
loop_
 _atom_type_symbol
 _atom_type_oxidation_number
  Ca2+  2.0
  Al0+  0.0
  Si0+  0.0
  O2-  -2.0
loop_
 _atom_site_type_symbol
 _atom_site_label
 _atom_site_symmetry_multiplicity
 _atom_site_fract_x
 _atom_site_fract_y
 _atom_site_fract_z
 _atom_site_occupancy
  Ca2+  Ca0  1  0.16517277  0.07409000  0.16767468  1
  Ca2+  Ca1  1  0.16085328  0.07550972  0.51172909  1
  Ca2+  Ca2  1  0.15629698  0.07082502  0.83533672  1
  Ca2+  Ca3  1  0.16417591  0.57850730  0.17160214  1
  Ca2+  Ca4  1  0.16414259  0.57717944  0.50041190  1
  Ca2+  Ca5  1  0.15934189  0.57475299  0.83382071  1
  Ca2+  Ca6  1  0.67168778  0.08693723  0.16941413  1
  Ca2+  Ca7  1  0.66168463  0.08920117  0.50310283  1
  Ca2+  Ca8  1  0.67321592  0.09103381  0.83747529  1
  Ca2+  Ca9  1  0.67367935  0.56973271  0.17774241  1
  Ca2+  Ca10  1  0.68072061  0.57431088  0.51009879  1
  Ca2+  Ca11  1  0.67285044  0.57187617  0.83615356  1
  Ca2+  Ca12  1  0.07200347  0.34690740  0.16243169  1
  Ca2+  Ca13  1  0.07266154  0.34868793  0.49866543  1
  Ca2+  Ca14  1  0.07409645  0.33563585  0.82370092  1
  Ca2+  Ca15  1  0.08730866  0.81956704  0.15952241  1
  Ca2+  Ca16  1  0.08748291  0.82048436  0.49892063  1
  Ca2+  Ca17  1  0.09260462  0.82257449  0.82807458  1
  Ca2+  Ca18  1  0.59219772  0.33275556  0.16495138  1
  Ca2+  Ca19  1  0.59237963  0.32869190  0.49818079  1
  Ca2+  Ca20  1  0.58159392  0.33340804  0.82346785  1
  Ca2+  Ca21  1  0.57576018  0.82628221  0.15887298  1
  Ca2+  Ca22  1  0.57625257  0.83112334  0.49801757  1
  Ca2+  Ca23  1  0.57031998  0.83493763  0.82672242  1
  Ca2+  Ca24  1  0.31775186  0.42334586  0.17627315  1
  Ca2+  Ca25  1  0.32335428  0.41707112  0.50755718  1
  Ca2+  Ca26  1  0.31959828  0.40679383  0.83567019  1
  Ca2+  Ca27  1  0.33004088  0.91158124  0.16469993  1
  Ca2+  Ca28  1  0.32863352  0.91940195  0.50946129  1
  Ca2+  Ca29  1  0.32721428  0.91284910  0.83522514  1
  Ca2+  Ca30  1  0.82943253  0.41481122  0.17243925  1
  Ca2+  Ca31  1  0.83137590  0.41861516  0.50336363  1
  Ca2+  Ca32  1  0.82953888  0.41135437  0.83361727  1
  Ca2+  Ca33  1  0.83902181  0.92769131  0.16802429  1
  Ca2+  Ca34  1  0.83137879  0.92017809  0.50661404  1
  Ca2+  Ca35  1  0.83476433  0.92827238  0.83924754  1
  Ca2+  Ca36  1  0.42304135  0.16910668  0.16655332  1
  Ca2+  Ca37  1  0.42393059  0.17917667  0.50187010  1
  Ca2+  Ca38  1  0.42526151  0.17372710  0.82269642  1
  Ca2+  Ca39  1  0.41136943  0.66825247  0.16066318  1
  Ca2+  Ca40  1  0.40622732  0.67195720  0.49736151  1
  Ca2+  Ca41  1  0.41102709  0.67813790  0.82939754  1
  Ca2+  Ca42  1  0.91539156  0.17892672  0.16118493  1
  Ca2+  Ca43  1  0.92260494  0.18103810  0.50031684  1
  Ca2+  Ca44  1  0.91845717  0.17696011  0.82824886  1
  Ca2+  Ca45  1  0.92783857  0.65556329  0.16553957  1
  Ca2+  Ca46  1  0.92560884  0.65275707  0.49760722  1
  Ca2+  Ca47  1  0.92761417  0.66153082  0.82713525  1
  Al0+  Al48  1  0.00041701  -0.00066087  0.01172841  1
  Al0+  Al49  1  -0.00079376  0.00077736  0.33481510  1
  Al0+  Al50  1  -0.00162200  -0.00131911  0.66868932  1
  Al0+  Al51  1  -0.00107248  0.49962872  -0.00677222  1
  Al0+  Al52  1  -0.00031960  0.50083563  0.32953668  1
  Al0+  Al53  1  0.00157203  0.50164493  0.66660726  1
  Al0+  Al54  1  0.50033449  -0.00011109  -0.00347546  1
  Al0+  Al55  1  0.49922540  0.00089565  0.32771838  1
  Al0+  Al56  1  0.49877468  -0.00041406  0.65904081  1
  Al0+  Al57  1  0.50056444  0.49865540  0.00286643  1
  Al0+  Al58  1  0.49840506  0.50068175  0.34002076  1
  Al0+  Al59  1  0.49986321  0.50302846  0.66780823  1
  Al0+  Al60  1  0.24975997  0.24703070  0.00704099  1
  Al0+  Al61  1  0.25050637  0.24675385  0.33640941  1
  Al0+  Al62  1  0.25296874  0.24651880  0.66465008  1
  Al0+  Al63  1  0.25057192  0.75039708  -0.00486694  1
  Al0+  Al64  1  0.24752417  0.75122415  0.33104812  1
  Al0+  Al65  1  0.24896581  0.75101581  0.66165751  1
  Al0+  Al66  1  0.75190769  0.24980971  0.00398517  1
  Al0+  Al67  1  0.75173457  0.24780158  0.32870485  1
  Al0+  Al68  1  0.75199962  0.24975613  0.66252526  1
  Al0+  Al69  1  0.75107537  0.75002969  -0.00050089  1
  Al0+  Al70  1  0.74883697  0.75327490  0.33478980  1
  Al0+  Al71  1  0.74984935  0.75109528  0.67361816  1
  Al0+  Al72  1  0.93313713  0.31900898  0.31813147  1
  Al0+  Al73  1  0.17722410  0.42792808  0.01225366  1
  Al0+  Al74  1  0.18179841  0.42782113  0.68047542  1
  Al0+  Al75  1  0.67947388  0.42581582  0.34922023  1
  Al0+  Al76  1  0.42748313  0.32580993  0.65319284  1
  Al0+  Al77  1  0.06937658  0.68043094  0.65148520  1
  Al0+  Al78  1  0.06904477  0.68056730  0.98430808  1
  Al0+  Al79  1  0.67905138  0.42983678  0.01443498  1
  Al0+  Al80  1  0.57215830  0.18147769  0.65288865  1
  Al0+  Al81  1  0.17920072  0.92938097  0.67998561  1
  Al0+  Al82  1  0.82034593  0.57298693  0.34716976  1
  Al0+  Al83  1  0.18156670  0.92767913  0.01474035  1
  Al0+  Al84  1  0.67946531  0.42716851  0.68224581  1
  Al0+  Al85  1  0.93205033  0.32165667  0.65058928  1
  Al0+  Al86  1  0.82301443  0.57182826  0.68475908  1
  Al0+  Al87  1  0.17855711  0.42821693  0.34839056  1
  Al0+  Al88  1  0.93031794  0.31892419  0.98503537  1
  Al0+  Al89  1  0.32028749  0.57408435  0.34748529  1
  Al0+  Al90  1  0.81991889  0.07028237  0.01484480  1
  Al0+  Al91  1  0.56875858  0.18153294  0.31675262  1
  Al0+  Al92  1  0.07166445  0.17562118  0.65485368  1
  Al0+  Al93  1  0.06808030  0.68205112  0.31804821  1
  Al0+  Al94  1  0.43123386  0.81973915  0.98514691  1
  Al0+  Al95  1  0.42971348  0.81882479  0.65043375  1
  Si0+  Si96  1  0.32102312  0.57111246  0.01301785  1
  Si0+  Si97  1  0.57074902  0.18121305  0.98640712  1
  Si0+  Si98  1  0.57301971  0.67859015  0.31989772  1
  Si0+  Si99  1  0.57420630  0.67512628  0.98357617  1
  Si0+  Si100  1  0.32161618  0.57448131  0.68369176  1
  Si0+  Si101  1  0.82254702  0.57320709  0.01607102  1
  Si0+  Si102  1  0.81970241  0.06966903  0.68076080  1
  Si0+  Si103  1  0.92749848  0.82589315  0.98425956  1
  Si0+  Si104  1  0.92505305  0.82635463  0.31620980  1
  Si0+  Si105  1  0.82024896  0.06996679  0.35064480  1
  Si0+  Si106  1  0.57465535  0.67907804  0.65020595  1
  Si0+  Si107  1  0.67598303  0.92913066  0.68144275  1
  Si0+  Si108  1  0.32575719  0.07141954  0.01823876  1
  Si0+  Si109  1  0.42469210  0.32429974  0.31563428  1
  Si0+  Si110  1  0.17946933  0.93095883  0.34856148  1
  Si0+  Si111  1  0.07376155  0.17491859  0.98631191  1
  Si0+  Si112  1  0.07432347  0.17305374  0.31550299  1
  Si0+  Si113  1  0.67636781  0.93060094  0.34791893  1
  Si0+  Si114  1  0.32377419  0.06919900  0.34915945  1
  Si0+  Si115  1  0.92516773  0.82284542  0.65202367  1
  Si0+  Si116  1  0.42653946  0.32084021  0.98839507  1
  Si0+  Si117  1  0.67590523  0.92750750  0.01607292  1
  Si0+  Si118  1  0.42968311  0.81952860  0.31674100  1
  Si0+  Si119  1  0.32431559  0.06996569  0.68338501  1
  O2-  O120  1  0.25592648  0.00298949  0.06181351  1
  O2-  O121  1  0.24683816  0.00470727  0.39094097  1
  O2-  O122  1  0.25079860  0.00658353  0.72783868  1
  O2-  O123  1  0.25392631  0.50150058  0.05743047  1
  O2-  O124  1  0.25465152  0.49672690  0.39735404  1
  O2-  O125  1  0.25985117  0.49968656  0.72805264  1
  O2-  O126  1  0.74689752  -0.00726680  0.06163578  1
  O2-  O127  1  0.74929721  -0.00163678  0.39193612  1
  O2-  O128  1  0.74628109  0.00066677  0.72319000  1
  O2-  O129  1  0.75031365  0.50822653  0.05959552  1
  O2-  O130  1  0.74759343  0.50207345  0.39732820  1
  O2-  O131  1  0.75169758  0.49830161  0.73341562  1
  O2-  O132  1  0.01243910  0.24765484  0.27183012  1
  O2-  O133  1  0.00963589  0.25408311  0.60166655  1
  O2-  O134  1  0.00952691  0.24685746  0.94180912  1
  O2-  O135  1  -0.01003588  0.75447946  0.27217336  1
  O2-  O136  1  -0.00968931  0.75221044  0.60673677  1
  O2-  O137  1  -0.00650666  0.75610234  0.93910870  1
  O2-  O138  1  0.49797706  0.26016041  0.26992023  1
  O2-  O139  1  0.50541641  0.25901924  0.60397557  1
  O2-  O140  1  0.49912558  0.25138512  0.94574805  1
  O2-  O141  1  0.49717386  0.74463028  0.27565364  1
  O2-  O142  1  0.50278915  0.74325399  0.60327371  1
  O2-  O143  1  0.50724298  0.74584028  0.93925951  1
  O2-  O144  1  0.07202094  0.17321093  0.09204281  1
  O2-  O145  1  0.06893113  0.16327198  0.42004430  1
  O2-  O146  1  0.06425137  0.17143770  0.76835231  1
  O2-  O147  1  0.06908223  0.68123290  0.09761420  1
  O2-  O148  1  0.07007164  0.68513238  0.43066316  1
  O2-  O149  1  0.07100784  0.68270158  0.76466541  1
  O2-  O150  1  0.56962297  0.17992784  0.09160066  1
  O2-  O151  1  0.56589527  0.17726009  0.42901087  1
  O2-  O152  1  0.57087186  0.17802472  0.76706970  1
  O2-  O153  1  0.57258375  0.67681057  0.08957968  1
  O2-  O154  1  0.57619701  0.68601834  0.42417612  1
  O2-  O155  1  0.57474725  0.68405643  0.75591944  1
  O2-  O156  1  0.17810139  0.43179918  0.23419855  1
  O2-  O157  1  0.18051970  0.43160274  0.56783552  1
  O2-  O158  1  0.17858134  0.42655409  0.89934672  1
  O2-  O159  1  0.18209795  0.93029139  0.24326724  1
  O2-  O160  1  0.18133265  0.92978751  0.56642123  1
  O2-  O161  1  0.18240506  0.92866577  0.90201800  1
  O2-  O162  1  0.68297891  0.42707589  0.23507920  1
  O2-  O163  1  0.68264635  0.42753913  0.56905010  1
  O2-  O164  1  0.67706642  0.42838953  0.90196556  1
  O2-  O165  1  0.67498043  0.93160086  0.24279861  1
  O2-  O166  1  0.67730265  0.92806040  0.57605198  1
  O2-  O167  1  0.67401098  0.93082685  0.91065855  1
  O2-  O168  1  0.42626821  0.31904784  0.09336398  1
  O2-  O169  1  0.42136773  0.31942929  0.42041822  1
  O2-  O170  1  0.42693710  0.31961693  0.76769801  1
  O2-  O171  1  0.43204098  0.81816124  0.09888656  1
  O2-  O172  1  0.43074685  0.82204785  0.42151403  1
  O2-  O173  1  0.43070242  0.81948445  0.76358411  1
  O2-  O174  1  0.92936888  0.31814438  0.09828419  1
  O2-  O175  1  0.93201460  0.31719186  0.43070102  1
  O2-  O176  1  0.92930449  0.31745775  0.76427273  1
  O2-  O177  1  0.92840913  0.82698726  0.08988958  1
  O2-  O178  1  0.92672881  0.83311911  0.42130361  1
  O2-  O179  1  0.92598226  0.82621215  0.75754685  1
  O2-  O180  1  0.32609789  0.06583124  0.24376356  1
  O2-  O181  1  0.32729279  0.06487047  0.57768261  1
  O2-  O182  1  0.32975247  0.07254839  0.91343430  1
  O2-  O183  1  0.31725233  0.57651850  0.23329995  1
  O2-  O184  1  0.31714497  0.57752473  0.57834787  1
  O2-  O185  1  0.32207233  0.57128019  0.90778190  1
  O2-  O186  1  0.81974224  0.06808520  0.24536314  1
  O2-  O187  1  0.82021477  0.06629169  0.57562925  1
  O2-  O188  1  0.81710741  0.07023089  0.90158687  1
  O2-  O189  1  0.81824370  0.57307638  0.23315588  1
  O2-  O190  1  0.82063506  0.57407858  0.57140677  1
  O2-  O191  1  0.82139382  0.57373322  0.91092446  1
  O2-  O192  1  0.04163712  0.08203566  0.26615950  1
  O2-  O193  1  0.03499162  0.07997179  0.59946562  1
  O2-  O194  1  0.04329585  0.08126639  0.94301671  1
  O2-  O195  1  0.03901064  0.58592465  0.26254050  1
  O2-  O196  1  0.04108769  0.58413234  0.59733399  1
  O2-  O197  1  0.03750991  0.58538454  0.92893667  1
  O2-  O198  1  0.53410859  0.08564426  0.26098533  1
  O2-  O199  1  0.54013049  0.08463623  0.59803216  1
  O2-  O200  1  0.54527386  0.08880130  0.93898958  1
  O2-  O201  1  0.55052486  0.58431981  0.27500540  1
  O2-  O202  1  0.55494944  0.58410825  0.60630786  1
  O2-  O203  1  0.54691057  0.58207292  0.93786257  1
  O2-  O204  1  0.17198265  0.18886067  0.27415800  1
  O2-  O205  1  0.17477836  0.18817531  0.60768795  1
  O2-  O206  1  0.17050379  0.19277382  0.94394777  1
  O2-  O207  1  0.16315910  0.71805288  0.26273410  1
  O2-  O208  1  0.16304023  0.71648213  0.59596901  1
  O2-  O209  1  0.16508676  0.71274958  0.93090572  1
  O2-  O210  1  0.66696282  0.20666023  0.26293867  1
  O2-  O211  1  0.67089025  0.20329596  0.59810546  1
  O2-  O212  1  0.66246737  0.20933568  0.94046218  1
  O2-  O213  1  0.66158904  0.71266104  0.26875838  1
  O2-  O214  1  0.66660496  0.71125259  0.60446438  1
  O2-  O215  1  0.66867930  0.69893108  0.93858283  1
  O2-  O216  1  0.08114101  0.46339149  0.06382260  1
  O2-  O217  1  0.08198851  0.46356787  0.39883899  1
  O2-  O218  1  0.08616950  0.46204466  0.73370692  1
  O2-  O219  1  0.08635385  0.95616989  0.07274521  1
  O2-  O220  1  0.08621661  0.95542591  0.39444921  1
  O2-  O221  1  0.08155557  0.95703162  0.73431170  1
  O2-  O222  1  0.58122282  0.45630733  0.06983865  1
  O2-  O223  1  0.57789131  0.44610624  0.39767505  1
  O2-  O224  1  0.57947105  0.45563782  0.73363661  1
  O2-  O225  1  0.58369419  0.95630761  0.06383706  1
  O2-  O226  1  0.58511671  0.96158899  0.39479510  1
  O2-  O227  1  0.58366405  0.95757139  0.72697105  1
  O2-  O228  1  0.20487284  0.33099203  0.06778602  1
  O2-  O229  1  0.19965968  0.32616727  0.39738981  1
  O2-  O230  1  0.20999548  0.32870333  0.73227213  1
  O2-  O231  1  0.21710415  0.83226350  0.06876754  1
  O2-  O232  1  0.21092634  0.84070299  0.39530994  1
  O2-  O233  1  0.21536557  0.83420622  0.73274034  1
  O2-  O234  1  0.71288595  0.33455863  0.06863212  1
  O2-  O235  1  0.71193291  0.32718781  0.39836496  1
  O2-  O236  1  0.70791913  0.32720873  0.73320834  1
  O2-  O237  1  0.69706969  0.83184470  0.06052054  1
  O2-  O238  1  0.70087208  0.83912042  0.39704352  1
  O2-  O239  1  0.70208996  0.83920381  0.73270121  1
  O2-  O240  1  0.44386452  0.42111065  0.27356197  1
  O2-  O241  1  0.44513883  0.42770307  0.60405989  1
  O2-  O242  1  0.45175652  0.41338524  0.94210315  1
  O2-  O243  1  0.46193601  0.90904017  0.26737536  1
  O2-  O244  1  0.46250157  0.91344094  0.59386055  1
  O2-  O245  1  0.46125694  0.91666124  0.93095403  1
  O2-  O246  1  0.96027163  0.41602457  0.26290209  1
  O2-  O247  1  0.95814214  0.42059502  0.59917641  1
  O2-  O248  1  0.95712358  0.41516328  0.92997897  1
  O2-  O249  1  0.95559863  0.91835806  0.26829007  1
  O2-  O250  1  0.95258802  0.91492082  0.60388683  1
  O2-  O251  1  0.95451754  0.92017026  0.94045966  1
  O2-  O252  1  0.33304643  0.29142452  0.26769304  1
  O2-  O253  1  0.33343008  0.28917553  0.59622685  1
  O2-  O254  1  0.33526653  0.28984876  0.94140087  1
  O2-  O255  1  0.33696564  0.79467779  0.26962525  1
  O2-  O256  1  0.33401193  0.78924416  0.59489048  1
  O2-  O257  1  0.33616072  0.78837350  0.92966507  1
  O2-  O258  1  0.83857575  0.28206774  0.26340999  1
  O2-  O259  1  0.83646177  0.28679422  0.59688930  1
  O2-  O260  1  0.83462594  0.28190315  0.93278317  1
  O2-  O261  1  0.82896962  0.80762095  0.27174657  1
  O2-  O262  1  0.82925262  0.80264618  0.60804584  1
  O2-  O263  1  0.83133216  0.80606984  0.93987406  1
  O2-  O264  1  0.41855398  0.04258865  0.06567278  1
  O2-  O265  1  0.41251305  0.03277812  0.39636391  1
  O2-  O266  1  0.41584342  0.03703361  0.73026416  1
  O2-  O267  1  0.41515722  0.54902342  0.06043502  1
  O2-  O268  1  0.42138738  0.55763109  0.39939112  1
  O2-  O269  1  0.41873067  0.56128315  0.72696635  1
  O2-  O270  1  0.91452439  0.04089674  0.07386462  1
  O2-  O271  1  0.91181577  0.04154043  0.39794246  1
  O2-  O272  1  0.90861867  0.03828043  0.73134371  1
  O2-  O273  1  0.91464299  0.54198158  0.06088109  1
  O2-  O274  1  0.91850694  0.54251585  0.39706770  1
  O2-  O275  1  0.92167274  0.54409571  0.73592998  1
  O2-  O276  1  0.30043740  0.16318949  0.06862061  1
  O2-  O277  1  0.30411271  0.16272820  0.39552102  1
  O2-  O278  1  0.30706642  0.16509039  0.72833313  1
  O2-  O279  1  0.29452443  0.66466089  0.05860195  1
  O2-  O280  1  0.28710661  0.67186140  0.40007451  1
  O2-  O281  1  0.28839549  0.66591663  0.73013938  1
  O2-  O282  1  0.78464214  0.16346660  0.07179457  1
  O2-  O283  1  0.79013724  0.16039418  0.39699291  1
  O2-  O284  1  0.79257803  0.16112117  0.72809580  1
  O2-  O285  1  0.80363796  0.66942692  0.06096609  1
  O2-  O286  1  0.79576144  0.67383994  0.39818327  1
  O2-  O287  1  0.79419423  0.67081488  0.73851731  1
