# generated using pymatgen
data_Ca2Al2SiO7
_symmetry_space_group_name_H-M   'P 1'
_cell_length_a   15.46011919
_cell_length_b   15.46099839
_cell_length_c   15.28549223
_cell_angle_alpha   89.98422176
_cell_angle_beta   89.99349977
_cell_angle_gamma   90.02334579
_symmetry_Int_Tables_number   1
_chemical_formula_structural   Ca2Al2SiO7
_chemical_formula_sum   'Ca48 Al48 Si24 O168'
_cell_volume   3653.67358981
_cell_formula_units_Z   24
loop_
 _symmetry_equiv_pos_site_id
 _symmetry_equiv_pos_as_xyz
  1  'x, y, z'
loop_
 _atom_type_symbol
 _atom_type_oxidation_number
  Ca2+  2.0
  Al0+  0.0
  Si0+  0.0
  O2-  -2.0
loop_
 _atom_site_type_symbol
 _atom_site_label
 _atom_site_symmetry_multiplicity
 _atom_site_fract_x
 _atom_site_fract_y
 _atom_site_fract_z
 _atom_site_occupancy
  Ca2+  Ca0  1  0.17573840  0.09164621  0.17034894  1
  Ca2+  Ca1  1  0.17277338  0.08535898  0.50763266  1
  Ca2+  Ca2  1  0.16843524  0.08283454  0.83587251  1
  Ca2+  Ca3  1  0.17590339  0.57858671  0.17687479  1
  Ca2+  Ca4  1  0.17255405  0.58103533  0.50390139  1
  Ca2+  Ca5  1  0.17565776  0.59297181  0.83366431  1
  Ca2+  Ca6  1  0.66901061  0.08001960  0.17388504  1
  Ca2+  Ca7  1  0.66789830  0.07513551  0.50520545  1
  Ca2+  Ca8  1  0.68095402  0.07855776  0.83219888  1
  Ca2+  Ca9  1  0.67340893  0.58162797  0.17412746  1
  Ca2+  Ca10  1  0.67976102  0.57852163  0.50743326  1
  Ca2+  Ca11  1  0.67075380  0.58068352  0.82889593  1
  Ca2+  Ca12  1  0.08646835  0.32689682  0.16979815  1
  Ca2+  Ca13  1  0.08230949  0.32398006  0.49077699  1
  Ca2+  Ca14  1  0.08662632  0.31891528  0.82793745  1
  Ca2+  Ca15  1  0.08312484  0.83066878  0.16390257  1
  Ca2+  Ca16  1  0.08178360  0.83263818  0.50566737  1
  Ca2+  Ca17  1  0.07971176  0.83143445  0.81885171  1
  Ca2+  Ca18  1  0.58347385  0.32520153  0.16637716  1
  Ca2+  Ca19  1  0.58439773  0.32733526  0.49537125  1
  Ca2+  Ca20  1  0.58161418  0.33482751  0.82555287  1
  Ca2+  Ca21  1  0.57297873  0.83685359  0.16686990  1
  Ca2+  Ca22  1  0.57880152  0.84043936  0.49114543  1
  Ca2+  Ca23  1  0.57631102  0.83867578  0.82976987  1
  Ca2+  Ca24  1  0.32733160  0.42734009  0.17518512  1
  Ca2+  Ca25  1  0.32890615  0.42484525  0.50253749  1
  Ca2+  Ca26  1  0.33229253  0.43009232  0.83652362  1
  Ca2+  Ca27  1  0.33906946  0.92279476  0.17152511  1
  Ca2+  Ca28  1  0.32948209  0.92560603  0.50408442  1
  Ca2+  Ca29  1  0.32781745  0.92512254  0.83533586  1
  Ca2+  Ca30  1  0.83817894  0.42089248  0.17573584  1
  Ca2+  Ca31  1  0.83546000  0.42224992  0.50390131  1
  Ca2+  Ca32  1  0.83041603  0.41689793  0.82962837  1
  Ca2+  Ca33  1  0.82688715  0.92404276  0.17212829  1
  Ca2+  Ca34  1  0.82188235  0.91838076  0.51107359  1
  Ca2+  Ca35  1  0.84070938  0.92552389  0.83076995  1
  Ca2+  Ca36  1  0.42047441  0.15765862  0.16526774  1
  Ca2+  Ca37  1  0.42051139  0.15923840  0.49135654  1
  Ca2+  Ca38  1  0.41307124  0.16428678  0.82853504  1
  Ca2+  Ca39  1  0.40650478  0.67770495  0.16327910  1
  Ca2+  Ca40  1  0.41359215  0.67161363  0.49392243  1
  Ca2+  Ca41  1  0.41078465  0.67118207  0.82789905  1
  Ca2+  Ca42  1  0.92752084  0.16864028  0.16143972  1
  Ca2+  Ca43  1  0.92696818  0.16677985  0.49363584  1
  Ca2+  Ca44  1  0.92497174  0.15798949  0.82539211  1
  Ca2+  Ca45  1  0.91611072  0.66576377  0.16528407  1
  Ca2+  Ca46  1  0.91474127  0.66602300  0.49876209  1
  Ca2+  Ca47  1  0.92372609  0.67389549  0.81799138  1
  Al0+  Al48  1  -0.00049636  -0.00028329  0.00224796  1
  Al0+  Al49  1  0.00091967  -0.00129083  0.32677998  1
  Al0+  Al50  1  0.00051742  -0.00184384  0.66155770  1
  Al0+  Al51  1  -0.00100126  0.49813538  -0.00218085  1
  Al0+  Al52  1  0.00095546  0.49985618  0.33641277  1
  Al0+  Al53  1  0.00150974  0.49834658  0.66811355  1
  Al0+  Al54  1  0.49977134  -0.00123731  -0.00388113  1
  Al0+  Al55  1  0.49972327  -0.00063140  0.33135990  1
  Al0+  Al56  1  0.50008467  0.00128143  0.67396495  1
  Al0+  Al57  1  0.50115051  0.50032287  0.00520557  1
  Al0+  Al58  1  0.50217718  0.50052668  0.33521261  1
  Al0+  Al59  1  0.49845950  0.50093649  0.67224501  1
  Al0+  Al60  1  0.25060682  0.25010856  -0.00073740  1
  Al0+  Al61  1  0.25177095  0.25169844  0.33664181  1
  Al0+  Al62  1  0.25165940  0.25330915  0.66524439  1
  Al0+  Al63  1  0.25018505  0.75151306  -0.00069084  1
  Al0+  Al64  1  0.24908367  0.75230966  0.33198899  1
  Al0+  Al65  1  0.24969013  0.75193029  0.66780183  1
  Al0+  Al66  1  0.75041811  0.24964264  0.00325126  1
  Al0+  Al67  1  0.75093152  0.24993660  0.32375630  1
  Al0+  Al68  1  0.74826106  0.24910744  0.67287966  1
  Al0+  Al69  1  0.74822958  0.74882774  -0.00060602  1
  Al0+  Al70  1  0.74835580  0.75004881  0.33826505  1
  Al0+  Al71  1  0.74705905  0.74813528  0.67178584  1
  Al0+  Al72  1  0.82180238  0.06975754  0.67776883  1
  Al0+  Al73  1  0.42931422  0.82034160  0.98328022  1
  Al0+  Al74  1  0.32258246  0.57420841  0.34889604  1
  Al0+  Al75  1  0.07196338  0.17892466  0.65219236  1
  Al0+  Al76  1  0.07413801  0.17701138  0.31694728  1
  Al0+  Al77  1  0.32072612  0.07405637  0.68165172  1
  Al0+  Al78  1  0.82076744  0.57042811  0.34606109  1
  Al0+  Al79  1  0.32032780  0.57263243  0.01516308  1
  Al0+  Al80  1  0.32069254  0.07072207  0.01476210  1
  Al0+  Al81  1  0.67636738  0.92642389  0.68279683  1
  Al0+  Al82  1  0.92614937  0.82015118  0.65037350  1
  Al0+  Al83  1  0.17960570  0.42928644  0.34941939  1
  Al0+  Al84  1  0.42855527  0.81943432  0.32094518  1
  Al0+  Al85  1  0.31955185  0.06936772  0.34518283  1
  Al0+  Al86  1  0.82229732  0.07065857  0.01617251  1
  Al0+  Al87  1  0.56961174  0.17882853  0.32007312  1
  Al0+  Al88  1  0.07285236  0.67740700  0.65027882  1
  Al0+  Al89  1  0.67872360  0.42868700  0.68047594  1
  Al0+  Al90  1  0.93027353  0.32214175  0.31855762  1
  Al0+  Al91  1  0.17937562  0.93063554  0.68013847  1
  Al0+  Al92  1  0.31873606  0.57135305  0.68022907  1
  Al0+  Al93  1  0.82395216  0.57060529  0.68314027  1
  Al0+  Al94  1  0.68001638  0.93178627  0.34510086  1
  Al0+  Al95  1  0.07080610  0.18003583  0.98463692  1
  Si0+  Si96  1  0.56978150  0.17959649  0.65341253  1
  Si0+  Si97  1  0.82377593  0.07297691  0.34759411  1
  Si0+  Si98  1  0.17436959  0.92682257  0.34958457  1
  Si0+  Si99  1  0.57343911  0.67739812  0.31788231  1
  Si0+  Si100  1  0.06965864  0.68008082  0.31815989  1
  Si0+  Si101  1  0.42895450  0.32501579  0.31656212  1
  Si0+  Si102  1  0.92754588  0.81944451  0.98660162  1
  Si0+  Si103  1  0.43097159  0.82230678  0.65144137  1
  Si0+  Si104  1  0.17789935  0.42797834  0.01602134  1
  Si0+  Si105  1  0.92558356  0.32022069  0.65137306  1
  Si0+  Si106  1  0.67841396  0.42479496  0.34816392  1
  Si0+  Si107  1  0.57201845  0.17903864  0.98272737  1
  Si0+  Si108  1  0.17735937  0.92820727  0.01753983  1
  Si0+  Si109  1  0.57324072  0.67591479  0.98192795  1
  Si0+  Si110  1  0.82080227  0.57021612  0.01441095  1
  Si0+  Si111  1  0.43011714  0.32392563  0.65188352  1
  Si0+  Si112  1  0.56878345  0.67679015  0.65199579  1
  Si0+  Si113  1  0.43088790  0.32218714  0.98549268  1
  Si0+  Si114  1  0.17770985  0.42704038  0.68498523  1
  Si0+  Si115  1  0.06983996  0.67828226  0.98691385  1
  Si0+  Si116  1  0.67833274  0.92764742  0.01743570  1
  Si0+  Si117  1  0.92489229  0.81983448  0.31723763  1
  Si0+  Si118  1  0.92596566  0.32256779  0.98048616  1
  Si0+  Si119  1  0.67870130  0.42811710  0.01759101  1
  O2-  O120  1  0.24569600  -0.00317112  0.06195544  1
  O2-  O121  1  0.23941410  0.00039190  0.39061665  1
  O2-  O122  1  0.24644028  0.00554466  0.73252144  1
  O2-  O123  1  0.24394639  0.49928466  0.06032990  1
  O2-  O124  1  0.25251911  0.50096757  0.39861671  1
  O2-  O125  1  0.24121074  0.50074817  0.72912310  1
  O2-  O126  1  0.74627555  -0.00332597  0.06205423  1
  O2-  O127  1  0.75589279  0.00437923  0.39213332  1
  O2-  O128  1  0.75409582  -0.00608447  0.72983288  1
  O2-  O129  1  0.75131630  0.49849578  0.05808107  1
  O2-  O130  1  0.74763127  0.49335611  0.39053890  1
  O2-  O131  1  0.75214746  0.49789195  0.73276216  1
  O2-  O132  1  0.00010279  0.24817069  0.26787016  1
  O2-  O133  1  -0.00518993  0.25236912  0.60747420  1
  O2-  O134  1  -0.00623703  0.25278633  0.93742035  1
  O2-  O135  1  -0.00218490  0.75031934  0.27455767  1
  O2-  O136  1  -0.00406818  0.74503400  0.60069880  1
  O2-  O137  1  -0.00178997  0.74821781  0.94512142  1
  O2-  O138  1  0.49560105  0.25423590  0.27176332  1
  O2-  O139  1  0.49774503  0.24928722  0.61059442  1
  O2-  O140  1  0.50043750  0.25023989  0.94136510  1
  O2-  O141  1  0.49969746  0.74053414  0.27357710  1
  O2-  O142  1  0.50363941  0.75285431  0.60919063  1
  O2-  O143  1  0.50269110  0.74284321  0.93800985  1
  O2-  O144  1  0.07187272  0.18328156  0.09726832  1
  O2-  O145  1  0.07234792  0.17661459  0.43037321  1
  O2-  O146  1  0.07236159  0.18102068  0.76583800  1
  O2-  O147  1  0.06782998  0.67806464  0.09245835  1
  O2-  O148  1  0.07057241  0.68099062  0.42243246  1
  O2-  O149  1  0.07325163  0.68153547  0.76490445  1
  O2-  O150  1  0.57152695  0.17983175  0.08804387  1
  O2-  O151  1  0.56915740  0.17928688  0.43333255  1
  O2-  O152  1  0.56956445  0.18172552  0.75884114  1
  O2-  O153  1  0.57806804  0.67640279  0.08740319  1
  O2-  O154  1  0.57605636  0.67902168  0.42315807  1
  O2-  O155  1  0.56450803  0.67390264  0.75731617  1
  O2-  O156  1  0.18083735  0.43270170  0.23496982  1
  O2-  O157  1  0.18155262  0.42493670  0.57994954  1
  O2-  O158  1  0.17960179  0.42824820  0.91048068  1
  O2-  O159  1  0.17490844  0.92243843  0.24373726  1
  O2-  O160  1  0.18340602  0.92941727  0.56660370  1
  O2-  O161  1  0.17676946  0.92722973  0.91236208  1
  O2-  O162  1  0.67727987  0.42721848  0.24202209  1
  O2-  O163  1  0.67815595  0.42903150  0.56712525  1
  O2-  O164  1  0.67702091  0.42782220  0.91288498  1
  O2-  O165  1  0.68149640  0.93184020  0.23154769  1
  O2-  O166  1  0.67239419  0.93188017  0.56918448  1
  O2-  O167  1  0.67988367  0.92744949  0.91228145  1
  O2-  O168  1  0.43352323  0.32348195  0.09040279  1
  O2-  O169  1  0.43226147  0.32691970  0.42212688  1
  O2-  O170  1  0.43195876  0.32557537  0.75751730  1
  O2-  O171  1  0.43137950  0.82019043  0.09651083  1
  O2-  O172  1  0.43075607  0.82076524  0.43399733  1
  O2-  O173  1  0.43160988  0.82044651  0.75678118  1
  O2-  O174  1  0.92640505  0.32614118  0.08569217  1
  O2-  O175  1  0.92922060  0.32081345  0.43202841  1
  O2-  O176  1  0.92598797  0.31869707  0.75738112  1
  O2-  O177  1  0.92669407  0.81674804  0.09223918  1
  O2-  O178  1  0.92251562  0.81921358  0.42135839  1
  O2-  O179  1  0.92967656  0.81980276  0.76498811  1
  O2-  O180  1  0.32157048  0.06613943  0.23179698  1
  O2-  O181  1  0.32405553  0.07104444  0.56818467  1
  O2-  O182  1  0.31964176  0.07105174  0.90221499  1
  O2-  O183  1  0.31860932  0.57390746  0.23486051  1
  O2-  O184  1  0.32144398  0.56896630  0.56777445  1
  O2-  O185  1  0.31949396  0.57149278  0.90203099  1
  O2-  O186  1  0.82186750  0.06962437  0.24151621  1
  O2-  O187  1  0.81715663  0.07264589  0.56429457  1
  O2-  O188  1  0.82281629  0.06857570  0.90331657  1
  O2-  O189  1  0.81860553  0.57149771  0.23185402  1
  O2-  O190  1  0.82105929  0.56901398  0.56963472  1
  O2-  O191  1  0.82042210  0.57032195  0.91016653  1
  O2-  O192  1  0.04873047  0.07786517  0.26216314  1
  O2-  O193  1  0.04459167  0.08241061  0.59780155  1
  O2-  O194  1  0.04055220  0.08112011  0.93457760  1
  O2-  O195  1  0.04180109  0.58883086  0.26980194  1
  O2-  O196  1  0.05041247  0.57582542  0.60146751  1
  O2-  O197  1  0.04403036  0.58602710  0.93941080  1
  O2-  O198  1  0.53670237  0.08436080  0.26287807  1
  O2-  O199  1  0.54179163  0.08720348  0.60726323  1
  O2-  O200  1  0.54533614  0.08722932  0.93585861  1
  O2-  O201  1  0.55519494  0.58146025  0.27248430  1
  O2-  O202  1  0.53585809  0.58696554  0.60377201  1
  O2-  O203  1  0.54934850  0.58071685  0.93830403  1
  O2-  O204  1  0.17268699  0.21005752  0.26566680  1
  O2-  O205  1  0.16868053  0.21304092  0.59972055  1
  O2-  O206  1  0.16742089  0.21305823  0.93081814  1
  O2-  O207  1  0.16008875  0.71023479  0.26828915  1
  O2-  O208  1  0.16991302  0.71131713  0.59715407  1
  O2-  O209  1  0.16129526  0.70697519  0.94012483  1
  O2-  O210  1  0.66480385  0.20822921  0.26142305  1
  O2-  O211  1  0.66122492  0.20857329  0.60615616  1
  O2-  O212  1  0.66406838  0.20919679  0.93706502  1
  O2-  O213  1  0.66464351  0.70881094  0.26863349  1
  O2-  O214  1  0.66336131  0.69712812  0.60777315  1
  O2-  O215  1  0.66617992  0.70313981  0.93397880  1
  O2-  O216  1  0.08243084  0.45109327  0.05987460  1
  O2-  O217  1  0.08253148  0.45839322  0.40264801  1
  O2-  O218  1  0.08253624  0.44442214  0.73038006  1
  O2-  O219  1  0.08345926  0.95090801  0.06435238  1
  O2-  O220  1  0.07852995  0.94691622  0.39311437  1
  O2-  O221  1  0.07917343  0.95300743  0.73105130  1
  O2-  O222  1  0.58843628  0.45667845  0.06758943  1
  O2-  O223  1  0.58520940  0.44895333  0.39494264  1
  O2-  O224  1  0.58273982  0.46123846  0.73696088  1
  O2-  O225  1  0.58452387  0.95490396  0.06148669  1
  O2-  O226  1  0.58473360  0.96444966  0.39900456  1
  O2-  O227  1  0.58265877  0.96236158  0.74019143  1
  O2-  O228  1  0.20777228  0.33641200  0.06287073  1
  O2-  O229  1  0.20808652  0.33200163  0.40343388  1
  O2-  O230  1  0.21124472  0.33716319  0.73404670  1
  O2-  O231  1  0.20330031  0.83453364  0.06384788  1
  O2-  O232  1  0.20432938  0.83559100  0.39688699  1
  O2-  O233  1  0.21092322  0.83425900  0.73557086  1
  O2-  O234  1  0.70508714  0.33622906  0.06529672  1
  O2-  O235  1  0.70311742  0.33028069  0.39193395  1
  O2-  O236  1  0.70400873  0.33130323  0.73763661  1
  O2-  O237  1  0.70381528  0.83320963  0.06288420  1
  O2-  O238  1  0.70747230  0.83520774  0.39969721  1
  O2-  O239  1  0.69426922  0.82602135  0.73480296  1
  O2-  O240  1  0.45711548  0.41779585  0.26817293  1
  O2-  O241  1  0.46216514  0.41402387  0.60376792  1
  O2-  O242  1  0.46142522  0.41396759  0.93820319  1
  O2-  O243  1  0.46536722  0.91282658  0.26426174  1
  O2-  O244  1  0.45902311  0.91545259  0.60674743  1
  O2-  O245  1  0.46203309  0.91591925  0.92786759  1
  O2-  O246  1  0.96041681  0.42087203  0.26459695  1
  O2-  O247  1  0.94987998  0.41492418  0.60760080  1
  O2-  O248  1  0.95158137  0.41633233  0.93331188  1
  O2-  O249  1  0.95165314  0.91118356  0.26745190  1
  O2-  O250  1  0.95540631  0.91670795  0.59468201  1
  O2-  O251  1  0.95569791  0.91138804  0.94082846  1
  O2-  O252  1  0.33473063  0.30218453  0.27177646  1
  O2-  O253  1  0.33781990  0.30106568  0.60414510  1
  O2-  O254  1  0.33872967  0.29657017  0.93808240  1
  O2-  O255  1  0.33136449  0.79274958  0.26434905  1
  O2-  O256  1  0.33968249  0.79308546  0.60519486  1
  O2-  O257  1  0.33162145  0.79064754  0.93041815  1
  O2-  O258  1  0.83184712  0.29847144  0.26185566  1
  O2-  O259  1  0.83077129  0.29582711  0.60717879  1
  O2-  O260  1  0.83074748  0.29829644  0.93701222  1
  O2-  O261  1  0.83445613  0.78859508  0.26800348  1
  O2-  O262  1  0.82469297  0.79362671  0.60208876  1
  O2-  O263  1  0.83571247  0.79193992  0.93951432  1
  O2-  O264  1  0.41902050  0.03884477  0.06535880  1
  O2-  O265  1  0.41443816  0.03391067  0.39890959  1
  O2-  O266  1  0.41697852  0.04325454  0.73708785  1
  O2-  O267  1  0.41756780  0.54243233  0.06808746  1
  O2-  O268  1  0.42314814  0.54905201  0.39849710  1
  O2-  O269  1  0.41254326  0.53683036  0.73737653  1
  O2-  O270  1  0.91741091  0.03749048  0.07157877  1
  O2-  O271  1  0.91856555  0.04741639  0.38989410  1
  O2-  O272  1  0.92021060  0.04193056  0.73041832  1
  O2-  O273  1  0.91360065  0.54360804  0.06152957  1
  O2-  O274  1  0.91719605  0.54334095  0.39976702  1
  O2-  O275  1  0.92265878  0.54366389  0.73652097  1
  O2-  O276  1  0.29279432  0.16910521  0.06714942  1
  O2-  O277  1  0.29917033  0.16849082  0.39759133  1
  O2-  O278  1  0.29785675  0.17490051  0.73201192  1
  O2-  O279  1  0.28820113  0.66930317  0.06778221  1
  O2-  O280  1  0.29155803  0.67242774  0.39957731  1
  O2-  O281  1  0.29007628  0.66809973  0.73452776  1
  O2-  O282  1  0.79205693  0.16799826  0.06887850  1
  O2-  O283  1  0.79821403  0.16777988  0.38901875  1
  O2-  O284  1  0.78950097  0.16477859  0.73563018  1
  O2-  O285  1  0.79202701  0.66195836  0.06244426  1
  O2-  O286  1  0.78750397  0.66487198  0.40134391  1
  O2-  O287  1  0.79235149  0.66701377  0.73787587  1
