# generated using pymatgen
data_Ca2Al2SiO7
_symmetry_space_group_name_H-M   'P 1'
_cell_length_a   15.45366901
_cell_length_b   15.45543289
_cell_length_c   15.28115649
_cell_angle_alpha   90.01302325
_cell_angle_beta   89.99837521
_cell_angle_gamma   90.00195385
_symmetry_Int_Tables_number   1
_chemical_formula_structural   Ca2Al2SiO7
_chemical_formula_sum   'Ca48 Al48 Si24 O168'
_cell_volume   3649.79936513
_cell_formula_units_Z   24
loop_
 _symmetry_equiv_pos_site_id
 _symmetry_equiv_pos_as_xyz
  1  'x, y, z'
loop_
 _atom_type_symbol
 _atom_type_oxidation_number
  Ca2+  2.0
  Al0+  0.0
  Si0+  0.0
  O2-  -2.0
loop_
 _atom_site_type_symbol
 _atom_site_label
 _atom_site_symmetry_multiplicity
 _atom_site_fract_x
 _atom_site_fract_y
 _atom_site_fract_z
 _atom_site_occupancy
  Ca2+  Ca0  1  0.16457971  0.06850786  0.17074907  1
  Ca2+  Ca1  1  0.17523011  0.07517094  0.50348141  1
  Ca2+  Ca2  1  0.17342462  0.07756059  0.83838915  1
  Ca2+  Ca3  1  0.16898651  0.58502733  0.16216789  1
  Ca2+  Ca4  1  0.17257122  0.58751649  0.50866309  1
  Ca2+  Ca5  1  0.17300805  0.58816077  0.84070469  1
  Ca2+  Ca6  1  0.67292958  0.07049812  0.17270891  1
  Ca2+  Ca7  1  0.66751077  0.08067230  0.50184512  1
  Ca2+  Ca8  1  0.66507439  0.07685543  0.83624401  1
  Ca2+  Ca9  1  0.67120304  0.58776478  0.16727289  1
  Ca2+  Ca10  1  0.66281415  0.56942665  0.50432207  1
  Ca2+  Ca11  1  0.67102589  0.58254907  0.84078388  1
  Ca2+  Ca12  1  0.08659457  0.33044202  0.15883828  1
  Ca2+  Ca13  1  0.07588031  0.33333091  0.49918550  1
  Ca2+  Ca14  1  0.07889318  0.33960070  0.83076214  1
  Ca2+  Ca15  1  0.07419699  0.83527674  0.15834859  1
  Ca2+  Ca16  1  0.07801352  0.83217075  0.49559034  1
  Ca2+  Ca17  1  0.07760011  0.82629753  0.82959478  1
  Ca2+  Ca18  1  0.57381138  0.33982546  0.16438410  1
  Ca2+  Ca19  1  0.58449687  0.33006220  0.49408400  1
  Ca2+  Ca20  1  0.58004250  0.32893186  0.82670125  1
  Ca2+  Ca21  1  0.58238302  0.83525654  0.16045802  1
  Ca2+  Ca22  1  0.57058746  0.83739788  0.49393141  1
  Ca2+  Ca23  1  0.58321999  0.82539245  0.83039930  1
  Ca2+  Ca24  1  0.33722290  0.42005938  0.16575547  1
  Ca2+  Ca25  1  0.33547636  0.42313545  0.50634451  1
  Ca2+  Ca26  1  0.32989311  0.42861245  0.84353500  1
  Ca2+  Ca27  1  0.32032109  0.90593305  0.17114204  1
  Ca2+  Ca28  1  0.33179282  0.91276759  0.50753913  1
  Ca2+  Ca29  1  0.33245174  0.91891005  0.83579112  1
  Ca2+  Ca30  1  0.82805812  0.42869069  0.17186552  1
  Ca2+  Ca31  1  0.82205265  0.41194509  0.50812033  1
  Ca2+  Ca32  1  0.83061216  0.42126526  0.83701208  1
  Ca2+  Ca33  1  0.82561707  0.91212407  0.17425193  1
  Ca2+  Ca34  1  0.83366928  0.91513459  0.49833009  1
  Ca2+  Ca35  1  0.83036914  0.90820354  0.84062147  1
  Ca2+  Ca36  1  0.41269818  0.18087203  0.16201214  1
  Ca2+  Ca37  1  0.42264706  0.16743827  0.49649253  1
  Ca2+  Ca38  1  0.42012104  0.17033269  0.82630134  1
  Ca2+  Ca39  1  0.42460208  0.66906271  0.16080887  1
  Ca2+  Ca40  1  0.41149841  0.67646028  0.49873687  1
  Ca2+  Ca41  1  0.41523962  0.66721832  0.83094457  1
  Ca2+  Ca42  1  0.91325057  0.16436005  0.16688178  1
  Ca2+  Ca43  1  0.91213854  0.16909745  0.49721885  1
  Ca2+  Ca44  1  0.91924287  0.17388651  0.82613017  1
  Ca2+  Ca45  1  0.91866608  0.67691123  0.15491570  1
  Ca2+  Ca46  1  0.92259828  0.67635947  0.49813386  1
  Ca2+  Ca47  1  0.92482784  0.67133796  0.83050177  1
  Al0+  Al48  1  0.00039926  0.00286937  -0.00221039  1
  Al0+  Al49  1  0.00147707  -0.00024614  0.33870713  1
  Al0+  Al50  1  -0.00049792  0.00082340  0.66402807  1
  Al0+  Al51  1  -0.00017936  0.50065957  0.00580879  1
  Al0+  Al52  1  0.00141212  0.49924145  0.33362875  1
  Al0+  Al53  1  -0.00155728  0.49993992  0.65613865  1
  Al0+  Al54  1  0.50062572  0.00273389  0.00539052  1
  Al0+  Al55  1  0.49960404  0.00128877  0.32864530  1
  Al0+  Al56  1  0.50044271  0.00053981  0.66380602  1
  Al0+  Al57  1  0.49892491  0.50037485  -0.00555581  1
  Al0+  Al58  1  0.49984310  0.50020861  0.33415357  1
  Al0+  Al59  1  0.49951763  0.49873478  0.67633324  1
  Al0+  Al60  1  0.24990875  0.25168001  -0.00333355  1
  Al0+  Al61  1  0.24934605  0.25072407  0.33047217  1
  Al0+  Al62  1  0.24987752  0.24921087  0.67028521  1
  Al0+  Al63  1  0.25023935  0.75038934  0.00577777  1
  Al0+  Al64  1  0.25050446  0.74844987  0.33349961  1
  Al0+  Al65  1  0.24969324  0.74934219  0.66531699  1
  Al0+  Al66  1  0.74893665  0.24906938  0.00047518  1
  Al0+  Al67  1  0.75031384  0.25010141  0.33630385  1
  Al0+  Al68  1  0.74876922  0.24784882  0.66486471  1
  Al0+  Al69  1  0.74772400  0.74982296  0.00048344  1
  Al0+  Al70  1  0.75106125  0.74960068  0.33753186  1
  Al0+  Al71  1  0.74993981  0.74792115  0.66098380  1
  Al0+  Al72  1  0.42861495  0.82238081  0.31853575  1
  Al0+  Al73  1  0.07167002  0.67966335  0.65095705  1
  Al0+  Al74  1  0.67946766  0.92902107  0.01141804  1
  Al0+  Al75  1  0.92665825  0.82309360  0.64940253  1
  Al0+  Al76  1  0.67634549  0.92685168  0.35082285  1
  Al0+  Al77  1  0.07180681  0.67840533  0.98606705  1
  Al0+  Al78  1  0.93087453  0.82054591  0.31838723  1
  Al0+  Al79  1  0.57040326  0.68036342  0.98669668  1
  Al0+  Al80  1  0.82021577  0.57069231  0.01210627  1
  Al0+  Al81  1  0.17874318  0.42899065  0.01524100  1
  Al0+  Al82  1  0.67948859  0.43207283  0.34568163  1
  Al0+  Al83  1  0.82113764  0.06987004  0.34972025  1
  Al0+  Al84  1  0.67976529  0.42657696  0.68278580  1
  Al0+  Al85  1  0.31927720  0.57174270  0.68082904  1
  Al0+  Al86  1  0.32281976  0.07064911  0.67968834  1
  Al0+  Al87  1  0.32320127  0.57213972  0.01788714  1
  Al0+  Al88  1  0.42955042  0.32125149  0.32060978  1
  Al0+  Al89  1  0.18121440  0.92756627  0.34843520  1
  Al0+  Al90  1  0.42867651  0.32101448  0.98322999  1
  Al0+  Al91  1  0.43153364  0.81932043  0.65609843  1
  Al0+  Al92  1  0.56968304  0.17914339  0.65223647  1
  Al0+  Al93  1  0.92815144  0.82301745  0.98582538  1
  Al0+  Al94  1  0.17955448  0.93040403  0.01205917  1
  Al0+  Al95  1  0.92945655  0.31956274  0.65356845  1
  Si0+  Si96  1  0.57213837  0.17789919  0.98349866  1
  Si0+  Si97  1  0.82527475  0.57223870  0.35263407  1
  Si0+  Si98  1  0.57252923  0.67449420  0.64985850  1
  Si0+  Si99  1  0.57425351  0.17857111  0.31377960  1
  Si0+  Si100  1  0.67804316  0.42596684  0.01584400  1
  Si0+  Si101  1  0.07426612  0.17735783  0.64909196  1
  Si0+  Si102  1  0.07289557  0.67589289  0.31436119  1
  Si0+  Si103  1  0.82261363  0.07423063  0.01451334  1
  Si0+  Si104  1  0.17558064  0.42775358  0.68091085  1
  Si0+  Si105  1  0.07048526  0.18072899  0.31851059  1
  Si0+  Si106  1  0.92760699  0.32145275  0.31675187  1
  Si0+  Si107  1  0.92776650  0.32118473  0.98792685  1
  Si0+  Si108  1  0.57080297  0.67800702  0.31941791  1
  Si0+  Si109  1  0.42749756  0.32253855  0.65127008  1
  Si0+  Si110  1  0.82170512  0.57143748  0.68224120  1
  Si0+  Si111  1  0.17798793  0.42602600  0.34995779  1
  Si0+  Si112  1  0.17749884  0.92868996  0.68371488  1
  Si0+  Si113  1  0.67933897  0.92802197  0.68056517  1
  Si0+  Si114  1  0.32258332  0.07337434  0.01749923  1
  Si0+  Si115  1  0.07109194  0.17937210  0.98434993  1
  Si0+  Si116  1  0.42739474  0.82422313  0.98498128  1
  Si0+  Si117  1  0.82139143  0.07025347  0.68245748  1
  Si0+  Si118  1  0.32007380  0.56843686  0.34913810  1
  Si0+  Si119  1  0.32049116  0.07487464  0.34770432  1
  O2-  O120  1  0.25666709  0.00220727  0.06133826  1
  O2-  O121  1  0.26061968  -0.00099050  0.39303539  1
  O2-  O122  1  0.24654058  -0.00215909  0.72700223  1
  O2-  O123  1  0.25090407  0.49946303  0.06754067  1
  O2-  O124  1  0.24721311  0.49861091  0.39132097  1
  O2-  O125  1  0.24383127  0.49615580  0.72481094  1
  O2-  O126  1  0.75742474  0.00168012  0.05629823  1
  O2-  O127  1  0.74861122  -0.00100603  0.40099704  1
  O2-  O128  1  0.75555876  -0.00598767  0.72345292  1
  O2-  O129  1  0.74534748  0.49579050  0.05966978  1
  O2-  O130  1  0.75599025  0.50326607  0.39550725  1
  O2-  O131  1  0.75297539  0.50336095  0.72787882  1
  O2-  O132  1  -0.00118964  0.25081417  0.27450559  1
  O2-  O133  1  0.00537141  0.24624870  0.60540669  1
  O2-  O134  1  -0.00017417  0.25157036  0.94455853  1
  O2-  O135  1  0.00296475  0.74351686  0.27137335  1
  O2-  O136  1  0.00131363  0.75312814  0.60076367  1
  O2-  O137  1  0.00112076  0.75182713  0.93647133  1
  O2-  O138  1  0.50347905  0.24650154  0.27155910  1
  O2-  O139  1  0.49543334  0.25449715  0.60529321  1
  O2-  O140  1  0.50411694  0.24629412  0.93833366  1
  O2-  O141  1  0.50935691  0.75297127  0.27442640  1
  O2-  O142  1  0.50403032  0.74353084  0.60658992  1
  O2-  O143  1  0.49556479  0.75548486  0.94049226  1
  O2-  O144  1  0.07052322  0.17784478  0.08968268  1
  O2-  O145  1  0.07259401  0.18475245  0.42348816  1
  O2-  O146  1  0.07267901  0.17638080  0.75485221  1
  O2-  O147  1  0.06866701  0.67959216  0.09979924  1
  O2-  O148  1  0.07303852  0.67492611  0.42000632  1
  O2-  O149  1  0.07123640  0.67928129  0.76425760  1
  O2-  O150  1  0.57354675  0.17881007  0.08880654  1
  O2-  O151  1  0.57394375  0.17976883  0.41962610  1
  O2-  O152  1  0.56916945  0.17866571  0.76552524  1
  O2-  O153  1  0.57100107  0.68157131  0.10013583  1
  O2-  O154  1  0.56473491  0.67359788  0.42495092  1
  O2-  O155  1  0.57520453  0.67715274  0.75536387  1
  O2-  O156  1  0.17679827  0.42363316  0.24544387  1
  O2-  O157  1  0.17799243  0.42590912  0.57478413  1
  O2-  O158  1  0.17844878  0.42758459  0.90165367  1
  O2-  O159  1  0.17930922  0.93018617  0.23518178  1
  O2-  O160  1  0.17886716  0.93025736  0.57784266  1
  O2-  O161  1  0.17995245  0.93431733  0.89899535  1
  O2-  O162  1  0.68051455  0.43501137  0.23247079  1
  O2-  O163  1  0.67988078  0.42735144  0.56924017  1
  O2-  O164  1  0.68263654  0.42231092  0.91041067  1
  O2-  O165  1  0.67813918  0.92811533  0.23705423  1
  O2-  O166  1  0.67731036  0.93097856  0.57589693  1
  O2-  O167  1  0.67802952  0.93136457  0.89772306  1
  O2-  O168  1  0.43020386  0.31954492  0.09692018  1
  O2-  O169  1  0.42960600  0.32064231  0.43371452  1
  O2-  O170  1  0.42870854  0.31988310  0.75659362  1
  O2-  O171  1  0.42927179  0.82341323  0.09072980  1
  O2-  O172  1  0.42636031  0.81871900  0.43194278  1
  O2-  O173  1  0.43390046  0.82034884  0.76918331  1
  O2-  O174  1  0.92634862  0.31770330  0.09313266  1
  O2-  O175  1  0.92886695  0.32101564  0.42183308  1
  O2-  O176  1  0.93108235  0.31870583  0.76724922  1
  O2-  O177  1  0.92874839  0.82348054  0.09955047  1
  O2-  O178  1  0.93404447  0.81920665  0.43131333  1
  O2-  O179  1  0.92598933  0.82207506  0.76282050  1
  O2-  O180  1  0.31340368  0.08011247  0.24246554  1
  O2-  O181  1  0.32121381  0.07038337  0.56640357  1
  O2-  O182  1  0.32236880  0.07257578  0.91164707  1
  O2-  O183  1  0.32156935  0.56719540  0.24455155  1
  O2-  O184  1  0.31965826  0.56962469  0.56685661  1
  O2-  O185  1  0.32175153  0.57125931  0.90434511  1
  O2-  O186  1  0.81997550  0.07086097  0.23571027  1
  O2-  O187  1  0.81973874  0.07285170  0.57781532  1
  O2-  O188  1  0.82113943  0.08018369  0.90899136  1
  O2-  O189  1  0.82608803  0.57057465  0.24682782  1
  O2-  O190  1  0.81967495  0.56942044  0.57649702  1
  O2-  O191  1  0.82034357  0.56713088  0.89892480  1
  O2-  O192  1  0.04243857  0.08868141  0.27224178  1
  O2-  O193  1  0.04822873  0.08472049  0.60182507  1
  O2-  O194  1  0.04222753  0.09022828  0.93267012  1
  O2-  O195  1  0.04952286  0.58033369  0.27017851  1
  O2-  O196  1  0.04430013  0.58224912  0.59413738  1
  O2-  O197  1  0.04261402  0.57884802  0.93553254  1
  O2-  O198  1  0.55055865  0.08498734  0.26724864  1
  O2-  O199  1  0.53783192  0.08439811  0.59567977  1
  O2-  O200  1  0.54547197  0.08432145  0.93721036  1
  O2-  O201  1  0.53826481  0.58792655  0.27010779  1
  O2-  O202  1  0.54471228  0.57992104  0.60701897  1
  O2-  O203  1  0.54313721  0.58385966  0.93107143  1
  O2-  O204  1  0.16036794  0.21038251  0.26826752  1
  O2-  O205  1  0.16776832  0.20351487  0.60259326  1
  O2-  O206  1  0.16203036  0.20655590  0.93524695  1
  O2-  O207  1  0.16693127  0.70129981  0.27023000  1
  O2-  O208  1  0.16949088  0.70804691  0.59649265  1
  O2-  O209  1  0.17188185  0.70634809  0.93653855  1
  O2-  O210  1  0.66749359  0.20668870  0.26846959  1
  O2-  O211  1  0.66567779  0.20912436  0.59728874  1
  O2-  O212  1  0.66620486  0.20280872  0.93650259  1
  O2-  O213  1  0.66805820  0.69547259  0.27807883  1
  O2-  O214  1  0.66554542  0.69717765  0.60174487  1
  O2-  O215  1  0.66525801  0.71180073  0.92983485  1
  O2-  O216  1  0.08050040  0.45365280  0.07104019  1
  O2-  O217  1  0.08493319  0.45152231  0.39710603  1
  O2-  O218  1  0.08003656  0.45221316  0.72306161  1
  O2-  O219  1  0.08386698  0.96672181  0.06603360  1
  O2-  O220  1  0.08820554  0.96431948  0.40445305  1
  O2-  O221  1  0.08363073  0.95610781  0.72847044  1
  O2-  O222  1  0.58341790  0.45142635  0.05783132  1
  O2-  O223  1  0.58367996  0.46347692  0.40180282  1
  O2-  O224  1  0.58353705  0.45447569  0.73808657  1
  O2-  O225  1  0.58461832  0.96224405  0.06869242  1
  O2-  O226  1  0.57618103  0.95753887  0.40030904  1
  O2-  O227  1  0.59002480  0.96140507  0.72880791  1
  O2-  O228  1  0.20683825  0.32907847  0.06711487  1
  O2-  O229  1  0.20711327  0.33505137  0.39832982  1
  O2-  O230  1  0.19769225  0.33349380  0.72758946  1
  O2-  O231  1  0.20697799  0.83499148  0.06921830  1
  O2-  O232  1  0.20960337  0.82989661  0.40164738  1
  O2-  O233  1  0.20433665  0.83556128  0.72831749  1
  O2-  O234  1  0.70438441  0.33304005  0.06381543  1
  O2-  O235  1  0.70886028  0.33490598  0.39896165  1
  O2-  O236  1  0.71300664  0.33014345  0.73565586  1
  O2-  O237  1  0.70657225  0.83315771  0.06724694  1
  O2-  O238  1  0.70208456  0.82768226  0.40364871  1
  O2-  O239  1  0.70310556  0.83327508  0.72476402  1
  O2-  O240  1  0.46247704  0.41707942  0.26590302  1
  O2-  O241  1  0.45362479  0.41710179  0.60776649  1
  O2-  O242  1  0.45825693  0.41673066  0.92852297  1
  O2-  O243  1  0.45067497  0.92119984  0.26455248  1
  O2-  O244  1  0.46288266  0.91432134  0.59963503  1
  O2-  O245  1  0.45225022  0.91979985  0.94222171  1
  O2-  O246  1  0.95620675  0.41373922  0.27043301  1
  O2-  O247  1  0.95654832  0.41403793  0.59373310  1
  O2-  O248  1  0.95507125  0.41275111  0.94119508  1
  O2-  O249  1  0.96285238  0.91868148  0.26807259  1
  O2-  O250  1  0.95268404  0.92318247  0.59834900  1
  O2-  O251  1  0.95390524  0.92293140  0.93353248  1
  O2-  O252  1  0.33267219  0.29095854  0.26557752  1
  O2-  O253  1  0.33233709  0.29866244  0.60704041  1
  O2-  O254  1  0.33227877  0.28999340  0.92899574  1
  O2-  O255  1  0.33372797  0.78505133  0.26503666  1
  O2-  O256  1  0.33489826  0.79013986  0.60140363  1
  O2-  O257  1  0.33351598  0.79933488  0.94030006  1
  O2-  O258  1  0.83612588  0.29362059  0.26906148  1
  O2-  O259  1  0.83476312  0.28448411  0.59899476  1
  O2-  O260  1  0.83659331  0.29198432  0.93913973  1
  O2-  O261  1  0.83126648  0.79169551  0.26861378  1
  O2-  O262  1  0.82914153  0.79260268  0.59497288  1
  O2-  O263  1  0.83014434  0.79244348  0.93455108  1
  O2-  O264  1  0.41699040  0.05442110  0.06444458  1
  O2-  O265  1  0.41810972  0.05823993  0.38735982  1
  O2-  O266  1  0.41851877  0.03835358  0.73465226  1
  O2-  O267  1  0.42201120  0.54032863  0.06902259  1
  O2-  O268  1  0.41044919  0.53864903  0.39786117  1
  O2-  O269  1  0.41493852  0.54250628  0.73694736  1
  O2-  O270  1  0.91779848  0.05465875  0.05923260  1
  O2-  O271  1  0.91978073  0.04479147  0.40372110  1
  O2-  O272  1  0.91614585  0.04996445  0.72834802  1
  O2-  O273  1  0.91396051  0.53909815  0.07069332  1
  O2-  O274  1  0.91894206  0.54451266  0.39795155  1
  O2-  O275  1  0.91607876  0.54330317  0.72495919  1
  O2-  O276  1  0.29224725  0.16615686  0.06178577  1
  O2-  O277  1  0.28722649  0.16510925  0.39730366  1
  O2-  O278  1  0.29263592  0.16718271  0.73548599  1
  O2-  O279  1  0.29695202  0.67026548  0.07219521  1
  O2-  O280  1  0.29182794  0.65998933  0.39676085  1
  O2-  O281  1  0.28919460  0.66832158  0.73505078  1
  O2-  O282  1  0.79326383  0.16564577  0.06472211  1
  O2-  O283  1  0.79387154  0.16943889  0.40208861  1
  O2-  O284  1  0.78872439  0.15969957  0.73155410  1
  O2-  O285  1  0.78665352  0.66528751  0.06804000  1
  O2-  O286  1  0.80096949  0.66529773  0.39906245  1
  O2-  O287  1  0.79614500  0.66561108  0.72729857  1
