# generated using pymatgen
data_Ca2Al2SiO7
_symmetry_space_group_name_H-M   'P 1'
_cell_length_a   15.45953939
_cell_length_b   15.46035272
_cell_length_c   15.28454830
_cell_angle_alpha   90.02428471
_cell_angle_beta   89.98980225
_cell_angle_gamma   90.01026161
_symmetry_Int_Tables_number   1
_chemical_formula_structural   Ca2Al2SiO7
_chemical_formula_sum   'Ca48 Al48 Si24 O168'
_cell_volume   3653.15840313
_cell_formula_units_Z   24
loop_
 _symmetry_equiv_pos_site_id
 _symmetry_equiv_pos_as_xyz
  1  'x, y, z'
loop_
 _atom_type_symbol
 _atom_type_oxidation_number
  Ca2+  2.0
  Al0+  0.0
  Si0+  0.0
  O2-  -2.0
loop_
 _atom_site_type_symbol
 _atom_site_label
 _atom_site_symmetry_multiplicity
 _atom_site_fract_x
 _atom_site_fract_y
 _atom_site_fract_z
 _atom_site_occupancy
  Ca2+  Ca0  1  0.16765896  0.06959063  0.16629577  1
  Ca2+  Ca1  1  0.16541529  0.07587379  0.49894219  1
  Ca2+  Ca2  1  0.17547230  0.07726721  0.84404790  1
  Ca2+  Ca3  1  0.16684137  0.58461887  0.17318329  1
  Ca2+  Ca4  1  0.16858481  0.58750290  0.49984021  1
  Ca2+  Ca5  1  0.16104708  0.57226843  0.83599428  1
  Ca2+  Ca6  1  0.67810916  0.07588776  0.16492952  1
  Ca2+  Ca7  1  0.67401351  0.07490869  0.50057669  1
  Ca2+  Ca8  1  0.67218835  0.06971478  0.83975111  1
  Ca2+  Ca9  1  0.67393557  0.57239808  0.17359413  1
  Ca2+  Ca10  1  0.67056873  0.58481716  0.50006647  1
  Ca2+  Ca11  1  0.66514131  0.58059974  0.83695669  1
  Ca2+  Ca12  1  0.07056873  0.33564462  0.15953677  1
  Ca2+  Ca13  1  0.07533116  0.33526569  0.49681153  1
  Ca2+  Ca14  1  0.07556158  0.33673725  0.82800845  1
  Ca2+  Ca15  1  0.07976547  0.83280380  0.16535376  1
  Ca2+  Ca16  1  0.07519107  0.83059162  0.48781636  1
  Ca2+  Ca17  1  0.07153424  0.84356770  0.83417642  1
  Ca2+  Ca18  1  0.58919754  0.33534574  0.16157060  1
  Ca2+  Ca19  1  0.58764241  0.33165446  0.49173098  1
  Ca2+  Ca20  1  0.58558380  0.33143351  0.83253869  1
  Ca2+  Ca21  1  0.57261839  0.83938991  0.15898699  1
  Ca2+  Ca22  1  0.57586599  0.83271661  0.49950098  1
  Ca2+  Ca23  1  0.57827304  0.83710561  0.82497553  1
  Ca2+  Ca24  1  0.32414709  0.42459928  0.17266594  1
  Ca2+  Ca25  1  0.32706547  0.42788088  0.50536797  1
  Ca2+  Ca26  1  0.31814366  0.41645590  0.84082346  1
  Ca2+  Ca27  1  0.32481396  0.90734114  0.16969653  1
  Ca2+  Ca28  1  0.32912151  0.90433651  0.49917855  1
  Ca2+  Ca29  1  0.33205200  0.91664217  0.84418774  1
  Ca2+  Ca30  1  0.82805556  0.41525032  0.17540846  1
  Ca2+  Ca31  1  0.83934120  0.42161788  0.49783174  1
  Ca2+  Ca32  1  0.83253050  0.41721363  0.84156541  1
  Ca2+  Ca33  1  0.84223894  0.92369560  0.17143554  1
  Ca2+  Ca34  1  0.83639529  0.91709903  0.50636277  1
  Ca2+  Ca35  1  0.82553585  0.91424660  0.84325781  1
  Ca2+  Ca36  1  0.41783467  0.16540723  0.16024628  1
  Ca2+  Ca37  1  0.42032004  0.16939525  0.49568226  1
  Ca2+  Ca38  1  0.41620053  0.16318555  0.83242486  1
  Ca2+  Ca39  1  0.41339513  0.67381952  0.16515606  1
  Ca2+  Ca40  1  0.42003355  0.67211943  0.49389189  1
  Ca2+  Ca41  1  0.42582672  0.67855595  0.82723074  1
  Ca2+  Ca42  1  0.90696610  0.17299257  0.16238805  1
  Ca2+  Ca43  1  0.91011306  0.17689773  0.49307987  1
  Ca2+  Ca44  1  0.90822646  0.17716443  0.83444521  1
  Ca2+  Ca45  1  0.91716716  0.67295063  0.16717873  1
  Ca2+  Ca46  1  0.92019050  0.67619881  0.49081533  1
  Ca2+  Ca47  1  0.91502534  0.67958941  0.83090826  1
  Al0+  Al48  1  0.00235767  0.00214275  0.00178816  1
  Al0+  Al49  1  0.00155962  0.00246829  0.34062224  1
  Al0+  Al50  1  0.00191080  0.00484278  0.66556084  1
  Al0+  Al51  1  -0.00068719  0.50055272  -0.00088105  1
  Al0+  Al52  1  -0.00206315  0.49913355  0.32897690  1
  Al0+  Al53  1  -0.00107635  0.50064814  0.66717752  1
  Al0+  Al54  1  0.50186588  0.00233717  0.00120555  1
  Al0+  Al55  1  0.50030268  0.00175091  0.32914886  1
  Al0+  Al56  1  0.50110345  0.00124387  0.66401453  1
  Al0+  Al57  1  0.49934783  0.49931986  0.00171694  1
  Al0+  Al58  1  0.49773395  0.49917315  0.34035909  1
  Al0+  Al59  1  0.50056125  0.50082918  0.66515726  1
  Al0+  Al60  1  0.24888670  0.25066802  0.00832156  1
  Al0+  Al61  1  0.25056108  0.24859361  0.33307493  1
  Al0+  Al62  1  0.24935099  0.25034291  0.66927451  1
  Al0+  Al63  1  0.25101944  0.74812990  -0.00482226  1
  Al0+  Al64  1  0.24977898  0.74892400  0.33515010  1
  Al0+  Al65  1  0.25056704  0.74968759  0.66859968  1
  Al0+  Al66  1  0.74840213  0.24933282  0.00029364  1
  Al0+  Al67  1  0.74854543  0.24626487  0.33698353  1
  Al0+  Al68  1  0.74995618  0.25062722  0.66209317  1
  Al0+  Al69  1  0.74858361  0.74764533  0.00098735  1
  Al0+  Al70  1  0.74748525  0.74871094  0.33219676  1
  Al0+  Al71  1  0.74935837  0.74954830  0.66336664  1
  Al0+  Al72  1  0.07067320  0.67926450  0.31886381  1
  Al0+  Al73  1  0.31878183  0.57096827  0.34774597  1
  Al0+  Al74  1  0.67955038  0.42968317  0.01117711  1
  Al0+  Al75  1  0.67905026  0.92509476  0.01461949  1
  Al0+  Al76  1  0.92953691  0.82248280  0.98767890  1
  Al0+  Al77  1  0.82140996  0.06951035  0.01299670  1
  Al0+  Al78  1  0.17930910  0.43064665  0.67986623  1
  Al0+  Al79  1  0.43125446  0.81963001  0.31817188  1
  Al0+  Al80  1  0.57192099  0.67692097  0.64976111  1
  Al0+  Al81  1  0.32294049  0.07129178  0.01536355  1
  Al0+  Al82  1  0.92662820  0.82387044  0.31911567  1
  Al0+  Al83  1  0.92889957  0.32102356  0.65171850  1
  Al0+  Al84  1  0.92805213  0.32022889  0.98626858  1
  Al0+  Al85  1  0.18127181  0.92971523  0.34830865  1
  Al0+  Al86  1  0.42844375  0.82289166  0.65064373  1
  Al0+  Al87  1  0.82091263  0.06784060  0.34856529  1
  Al0+  Al88  1  0.68128465  0.92922131  0.67852592  1
  Al0+  Al89  1  0.92951521  0.31769787  0.31886705  1
  Al0+  Al90  1  0.67998689  0.42831729  0.34998035  1
  Al0+  Al91  1  0.17976119  0.92620551  0.01443287  1
  Al0+  Al92  1  0.82220385  0.57237850  0.34929619  1
  Al0+  Al93  1  0.43061102  0.82137178  0.98573525  1
  Al0+  Al94  1  0.93033731  0.82345938  0.65474903  1
  Al0+  Al95  1  0.17609557  0.42964287  0.01532607  1
  Si0+  Si96  1  0.17874599  0.92852866  0.68167517  1
  Si0+  Si97  1  0.82291664  0.57283176  0.01619077  1
  Si0+  Si98  1  0.67819790  0.42733422  0.68194962  1
  Si0+  Si99  1  0.67481607  0.92747561  0.34908592  1
  Si0+  Si100  1  0.17688304  0.42582822  0.34968692  1
  Si0+  Si101  1  0.07524419  0.17752454  0.31515527  1
  Si0+  Si102  1  0.32146984  0.56987051  0.01547727  1
  Si0+  Si103  1  0.82049285  0.57050810  0.68236304  1
  Si0+  Si104  1  0.56982279  0.18011568  0.31594532  1
  Si0+  Si105  1  0.07273687  0.67757285  0.98123395  1
  Si0+  Si106  1  0.57047113  0.18091429  0.98344249  1
  Si0+  Si107  1  0.42722873  0.32202558  0.98593586  1
  Si0+  Si108  1  0.57129698  0.67519887  0.98469377  1
  Si0+  Si109  1  0.07059018  0.67806234  0.65203448  1
  Si0+  Si110  1  0.82294524  0.07430884  0.68360595  1
  Si0+  Si111  1  0.32420411  0.57278464  0.68634894  1
  Si0+  Si112  1  0.42789108  0.32187782  0.31853397  1
  Si0+  Si113  1  0.07554244  0.18003571  0.64905055  1
  Si0+  Si114  1  0.57119843  0.67426071  0.31460982  1
  Si0+  Si115  1  0.42723722  0.32057164  0.65318020  1
  Si0+  Si116  1  0.32442858  0.07289966  0.35157812  1
  Si0+  Si117  1  0.57044585  0.18052778  0.65052251  1
  Si0+  Si118  1  0.32130513  0.07141990  0.67996477  1
  Si0+  Si119  1  0.07406072  0.17989507  0.98328627  1
  O2-  O120  1  0.25540633  -0.00491295  0.06421127  1
  O2-  O121  1  0.25733173  0.00355005  0.39644217  1
  O2-  O122  1  0.25364248  -0.00285793  0.72168186  1
  O2-  O123  1  0.24986114  0.50503623  0.06080760  1
  O2-  O124  1  0.24354497  0.49619104  0.39429593  1
  O2-  O125  1  0.25402754  0.50455241  0.72910802  1
  O2-  O126  1  0.75796097  -0.00999895  0.06362396  1
  O2-  O127  1  0.75207626  -0.01339866  0.39375004  1
  O2-  O128  1  0.76044047  -0.00064231  0.72606347  1
  O2-  O129  1  0.75532950  0.50177874  0.05789596  1
  O2-  O130  1  0.75035834  0.50051432  0.40143776  1
  O2-  O131  1  0.74857653  0.49884145  0.72379151  1
  O2-  O132  1  0.00619474  0.24565371  0.27126994  1
  O2-  O133  1  0.00359527  0.24593120  0.60608345  1
  O2-  O134  1  0.00437013  0.24751750  0.93808180  1
  O2-  O135  1  -0.00272622  0.75016349  0.26956986  1
  O2-  O136  1  0.00843174  0.75251344  0.60844269  1
  O2-  O137  1  0.00557856  0.74910860  0.93883283  1
  O2-  O138  1  0.49939948  0.25247408  0.27484696  1
  O2-  O139  1  0.50090233  0.25356151  0.60878396  1
  O2-  O140  1  0.49643400  0.25004163  0.94165959  1
  O2-  O141  1  0.50729006  0.74715189  0.26996113  1
  O2-  O142  1  0.49843643  0.74851058  0.60150444  1
  O2-  O143  1  0.50882676  0.74965584  0.94004467  1
  O2-  O144  1  0.07545991  0.18209687  0.08849384  1
  O2-  O145  1  0.07793083  0.18040385  0.42118540  1
  O2-  O146  1  0.07990648  0.18042606  0.75434575  1
  O2-  O147  1  0.07334115  0.67534483  0.08623646  1
  O2-  O148  1  0.07156573  0.68209797  0.43309321  1
  O2-  O149  1  0.06707919  0.67520821  0.75773530  1
  O2-  O150  1  0.57152951  0.18347145  0.08832127  1
  O2-  O151  1  0.56751499  0.17971541  0.42175414  1
  O2-  O152  1  0.56997381  0.18125518  0.75565240  1
  O2-  O153  1  0.56700573  0.66992914  0.08960691  1
  O2-  O154  1  0.56830498  0.67349207  0.42020820  1
  O2-  O155  1  0.56984906  0.67433315  0.76365146  1
  O2-  O156  1  0.18072981  0.42431523  0.24421982  1
  O2-  O157  1  0.18215214  0.43074840  0.56701340  1
  O2-  O158  1  0.17746622  0.42978666  0.90162788  1
  O2-  O159  1  0.18240872  0.92966645  0.23577375  1
  O2-  O160  1  0.17813368  0.92961019  0.57684918  1
  O2-  O161  1  0.18013139  0.93021487  0.89997458  1
  O2-  O162  1  0.67977548  0.42813554  0.23624952  1
  O2-  O163  1  0.67770761  0.42475236  0.57763616  1
  O2-  O164  1  0.67876280  0.43062557  0.89731745  1
  O2-  O165  1  0.66954855  0.93395913  0.24412575  1
  O2-  O166  1  0.67952517  0.93362706  0.56551498  1
  O2-  O167  1  0.67766304  0.92879616  0.90048987  1
  O2-  O168  1  0.42940447  0.32303315  0.09084755  1
  O2-  O169  1  0.42706544  0.31840091  0.42417010  1
  O2-  O170  1  0.42682777  0.31767529  0.75845776  1
  O2-  O171  1  0.42918016  0.81785701  0.09866728  1
  O2-  O172  1  0.43292312  0.81927885  0.43124271  1
  O2-  O173  1  0.43011560  0.82481998  0.76434997  1
  O2-  O174  1  0.92651446  0.31832668  0.09887893  1
  O2-  O175  1  0.93149363  0.31697591  0.43238283  1
  O2-  O176  1  0.92724697  0.31994859  0.76500317  1
  O2-  O177  1  0.93084082  0.82075369  0.09998040  1
  O2-  O178  1  0.93046761  0.82326451  0.43329922  1
  O2-  O179  1  0.93020922  0.82231808  0.76822202  1
  O2-  O180  1  0.32448248  0.07541856  0.24671628  1
  O2-  O181  1  0.32003165  0.07613181  0.57511070  1
  O2-  O182  1  0.32126606  0.07266644  0.90074350  1
  O2-  O183  1  0.31916618  0.56777376  0.23453332  1
  O2-  O184  1  0.32401137  0.57128146  0.58082907  1
  O2-  O185  1  0.32297023  0.56535968  0.90974512  1
  O2-  O186  1  0.81736898  0.07147192  0.23593005  1
  O2-  O187  1  0.81946390  0.07655468  0.57811439  1
  O2-  O188  1  0.81604300  0.07261246  0.89906950  1
  O2-  O189  1  0.82057978  0.56957180  0.23567588  1
  O2-  O190  1  0.82238193  0.56904752  0.57788152  1
  O2-  O191  1  0.82223068  0.57298518  0.90986250  1
  O2-  O192  1  0.04944196  0.08336101  0.27243359  1
  O2-  O193  1  0.05236159  0.08613880  0.60248515  1
  O2-  O194  1  0.05141221  0.08589890  0.93661171  1
  O2-  O195  1  0.04575397  0.58010647  0.26571131  1
  O2-  O196  1  0.04077240  0.58700023  0.60381904  1
  O2-  O197  1  0.04241286  0.58546977  0.93331614  1
  O2-  O198  1  0.54032817  0.09035560  0.26640341  1
  O2-  O199  1  0.53984312  0.09125949  0.60028712  1
  O2-  O200  1  0.54379781  0.08976434  0.93390499  1
  O2-  O201  1  0.53946650  0.58128611  0.27031051  1
  O2-  O202  1  0.54481074  0.57753801  0.59659036  1
  O2-  O203  1  0.53921146  0.58399586  0.93498555  1
  O2-  O204  1  0.16937518  0.20142014  0.26882435  1
  O2-  O205  1  0.16750977  0.20862508  0.60041038  1
  O2-  O206  1  0.16789642  0.20777504  0.93729990  1
  O2-  O207  1  0.16867432  0.70830973  0.26599912  1
  O2-  O208  1  0.16742849  0.69707167  0.61047928  1
  O2-  O209  1  0.16692354  0.69776978  0.93346302  1
  O2-  O210  1  0.66105083  0.20833626  0.26906704  1
  O2-  O211  1  0.66125457  0.20827597  0.60127518  1
  O2-  O212  1  0.65913878  0.21312851  0.93251966  1
  O2-  O213  1  0.66655878  0.69324477  0.27044247  1
  O2-  O214  1  0.66946809  0.70515958  0.59621469  1
  O2-  O215  1  0.66711270  0.69283103  0.93988512  1
  O2-  O216  1  0.07948118  0.45972152  0.06816540  1
  O2-  O217  1  0.08221612  0.44918273  0.39284333  1
  O2-  O218  1  0.08272686  0.46210288  0.73437052  1
  O2-  O219  1  0.08371513  0.95896040  0.06841663  1
  O2-  O220  1  0.08734474  0.96345298  0.40607766  1
  O2-  O221  1  0.08837281  0.96150128  0.72977055  1
  O2-  O222  1  0.58246180  0.45803475  0.06574881  1
  O2-  O223  1  0.58010243  0.45297272  0.40237011  1
  O2-  O224  1  0.58499546  0.45274632  0.72893611  1
  O2-  O225  1  0.58481260  0.96390642  0.06793231  1
  O2-  O226  1  0.58555869  0.96534788  0.39765544  1
  O2-  O227  1  0.58553971  0.96672376  0.73161883  1
  O2-  O228  1  0.20820021  0.33543022  0.07109757  1
  O2-  O229  1  0.20585887  0.33292569  0.39623866  1
  O2-  O230  1  0.21143938  0.33431585  0.73474474  1
  O2-  O231  1  0.20577345  0.82583033  0.06367188  1
  O2-  O232  1  0.21258264  0.83412870  0.40337982  1
  O2-  O233  1  0.20156347  0.83550915  0.72897203  1
  O2-  O234  1  0.70762610  0.33312288  0.06506817  1
  O2-  O235  1  0.70708147  0.32931098  0.40234377  1
  O2-  O236  1  0.70649348  0.33488783  0.72875389  1
  O2-  O237  1  0.69477099  0.82353387  0.06448952  1
  O2-  O238  1  0.68802915  0.82990930  0.38975523  1
  O2-  O239  1  0.70607018  0.83071244  0.73132874  1
  O2-  O240  1  0.45395385  0.41433277  0.27249186  1
  O2-  O241  1  0.45127213  0.41359346  0.60723904  1
  O2-  O242  1  0.45643008  0.41252987  0.93638005  1
  O2-  O243  1  0.45834781  0.91836268  0.26588901  1
  O2-  O244  1  0.45710881  0.92142737  0.59738772  1
  O2-  O245  1  0.45877959  0.92036973  0.93449702  1
  O2-  O246  1  0.95603892  0.41464204  0.26454438  1
  O2-  O247  1  0.96136573  0.41766885  0.59937940  1
  O2-  O248  1  0.95702179  0.41802186  0.93277810  1
  O2-  O249  1  0.95891346  0.92341628  0.27135642  1
  O2-  O250  1  0.95725283  0.92250853  0.60343230  1
  O2-  O251  1  0.95969570  0.91993005  0.93335010  1
  O2-  O252  1  0.33648293  0.29322258  0.27052833  1
  O2-  O253  1  0.33742179  0.28914010  0.60418105  1
  O2-  O254  1  0.33456683  0.29402385  0.93978737  1
  O2-  O255  1  0.33502972  0.78526135  0.26709568  1
  O2-  O256  1  0.32826157  0.79440942  0.60082888  1
  O2-  O257  1  0.33496944  0.78891155  0.92963218  1
  O2-  O258  1  0.83197658  0.28323054  0.26887588  1
  O2-  O259  1  0.83258730  0.29036062  0.59674438  1
  O2-  O260  1  0.83165874  0.28746918  0.93132096  1
  O2-  O261  1  0.82593799  0.79992738  0.26870646  1
  O2-  O262  1  0.83504711  0.79099120  0.60114047  1
  O2-  O263  1  0.83204504  0.78918895  0.93462267  1
  O2-  O264  1  0.42340671  0.05130348  0.06582004  1
  O2-  O265  1  0.41902679  0.04927920  0.39676028  1
  O2-  O266  1  0.41474178  0.04801789  0.72611851  1
  O2-  O267  1  0.41267041  0.54054914  0.06378077  1
  O2-  O268  1  0.41268917  0.53735601  0.40539324  1
  O2-  O269  1  0.41746092  0.54481141  0.73178352  1
  O2-  O270  1  0.92232472  0.05272644  0.06399380  1
  O2-  O271  1  0.91885771  0.04835049  0.40489979  1
  O2-  O272  1  0.92002211  0.05883708  0.72593389  1
  O2-  O273  1  0.91661224  0.54918449  0.06098315  1
  O2-  O274  1  0.92065854  0.54161372  0.40174618  1
  O2-  O275  1  0.91101765  0.54158814  0.73171981  1
  O2-  O276  1  0.29364913  0.16832283  0.07042976  1
  O2-  O277  1  0.29767637  0.16660982  0.39883610  1
  O2-  O278  1  0.29185228  0.16178594  0.73005089  1
  O2-  O279  1  0.29826731  0.66448843  0.05891193  1
  O2-  O280  1  0.28819936  0.66552958  0.40481201  1
  O2-  O281  1  0.29959423  0.66678178  0.73238137  1
  O2-  O282  1  0.78240852  0.16431953  0.06650007  1
  O2-  O283  1  0.78070267  0.16031614  0.40522436  1
  O2-  O284  1  0.78854741  0.16585557  0.72935105  1
  O2-  O285  1  0.79553551  0.66421905  0.06446734  1
  O2-  O286  1  0.79360454  0.67149945  0.40221981  1
  O2-  O287  1  0.79158078  0.66183546  0.73011255  1
