# generated using pymatgen
data_Ca2Al2SiO7
_symmetry_space_group_name_H-M   'P 1'
_cell_length_a   15.46499250
_cell_length_b   15.46422963
_cell_length_c   15.28792987
_cell_angle_alpha   89.99612997
_cell_angle_beta   90.02056973
_cell_angle_gamma   89.99853757
_symmetry_Int_Tables_number   1
_chemical_formula_structural   Ca2Al2SiO7
_chemical_formula_sum   'Ca48 Al48 Si24 O168'
_cell_volume   3656.17232150
_cell_formula_units_Z   24
loop_
 _symmetry_equiv_pos_site_id
 _symmetry_equiv_pos_as_xyz
  1  'x, y, z'
loop_
 _atom_type_symbol
 _atom_type_oxidation_number
  Ca2+  2.0
  Al0+  0.0
  Si0+  0.0
  O2-  -2.0
loop_
 _atom_site_type_symbol
 _atom_site_label
 _atom_site_symmetry_multiplicity
 _atom_site_fract_x
 _atom_site_fract_y
 _atom_site_fract_z
 _atom_site_occupancy
  Ca2+  Ca0  1  0.17165056  0.08175806  0.16816609  1
  Ca2+  Ca1  1  0.16521971  0.08466234  0.50136350  1
  Ca2+  Ca2  1  0.17581606  0.07411725  0.84940021  1
  Ca2+  Ca3  1  0.16112670  0.58140875  0.16737080  1
  Ca2+  Ca4  1  0.16902811  0.58160251  0.50932701  1
  Ca2+  Ca5  1  0.16764283  0.57913213  0.83746823  1
  Ca2+  Ca6  1  0.66893223  0.07884391  0.17128572  1
  Ca2+  Ca7  1  0.66446655  0.08509437  0.49842395  1
  Ca2+  Ca8  1  0.66784679  0.08355427  0.84585158  1
  Ca2+  Ca9  1  0.66432822  0.58033806  0.17110150  1
  Ca2+  Ca10  1  0.67536393  0.57771444  0.50456763  1
  Ca2+  Ca11  1  0.66047897  0.57206274  0.84100687  1
  Ca2+  Ca12  1  0.08242904  0.32884468  0.16237684  1
  Ca2+  Ca13  1  0.08486694  0.33055369  0.49419452  1
  Ca2+  Ca14  1  0.08543790  0.33834343  0.83223593  1
  Ca2+  Ca15  1  0.07927032  0.82491316  0.15984740  1
  Ca2+  Ca16  1  0.07620837  0.82034033  0.49005077  1
  Ca2+  Ca17  1  0.09385094  0.82113581  0.83302580  1
  Ca2+  Ca18  1  0.57474807  0.32821334  0.15617893  1
  Ca2+  Ca19  1  0.58246692  0.32620399  0.49385606  1
  Ca2+  Ca20  1  0.58793550  0.32482708  0.83021165  1
  Ca2+  Ca21  1  0.58636481  0.83227911  0.15548913  1
  Ca2+  Ca22  1  0.58351487  0.83358729  0.49348044  1
  Ca2+  Ca23  1  0.58066928  0.83533162  0.83811841  1
  Ca2+  Ca24  1  0.33246782  0.40830403  0.16721599  1
  Ca2+  Ca25  1  0.32913013  0.42143334  0.50767371  1
  Ca2+  Ca26  1  0.32347879  0.41666369  0.84114075  1
  Ca2+  Ca27  1  0.33538038  0.91885943  0.16244002  1
  Ca2+  Ca28  1  0.33145669  0.91999903  0.50339277  1
  Ca2+  Ca29  1  0.33142374  0.92121591  0.84646792  1
  Ca2+  Ca30  1  0.82529023  0.42321960  0.16771353  1
  Ca2+  Ca31  1  0.83095536  0.42146731  0.50203822  1
  Ca2+  Ca32  1  0.81977408  0.41503820  0.83897968  1
  Ca2+  Ca33  1  0.82419195  0.92196545  0.17366396  1
  Ca2+  Ca34  1  0.83309619  0.91777489  0.49316602  1
  Ca2+  Ca35  1  0.82664722  0.92591981  0.84458363  1
  Ca2+  Ca36  1  0.42637108  0.17256375  0.15912545  1
  Ca2+  Ca37  1  0.42763710  0.17654709  0.49066128  1
  Ca2+  Ca38  1  0.42582826  0.16666087  0.83587363  1
  Ca2+  Ca39  1  0.42511830  0.67567963  0.15522733  1
  Ca2+  Ca40  1  0.41458762  0.66502970  0.49884207  1
  Ca2+  Ca41  1  0.41617215  0.66861522  0.83714028  1
  Ca2+  Ca42  1  0.91810980  0.15512049  0.16583256  1
  Ca2+  Ca43  1  0.92235854  0.16773603  0.49048190  1
  Ca2+  Ca44  1  0.91351995  0.16658088  0.83302903  1
  Ca2+  Ca45  1  0.92036088  0.66795568  0.16452684  1
  Ca2+  Ca46  1  0.92562852  0.66643497  0.48813377  1
  Ca2+  Ca47  1  0.92895271  0.66524227  0.83089602  1
  Al0+  Al48  1  0.00082152  -0.00171741  0.00455943  1
  Al0+  Al49  1  -0.00115164  -0.00206224  0.33086449  1
  Al0+  Al50  1  -0.00128766  -0.00078117  0.66679167  1
  Al0+  Al51  1  0.00050706  0.49881311  -0.00098443  1
  Al0+  Al52  1  0.00048667  0.49791976  0.33427350  1
  Al0+  Al53  1  0.00029575  0.49987331  0.66493956  1
  Al0+  Al54  1  0.50012051  0.00080108  -0.00014420  1
  Al0+  Al55  1  0.49794254  0.00100829  0.33613715  1
  Al0+  Al56  1  0.50076294  0.00026703  0.66124764  1
  Al0+  Al57  1  0.49704818  0.49983182  -0.00255375  1
  Al0+  Al58  1  0.49656919  0.50102006  0.33234600  1
  Al0+  Al59  1  0.49984571  0.50179793  0.67320376  1
  Al0+  Al60  1  0.24924405  0.24966262  0.00400274  1
  Al0+  Al61  1  0.24898050  0.24976201  0.32848560  1
  Al0+  Al62  1  0.25156599  0.24988428  0.66984780  1
  Al0+  Al63  1  0.25033857  0.74859891  -0.00333127  1
  Al0+  Al64  1  0.25001782  0.74866067  0.33110523  1
  Al0+  Al65  1  0.25010259  0.75049292  0.66442727  1
  Al0+  Al66  1  0.75148673  0.25329016  0.00630814  1
  Al0+  Al67  1  0.75072012  0.24898787  0.33417319  1
  Al0+  Al68  1  0.75170069  0.24945373  0.66347403  1
  Al0+  Al69  1  0.75344442  0.74983301  -0.00484919  1
  Al0+  Al70  1  0.75059682  0.74928856  0.33984682  1
  Al0+  Al71  1  0.74952129  0.75258384  0.66720308  1
  Al0+  Al72  1  0.82213994  0.07177726  0.35124486  1
  Al0+  Al73  1  0.67620568  0.43128903  0.01427677  1
  Al0+  Al74  1  0.17867690  0.42781893  0.68167503  1
  Al0+  Al75  1  0.07210612  0.67675388  0.31667683  1
  Al0+  Al76  1  0.43052521  0.82184441  0.98551708  1
  Al0+  Al77  1  0.67961855  0.92806207  0.01271227  1
  Al0+  Al78  1  0.57313724  0.18184965  0.98574463  1
  Al0+  Al79  1  0.57492266  0.67795455  0.98511008  1
  Al0+  Al80  1  0.17959625  0.92507472  0.01627696  1
  Al0+  Al81  1  0.57242783  0.17824092  0.31678944  1
  Al0+  Al82  1  0.82109261  0.56938529  0.34620450  1
  Al0+  Al83  1  0.17817363  0.43003369  0.01641213  1
  Al0+  Al84  1  0.32117508  0.57413475  0.68378596  1
  Al0+  Al85  1  0.92695923  0.81916769  0.31668282  1
  Al0+  Al86  1  0.82140457  0.07352682  0.01508692  1
  Al0+  Al87  1  0.32190699  0.07155567  0.01645616  1
  Al0+  Al88  1  0.06984468  0.17845332  0.31965855  1
  Al0+  Al89  1  0.06979827  0.67986596  0.65130612  1
  Al0+  Al90  1  0.57176491  0.17960957  0.65109254  1
  Al0+  Al91  1  0.67655617  0.92952441  0.35033170  1
  Al0+  Al92  1  0.68149066  0.42877302  0.67870967  1
  Al0+  Al93  1  0.06962319  0.67796476  0.98476271  1
  Al0+  Al94  1  0.42563422  0.32116122  0.98201461  1
  Al0+  Al95  1  0.42947824  0.32306778  0.31891974  1
  Si0+  Si96  1  0.57237073  0.67788762  0.65080901  1
  Si0+  Si97  1  0.92931400  0.82377002  0.98068313  1
  Si0+  Si98  1  0.18006277  0.42806202  0.34786664  1
  Si0+  Si99  1  0.82228339  0.57394161  0.68326965  1
  Si0+  Si100  1  0.67678539  0.92936865  0.68248771  1
  Si0+  Si101  1  0.32055948  0.57258877  0.34777392  1
  Si0+  Si102  1  0.17884346  0.93128801  0.67916535  1
  Si0+  Si103  1  0.82281652  0.57099599  0.01348023  1
  Si0+  Si104  1  0.17966812  0.92705031  0.34917401  1
  Si0+  Si105  1  0.32097508  0.57165664  0.01903505  1
  Si0+  Si106  1  0.92770820  0.32260749  0.31637369  1
  Si0+  Si107  1  0.57024865  0.68013982  0.32286411  1
  Si0+  Si108  1  0.92608641  0.82383857  0.64861967  1
  Si0+  Si109  1  0.67490608  0.42917087  0.34913738  1
  Si0+  Si110  1  0.32249759  0.07005517  0.67984902  1
  Si0+  Si111  1  0.42767893  0.82157456  0.32055789  1
  Si0+  Si112  1  0.07212297  0.17740114  0.65501208  1
  Si0+  Si113  1  0.31845424  0.07189689  0.35063200  1
  Si0+  Si114  1  0.43043968  0.82089479  0.65006590  1
  Si0+  Si115  1  0.07005869  0.17736023  0.98542237  1
  Si0+  Si116  1  0.93047495  0.32124977  0.98484487  1
  Si0+  Si117  1  0.92973162  0.31958817  0.65196398  1
  Si0+  Si118  1  0.82122568  0.07000074  0.68072512  1
  Si0+  Si119  1  0.42736387  0.32320072  0.65135274  1
  O2-  O120  1  0.25051378  -0.00194149  0.06621514  1
  O2-  O121  1  0.24814122  -0.00003925  0.39399955  1
  O2-  O122  1  0.24775496  0.00332526  0.72192488  1
  O2-  O123  1  0.25411564  0.50205868  0.06477947  1
  O2-  O124  1  0.24965178  0.50083485  0.38912228  1
  O2-  O125  1  0.25016662  0.50000510  0.73184799  1
  O2-  O126  1  0.74859712  0.00195056  0.06328370  1
  O2-  O127  1  0.74693746  0.00308889  0.40209882  1
  O2-  O128  1  0.74909623  0.00015020  0.72198908  1
  O2-  O129  1  0.74589961  0.51212493  0.05830576  1
  O2-  O130  1  0.74622275  0.49498850  0.39402811  1
  O2-  O131  1  0.75226525  0.50693239  0.72719124  1
  O2-  O132  1  -0.00881642  0.24880533  0.27291829  1
  O2-  O133  1  0.00535290  0.25193227  0.61199828  1
  O2-  O134  1  -0.00172599  0.24685122  0.94196468  1
  O2-  O135  1  -0.00057808  0.74764279  0.26723911  1
  O2-  O136  1  -0.00824718  0.75157919  0.60558484  1
  O2-  O137  1  -0.00109403  0.75583831  0.93632532  1
  O2-  O138  1  0.50437300  0.25466662  0.26939746  1
  O2-  O139  1  0.49798217  0.25677325  0.60660927  1
  O2-  O140  1  0.50185413  0.25324293  0.93241504  1
  O2-  O141  1  0.50384846  0.75534300  0.28124318  1
  O2-  O142  1  0.50061340  0.74859731  0.60803694  1
  O2-  O143  1  0.50408941  0.75151468  0.93461399  1
  O2-  O144  1  0.06932363  0.17879489  0.09032807  1
  O2-  O145  1  0.07239620  0.18283311  0.43401910  1
  O2-  O146  1  0.06943146  0.17348559  0.75967404  1
  O2-  O147  1  0.06520678  0.67631069  0.09730520  1
  O2-  O148  1  0.07361314  0.67834572  0.43082483  1
  O2-  O149  1  0.06997806  0.68174462  0.76422778  1
  O2-  O150  1  0.57335134  0.18323660  0.09864954  1
  O2-  O151  1  0.56799367  0.18051752  0.43139223  1
  O2-  O152  1  0.57274129  0.17687055  0.76348241  1
  O2-  O153  1  0.57287204  0.67880151  0.09952765  1
  O2-  O154  1  0.56654116  0.67817076  0.42849369  1
  O2-  O155  1  0.57484414  0.67977917  0.75509528  1
  O2-  O156  1  0.17957046  0.42748920  0.24318958  1
  O2-  O157  1  0.18005158  0.42525158  0.56756506  1
  O2-  O158  1  0.17634458  0.43203653  0.90337690  1
  O2-  O159  1  0.18376062  0.92543680  0.24494873  1
  O2-  O160  1  0.17958993  0.93299585  0.57367766  1
  O2-  O161  1  0.18033201  0.92855193  0.90134299  1
  O2-  O162  1  0.67334639  0.43374519  0.24393802  1
  O2-  O163  1  0.68502532  0.43002436  0.56532096  1
  O2-  O164  1  0.68163930  0.42826050  0.90084029  1
  O2-  O165  1  0.67558722  0.92691036  0.23766776  1
  O2-  O166  1  0.67510163  0.92784644  0.57774017  1
  O2-  O167  1  0.68262879  0.92974392  0.89811277  1
  O2-  O168  1  0.42734466  0.31872808  0.09556399  1
  O2-  O169  1  0.42842531  0.32337124  0.43341032  1
  O2-  O170  1  0.42471400  0.31932544  0.75604401  1
  O2-  O171  1  0.42983773  0.81839976  0.09947575  1
  O2-  O172  1  0.42459206  0.81879274  0.42637055  1
  O2-  O173  1  0.43099889  0.82479151  0.75423230  1
  O2-  O174  1  0.93305669  0.32513743  0.08951505  1
  O2-  O175  1  0.93212770  0.32484364  0.42265698  1
  O2-  O176  1  0.92634853  0.31701367  0.75694911  1
  O2-  O177  1  0.92827979  0.82225271  0.08573391  1
  O2-  O178  1  0.93097348  0.81710917  0.43119544  1
  O2-  O179  1  0.92688824  0.82712851  0.75375266  1
  O2-  O180  1  0.31810336  0.07091952  0.24634858  1
  O2-  O181  1  0.32071252  0.06818708  0.57430447  1
  O2-  O182  1  0.31850807  0.07051061  0.90160423  1
  O2-  O183  1  0.32260553  0.57557465  0.24361257  1
  O2-  O184  1  0.31923073  0.57371222  0.56916260  1
  O2-  O185  1  0.31787915  0.57249085  0.91347107  1
  O2-  O186  1  0.82325541  0.06789469  0.23877411  1
  O2-  O187  1  0.82524102  0.06957172  0.57632057  1
  O2-  O188  1  0.82190153  0.07252258  0.90011065  1
  O2-  O189  1  0.81908437  0.56770871  0.23327815  1
  O2-  O190  1  0.82156322  0.57204473  0.57746458  1
  O2-  O191  1  0.82587726  0.56515408  0.90769175  1
  O2-  O192  1  0.04515780  0.08047404  0.26729111  1
  O2-  O193  1  0.04131265  0.08707334  0.60511532  1
  O2-  O194  1  0.04444757  0.08474365  0.93781102  1
  O2-  O195  1  0.04456422  0.57706360  0.26751180  1
  O2-  O196  1  0.04214592  0.58157248  0.59820929  1
  O2-  O197  1  0.03473272  0.58267406  0.92991309  1
  O2-  O198  1  0.53815316  0.08032521  0.26781586  1
  O2-  O199  1  0.53829803  0.08398490  0.59580453  1
  O2-  O200  1  0.54457960  0.08295195  0.93366375  1
  O2-  O201  1  0.53871370  0.59061181  0.27383715  1
  O2-  O202  1  0.54539657  0.58568549  0.60334744  1
  O2-  O203  1  0.54189057  0.58133021  0.93164495  1
  O2-  O204  1  0.16379002  0.21227594  0.26394746  1
  O2-  O205  1  0.16550260  0.20127308  0.60803191  1
  O2-  O206  1  0.16114559  0.20650355  0.93821357  1
  O2-  O207  1  0.17042247  0.70629594  0.26484145  1
  O2-  O208  1  0.16587894  0.71387979  0.59733047  1
  O2-  O209  1  0.16651197  0.70688372  0.93071949  1
  O2-  O210  1  0.67429515  0.19843899  0.26968083  1
  O2-  O211  1  0.66884187  0.20992726  0.59718793  1
  O2-  O212  1  0.67280219  0.21227750  0.93447220  1
  O2-  O213  1  0.66363260  0.70206554  0.27827689  1
  O2-  O214  1  0.66434147  0.70730121  0.60303657  1
  O2-  O215  1  0.67408037  0.70108743  0.93028321  1
  O2-  O216  1  0.08174831  0.46215343  0.06986446  1
  O2-  O217  1  0.08811028  0.45325366  0.39642304  1
  O2-  O218  1  0.07832509  0.45386909  0.73202840  1
  O2-  O219  1  0.08173150  0.95313732  0.06843671  1
  O2-  O220  1  0.08745834  0.95327523  0.39597124  1
  O2-  O221  1  0.08661336  0.95665803  0.72660022  1
  O2-  O222  1  0.57822396  0.45791416  0.06648225  1
  O2-  O223  1  0.58253325  0.45849590  0.39658735  1
  O2-  O224  1  0.58434713  0.45534174  0.73221731  1
  O2-  O225  1  0.57979777  0.95032855  0.06305911  1
  O2-  O226  1  0.57665431  0.95587883  0.40463065  1
  O2-  O227  1  0.58466887  0.95835465  0.72802946  1
  O2-  O228  1  0.20506435  0.33241481  0.06930572  1
  O2-  O229  1  0.20889573  0.33639502  0.39583381  1
  O2-  O230  1  0.20470829  0.32828836  0.73506286  1
  O2-  O231  1  0.20768323  0.82658401  0.06763643  1
  O2-  O232  1  0.21162487  0.83628803  0.39808946  1
  O2-  O233  1  0.20925137  0.84020248  0.72494111  1
  O2-  O234  1  0.71476890  0.33971699  0.07136713  1
  O2-  O235  1  0.69916576  0.33459727  0.39323878  1
  O2-  O236  1  0.71780621  0.33331060  0.73198941  1
  O2-  O237  1  0.70953128  0.82862289  0.06305175  1
  O2-  O238  1  0.70644456  0.83157225  0.40572438  1
  O2-  O239  1  0.70318106  0.83709826  0.72976450  1
  O2-  O240  1  0.45209496  0.42300844  0.26599717  1
  O2-  O241  1  0.45014516  0.41917549  0.60859682  1
  O2-  O242  1  0.44642100  0.42208663  0.93260445  1
  O2-  O243  1  0.44867797  0.91548967  0.27640064  1
  O2-  O244  1  0.45940600  0.91113478  0.59902086  1
  O2-  O245  1  0.45565821  0.92016839  0.93062346  1
  O2-  O246  1  0.95941190  0.41287281  0.26819315  1
  O2-  O247  1  0.95371415  0.41219955  0.60400320  1
  O2-  O248  1  0.96181985  0.40997721  0.93354634  1
  O2-  O249  1  0.95489174  0.91723327  0.26547606  1
  O2-  O250  1  0.95644680  0.91606747  0.60105760  1
  O2-  O251  1  0.95502436  0.91789839  0.93491357  1
  O2-  O252  1  0.33218956  0.29185145  0.26693290  1
  O2-  O253  1  0.33437842  0.29464511  0.60348850  1
  O2-  O254  1  0.32700151  0.28892690  0.93097338  1
  O2-  O255  1  0.33898673  0.78925563  0.27128044  1
  O2-  O256  1  0.33847021  0.79433331  0.60132644  1
  O2-  O257  1  0.33304576  0.79125078  0.93075429  1
  O2-  O258  1  0.83164247  0.30479358  0.27368634  1
  O2-  O259  1  0.84164814  0.28776253  0.59999890  1
  O2-  O260  1  0.83839052  0.29488359  0.93742006  1
  O2-  O261  1  0.82783956  0.78939362  0.26722984  1
  O2-  O262  1  0.83062864  0.80247394  0.60392766  1
  O2-  O263  1  0.83747248  0.79752549  0.93094220  1
  O2-  O264  1  0.41957585  0.04324470  0.06905678  1
  O2-  O265  1  0.40904680  0.04351800  0.40036267  1
  O2-  O266  1  0.41291111  0.03694830  0.72591114  1
  O2-  O267  1  0.41547498  0.54936612  0.06402551  1
  O2-  O268  1  0.41171869  0.54507417  0.39824566  1
  O2-  O269  1  0.42114437  0.55264457  0.73533996  1
  O2-  O270  1  0.91977803  0.04446082  0.06630477  1
  O2-  O271  1  0.92139457  0.04032205  0.40426580  1
  O2-  O272  1  0.91267730  0.04177414  0.73005916  1
  O2-  O273  1  0.91131892  0.53479067  0.06235035  1
  O2-  O274  1  0.91701415  0.53575961  0.40206938  1
  O2-  O275  1  0.91551151  0.54617312  0.72791986  1
  O2-  O276  1  0.28920063  0.16726877  0.07078880  1
  O2-  O277  1  0.28715921  0.16311326  0.39803366  1
  O2-  O278  1  0.29973810  0.16262623  0.72656102  1
  O2-  O279  1  0.29398485  0.66491374  0.06425162  1
  O2-  O280  1  0.29271717  0.66382951  0.39775686  1
  O2-  O281  1  0.29137900  0.67307279  0.73486285  1
  O2-  O282  1  0.79950029  0.17240793  0.06847296  1
  O2-  O283  1  0.80003177  0.17323501  0.40344414  1
  O2-  O284  1  0.79529470  0.16258100  0.72675194  1
  O2-  O285  1  0.80816885  0.66796439  0.05488734  1
  O2-  O286  1  0.79113376  0.66367176  0.40481725  1
  O2-  O287  1  0.79969275  0.66910702  0.72719380  1
