# generated using pymatgen
data_Ca2Al2SiO7
_symmetry_space_group_name_H-M   'P 1'
_cell_length_a   15.45802702
_cell_length_b   15.45823971
_cell_length_c   15.28429659
_cell_angle_alpha   89.99503661
_cell_angle_beta   89.99942767
_cell_angle_gamma   90.00450395
_symmetry_Int_Tables_number   1
_chemical_formula_structural   Ca2Al2SiO7
_chemical_formula_sum   'Ca48 Al48 Si24 O168'
_cell_volume   3652.24205765
_cell_formula_units_Z   24
loop_
 _symmetry_equiv_pos_site_id
 _symmetry_equiv_pos_as_xyz
  1  'x, y, z'
loop_
 _atom_type_symbol
 _atom_type_oxidation_number
  Ca2+  2.0
  Al0+  0.0
  Si0+  0.0
  O2-  -2.0
loop_
 _atom_site_type_symbol
 _atom_site_label
 _atom_site_symmetry_multiplicity
 _atom_site_fract_x
 _atom_site_fract_y
 _atom_site_fract_z
 _atom_site_occupancy
  Ca2+  Ca0  1  0.16535271  0.07503013  0.16438390  1
  Ca2+  Ca1  1  0.16994503  0.07595667  0.50764662  1
  Ca2+  Ca2  1  0.17352631  0.08508887  0.84094064  1
  Ca2+  Ca3  1  0.17515610  0.57591645  0.17236328  1
  Ca2+  Ca4  1  0.17447562  0.58550817  0.50670708  1
  Ca2+  Ca5  1  0.17526076  0.58652890  0.83849166  1
  Ca2+  Ca6  1  0.66912041  0.07866194  0.16738708  1
  Ca2+  Ca7  1  0.67452457  0.08245735  0.50312285  1
  Ca2+  Ca8  1  0.66833190  0.07355662  0.84333094  1
  Ca2+  Ca9  1  0.66215920  0.58115153  0.16232518  1
  Ca2+  Ca10  1  0.67233706  0.58733351  0.51011907  1
  Ca2+  Ca11  1  0.66937447  0.58715040  0.83953651  1
  Ca2+  Ca12  1  0.08958956  0.33001198  0.15822778  1
  Ca2+  Ca13  1  0.08461940  0.33105976  0.49932233  1
  Ca2+  Ca14  1  0.08908603  0.32531764  0.82820938  1
  Ca2+  Ca15  1  0.07936584  0.84283999  0.15983287  1
  Ca2+  Ca16  1  0.08674020  0.82837395  0.50022051  1
  Ca2+  Ca17  1  0.07420398  0.83474649  0.82872029  1
  Ca2+  Ca18  1  0.58216091  0.32759752  0.15523305  1
  Ca2+  Ca19  1  0.57996561  0.33284771  0.49744605  1
  Ca2+  Ca20  1  0.58725305  0.32840271  0.83522391  1
  Ca2+  Ca21  1  0.57582731  0.82920791  0.15766440  1
  Ca2+  Ca22  1  0.56949925  0.82680233  0.50004680  1
  Ca2+  Ca23  1  0.57914896  0.82391726  0.82857653  1
  Ca2+  Ca24  1  0.32469875  0.42571404  0.16722570  1
  Ca2+  Ca25  1  0.32863749  0.42823282  0.50402068  1
  Ca2+  Ca26  1  0.32813563  0.42891899  0.84104471  1
  Ca2+  Ca27  1  0.32415366  0.91682117  0.16963829  1
  Ca2+  Ca28  1  0.33219092  0.91420685  0.50622695  1
  Ca2+  Ca29  1  0.32951736  0.92331207  0.83860808  1
  Ca2+  Ca30  1  0.82381098  0.41177500  0.16704325  1
  Ca2+  Ca31  1  0.83218611  0.42080340  0.51060827  1
  Ca2+  Ca32  1  0.83295841  0.42069836  0.83384364  1
  Ca2+  Ca33  1  0.82817996  0.91854121  0.16708029  1
  Ca2+  Ca34  1  0.83490917  0.91851309  0.50428735  1
  Ca2+  Ca35  1  0.82981687  0.90794802  0.84095549  1
  Ca2+  Ca36  1  0.41858260  0.16810415  0.15540472  1
  Ca2+  Ca37  1  0.41412142  0.16486542  0.49930936  1
  Ca2+  Ca38  1  0.41755753  0.15963206  0.83027836  1
  Ca2+  Ca39  1  0.41372354  0.66753763  0.16235209  1
  Ca2+  Ca40  1  0.40775352  0.67357191  0.49795595  1
  Ca2+  Ca41  1  0.42284879  0.66527677  0.82592629  1
  Ca2+  Ca42  1  0.92226797  0.16477314  0.15932715  1
  Ca2+  Ca43  1  0.92051147  0.16945435  0.49897817  1
  Ca2+  Ca44  1  0.93308247  0.17240141  0.82676167  1
  Ca2+  Ca45  1  0.92147492  0.67570878  0.15712945  1
  Ca2+  Ca46  1  0.92106331  0.66645444  0.50464672  1
  Ca2+  Ca47  1  0.92087867  0.67554710  0.82328600  1
  Al0+  Al48  1  -0.00012097  0.00308963  -0.00707405  1
  Al0+  Al49  1  0.00009449  0.00116949  0.34157346  1
  Al0+  Al50  1  -0.00046893  0.00167142  0.65951605  1
  Al0+  Al51  1  -0.00049090  0.50183883  0.00351779  1
  Al0+  Al52  1  -0.00239630  0.49832653  0.33324361  1
  Al0+  Al53  1  -0.00238984  0.49939448  0.66481793  1
  Al0+  Al54  1  0.50169903  -0.00018182  0.00385563  1
  Al0+  Al55  1  0.50123800  -0.00232155  0.32853020  1
  Al0+  Al56  1  0.50128611  -0.00090262  0.66549620  1
  Al0+  Al57  1  0.50202063  0.49978415  0.00383363  1
  Al0+  Al58  1  0.50020160  0.49870300  0.33607205  1
  Al0+  Al59  1  0.50066537  0.49642142  0.66668340  1
  Al0+  Al60  1  0.25154046  0.25183223  0.00227625  1
  Al0+  Al61  1  0.25008773  0.24991339  0.33429099  1
  Al0+  Al62  1  0.25238731  0.24856947  0.66485975  1
  Al0+  Al63  1  0.24895177  0.75241012  0.00715852  1
  Al0+  Al64  1  0.24922685  0.75073520  0.33427163  1
  Al0+  Al65  1  0.24900866  0.75111390  0.66700799  1
  Al0+  Al66  1  0.74989069  0.25128887  -0.00172040  1
  Al0+  Al67  1  0.75121197  0.24956275  0.33746407  1
  Al0+  Al68  1  0.75098859  0.24824463  0.66436850  1
  Al0+  Al69  1  0.74876476  0.75110043  -0.00022889  1
  Al0+  Al70  1  0.74893870  0.75007338  0.33240840  1
  Al0+  Al71  1  0.74922938  0.74928125  0.66230224  1
  Al0+  Al72  1  0.07482431  0.17989896  0.64862824  1
  Al0+  Al73  1  0.32096324  0.57245285  0.68150620  1
  Al0+  Al74  1  0.42751324  0.81981306  0.31675967  1
  Al0+  Al75  1  0.68136339  0.42882882  0.01267337  1
  Al0+  Al76  1  0.42922450  0.82105525  0.65405407  1
  Al0+  Al77  1  0.93013772  0.82118112  0.98836356  1
  Al0+  Al78  1  0.57157455  0.17747234  0.98646475  1
  Al0+  Al79  1  0.32264257  0.07130936  0.01508011  1
  Al0+  Al80  1  0.32180929  0.07028379  0.67966895  1
  Al0+  Al81  1  0.81997952  0.57108298  0.68078900  1
  Al0+  Al82  1  0.81957428  0.07021173  0.34754041  1
  Al0+  Al83  1  0.92718269  0.82181518  0.64958659  1
  Al0+  Al84  1  0.32271963  0.57319576  0.01481588  1
  Al0+  Al85  1  0.92880100  0.32014947  0.65120012  1
  Al0+  Al86  1  0.07168798  0.67889481  0.65303073  1
  Al0+  Al87  1  0.56811761  0.67872139  0.98723106  1
  Al0+  Al88  1  0.17667558  0.42679734  0.35022017  1
  Al0+  Al89  1  0.32019294  0.57022548  0.35020962  1
  Al0+  Al90  1  0.17728990  0.42953342  0.01295420  1
  Al0+  Al91  1  0.57012161  0.67545790  0.65206163  1
  Al0+  Al92  1  0.17923970  0.93052995  0.34904624  1
  Al0+  Al93  1  0.67937037  0.92697539  0.01324350  1
  Al0+  Al94  1  0.07211404  0.18201987  0.98733621  1
  Al0+  Al95  1  0.17623315  0.93114777  0.01274612  1
  Si0+  Si96  1  0.32474735  0.07137209  0.34874872  1
  Si0+  Si97  1  0.92674519  0.32478519  0.98437224  1
  Si0+  Si98  1  0.92731746  0.32081438  0.31650766  1
  Si0+  Si99  1  0.17628670  0.92880460  0.68389965  1
  Si0+  Si100  1  0.17832969  0.42809433  0.68214749  1
  Si0+  Si101  1  0.67698599  0.92666814  0.35163133  1
  Si0+  Si102  1  0.82003006  0.57242732  0.34734268  1
  Si0+  Si103  1  0.82192228  0.07205594  0.68309657  1
  Si0+  Si104  1  0.42963191  0.32155749  0.98295119  1
  Si0+  Si105  1  0.68103484  0.93040512  0.68061115  1
  Si0+  Si106  1  0.06935917  0.67818591  0.31768931  1
  Si0+  Si107  1  0.57280132  0.18043716  0.31881914  1
  Si0+  Si108  1  0.92897898  0.82223337  0.31816610  1
  Si0+  Si109  1  0.57152816  0.17772015  0.65092573  1
  Si0+  Si110  1  0.57339276  0.67685010  0.31532252  1
  Si0+  Si111  1  0.67772341  0.42472460  0.68379546  1
  Si0+  Si112  1  0.42549199  0.82257890  0.98426588  1
  Si0+  Si113  1  0.07321630  0.67707081  0.98613349  1
  Si0+  Si114  1  0.82121179  0.07228930  0.01317825  1
  Si0+  Si115  1  0.68015699  0.42841068  0.34902446  1
  Si0+  Si116  1  0.42969943  0.32035129  0.65113887  1
  Si0+  Si117  1  0.07025223  0.17915988  0.31752442  1
  Si0+  Si118  1  0.82153168  0.57391152  0.01733853  1
  Si0+  Si119  1  0.42930490  0.32090652  0.31770677  1
  O2-  O120  1  0.25071703  -0.00040861  0.06496027  1
  O2-  O121  1  0.25759605  0.00244897  0.39402591  1
  O2-  O122  1  0.24489611  -0.00149287  0.72618879  1
  O2-  O123  1  0.24656302  0.50403076  0.06282289  1
  O2-  O124  1  0.24624244  0.50023516  0.40078359  1
  O2-  O125  1  0.24303656  0.50019762  0.72661362  1
  O2-  O126  1  0.75281839  0.00401875  0.05872648  1
  O2-  O127  1  0.74572579  -0.00472046  0.39595978  1
  O2-  O128  1  0.75586314  -0.00321540  0.72461175  1
  O2-  O129  1  0.75613539  0.50200055  0.06230755  1
  O2-  O130  1  0.74747338  0.50278790  0.38975465  1
  O2-  O131  1  0.74349551  0.49696450  0.72589483  1
  O2-  O132  1  0.00170502  0.25323563  0.27487944  1
  O2-  O133  1  0.00207484  0.25134123  0.59824673  1
  O2-  O134  1  0.00096893  0.26136660  0.94218673  1
  O2-  O135  1  -0.00105502  0.75060339  0.27549005  1
  O2-  O136  1  0.00087543  0.75135872  0.60006013  1
  O2-  O137  1  0.00515643  0.74674410  0.94297001  1
  O2-  O138  1  0.49859836  0.24744463  0.27613338  1
  O2-  O139  1  0.50111558  0.24894505  0.60852835  1
  O2-  O140  1  0.49506846  0.24940369  0.93822721  1
  O2-  O141  1  0.50239576  0.74346375  0.27239571  1
  O2-  O142  1  0.49388977  0.74270932  0.60200676  1
  O2-  O143  1  0.49044042  0.74997958  0.94080829  1
  O2-  O144  1  0.06743853  0.18015447  0.10104980  1
  O2-  O145  1  0.06878342  0.17996654  0.42222954  1
  O2-  O146  1  0.07499894  0.18177568  0.76230097  1
  O2-  O147  1  0.06921672  0.67551263  0.09218556  1
  O2-  O148  1  0.06708133  0.67759550  0.42253509  1
  O2-  O149  1  0.07090184  0.68071580  0.76674516  1
  O2-  O150  1  0.57316842  0.18126831  0.10015589  1
  O2-  O151  1  0.57361026  0.18309348  0.42438460  1
  O2-  O152  1  0.57293875  0.17729573  0.75566715  1
  O2-  O153  1  0.56905973  0.68067330  0.10073450  1
  O2-  O154  1  0.57793616  0.67804188  0.42050181  1
  O2-  O155  1  0.57109877  0.67834865  0.76555308  1
  O2-  O156  1  0.17857107  0.42724952  0.23684795  1
  O2-  O157  1  0.18228754  0.42710028  0.57645119  1
  O2-  O158  1  0.17906195  0.42940261  0.89938903  1
  O2-  O159  1  0.17493006  0.93456261  0.23626690  1
  O2-  O160  1  0.17804314  0.92933396  0.57788774  1
  O2-  O161  1  0.17480006  0.93246906  0.89961600  1
  O2-  O162  1  0.68155459  0.42467893  0.24414550  1
  O2-  O163  1  0.67899259  0.42181635  0.57752496  1
  O2-  O164  1  0.68356938  0.42726723  0.90017799  1
  O2-  O165  1  0.67857600  0.92692567  0.24609518  1
  O2-  O166  1  0.68032854  0.93538925  0.57526583  1
  O2-  O167  1  0.68098418  0.92686992  0.89992070  1
  O2-  O168  1  0.43253170  0.32070133  0.08915371  1
  O2-  O169  1  0.43207722  0.32073914  0.42308357  1
  O2-  O170  1  0.43007886  0.32076978  0.75581228  1
  O2-  O171  1  0.42786027  0.82232054  0.09015901  1
  O2-  O172  1  0.43008188  0.82148849  0.42972744  1
  O2-  O173  1  0.43370137  0.82512205  0.76719823  1
  O2-  O174  1  0.92310981  0.32095814  0.09046280  1
  O2-  O175  1  0.92311558  0.31945616  0.42094952  1
  O2-  O176  1  0.92618753  0.31665445  0.76463129  1
  O2-  O177  1  0.92997251  0.82104906  0.10239325  1
  O2-  O178  1  0.92750142  0.82005764  0.42272937  1
  O2-  O179  1  0.92660723  0.82073225  0.76325893  1
  O2-  O180  1  0.32431716  0.07281774  0.24361269  1
  O2-  O181  1  0.32307275  0.06884194  0.56614360  1
  O2-  O182  1  0.32236417  0.06958532  0.90143517  1
  O2-  O183  1  0.32078451  0.56733517  0.23690771  1
  O2-  O184  1  0.32066579  0.56927958  0.56852824  1
  O2-  O185  1  0.32325896  0.57111089  0.90106237  1
  O2-  O186  1  0.81820149  0.07031904  0.23428805  1
  O2-  O187  1  0.81720532  0.07420430  0.57770285  1
  O2-  O188  1  0.81943941  0.07200740  0.90764016  1
  O2-  O189  1  0.81977343  0.57218028  0.24230480  1
  O2-  O190  1  0.81750122  0.56912415  0.56680853  1
  O2-  O191  1  0.82054373  0.57441903  0.91216383  1
  O2-  O192  1  0.03687136  0.08793412  0.27214766  1
  O2-  O193  1  0.04454092  0.08268546  0.59496481  1
  O2-  O194  1  0.03744643  0.08935092  0.92885288  1
  O2-  O195  1  0.03886886  0.58665617  0.27018944  1
  O2-  O196  1  0.04207430  0.58121617  0.59924121  1
  O2-  O197  1  0.04765784  0.58374997  0.93943973  1
  O2-  O198  1  0.55176371  0.08632613  0.27348755  1
  O2-  O199  1  0.54333695  0.08752921  0.60080010  1
  O2-  O200  1  0.54473959  0.07961794  0.93313888  1
  O2-  O201  1  0.55062557  0.58048413  0.27284262  1
  O2-  O202  1  0.55123004  0.57360687  0.60157245  1
  O2-  O203  1  0.54447600  0.57980655  0.93475614  1
  O2-  O204  1  0.16388112  0.20352441  0.27169771  1
  O2-  O205  1  0.17329041  0.20730261  0.59487950  1
  O2-  O206  1  0.16982275  0.21048136  0.93436238  1
  O2-  O207  1  0.16140037  0.70478727  0.27158764  1
  O2-  O208  1  0.16895947  0.70815386  0.59809749  1
  O2-  O209  1  0.16779620  0.70180974  0.94259408  1
  O2-  O210  1  0.66337168  0.21314510  0.27195862  1
  O2-  O211  1  0.66245662  0.20645653  0.60168642  1
  O2-  O212  1  0.66696950  0.21134297  0.93127303  1
  O2-  O213  1  0.66643347  0.70428599  0.26744436  1
  O2-  O214  1  0.66543939  0.70962958  0.59664102  1
  O2-  O215  1  0.66440167  0.71217924  0.93449335  1
  O2-  O216  1  0.07742996  0.45227533  0.06741375  1
  O2-  O217  1  0.07511093  0.45057011  0.39886757  1
  O2-  O218  1  0.08217757  0.44658834  0.72429518  1
  O2-  O219  1  0.07863256  0.96518644  0.06605445  1
  O2-  O220  1  0.08489852  0.96304488  0.40592116  1
  O2-  O221  1  0.08093367  0.95471484  0.72587019  1
  O2-  O222  1  0.58633422  0.45826365  0.07028040  1
  O2-  O223  1  0.58727150  0.45131048  0.39648013  1
  O2-  O224  1  0.58277823  0.44374481  0.72857249  1
  O2-  O225  1  0.58491339  0.95806093  0.07019429  1
  O2-  O226  1  0.58377128  0.95451933  0.39705494  1
  O2-  O227  1  0.59163132  0.96353161  0.72873371  1
  O2-  O228  1  0.20931469  0.33348803  0.06859809  1
  O2-  O229  1  0.20760095  0.32855439  0.40249437  1
  O2-  O230  1  0.21029791  0.33577869  0.72713479  1
  O2-  O231  1  0.19874780  0.83271985  0.06870449  1
  O2-  O232  1  0.20700806  0.83288435  0.40122272  1
  O2-  O233  1  0.20083902  0.83575427  0.73023335  1
  O2-  O234  1  0.71252400  0.33267035  0.06962724  1
  O2-  O235  1  0.71102209  0.33865555  0.39896190  1
  O2-  O236  1  0.70721283  0.33172211  0.72965769  1
  O2-  O237  1  0.71291733  0.83326773  0.07114278  1
  O2-  O238  1  0.70349596  0.83302047  0.39693768  1
  O2-  O239  1  0.70522439  0.83705377  0.72550144  1
  O2-  O240  1  0.46054835  0.41160159  0.27022543  1
  O2-  O241  1  0.45939674  0.40979395  0.59985124  1
  O2-  O242  1  0.46092963  0.41330321  0.93740517  1
  O2-  O243  1  0.46005030  0.91622020  0.26205243  1
  O2-  O244  1  0.46550559  0.91640106  0.59751070  1
  O2-  O245  1  0.45623451  0.91501998  0.93984526  1
  O2-  O246  1  0.94849227  0.41435386  0.26899642  1
  O2-  O247  1  0.95166050  0.41927484  0.59787734  1
  O2-  O248  1  0.94563915  0.42133081  0.94195632  1
  O2-  O249  1  0.95806155  0.91512941  0.27381493  1
  O2-  O250  1  0.95153786  0.92117994  0.59684690  1
  O2-  O251  1  0.95696107  0.91726951  0.93196553  1
  O2-  O252  1  0.33702778  0.29426536  0.27068619  1
  O2-  O253  1  0.34002826  0.29121851  0.60077079  1
  O2-  O254  1  0.33531111  0.30023644  0.93782661  1
  O2-  O255  1  0.32990266  0.79089505  0.26366898  1
  O2-  O256  1  0.32920124  0.79910885  0.60238346  1
  O2-  O257  1  0.32934099  0.80303404  0.94121846  1
  O2-  O258  1  0.83620514  0.28814705  0.26892627  1
  O2-  O259  1  0.83094347  0.28830791  0.59618184  1
  O2-  O260  1  0.83583479  0.29515753  0.93588902  1
  O2-  O261  1  0.83601556  0.79513190  0.27127553  1
  O2-  O262  1  0.83007140  0.79224979  0.59474712  1
  O2-  O263  1  0.83426996  0.78851414  0.93498746  1
  O2-  O264  1  0.42122154  0.04575424  0.06883036  1
  O2-  O265  1  0.42030829  0.04818079  0.39271827  1
  O2-  O266  1  0.41959287  0.04021231  0.73223453  1
  O2-  O267  1  0.41891898  0.54019335  0.06930491  1
  O2-  O268  1  0.41939057  0.54008628  0.40202552  1
  O2-  O269  1  0.41761158  0.53653210  0.73257031  1
  O2-  O270  1  0.91411220  0.04598701  0.05933839  1
  O2-  O271  1  0.91427522  0.04066912  0.40449930  1
  O2-  O272  1  0.91670972  0.04998394  0.72613380  1
  O2-  O273  1  0.91574683  0.55270535  0.06428953  1
  O2-  O274  1  0.91082637  0.54298309  0.39490028  1
  O2-  O275  1  0.91618825  0.53991375  0.73548927  1
  O2-  O276  1  0.29630809  0.17037183  0.06734503  1
  O2-  O277  1  0.29948579  0.16539302  0.39433852  1
  O2-  O278  1  0.29528712  0.16848917  0.73275762  1
  O2-  O279  1  0.29753536  0.67157489  0.06868572  1
  O2-  O280  1  0.29118697  0.66895991  0.40069762  1
  O2-  O281  1  0.29337783  0.67015867  0.73440863  1
  O2-  O282  1  0.79569313  0.16543732  0.06030215  1
  O2-  O283  1  0.78613760  0.16549034  0.40401567  1
  O2-  O284  1  0.78888986  0.16177061  0.73073066  1
  O2-  O285  1  0.79102551  0.66486040  0.06600119  1
  O2-  O286  1  0.79343713  0.66466413  0.39480574  1
  O2-  O287  1  0.78925450  0.66855166  0.73310097  1
