# generated using pymatgen
data_Ca2Al2SiO7
_symmetry_space_group_name_H-M   'P 1'
_cell_length_a   15.46608618
_cell_length_b   15.46359178
_cell_length_c   15.28966040
_cell_angle_alpha   90.00003534
_cell_angle_beta   89.99557489
_cell_angle_gamma   89.99892790
_symmetry_Int_Tables_number   1
_chemical_formula_structural   Ca2Al2SiO7
_chemical_formula_sum   'Ca48 Al48 Si24 O168'
_cell_volume   3656.69417662
_cell_formula_units_Z   24
loop_
 _symmetry_equiv_pos_site_id
 _symmetry_equiv_pos_as_xyz
  1  'x, y, z'
loop_
 _atom_type_symbol
 _atom_type_oxidation_number
  Ca2+  2.0
  Al0+  0.0
  Si0+  0.0
  O2-  -2.0
loop_
 _atom_site_type_symbol
 _atom_site_label
 _atom_site_symmetry_multiplicity
 _atom_site_fract_x
 _atom_site_fract_y
 _atom_site_fract_z
 _atom_site_occupancy
  Ca2+  Ca0  1  0.17937488  0.08628658  0.16714593  1
  Ca2+  Ca1  1  0.17588192  0.08211525  0.50073913  1
  Ca2+  Ca2  1  0.17187564  0.08022990  0.84284363  1
  Ca2+  Ca3  1  0.17377465  0.56978802  0.17589485  1
  Ca2+  Ca4  1  0.17858758  0.58281721  0.50191903  1
  Ca2+  Ca5  1  0.17324933  0.58300363  0.83550994  1
  Ca2+  Ca6  1  0.66007977  0.08284789  0.17359266  1
  Ca2+  Ca7  1  0.66616406  0.07884772  0.51020382  1
  Ca2+  Ca8  1  0.66821071  0.07571063  0.83104547  1
  Ca2+  Ca9  1  0.67319311  0.58476903  0.17096237  1
  Ca2+  Ca10  1  0.65884579  0.57363478  0.50522369  1
  Ca2+  Ca11  1  0.66325569  0.58598116  0.83545898  1
  Ca2+  Ca12  1  0.09173666  0.33240154  0.15886041  1
  Ca2+  Ca13  1  0.08131774  0.33756367  0.49465254  1
  Ca2+  Ca14  1  0.08812124  0.32983217  0.83492501  1
  Ca2+  Ca15  1  0.07983515  0.83034696  0.16430250  1
  Ca2+  Ca16  1  0.07998446  0.82634304  0.50301880  1
  Ca2+  Ca17  1  0.07692339  0.82484986  0.82066837  1
  Ca2+  Ca18  1  0.57233263  0.33660492  0.16782589  1
  Ca2+  Ca19  1  0.57771154  0.33421949  0.49373276  1
  Ca2+  Ca20  1  0.57138178  0.33931054  0.82649909  1
  Ca2+  Ca21  1  0.57175303  0.82643432  0.16103920  1
  Ca2+  Ca22  1  0.57793117  0.83101779  0.49947075  1
  Ca2+  Ca23  1  0.57739120  0.82286716  0.82816878  1
  Ca2+  Ca24  1  0.32801815  0.41339372  0.17346728  1
  Ca2+  Ca25  1  0.34180238  0.42612672  0.50331531  1
  Ca2+  Ca26  1  0.33544617  0.42118696  0.83638388  1
  Ca2+  Ca27  1  0.34647715  0.92610515  0.17047272  1
  Ca2+  Ca28  1  0.34631708  0.92134355  0.50275987  1
  Ca2+  Ca29  1  0.34373372  0.92154194  0.83895631  1
  Ca2+  Ca30  1  0.82658063  0.42914233  0.17518301  1
  Ca2+  Ca31  1  0.81795048  0.41884992  0.50177499  1
  Ca2+  Ca32  1  0.82234353  0.42333039  0.83794898  1
  Ca2+  Ca33  1  0.82870814  0.91943622  0.17091619  1
  Ca2+  Ca34  1  0.82615288  0.92228762  0.51307379  1
  Ca2+  Ca35  1  0.82960061  0.91110961  0.82917200  1
  Ca2+  Ca36  1  0.41362993  0.17412470  0.16592094  1
  Ca2+  Ca37  1  0.42112994  0.17797323  0.48967041  1
  Ca2+  Ca38  1  0.40986807  0.17919983  0.83205630  1
  Ca2+  Ca39  1  0.41554346  0.67399312  0.16128090  1
  Ca2+  Ca40  1  0.41507176  0.67188414  0.49812814  1
  Ca2+  Ca41  1  0.42296445  0.67301021  0.82082189  1
  Ca2+  Ca42  1  0.92723332  0.17298410  0.15925839  1
  Ca2+  Ca43  1  0.91517807  0.16518328  0.49754490  1
  Ca2+  Ca44  1  0.92358989  0.16190792  0.82768522  1
  Ca2+  Ca45  1  0.91280916  0.66021123  0.16191403  1
  Ca2+  Ca46  1  0.91816306  0.66407871  0.49882584  1
  Ca2+  Ca47  1  0.92227390  0.66658778  0.82520006  1
  Al0+  Al48  1  0.00040011  0.00038288  -0.00215880  1
  Al0+  Al49  1  0.00031507  -0.00126363  0.33160572  1
  Al0+  Al50  1  0.00253826  -0.00003466  0.66523703  1
  Al0+  Al51  1  -0.00153440  0.49918498  0.00595682  1
  Al0+  Al52  1  -0.00019585  0.50071537  0.33959210  1
  Al0+  Al53  1  0.00062730  0.49589402  0.66205252  1
  Al0+  Al54  1  0.50212796  0.00088908  0.00137688  1
  Al0+  Al55  1  0.50037783  -0.00043305  0.33158735  1
  Al0+  Al56  1  0.50228164  0.00129486  0.67219579  1
  Al0+  Al57  1  0.50034098  0.49955544  -0.00514930  1
  Al0+  Al58  1  0.50041252  0.50070266  0.33371953  1
  Al0+  Al59  1  0.49772081  0.50083523  0.66891830  1
  Al0+  Al60  1  0.24985327  0.24791183  -0.00184928  1
  Al0+  Al61  1  0.24894776  0.24641711  0.33901009  1
  Al0+  Al62  1  0.24948775  0.25003271  0.66138775  1
  Al0+  Al63  1  0.24693804  0.75230199  -0.00277883  1
  Al0+  Al64  1  0.24589450  0.75016374  0.32991692  1
  Al0+  Al65  1  0.24922757  0.75021671  0.66293224  1
  Al0+  Al66  1  0.75024943  0.25033585  0.00078598  1
  Al0+  Al67  1  0.75314563  0.25037978  0.33042628  1
  Al0+  Al68  1  0.75171847  0.25061483  0.67798951  1
  Al0+  Al69  1  0.74907058  0.75126835  0.00173900  1
  Al0+  Al70  1  0.75134306  0.75328417  0.33615722  1
  Al0+  Al71  1  0.74996949  0.74991601  0.66262911  1
  Al0+  Al72  1  0.57316245  0.17898212  0.32029538  1
  Al0+  Al73  1  0.82344456  0.07091578  0.68287385  1
  Al0+  Al74  1  0.32112295  0.06859677  0.01321092  1
  Al0+  Al75  1  0.42786327  0.32245898  0.31857625  1
  Al0+  Al76  1  0.06980480  0.18031677  0.98613757  1
  Al0+  Al77  1  0.67747896  0.43050043  0.68222076  1
  Al0+  Al78  1  0.57089646  0.67790654  0.64998564  1
  Al0+  Al79  1  0.42770263  0.81951451  0.31921145  1
  Al0+  Al80  1  0.18021991  0.42631981  0.34943810  1
  Al0+  Al81  1  0.32138526  0.06740074  0.34825788  1
  Al0+  Al82  1  0.42928653  0.82378498  0.65146861  1
  Al0+  Al83  1  0.42923205  0.31877990  0.98631512  1
  Al0+  Al84  1  0.18161316  0.43072858  0.01112390  1
  Al0+  Al85  1  0.42728601  0.82215528  0.98500098  1
  Al0+  Al86  1  0.92915937  0.82091029  0.65086525  1
  Al0+  Al87  1  0.31844661  0.57135551  0.68125512  1
  Al0+  Al88  1  0.81825461  0.57070983  0.01159154  1
  Al0+  Al89  1  0.57120646  0.67944849  0.98600559  1
  Al0+  Al90  1  0.32169291  0.57347375  0.34669668  1
  Al0+  Al91  1  0.67904269  0.42843890  0.34711538  1
  Al0+  Al92  1  0.07158696  0.67487584  0.65010429  1
  Al0+  Al93  1  0.42846434  0.31997051  0.65204395  1
  Al0+  Al94  1  0.82036534  0.57407721  0.35099701  1
  Al0+  Al95  1  0.67776651  0.92638273  0.68368222  1
  Si0+  Si96  1  0.07137265  0.17862761  0.64942389  1
  Si0+  Si97  1  0.17422139  0.92796428  0.35074689  1
  Si0+  Si98  1  0.57568196  0.17724219  0.98155073  1
  Si0+  Si99  1  0.93069402  0.32209390  0.31788556  1
  Si0+  Si100  1  0.17455491  0.92691683  0.01674538  1
  Si0+  Si101  1  0.82397567  0.57041809  0.68180852  1
  Si0+  Si102  1  0.82355579  0.07043726  0.34529318  1
  Si0+  Si103  1  0.68175723  0.93121319  0.01758442  1
  Si0+  Si104  1  0.92885052  0.82141490  0.98612121  1
  Si0+  Si105  1  0.06815207  0.67797588  0.31555318  1
  Si0+  Si106  1  0.57371536  0.18017800  0.65444850  1
  Si0+  Si107  1  0.92740422  0.31904225  0.65170709  1
  Si0+  Si108  1  0.92727579  0.32339851  0.98293576  1
  Si0+  Si109  1  0.06878168  0.67693226  0.98732633  1
  Si0+  Si110  1  0.32065964  0.07212057  0.68177608  1
  Si0+  Si111  1  0.17998303  0.92990902  0.68084769  1
  Si0+  Si112  1  0.17673047  0.42542162  0.68397922  1
  Si0+  Si113  1  0.57424795  0.67869922  0.31723970  1
  Si0+  Si114  1  0.32305177  0.57463255  0.01441647  1
  Si0+  Si115  1  0.82400528  0.07210629  0.01665930  1
  Si0+  Si116  1  0.06993102  0.17718079  0.31807886  1
  Si0+  Si117  1  0.67480832  0.42596398  0.01762081  1
  Si0+  Si118  1  0.92857679  0.82192614  0.31654915  1
  Si0+  Si119  1  0.67948570  0.93159141  0.34764327  1
  O2-  O120  1  0.24926304  -0.01033816  0.05943665  1
  O2-  O121  1  0.24869906  -0.00986944  0.39483894  1
  O2-  O122  1  0.25411045  -0.00308720  0.72388476  1
  O2-  O123  1  0.25601568  0.50463414  0.05902046  1
  O2-  O124  1  0.25576462  0.49531879  0.39733204  1
  O2-  O125  1  0.24286296  0.49637200  0.72730263  1
  O2-  O126  1  0.75025371  0.00531059  0.06046549  1
  O2-  O127  1  0.74804969  0.00586065  0.38794286  1
  O2-  O128  1  0.75319786  -0.00298135  0.73247119  1
  O2-  O129  1  0.74317632  0.49674027  0.05880477  1
  O2-  O130  1  0.74546059  0.50491171  0.39928133  1
  O2-  O131  1  0.75117041  0.50755178  0.72762186  1
  O2-  O132  1  0.00498833  0.25392068  0.27600449  1
  O2-  O133  1  -0.00143341  0.24815194  0.60845079  1
  O2-  O134  1  -0.00648146  0.25262236  0.93781870  1
  O2-  O135  1  -0.00503071  0.74752048  0.27297121  1
  O2-  O136  1  -0.00354773  0.74475073  0.60051135  1
  O2-  O137  1  0.00035367  0.75069130  0.94532808  1
  O2-  O138  1  0.50160525  0.25096576  0.26946803  1
  O2-  O139  1  0.50561541  0.24691366  0.60781038  1
  O2-  O140  1  0.50828641  0.24776253  0.93907410  1
  O2-  O141  1  0.49949976  0.74136269  0.27342970  1
  O2-  O142  1  0.50050309  0.75194632  0.60071642  1
  O2-  O143  1  0.49262349  0.74430421  0.93597974  1
  O2-  O144  1  0.06852649  0.18071045  0.09944058  1
  O2-  O145  1  0.06522682  0.17254703  0.42312523  1
  O2-  O146  1  0.07315862  0.17890585  0.75451693  1
  O2-  O147  1  0.06719344  0.67797063  0.09247407  1
  O2-  O148  1  0.06819075  0.68002301  0.42009930  1
  O2-  O149  1  0.06972112  0.67676191  0.76480671  1
  O2-  O150  1  0.57684956  0.17661706  0.08700177  1
  O2-  O151  1  0.57346714  0.17719134  0.43393738  1
  O2-  O152  1  0.57125871  0.18095329  0.76017945  1
  O2-  O153  1  0.57434626  0.68375828  0.09986468  1
  O2-  O154  1  0.57808206  0.68288389  0.42221013  1
  O2-  O155  1  0.56876266  0.67887495  0.76362903  1
  O2-  O156  1  0.17874398  0.42817652  0.23530473  1
  O2-  O157  1  0.17690681  0.42321381  0.57884628  1
  O2-  O158  1  0.17962646  0.43308543  0.89816732  1
  O2-  O159  1  0.16668807  0.93236289  0.24540993  1
  O2-  O160  1  0.17624791  0.93434652  0.57592083  1
  O2-  O161  1  0.16790182  0.92925297  0.91152066  1
  O2-  O162  1  0.68336923  0.42772143  0.23337989  1
  O2-  O163  1  0.68036677  0.42650641  0.56951964  1
  O2-  O164  1  0.67720958  0.42370457  0.91211363  1
  O2-  O165  1  0.68305286  0.93033442  0.24205950  1
  O2-  O166  1  0.67690792  0.93235139  0.56965568  1
  O2-  O167  1  0.68450571  0.93046768  0.91314577  1
  O2-  O168  1  0.42756020  0.31741206  0.09908989  1
  O2-  O169  1  0.42886044  0.31962922  0.43201424  1
  O2-  O170  1  0.42548050  0.31699236  0.76545621  1
  O2-  O171  1  0.43083803  0.82258057  0.09886113  1
  O2-  O172  1  0.43199918  0.82217722  0.43167079  1
  O2-  O173  1  0.42940807  0.82325500  0.76493218  1
  O2-  O174  1  0.92826150  0.32168976  0.08868918  1
  O2-  O175  1  0.92909598  0.31776019  0.42308390  1
  O2-  O176  1  0.92935821  0.31996909  0.75675536  1
  O2-  O177  1  0.92947090  0.82311484  0.09168556  1
  O2-  O178  1  0.93117288  0.82704167  0.42061437  1
  O2-  O179  1  0.93379182  0.82109780  0.76524155  1
  O2-  O180  1  0.31868409  0.06811730  0.23508766  1
  O2-  O181  1  0.31850446  0.07281659  0.57677419  1
  O2-  O182  1  0.31702339  0.06910408  0.89975863  1
  O2-  O183  1  0.31628455  0.57677568  0.23266802  1
  O2-  O184  1  0.31833613  0.57121672  0.56853447  1
  O2-  O185  1  0.31945250  0.57499404  0.90894159  1
  O2-  O186  1  0.82738894  0.06610490  0.24000776  1
  O2-  O187  1  0.82221581  0.07198617  0.56861538  1
  O2-  O188  1  0.82667191  0.06953626  0.91230475  1
  O2-  O189  1  0.81997938  0.57262746  0.23680358  1
  O2-  O190  1  0.82588309  0.56494961  0.57673300  1
  O2-  O191  1  0.82123750  0.56981594  0.89879634  1
  O2-  O192  1  0.03579512  0.08814920  0.26829937  1
  O2-  O193  1  0.04501759  0.08727356  0.60095469  1
  O2-  O194  1  0.03902586  0.08341604  0.93162160  1
  O2-  O195  1  0.04009560  0.58540208  0.26946682  1
  O2-  O196  1  0.04676065  0.57557474  0.59746282  1
  O2-  O197  1  0.03766281  0.58652788  0.93988275  1
  O2-  O198  1  0.54338750  0.08132263  0.26573857  1
  O2-  O199  1  0.54955729  0.08578277  0.61023898  1
  O2-  O200  1  0.54911586  0.08374962  0.93656758  1
  O2-  O201  1  0.55664944  0.58299343  0.27322802  1
  O2-  O202  1  0.53859971  0.58056922  0.59855584  1
  O2-  O203  1  0.55369582  0.57834349  0.93545609  1
  O2-  O204  1  0.16346358  0.19979799  0.27290183  1
  O2-  O205  1  0.16125827  0.20790210  0.59940640  1
  O2-  O206  1  0.16428669  0.21141461  0.92959087  1
  O2-  O207  1  0.15748511  0.70813273  0.26482176  1
  O2-  O208  1  0.16642072  0.71026467  0.59539088  1
  O2-  O209  1  0.16057645  0.70232402  0.93878189  1
  O2-  O210  1  0.67361989  0.20190688  0.26659819  1
  O2-  O211  1  0.66930065  0.20395571  0.61212732  1
  O2-  O212  1  0.67114032  0.19883907  0.93666995  1
  O2-  O213  1  0.66618847  0.71252751  0.27054529  1
  O2-  O214  1  0.67079375  0.70078611  0.59849946  1
  O2-  O215  1  0.66765891  0.71569892  0.93288513  1
  O2-  O216  1  0.08482262  0.45893347  0.06699036  1
  O2-  O217  1  0.08281250  0.45816211  0.40226170  1
  O2-  O218  1  0.08113733  0.44660777  0.72839860  1
  O2-  O219  1  0.08325799  0.95836557  0.06590780  1
  O2-  O220  1  0.08382035  0.96135072  0.39985847  1
  O2-  O221  1  0.09050518  0.96189958  0.73072612  1
  O2-  O222  1  0.58061260  0.45030070  0.06241215  1
  O2-  O223  1  0.57925677  0.45083054  0.39862519  1
  O2-  O224  1  0.58158909  0.46068663  0.73680839  1
  O2-  O225  1  0.59016825  0.95836765  0.06560089  1
  O2-  O226  1  0.58814997  0.95733904  0.39502152  1
  O2-  O227  1  0.58255976  0.95992382  0.74117034  1
  O2-  O228  1  0.21090206  0.33316277  0.06357932  1
  O2-  O229  1  0.19724982  0.32534066  0.40089495  1
  O2-  O230  1  0.20506814  0.33163852  0.72922813  1
  O2-  O231  1  0.19232588  0.83095908  0.06175100  1
  O2-  O232  1  0.19205672  0.83171119  0.39220288  1
  O2-  O233  1  0.20121778  0.83635849  0.72682675  1
  O2-  O234  1  0.70193265  0.33243867  0.06355342  1
  O2-  O235  1  0.71527168  0.33128146  0.39949163  1
  O2-  O236  1  0.71152948  0.33665512  0.73997164  1
  O2-  O237  1  0.71406645  0.84186564  0.06710478  1
  O2-  O238  1  0.71102267  0.84228770  0.39637628  1
  O2-  O239  1  0.70731320  0.82757131  0.73555877  1
  O2-  O240  1  0.45332398  0.42192591  0.26522753  1
  O2-  O241  1  0.45882757  0.41690552  0.60166995  1
  O2-  O242  1  0.45567889  0.41638652  0.93184716  1
  O2-  O243  1  0.46451408  0.91419707  0.26484387  1
  O2-  O244  1  0.45936780  0.92393289  0.60194716  1
  O2-  O245  1  0.46249293  0.91951111  0.93426995  1
  O2-  O246  1  0.95601250  0.41548716  0.27280325  1
  O2-  O247  1  0.95490293  0.40890587  0.60086362  1
  O2-  O248  1  0.95595733  0.41599421  0.93710947  1
  O2-  O249  1  0.96093109  0.91180908  0.26582911  1
  O2-  O250  1  0.96337864  0.91817233  0.59783969  1
  O2-  O251  1  0.95589042  0.91286089  0.93841473  1
  O2-  O252  1  0.32847505  0.28839598  0.26942496  1
  O2-  O253  1  0.33314314  0.28745042  0.59685081  1
  O2-  O254  1  0.33503432  0.28328662  0.93083574  1
  O2-  O255  1  0.32801358  0.79681292  0.26643886  1
  O2-  O256  1  0.32965301  0.79942624  0.60004821  1
  O2-  O257  1  0.32402132  0.80633043  0.93642091  1
  O2-  O258  1  0.84207364  0.29126206  0.26632536  1
  O2-  O259  1  0.83583131  0.28869738  0.60553262  1
  O2-  O260  1  0.83262905  0.29964869  0.93822835  1
  O2-  O261  1  0.83552268  0.79881976  0.26864802  1
  O2-  O262  1  0.82957501  0.80041766  0.59870273  1
  O2-  O263  1  0.83769719  0.79310219  0.93943523  1
  O2-  O264  1  0.41922360  0.04250910  0.06721976  1
  O2-  O265  1  0.41842167  0.03775592  0.40168573  1
  O2-  O266  1  0.41334473  0.05033633  0.72957105  1
  O2-  O267  1  0.41810057  0.55127432  0.05750449  1
  O2-  O268  1  0.42242782  0.55322859  0.39709766  1
  O2-  O269  1  0.41319558  0.53912124  0.73699441  1
  O2-  O270  1  0.91450344  0.04056268  0.06548932  1
  O2-  O271  1  0.91273876  0.03724900  0.39474669  1
  O2-  O272  1  0.92338016  0.04270007  0.73377790  1
  O2-  O273  1  0.91315015  0.53876087  0.06943677  1
  O2-  O274  1  0.91739690  0.54284239  0.40334806  1
  O2-  O275  1  0.91650972  0.53897427  0.72824745  1
  O2-  O276  1  0.28343365  0.16257690  0.06725308  1
  O2-  O277  1  0.28669605  0.16100221  0.40504996  1
  O2-  O278  1  0.28551252  0.16223056  0.72824963  1
  O2-  O279  1  0.29557972  0.66880556  0.05901428  1
  O2-  O280  1  0.28480689  0.67004925  0.39927415  1
  O2-  O281  1  0.28622354  0.66856427  0.73437129  1
  O2-  O282  1  0.80139037  0.16628239  0.06229985  1
  O2-  O283  1  0.80410704  0.16462352  0.39019283  1
  O2-  O284  1  0.79694702  0.16742061  0.74047130  1
  O2-  O285  1  0.79055487  0.66810471  0.06725351  1
  O2-  O286  1  0.80010088  0.67569527  0.40022383  1
  O2-  O287  1  0.80611040  0.66728224  0.72311218  1
