# generated using pymatgen
data_Ca2Al2SiO7
_symmetry_space_group_name_H-M   'P 1'
_cell_length_a   15.45633193
_cell_length_b   15.45679460
_cell_length_c   15.28246881
_cell_angle_alpha   89.99403533
_cell_angle_beta   90.01094123
_cell_angle_gamma   90.00023043
_symmetry_Int_Tables_number   1
_chemical_formula_structural   Ca2Al2SiO7
_chemical_formula_sum   'Ca48 Al48 Si24 O168'
_cell_volume   3651.06344139
_cell_formula_units_Z   24
loop_
 _symmetry_equiv_pos_site_id
 _symmetry_equiv_pos_as_xyz
  1  'x, y, z'
loop_
 _atom_type_symbol
 _atom_type_oxidation_number
  Ca2+  2.0
  Al0+  0.0
  Si0+  0.0
  O2-  -2.0
loop_
 _atom_site_type_symbol
 _atom_site_label
 _atom_site_symmetry_multiplicity
 _atom_site_fract_x
 _atom_site_fract_y
 _atom_site_fract_z
 _atom_site_occupancy
  Ca2+  Ca0  1  0.15793536  0.07968521  0.16654760  1
  Ca2+  Ca1  1  0.16383638  0.08013874  0.50800974  1
  Ca2+  Ca2  1  0.15692596  0.07333889  0.83636946  1
  Ca2+  Ca3  1  0.16627204  0.57226498  0.17340540  1
  Ca2+  Ca4  1  0.15940866  0.57773067  0.50551361  1
  Ca2+  Ca5  1  0.17380021  0.57896647  0.84145127  1
  Ca2+  Ca6  1  0.67520776  0.07655087  0.17428160  1
  Ca2+  Ca7  1  0.66796635  0.07566178  0.51196336  1
  Ca2+  Ca8  1  0.67345340  0.08362381  0.83493172  1
  Ca2+  Ca9  1  0.67173590  0.58252072  0.17532142  1
  Ca2+  Ca10  1  0.67742275  0.58345221  0.50556398  1
  Ca2+  Ca11  1  0.66736464  0.59236897  0.83370407  1
  Ca2+  Ca12  1  0.09234482  0.32493095  0.16408156  1
  Ca2+  Ca13  1  0.08478119  0.32180531  0.49236881  1
  Ca2+  Ca14  1  0.08867658  0.32188680  0.82961178  1
  Ca2+  Ca15  1  0.07713044  0.82836504  0.15899045  1
  Ca2+  Ca16  1  0.08601336  0.82074327  0.49885161  1
  Ca2+  Ca17  1  0.08087909  0.83507461  0.82728077  1
  Ca2+  Ca18  1  0.57767329  0.34421027  0.16587933  1
  Ca2+  Ca19  1  0.57582692  0.33462781  0.49690382  1
  Ca2+  Ca20  1  0.57535711  0.32752547  0.82175795  1
  Ca2+  Ca21  1  0.58523948  0.82848318  0.16096459  1
  Ca2+  Ca22  1  0.58700303  0.83647682  0.50011161  1
  Ca2+  Ca23  1  0.57804271  0.82514886  0.82274450  1
  Ca2+  Ca24  1  0.32579241  0.41888725  0.16924296  1
  Ca2+  Ca25  1  0.33230428  0.41064305  0.49996899  1
  Ca2+  Ca26  1  0.33065184  0.42027331  0.84032890  1
  Ca2+  Ca27  1  0.32622692  0.91773612  0.16759243  1
  Ca2+  Ca28  1  0.32821896  0.91622844  0.51017117  1
  Ca2+  Ca29  1  0.32195522  0.90845162  0.83313407  1
  Ca2+  Ca30  1  0.82611209  0.42447772  0.17795947  1
  Ca2+  Ca31  1  0.83500206  0.42772063  0.50263019  1
  Ca2+  Ca32  1  0.83385331  0.42392459  0.83284100  1
  Ca2+  Ca33  1  0.83387238  0.91813559  0.16695559  1
  Ca2+  Ca34  1  0.82181706  0.92086184  0.50843173  1
  Ca2+  Ca35  1  0.83466305  0.92663148  0.83509915  1
  Ca2+  Ca36  1  0.41762520  0.17385342  0.16673795  1
  Ca2+  Ca37  1  0.42029786  0.17640561  0.49925184  1
  Ca2+  Ca38  1  0.42108575  0.17427104  0.82186045  1
  Ca2+  Ca39  1  0.42442258  0.66138122  0.15961880  1
  Ca2+  Ca40  1  0.42173799  0.67348461  0.50263938  1
  Ca2+  Ca41  1  0.42521301  0.66579136  0.82641856  1
  Ca2+  Ca42  1  0.92553647  0.16407088  0.15930891  1
  Ca2+  Ca43  1  0.92608791  0.15769226  0.49916029  1
  Ca2+  Ca44  1  0.92217616  0.16017852  0.82948029  1
  Ca2+  Ca45  1  0.91777226  0.66977923  0.16405666  1
  Ca2+  Ca46  1  0.92325945  0.65882182  0.49668745  1
  Ca2+  Ca47  1  0.92101066  0.67428961  0.82550046  1
  Al0+  Al48  1  -0.00077729  -0.00038757  0.00133537  1
  Al0+  Al49  1  0.00058670  -0.00248250  0.32986483  1
  Al0+  Al50  1  -0.00083801  -0.00132762  0.66780096  1
  Al0+  Al51  1  -0.00102875  0.49829713  0.00461834  1
  Al0+  Al52  1  0.00207439  0.49762836  0.33565822  1
  Al0+  Al53  1  -0.00043479  0.49868891  0.67077564  1
  Al0+  Al54  1  0.49932984  -0.00052310  0.00010406  1
  Al0+  Al55  1  0.49852981  0.00121732  0.33465105  1
  Al0+  Al56  1  0.49796002  0.00112431  0.66549713  1
  Al0+  Al57  1  0.50021597  0.50064027  -0.00221418  1
  Al0+  Al58  1  0.49858698  0.50109371  0.33293896  1
  Al0+  Al59  1  0.49925476  0.50192067  0.65769480  1
  Al0+  Al60  1  0.25080304  0.24874728  -0.00185189  1
  Al0+  Al61  1  0.25209688  0.24995034  0.32780629  1
  Al0+  Al62  1  0.24845107  0.24879871  0.65968952  1
  Al0+  Al63  1  0.25131936  0.75006293  0.01070141  1
  Al0+  Al64  1  0.25035953  0.74940038  0.32716796  1
  Al0+  Al65  1  0.24982534  0.74809362  0.66345970  1
  Al0+  Al66  1  0.75165308  0.25056977  0.00541529  1
  Al0+  Al67  1  0.75077623  0.24904832  0.33796827  1
  Al0+  Al68  1  0.75071950  0.25231452  0.66676656  1
  Al0+  Al69  1  0.75053526  0.75134185  -0.00877663  1
  Al0+  Al70  1  0.75066340  0.75210629  0.34051229  1
  Al0+  Al71  1  0.75044436  0.75074861  0.67145063  1
  Al0+  Al72  1  0.07144142  0.67630560  0.31813227  1
  Al0+  Al73  1  0.17850967  0.42701240  0.01477551  1
  Al0+  Al74  1  0.82082195  0.07284101  0.68191476  1
  Al0+  Al75  1  0.82209103  0.57074208  0.68347671  1
  Al0+  Al76  1  0.43172680  0.32163327  0.31596792  1
  Al0+  Al77  1  0.67517004  0.92940983  0.68510693  1
  Al0+  Al78  1  0.67575638  0.42790956  0.34934658  1
  Al0+  Al79  1  0.17870365  0.92992105  0.01495329  1
  Al0+  Al80  1  0.07032063  0.67784717  0.65608683  1
  Al0+  Al81  1  0.32299393  0.57062297  0.01502926  1
  Al0+  Al82  1  0.93106217  0.81996285  0.98484150  1
  Al0+  Al83  1  0.18199162  0.42817067  0.34892564  1
  Al0+  Al84  1  0.07003942  0.17810679  0.31782094  1
  Al0+  Al85  1  0.42784922  0.82092597  0.65272450  1
  Al0+  Al86  1  0.67799945  0.93118547  0.34638897  1
  Al0+  Al87  1  0.42771821  0.32226836  0.65114045  1
  Al0+  Al88  1  0.06756837  0.17789072  0.65283722  1
  Al0+  Al89  1  0.06988358  0.18108970  0.98498725  1
  Al0+  Al90  1  0.18032631  0.92761213  0.67808021  1
  Al0+  Al91  1  0.57376602  0.17895376  0.65252207  1
  Al0+  Al92  1  0.57397196  0.68065270  0.64827083  1
  Al0+  Al93  1  0.56971346  0.67957687  0.98704158  1
  Al0+  Al94  1  0.82151888  0.57104653  0.34816439  1
  Al0+  Al95  1  0.82026270  0.07110030  0.01568360  1
  Si0+  Si96  1  0.32487127  0.07260823  0.01683080  1
  Si0+  Si97  1  0.17923589  0.42661186  0.68098192  1
  Si0+  Si98  1  0.92776312  0.81999897  0.31731540  1
  Si0+  Si99  1  0.43102271  0.31956926  0.98496413  1
  Si0+  Si100  1  0.92465818  0.32388230  0.98365243  1
  Si0+  Si101  1  0.82458905  0.07080159  0.34959753  1
  Si0+  Si102  1  0.42795750  0.82396511  0.31597356  1
  Si0+  Si103  1  0.67745230  0.92792763  0.01546153  1
  Si0+  Si104  1  0.31964440  0.07044515  0.34827211  1
  Si0+  Si105  1  0.32177096  0.57421246  0.35227770  1
  Si0+  Si106  1  0.67961846  0.42953940  0.01305886  1
  Si0+  Si107  1  0.92830792  0.32408809  0.64995461  1
  Si0+  Si108  1  0.42590350  0.82383242  0.98491091  1
  Si0+  Si109  1  0.82006671  0.57358563  0.01382252  1
  Si0+  Si110  1  0.57102088  0.68264877  0.31958551  1
  Si0+  Si111  1  0.31970219  0.07408353  0.68228747  1
  Si0+  Si112  1  0.17880245  0.92788666  0.34795649  1
  Si0+  Si113  1  0.57304092  0.17666802  0.31608319  1
  Si0+  Si114  1  0.57357416  0.17818345  0.98799124  1
  Si0+  Si115  1  0.92890469  0.82199702  0.64948352  1
  Si0+  Si116  1  0.67580166  0.43079116  0.68345908  1
  Si0+  Si117  1  0.07328354  0.67593378  0.98577641  1
  Si0+  Si118  1  0.92719540  0.32157022  0.31704126  1
  Si0+  Si119  1  0.32046387  0.56995943  0.67927998  1
  O2-  O120  1  0.25513716  0.00436925  0.06072318  1
  O2-  O121  1  0.24880118  -0.00073743  0.39042746  1
  O2-  O122  1  0.25392673  0.00286833  0.72655532  1
  O2-  O123  1  0.24692626  0.50278858  0.06480022  1
  O2-  O124  1  0.25205365  0.50683672  0.39700294  1
  O2-  O125  1  0.25178097  0.49664431  0.72175395  1
  O2-  O126  1  0.74363311  -0.00226133  0.06157113  1
  O2-  O127  1  0.75023449  0.00833252  0.39229955  1
  O2-  O128  1  0.74624717  0.00371959  0.73307821  1
  O2-  O129  1  0.75029923  0.50098626  0.05528756  1
  O2-  O130  1  0.74991952  0.49811334  0.39801082  1
  O2-  O131  1  0.74316931  0.49966279  0.73022387  1
  O2-  O132  1  -0.00669351  0.25111750  0.27140638  1
  O2-  O133  1  -0.00808648  0.25093561  0.60545909  1
  O2-  O134  1  -0.00364403  0.25810411  0.93982186  1
  O2-  O135  1  -0.00486102  0.75000629  0.27273095  1
  O2-  O136  1  -0.00565263  0.74977287  0.60628797  1
  O2-  O137  1  0.00705990  0.74528977  0.93958655  1
  O2-  O138  1  0.51145679  0.25096580  0.26941013  1
  O2-  O139  1  0.50234622  0.25177932  0.60283994  1
  O2-  O140  1  0.50133360  0.24726262  0.94453133  1
  O2-  O141  1  0.50007806  0.75312563  0.27535365  1
  O2-  O142  1  0.50551818  0.75703829  0.59944744  1
  O2-  O143  1  0.49343889  0.75370901  0.94252134  1
  O2-  O144  1  0.06846767  0.18156825  0.09831970  1
  O2-  O145  1  0.06935560  0.17623391  0.43086031  1
  O2-  O146  1  0.06923540  0.17948473  0.76585158  1
  O2-  O147  1  0.06867425  0.67657554  0.09146203  1
  O2-  O148  1  0.07242896  0.67901083  0.43136046  1
  O2-  O149  1  0.07120941  0.67829067  0.76932456  1
  O2-  O150  1  0.57235860  0.17902105  0.09321076  1
  O2-  O151  1  0.56776717  0.17328853  0.42089016  1
  O2-  O152  1  0.57136085  0.18252713  0.76728381  1
  O2-  O153  1  0.57145407  0.68026474  0.10099409  1
  O2-  O154  1  0.57026726  0.68440491  0.42396853  1
  O2-  O155  1  0.56837686  0.67771581  0.76203886  1
  O2-  O156  1  0.18458847  0.42783363  0.23595506  1
  O2-  O157  1  0.17842306  0.42679319  0.57587459  1
  O2-  O158  1  0.18224899  0.42611614  0.90065518  1
  O2-  O159  1  0.17956919  0.92954767  0.24271138  1
  O2-  O160  1  0.18159345  0.92813670  0.56451271  1
  O2-  O161  1  0.17961223  0.92955309  0.90190079  1
  O2-  O162  1  0.67663556  0.43338527  0.23456984  1
  O2-  O163  1  0.67728998  0.43191275  0.57828471  1
  O2-  O164  1  0.67948127  0.42772007  0.90823464  1
  O2-  O165  1  0.67893292  0.93033152  0.23268204  1
  O2-  O166  1  0.67894797  0.93078580  0.57105320  1
  O2-  O167  1  0.67596631  0.93015760  0.91075645  1
  O2-  O168  1  0.43252091  0.32033397  0.09008667  1
  O2-  O169  1  0.43005537  0.31732685  0.42834353  1
  O2-  O170  1  0.42747588  0.32137492  0.76560135  1
  O2-  O171  1  0.42963496  0.82709584  0.09093725  1
  O2-  O172  1  0.42534753  0.82471368  0.42049755  1
  O2-  O173  1  0.42358313  0.81375711  0.76627462  1
  O2-  O174  1  0.91989289  0.32304233  0.08894928  1
  O2-  O175  1  0.92960424  0.32145755  0.42253017  1
  O2-  O176  1  0.93193897  0.32732484  0.75571016  1
  O2-  O177  1  0.92903448  0.81677261  0.09852893  1
  O2-  O178  1  0.92962646  0.82281013  0.42244428  1
  O2-  O179  1  0.93270117  0.82275415  0.75532986  1
  O2-  O180  1  0.32167284  0.06804907  0.24288429  1
  O2-  O181  1  0.31594641  0.07583235  0.57636438  1
  O2-  O182  1  0.32870956  0.07367322  0.91180499  1
  O2-  O183  1  0.32270807  0.57293303  0.24660770  1
  O2-  O184  1  0.31839739  0.57143102  0.57430429  1
  O2-  O185  1  0.32450887  0.56712319  0.90094349  1
  O2-  O186  1  0.82524142  0.06831500  0.24368663  1
  O2-  O187  1  0.82327727  0.06783781  0.56808090  1
  O2-  O188  1  0.81855922  0.07207297  0.90328037  1
  O2-  O189  1  0.81766509  0.57302069  0.23364450  1
  O2-  O190  1  0.82512049  0.56666153  0.57082479  1
  O2-  O191  1  0.82026775  0.57236814  0.90895682  1
  O2-  O192  1  0.03996920  0.08057446  0.26396061  1
  O2-  O193  1  0.03817526  0.08089585  0.59844513  1
  O2-  O194  1  0.03630960  0.08453528  0.93381197  1
  O2-  O195  1  0.04237863  0.57864450  0.26549407  1
  O2-  O196  1  0.03973837  0.58046163  0.60317416  1
  O2-  O197  1  0.04805742  0.58122665  0.94158210  1
  O2-  O198  1  0.53957401  0.08592187  0.26699112  1
  O2-  O199  1  0.54417315  0.08142742  0.59970435  1
  O2-  O200  1  0.54790599  0.08543210  0.94157809  1
  O2-  O201  1  0.54277973  0.59078526  0.27212465  1
  O2-  O202  1  0.54163971  0.58466523  0.59353981  1
  O2-  O203  1  0.54002607  0.58305494  0.93138094  1
  O2-  O204  1  0.16638055  0.20936662  0.26392654  1
  O2-  O205  1  0.16284637  0.20923089  0.59702345  1
  O2-  O206  1  0.16821798  0.20811549  0.93161033  1
  O2-  O207  1  0.16729274  0.70844907  0.26267772  1
  O2-  O208  1  0.16458790  0.70891571  0.59858076  1
  O2-  O209  1  0.16998729  0.69947383  0.94587464  1
  O2-  O210  1  0.67066642  0.19386849  0.27471622  1
  O2-  O211  1  0.67255984  0.20552966  0.59965461  1
  O2-  O212  1  0.66480879  0.20835394  0.94171805  1
  O2-  O213  1  0.66346992  0.71121801  0.27318935  1
  O2-  O214  1  0.67486662  0.70500144  0.59940276  1
  O2-  O215  1  0.66450700  0.71015622  0.93062336  1
  O2-  O216  1  0.07820394  0.44933845  0.06783865  1
  O2-  O217  1  0.08412156  0.45383645  0.40209398  1
  O2-  O218  1  0.08885432  0.45432001  0.73035297  1
  O2-  O219  1  0.08382606  0.96296748  0.07048248  1
  O2-  O220  1  0.08619220  0.95398129  0.39389834  1
  O2-  O221  1  0.08434855  0.95858952  0.73235553  1
  O2-  O222  1  0.58819325  0.45860353  0.06029729  1
  O2-  O223  1  0.57750288  0.45754126  0.40048167  1
  O2-  O224  1  0.58061308  0.45572387  0.72730357  1
  O2-  O225  1  0.58267863  0.95059925  0.06208412  1
  O2-  O226  1  0.58025658  0.95943041  0.39933777  1
  O2-  O227  1  0.57453895  0.95428320  0.73558733  1
  O2-  O228  1  0.21255285  0.32973686  0.06714891  1
  O2-  O229  1  0.21673068  0.33131114  0.40035561  1
  O2-  O230  1  0.20798649  0.33441333  0.72718510  1
  O2-  O231  1  0.20744028  0.83447937  0.07308430  1
  O2-  O232  1  0.20851430  0.83545201  0.39254750  1
  O2-  O233  1  0.21215881  0.83126304  0.73271141  1
  O2-  O234  1  0.70567739  0.33900570  0.06407740  1
  O2-  O235  1  0.69875096  0.32714399  0.39972567  1
  O2-  O236  1  0.70180150  0.33733138  0.73010091  1
  O2-  O237  1  0.70707872  0.83437421  0.05998732  1
  O2-  O238  1  0.70976966  0.83689996  0.40296459  1
  O2-  O239  1  0.70424183  0.83104076  0.73692893  1
  O2-  O240  1  0.45880565  0.42012446  0.26208979  1
  O2-  O241  1  0.45283908  0.41975846  0.59593655  1
  O2-  O242  1  0.46068441  0.41023139  0.93683654  1
  O2-  O243  1  0.45556955  0.91590807  0.26809415  1
  O2-  O244  1  0.44530343  0.92261017  0.60246996  1
  O2-  O245  1  0.45038674  0.91735271  0.93761241  1
  O2-  O246  1  0.95359442  0.41451428  0.27034131  1
  O2-  O247  1  0.96026952  0.41476827  0.60211863  1
  O2-  O248  1  0.94747895  0.41916673  0.93878532  1
  O2-  O249  1  0.95619401  0.91179636  0.26802384  1
  O2-  O250  1  0.95782104  0.91318248  0.60131830  1
  O2-  O251  1  0.96269031  0.91620150  0.93204818  1
  O2-  O252  1  0.33820312  0.28446805  0.25995083  1
  O2-  O253  1  0.33151524  0.29032183  0.59585572  1
  O2-  O254  1  0.33971230  0.29225638  0.93716453  1
  O2-  O255  1  0.33730858  0.79569644  0.26616500  1
  O2-  O256  1  0.33332808  0.78514922  0.59541014  1
  O2-  O257  1  0.33053004  0.79945977  0.94267510  1
  O2-  O258  1  0.83124736  0.29980581  0.27238246  1
  O2-  O259  1  0.83249512  0.30634001  0.60610953  1
  O2-  O260  1  0.83180878  0.29624941  0.93621837  1
  O2-  O261  1  0.83330018  0.79554638  0.27148399  1
  O2-  O262  1  0.83372552  0.79934845  0.60703264  1
  O2-  O263  1  0.83593527  0.79023257  0.92825524  1
  O2-  O264  1  0.41762597  0.04614329  0.06655267  1
  O2-  O265  1  0.41084392  0.04272837  0.39670175  1
  O2-  O266  1  0.41457194  0.05384842  0.72718210  1
  O2-  O267  1  0.42017432  0.53674878  0.06903217  1
  O2-  O268  1  0.41500567  0.54753122  0.39759647  1
  O2-  O269  1  0.41364000  0.54363011  0.72512115  1
  O2-  O270  1  0.91492004  0.03651438  0.07032036  1
  O2-  O271  1  0.91620752  0.03816518  0.39585526  1
  O2-  O272  1  0.91756188  0.03875301  0.73572523  1
  O2-  O273  1  0.91179368  0.54781985  0.06252127  1
  O2-  O274  1  0.91956024  0.54096824  0.40044019  1
  O2-  O275  1  0.91657415  0.53517686  0.74019403  1
  O2-  O276  1  0.29918383  0.16598284  0.06303756  1
  O2-  O277  1  0.29134424  0.16203111  0.39405095  1
  O2-  O278  1  0.29116845  0.16689691  0.72911617  1
  O2-  O279  1  0.30432729  0.67013884  0.06967793  1
  O2-  O280  1  0.29785737  0.66976998  0.39495623  1
  O2-  O281  1  0.28975062  0.65953604  0.72859526  1
  O2-  O282  1  0.79142554  0.16781810  0.07182796  1
  O2-  O283  1  0.80793162  0.16672141  0.39360008  1
  O2-  O284  1  0.79914175  0.17412034  0.73318358  1
  O2-  O285  1  0.78983823  0.66515159  0.05996630  1
  O2-  O286  1  0.79399424  0.66863454  0.40236438  1
  O2-  O287  1  0.79574247  0.66831563  0.73682450  1
