# generated using pymatgen
data_Ca2Al2SiO7
_symmetry_space_group_name_H-M   'P 1'
_cell_length_a   15.46322271
_cell_length_b   15.46358994
_cell_length_c   15.28728220
_cell_angle_alpha   89.98915157
_cell_angle_beta   89.99530742
_cell_angle_gamma   89.99442705
_symmetry_Int_Tables_number   1
_chemical_formula_structural   Ca2Al2SiO7
_chemical_formula_sum   'Ca48 Al48 Si24 O168'
_cell_volume   3655.44797096
_cell_formula_units_Z   24
loop_
 _symmetry_equiv_pos_site_id
 _symmetry_equiv_pos_as_xyz
  1  'x, y, z'
loop_
 _atom_type_symbol
 _atom_type_oxidation_number
  Ca2+  2.0
  Al0+  0.0
  Si0+  0.0
  O2-  -2.0
loop_
 _atom_site_type_symbol
 _atom_site_label
 _atom_site_symmetry_multiplicity
 _atom_site_fract_x
 _atom_site_fract_y
 _atom_site_fract_z
 _atom_site_occupancy
  Ca2+  Ca0  1  0.16611534  0.08230867  0.16851710  1
  Ca2+  Ca1  1  0.17618127  0.07382159  0.51146714  1
  Ca2+  Ca2  1  0.17114590  0.08001018  0.83454984  1
  Ca2+  Ca3  1  0.17277617  0.59433999  0.16265137  1
  Ca2+  Ca4  1  0.17863219  0.58255078  0.50863408  1
  Ca2+  Ca5  1  0.17947452  0.58918686  0.84071990  1
  Ca2+  Ca6  1  0.66818481  0.07761960  0.16825134  1
  Ca2+  Ca7  1  0.65906769  0.06966419  0.50653748  1
  Ca2+  Ca8  1  0.66191524  0.07973161  0.83990292  1
  Ca2+  Ca9  1  0.67454189  0.60006379  0.16785444  1
  Ca2+  Ca10  1  0.67190709  0.58788564  0.50845725  1
  Ca2+  Ca11  1  0.66778638  0.58382719  0.83573462  1
  Ca2+  Ca12  1  0.08059041  0.32560961  0.15885196  1
  Ca2+  Ca13  1  0.08264914  0.33243374  0.49736731  1
  Ca2+  Ca14  1  0.08307772  0.32909561  0.83244930  1
  Ca2+  Ca15  1  0.06852986  0.82933211  0.15712537  1
  Ca2+  Ca16  1  0.07729011  0.83505880  0.49694081  1
  Ca2+  Ca17  1  0.07712813  0.83299005  0.83443421  1
  Ca2+  Ca18  1  0.58083698  0.32835136  0.16280513  1
  Ca2+  Ca19  1  0.57585078  0.33495481  0.50312220  1
  Ca2+  Ca20  1  0.58612628  0.32359733  0.82276275  1
  Ca2+  Ca21  1  0.57850884  0.82779483  0.16553745  1
  Ca2+  Ca22  1  0.58727848  0.82594950  0.49446159  1
  Ca2+  Ca23  1  0.58314357  0.82362659  0.83033721  1
  Ca2+  Ca24  1  0.33691885  0.42253846  0.16725487  1
  Ca2+  Ca25  1  0.34018568  0.41795485  0.50707324  1
  Ca2+  Ca26  1  0.34456616  0.42850822  0.83290859  1
  Ca2+  Ca27  1  0.33850963  0.91232429  0.17000667  1
  Ca2+  Ca28  1  0.33104051  0.91826079  0.51129486  1
  Ca2+  Ca29  1  0.33306373  0.91705161  0.83668619  1
  Ca2+  Ca30  1  0.83107487  0.43064054  0.17016606  1
  Ca2+  Ca31  1  0.82344405  0.43018839  0.50880691  1
  Ca2+  Ca32  1  0.82635399  0.42667217  0.83677045  1
  Ca2+  Ca33  1  0.83074528  0.91410552  0.17044011  1
  Ca2+  Ca34  1  0.82072847  0.91004439  0.50169585  1
  Ca2+  Ca35  1  0.82499539  0.91872602  0.83888474  1
  Ca2+  Ca36  1  0.42336164  0.17330544  0.16079504  1
  Ca2+  Ca37  1  0.41723798  0.17319752  0.50114841  1
  Ca2+  Ca38  1  0.42648641  0.17148748  0.82415737  1
  Ca2+  Ca39  1  0.42672795  0.67551151  0.15673343  1
  Ca2+  Ca40  1  0.42987566  0.66772445  0.49452417  1
  Ca2+  Ca41  1  0.42430885  0.66331336  0.82805742  1
  Ca2+  Ca42  1  0.92062184  0.16456373  0.15396731  1
  Ca2+  Ca43  1  0.91716894  0.16831088  0.49863088  1
  Ca2+  Ca44  1  0.91968913  0.15926910  0.83385061  1
  Ca2+  Ca45  1  0.91336785  0.67507165  0.15851682  1
  Ca2+  Ca46  1  0.91169632  0.66936617  0.49291324  1
  Ca2+  Ca47  1  0.91496329  0.66416239  0.83261895  1
  Al0+  Al48  1  -0.00017943  0.00070884  -0.00455538  1
  Al0+  Al49  1  0.00149832  0.00020951  0.33165291  1
  Al0+  Al50  1  0.00017625  -0.00144687  0.66734576  1
  Al0+  Al51  1  -0.00081222  0.49901436  0.00155680  1
  Al0+  Al52  1  0.00174603  0.49844055  0.33709757  1
  Al0+  Al53  1  0.00139883  0.50041205  0.66780585  1
  Al0+  Al54  1  0.49814325  0.00136913  -0.00424286  1
  Al0+  Al55  1  0.50050625  0.00112735  0.33517803  1
  Al0+  Al56  1  0.49948062  -0.00018984  0.67242697  1
  Al0+  Al57  1  0.49879412  0.50041647  0.00462106  1
  Al0+  Al58  1  0.50184206  0.49805853  0.32391240  1
  Al0+  Al59  1  0.50240809  0.49913109  0.66562107  1
  Al0+  Al60  1  0.24904285  0.24951760  -0.00322478  1
  Al0+  Al61  1  0.25061730  0.25008386  0.32989533  1
  Al0+  Al62  1  0.24905852  0.24848994  0.66630537  1
  Al0+  Al63  1  0.24739202  0.75175021  0.00037670  1
  Al0+  Al64  1  0.24982758  0.74975912  0.33392070  1
  Al0+  Al65  1  0.24704416  0.74903950  0.67383101  1
  Al0+  Al66  1  0.75025461  0.24938796  0.00207415  1
  Al0+  Al67  1  0.75154499  0.25195138  0.33399240  1
  Al0+  Al68  1  0.75209114  0.25001464  0.66231355  1
  Al0+  Al69  1  0.74702613  0.75120742  -0.00359611  1
  Al0+  Al70  1  0.75206783  0.75253925  0.33368154  1
  Al0+  Al71  1  0.75130461  0.75327411  0.67147000  1
  Al0+  Al72  1  0.82203527  0.57300338  0.68253425  1
  Al0+  Al73  1  0.42684172  0.82257682  0.32176420  1
  Al0+  Al74  1  0.57402408  0.17548195  0.65001376  1
  Al0+  Al75  1  0.57161506  0.18116245  0.98784655  1
  Al0+  Al76  1  0.32084783  0.57219087  0.01596930  1
  Al0+  Al77  1  0.06929287  0.67738213  0.98464440  1
  Al0+  Al78  1  0.81957473  0.57137977  0.01495416  1
  Al0+  Al79  1  0.68026360  0.93192074  0.34594110  1
  Al0+  Al80  1  0.92689250  0.82126141  0.98263300  1
  Al0+  Al81  1  0.42946181  0.32045678  0.65275808  1
  Al0+  Al82  1  0.17705142  0.92779122  0.68412858  1
  Al0+  Al83  1  0.42722800  0.82223925  0.98380798  1
  Al0+  Al84  1  0.42851413  0.31988649  0.31723871  1
  Al0+  Al85  1  0.57258773  0.67946130  0.31884062  1
  Al0+  Al86  1  0.56960071  0.67830063  0.98289703  1
  Al0+  Al87  1  0.32187495  0.56885549  0.67777201  1
  Al0+  Al88  1  0.67929021  0.42841571  0.68076974  1
  Al0+  Al89  1  0.67831956  0.93006966  0.68177160  1
  Al0+  Al90  1  0.93118083  0.82016238  0.32085534  1
  Al0+  Al91  1  0.07139340  0.17890402  0.98459274  1
  Al0+  Al92  1  0.82050070  0.06978816  0.01269482  1
  Al0+  Al93  1  0.81968295  0.57071357  0.34635857  1
  Al0+  Al94  1  0.32120414  0.07150705  0.68329431  1
  Al0+  Al95  1  0.57187607  0.68093323  0.65289022  1
  Si0+  Si96  1  0.07205922  0.67738181  0.65068068  1
  Si0+  Si97  1  0.67688754  0.42473141  0.35072349  1
  Si0+  Si98  1  0.93086190  0.82084056  0.65035599  1
  Si0+  Si99  1  0.06948334  0.17822408  0.64996700  1
  Si0+  Si100  1  0.67537601  0.92922493  0.01801305  1
  Si0+  Si101  1  0.32187540  0.57027967  0.34693385  1
  Si0+  Si102  1  0.17814826  0.42632286  0.01714745  1
  Si0+  Si103  1  0.42746156  0.32172205  0.98330097  1
  Si0+  Si104  1  0.17680869  0.42654954  0.68293848  1
  Si0+  Si105  1  0.93026524  0.32362154  0.64998560  1
  Si0+  Si106  1  0.42531449  0.82027291  0.65245647  1
  Si0+  Si107  1  0.82533069  0.07433618  0.34980903  1
  Si0+  Si108  1  0.06966385  0.18032173  0.31916518  1
  Si0+  Si109  1  0.92762411  0.32170958  0.98308328  1
  Si0+  Si110  1  0.57335940  0.17720788  0.31713655  1
  Si0+  Si111  1  0.07330255  0.67491590  0.31852780  1
  Si0+  Si112  1  0.82270439  0.07250050  0.68077970  1
  Si0+  Si113  1  0.17810767  0.92888226  0.34703448  1
  Si0+  Si114  1  0.92940513  0.32236257  0.31854105  1
  Si0+  Si115  1  0.17819665  0.93082070  0.01753872  1
  Si0+  Si116  1  0.67755793  0.42685101  0.01835792  1
  Si0+  Si117  1  0.18097446  0.42643251  0.34824404  1
  Si0+  Si118  1  0.31957218  0.07211169  0.34670822  1
  Si0+  Si119  1  0.32045428  0.07189844  0.01688313  1
  O2-  O120  1  0.25146856  -0.00043471  0.06094080  1
  O2-  O121  1  0.25430090  -0.00500804  0.38822275  1
  O2-  O122  1  0.25187775  -0.00311588  0.73353173  1
  O2-  O123  1  0.24445949  0.49708245  0.06205222  1
  O2-  O124  1  0.25134411  0.49816198  0.38972604  1
  O2-  O125  1  0.24816360  0.49261466  0.72503340  1
  O2-  O126  1  0.74717819  -0.00427330  0.06170063  1
  O2-  O127  1  0.75443603  0.00839081  0.39332224  1
  O2-  O128  1  0.74801811  0.01142431  0.72486231  1
  O2-  O129  1  0.74220285  0.49951001  0.06286492  1
  O2-  O130  1  0.74238520  0.49809106  0.39203516  1
  O2-  O131  1  0.74888710  0.50198959  0.73141056  1
  O2-  O132  1  -0.00404758  0.24745374  0.27557777  1
  O2-  O133  1  0.00033600  0.25074625  0.60701199  1
  O2-  O134  1  -0.00403010  0.25278296  0.93820413  1
  O2-  O135  1  0.00377698  0.74295267  0.27565891  1
  O2-  O136  1  -0.00028577  0.74694733  0.60825482  1
  O2-  O137  1  -0.00493963  0.74548565  0.93249138  1
  O2-  O138  1  0.50595103  0.24709561  0.27260561  1
  O2-  O139  1  0.50055349  0.24753525  0.60168780  1
  O2-  O140  1  0.49970122  0.25727438  0.94028959  1
  O2-  O141  1  0.49633044  0.74883494  0.27151743  1
  O2-  O142  1  0.49529324  0.75442882  0.60632430  1
  O2-  O143  1  0.49536525  0.74786468  0.93297199  1
  O2-  O144  1  0.07146132  0.18076394  0.09861123  1
  O2-  O145  1  0.06985109  0.18168265  0.42432022  1
  O2-  O146  1  0.06802076  0.17854478  0.75466515  1
  O2-  O147  1  0.06917721  0.68198321  0.09895044  1
  O2-  O148  1  0.07548764  0.67519190  0.42440058  1
  O2-  O149  1  0.07231480  0.67571405  0.75501810  1
  O2-  O150  1  0.56886536  0.18155505  0.10167740  1
  O2-  O151  1  0.57173828  0.17595328  0.42215880  1
  O2-  O152  1  0.57441253  0.17881155  0.76355567  1
  O2-  O153  1  0.57019414  0.68190845  0.09661629  1
  O2-  O154  1  0.57178667  0.67990790  0.43275559  1
  O2-  O155  1  0.57104445  0.68071376  0.76530932  1
  O2-  O156  1  0.17940629  0.42247280  0.24373733  1
  O2-  O157  1  0.17385151  0.42866471  0.57663916  1
  O2-  O158  1  0.17937366  0.42320155  0.91192004  1
  O2-  O159  1  0.17392175  0.93271982  0.24231487  1
  O2-  O160  1  0.17560621  0.93059027  0.56933281  1
  O2-  O161  1  0.17723614  0.93370653  0.91291471  1
  O2-  O162  1  0.68160906  0.41628554  0.24564491  1
  O2-  O163  1  0.68157855  0.42978974  0.56672535  1
  O2-  O164  1  0.68037195  0.42361817  0.91320869  1
  O2-  O165  1  0.68120669  0.93434672  0.23306551  1
  O2-  O166  1  0.68222068  0.92728497  0.56820737  1
  O2-  O167  1  0.67544993  0.93174800  0.91254552  1
  O2-  O168  1  0.42567549  0.31755069  0.08946923  1
  O2-  O169  1  0.42404362  0.31758396  0.42961787  1
  O2-  O170  1  0.42947049  0.31978281  0.76600410  1
  O2-  O171  1  0.43018071  0.82289276  0.09786633  1
  O2-  O172  1  0.42298211  0.82133002  0.43521592  1
  O2-  O173  1  0.42446684  0.81663053  0.75758596  1
  O2-  O174  1  0.93012185  0.32017315  0.08934530  1
  O2-  O175  1  0.93298611  0.32204482  0.42364150  1
  O2-  O176  1  0.93273872  0.32432677  0.75466668  1
  O2-  O177  1  0.92975698  0.82244285  0.09675984  1
  O2-  O178  1  0.93378076  0.82115104  0.43421657  1
  O2-  O179  1  0.93277613  0.82367010  0.75473376  1
  O2-  O180  1  0.31578524  0.07495615  0.24148215  1
  O2-  O181  1  0.31677414  0.07167390  0.56851081  1
  O2-  O182  1  0.31823140  0.07358574  0.91252868  1
  O2-  O183  1  0.31746093  0.57049652  0.24220536  1
  O2-  O184  1  0.31915295  0.56898712  0.56385095  1
  O2-  O185  1  0.32125431  0.56902585  0.90306998  1
  O2-  O186  1  0.82810861  0.07468214  0.24448797  1
  O2-  O187  1  0.82772264  0.06867871  0.57491015  1
  O2-  O188  1  0.81952143  0.06945835  0.89975409  1
  O2-  O189  1  0.82163066  0.56878492  0.23340541  1
  O2-  O190  1  0.82320497  0.57129173  0.56836793  1
  O2-  O191  1  0.82138480  0.56668078  0.90257280  1
  O2-  O192  1  0.04573429  0.08800917  0.27111406  1
  O2-  O193  1  0.03910186  0.08726489  0.60144262  1
  O2-  O194  1  0.04029831  0.08443568  0.92893227  1
  O2-  O195  1  0.05100909  0.58002685  0.27391535  1
  O2-  O196  1  0.04768216  0.58447841  0.60243493  1
  O2-  O197  1  0.04786356  0.57613271  0.93510074  1
  O2-  O198  1  0.54568894  0.08516835  0.26963508  1
  O2-  O199  1  0.54259034  0.07649108  0.59933442  1
  O2-  O200  1  0.53878074  0.08647261  0.93369608  1
  O2-  O201  1  0.55132573  0.57999665  0.26542085  1
  O2-  O202  1  0.54297569  0.58382378  0.59930379  1
  O2-  O203  1  0.54309895  0.57714484  0.93513436  1
  O2-  O204  1  0.15952012  0.21127330  0.27011455  1
  O2-  O205  1  0.16088665  0.20501603  0.60120648  1
  O2-  O206  1  0.16659479  0.21122211  0.92938360  1
  O2-  O207  1  0.16606220  0.70228847  0.27221049  1
  O2-  O208  1  0.16320257  0.70752559  0.60214673  1
  O2-  O209  1  0.16646340  0.70960864  0.93275229  1
  O2-  O210  1  0.66860566  0.20189491  0.27294019  1
  O2-  O211  1  0.67341436  0.20147170  0.59654820  1
  O2-  O212  1  0.66923223  0.20830649  0.93494502  1
  O2-  O213  1  0.66880057  0.71460161  0.26660527  1
  O2-  O214  1  0.66921678  0.71519417  0.60132190  1
  O2-  O215  1  0.66694737  0.70732074  0.92970474  1
  O2-  O216  1  0.08344737  0.44736068  0.06344630  1
  O2-  O217  1  0.08930408  0.45228460  0.39786749  1
  O2-  O218  1  0.08487109  0.45349373  0.73068905  1
  O2-  O219  1  0.08772341  0.96395484  0.06483414  1
  O2-  O220  1  0.08904594  0.96270699  0.39740938  1
  O2-  O221  1  0.08075913  0.96280443  0.73665990  1
  O2-  O222  1  0.58227193  0.44664866  0.06347642  1
  O2-  O223  1  0.58035448  0.44666393  0.39151856  1
  O2-  O224  1  0.58086103  0.45228353  0.73370806  1
  O2-  O225  1  0.58282649  0.96012522  0.06367608  1
  O2-  O226  1  0.58341472  0.96087915  0.40174091  1
  O2-  O227  1  0.58130732  0.95390261  0.73654345  1
  O2-  O228  1  0.20691026  0.33318907  0.06486279  1
  O2-  O229  1  0.20894586  0.33485283  0.39726085  1
  O2-  O230  1  0.19693632  0.33129728  0.72660183  1
  O2-  O231  1  0.20168868  0.83865018  0.06589022  1
  O2-  O232  1  0.19903543  0.83502810  0.39413828  1
  O2-  O233  1  0.19866613  0.82880793  0.73700215  1
  O2-  O234  1  0.70816798  0.33543904  0.06716260  1
  O2-  O235  1  0.70672169  0.33338870  0.40029298  1
  O2-  O236  1  0.71208754  0.32982012  0.73159975  1
  O2-  O237  1  0.69979638  0.83504973  0.06231073  1
  O2-  O238  1  0.71511909  0.83737734  0.40142903  1
  O2-  O239  1  0.71628087  0.83823924  0.73864889  1
  O2-  O240  1  0.45660287  0.41535543  0.26015230  1
  O2-  O241  1  0.45963438  0.41736969  0.59701756  1
  O2-  O242  1  0.44915788  0.41737951  0.94243346  1
  O2-  O243  1  0.45444536  0.92185726  0.26953643  1
  O2-  O244  1  0.44756194  0.91621069  0.61063851  1
  O2-  O245  1  0.45482731  0.92052372  0.93111760  1
  O2-  O246  1  0.96283439  0.41192416  0.27013614  1
  O2-  O247  1  0.96196952  0.41372702  0.60037530  1
  O2-  O248  1  0.95482567  0.41398207  0.93658244  1
  O2-  O249  1  0.96339274  0.91679439  0.26667632  1
  O2-  O250  1  0.96209625  0.91146633  0.60125008  1
  O2-  O251  1  0.96119024  0.91742301  0.92946772  1
  O2-  O252  1  0.33291381  0.28607992  0.26173127  1
  O2-  O253  1  0.32891164  0.29369384  0.60020070  1
  O2-  O254  1  0.33527139  0.29373032  0.93715075  1
  O2-  O255  1  0.32693375  0.79765059  0.26865870  1
  O2-  O256  1  0.33015016  0.79512180  0.60801614  1
  O2-  O257  1  0.32582393  0.80061304  0.93601486  1
  O2-  O258  1  0.83639059  0.29976807  0.27171711  1
  O2-  O259  1  0.84016123  0.29621633  0.59932330  1
  O2-  O260  1  0.83468577  0.29535045  0.93795802  1
  O2-  O261  1  0.83552564  0.79189242  0.26594831  1
  O2-  O262  1  0.83867490  0.79406836  0.60375825  1
  O2-  O263  1  0.82725529  0.79885903  0.93203236  1
  O2-  O264  1  0.41283082  0.04560540  0.06431645  1
  O2-  O265  1  0.41325304  0.05228527  0.39270097  1
  O2-  O266  1  0.41945810  0.04815301  0.73655652  1
  O2-  O267  1  0.41580151  0.53984437  0.07309064  1
  O2-  O268  1  0.41525886  0.54152138  0.38995415  1
  O2-  O269  1  0.41734730  0.53812742  0.73228749  1
  O2-  O270  1  0.91900057  0.04147460  0.06556964  1
  O2-  O271  1  0.91904878  0.04759134  0.39629910  1
  O2-  O272  1  0.91361165  0.04062727  0.72856512  1
  O2-  O273  1  0.91620138  0.53821556  0.06937650  1
  O2-  O274  1  0.91698213  0.53807422  0.40006987  1
  O2-  O275  1  0.92073134  0.54157333  0.73318336  1
  O2-  O276  1  0.28921194  0.16332727  0.06449516  1
  O2-  O277  1  0.28380986  0.16100357  0.39515874  1
  O2-  O278  1  0.28717182  0.16844617  0.73582105  1
  O2-  O279  1  0.28700555  0.66862264  0.06985049  1
  O2-  O280  1  0.29317922  0.66148261  0.39585852  1
  O2-  O281  1  0.28818597  0.66277081  0.73380752  1
  O2-  O282  1  0.79274126  0.16702562  0.06875245  1
  O2-  O283  1  0.80397845  0.16983621  0.39460283  1
  O2-  O284  1  0.80829211  0.16947247  0.72269965  1
  O2-  O285  1  0.78962754  0.67014068  0.06607583  1
  O2-  O286  1  0.79263572  0.66811238  0.39979911  1
  O2-  O287  1  0.79753941  0.67158000  0.73412031  1
