# generated using pymatgen
data_Ca2Al2SiO7
_symmetry_space_group_name_H-M   'P 1'
_cell_length_a   15.45276476
_cell_length_b   15.45232844
_cell_length_c   15.27949219
_cell_angle_alpha   90.00257515
_cell_angle_beta   89.99837901
_cell_angle_gamma   89.98806350
_symmetry_Int_Tables_number   1
_chemical_formula_structural   Ca2Al2SiO7
_chemical_formula_sum   'Ca48 Al48 Si24 O168'
_cell_volume   3648.45534131
_cell_formula_units_Z   24
loop_
 _symmetry_equiv_pos_site_id
 _symmetry_equiv_pos_as_xyz
  1  'x, y, z'
loop_
 _atom_type_symbol
 _atom_type_oxidation_number
  Ca2+  2.0
  Al0+  0.0
  Si0+  0.0
  O2-  -2.0
loop_
 _atom_site_type_symbol
 _atom_site_label
 _atom_site_symmetry_multiplicity
 _atom_site_fract_x
 _atom_site_fract_y
 _atom_site_fract_z
 _atom_site_occupancy
  Ca2+  Ca0  1  0.17445494  0.08639869  0.17149371  1
  Ca2+  Ca1  1  0.17482416  0.08209724  0.50239739  1
  Ca2+  Ca2  1  0.16699434  0.08068977  0.83997768  1
  Ca2+  Ca3  1  0.17150069  0.58319353  0.16754309  1
  Ca2+  Ca4  1  0.16089111  0.57261367  0.50616972  1
  Ca2+  Ca5  1  0.16814957  0.58300262  0.83861717  1
  Ca2+  Ca6  1  0.66167967  0.07970769  0.17173412  1
  Ca2+  Ca7  1  0.67760497  0.08778406  0.50184335  1
  Ca2+  Ca8  1  0.67003822  0.07912179  0.83981677  1
  Ca2+  Ca9  1  0.65692536  0.57625436  0.16436001  1
  Ca2+  Ca10  1  0.67454597  0.57629080  0.51084195  1
  Ca2+  Ca11  1  0.66369741  0.57763471  0.84036728  1
  Ca2+  Ca12  1  0.07982196  0.33217742  0.16526916  1
  Ca2+  Ca13  1  0.07780661  0.33981824  0.49403284  1
  Ca2+  Ca14  1  0.08772272  0.32751898  0.82948251  1
  Ca2+  Ca15  1  0.07610798  0.83204701  0.16148947  1
  Ca2+  Ca16  1  0.07216088  0.82726626  0.49958872  1
  Ca2+  Ca17  1  0.08032465  0.81771699  0.82546191  1
  Ca2+  Ca18  1  0.58234007  0.32052297  0.15600378  1
  Ca2+  Ca19  1  0.58239163  0.33095988  0.49722772  1
  Ca2+  Ca20  1  0.57535578  0.34340168  0.83232417  1
  Ca2+  Ca21  1  0.57323250  0.83175130  0.15644414  1
  Ca2+  Ca22  1  0.57521055  0.83503707  0.49635405  1
  Ca2+  Ca23  1  0.57708426  0.83395011  0.83428020  1
  Ca2+  Ca24  1  0.33227484  0.42060157  0.16807742  1
  Ca2+  Ca25  1  0.32095671  0.41194163  0.50793949  1
  Ca2+  Ca26  1  0.33445363  0.41966093  0.83998535  1
  Ca2+  Ca27  1  0.33712319  0.91920205  0.17346687  1
  Ca2+  Ca28  1  0.34295190  0.92071200  0.50063257  1
  Ca2+  Ca29  1  0.33709757  0.91255149  0.83855004  1
  Ca2+  Ca30  1  0.82969526  0.41309212  0.16894323  1
  Ca2+  Ca31  1  0.82938845  0.42014547  0.51067048  1
  Ca2+  Ca32  1  0.82095080  0.42299723  0.83473732  1
  Ca2+  Ca33  1  0.82668087  0.92103139  0.17320307  1
  Ca2+  Ca34  1  0.84257467  0.92536455  0.50602779  1
  Ca2+  Ca35  1  0.83173269  0.91829123  0.83719780  1
  Ca2+  Ca36  1  0.42565441  0.16782053  0.16051028  1
  Ca2+  Ca37  1  0.42340169  0.17050107  0.49334930  1
  Ca2+  Ca38  1  0.42472563  0.17933275  0.83182665  1
  Ca2+  Ca39  1  0.41686557  0.67563847  0.15581680  1
  Ca2+  Ca40  1  0.41505724  0.67784148  0.49811255  1
  Ca2+  Ca41  1  0.41777596  0.67201952  0.83319094  1
  Ca2+  Ca42  1  0.91894451  0.16950270  0.16620000  1
  Ca2+  Ca43  1  0.91175486  0.17121484  0.49169680  1
  Ca2+  Ca44  1  0.92041415  0.16297487  0.83119211  1
  Ca2+  Ca45  1  0.92340386  0.67152132  0.16203953  1
  Ca2+  Ca46  1  0.91446579  0.67157682  0.49886233  1
  Ca2+  Ca47  1  0.92447578  0.66593612  0.82399578  1
  Al0+  Al48  1  0.00064569  0.00162803  -0.00157955  1
  Al0+  Al49  1  0.00048574  -0.00061893  0.33272685  1
  Al0+  Al50  1  0.00330412  -0.00099856  0.66852057  1
  Al0+  Al51  1  -0.00085644  0.49974094  -0.00271983  1
  Al0+  Al52  1  -0.00070210  0.49953412  0.33107238  1
  Al0+  Al53  1  0.00059892  0.49654798  0.67318143  1
  Al0+  Al54  1  0.50093697  0.00220869  -0.00384841  1
  Al0+  Al55  1  0.50013347  -0.00064069  0.33171461  1
  Al0+  Al56  1  0.50199776  0.00197041  0.66333303  1
  Al0+  Al57  1  0.49883752  0.50162892  0.00486471  1
  Al0+  Al58  1  0.49870339  0.50038464  0.33746785  1
  Al0+  Al59  1  0.49654997  0.50016482  0.66181124  1
  Al0+  Al60  1  0.24840969  0.24946118  -0.00597089  1
  Al0+  Al61  1  0.25010320  0.25005936  0.34285044  1
  Al0+  Al62  1  0.25217489  0.24899390  0.66716215  1
  Al0+  Al63  1  0.24674136  0.75004440  -0.00160341  1
  Al0+  Al64  1  0.24953917  0.74974386  0.33123320  1
  Al0+  Al65  1  0.24911376  0.74968365  0.65559679  1
  Al0+  Al66  1  0.75229584  0.25057623  0.00018893  1
  Al0+  Al67  1  0.74994433  0.24884973  0.32818244  1
  Al0+  Al68  1  0.75103983  0.24808989  0.67764030  1
  Al0+  Al69  1  0.74890698  0.75181327  0.00297524  1
  Al0+  Al70  1  0.74945343  0.74872987  0.32891311  1
  Al0+  Al71  1  0.75004217  0.75201273  0.66603146  1
  Al0+  Al72  1  0.57028180  0.18175592  0.32074571  1
  Al0+  Al73  1  0.06924180  0.67929756  0.98712492  1
  Al0+  Al74  1  0.17944937  0.43095818  0.34615785  1
  Al0+  Al75  1  0.67864843  0.93045374  0.01449028  1
  Al0+  Al76  1  0.67896026  0.43007328  0.01619522  1
  Al0+  Al77  1  0.06969341  0.67459072  0.64964555  1
  Al0+  Al78  1  0.57163941  0.67878079  0.98583106  1
  Al0+  Al79  1  0.07006786  0.17983397  0.98713899  1
  Al0+  Al80  1  0.43001882  0.82194379  0.65143819  1
  Al0+  Al81  1  0.57404738  0.17838264  0.98346348  1
  Al0+  Al82  1  0.92773258  0.82169295  0.65287273  1
  Al0+  Al83  1  0.32217358  0.06922005  0.34678837  1
  Al0+  Al84  1  0.17972536  0.42750803  0.68299768  1
  Al0+  Al85  1  0.92896639  0.32144545  0.32125113  1
  Al0+  Al86  1  0.42934108  0.32173908  0.98760635  1
  Al0+  Al87  1  0.82358623  0.06946714  0.68166047  1
  Al0+  Al88  1  0.92829870  0.82290855  0.31808801  1
  Al0+  Al89  1  0.42907064  0.32196152  0.65071976  1
  Al0+  Al90  1  0.82108109  0.57346445  0.68148689  1
  Al0+  Al91  1  0.42778497  0.82194356  0.98555069  1
  Al0+  Al92  1  0.31902252  0.57182787  0.01309453  1
  Al0+  Al93  1  0.82032123  0.06964904  0.34551586  1
  Al0+  Al94  1  0.67642046  0.42957578  0.68132029  1
  Al0+  Al95  1  0.43005287  0.81952583  0.31839383  1
  Si0+  Si96  1  0.92948404  0.31658896  0.65458313  1
  Si0+  Si97  1  0.17708669  0.42598136  0.01696962  1
  Si0+  Si98  1  0.42525003  0.32278738  0.31814942  1
  Si0+  Si99  1  0.92741123  0.82286008  0.98439467  1
  Si0+  Si100  1  0.31954957  0.07169728  0.01258217  1
  Si0+  Si101  1  0.07006759  0.67729148  0.31560539  1
  Si0+  Si102  1  0.32321059  0.06988290  0.68319595  1
  Si0+  Si103  1  0.82075490  0.57109871  0.34656841  1
  Si0+  Si104  1  0.57367851  0.17955073  0.64952832  1
  Si0+  Si105  1  0.32259827  0.57404935  0.35227579  1
  Si0+  Si106  1  0.67606310  0.92892903  0.68262198  1
  Si0+  Si107  1  0.82478039  0.07155170  0.01894342  1
  Si0+  Si108  1  0.57234889  0.67706371  0.64936726  1
  Si0+  Si109  1  0.92781378  0.32303029  0.98038558  1
  Si0+  Si110  1  0.67843592  0.92627244  0.35035351  1
  Si0+  Si111  1  0.17834022  0.92913081  0.01426879  1
  Si0+  Si112  1  0.57253562  0.67532279  0.31689316  1
  Si0+  Si113  1  0.31966222  0.57428095  0.68189070  1
  Si0+  Si114  1  0.67941988  0.42790653  0.34714244  1
  Si0+  Si115  1  0.82381319  0.57243059  0.01866932  1
  Si0+  Si116  1  0.17715491  0.92603945  0.35083808  1
  Si0+  Si117  1  0.18165465  0.92885283  0.68100304  1
  Si0+  Si118  1  0.07284292  0.17742003  0.65040847  1
  Si0+  Si119  1  0.07414479  0.17809243  0.31966361  1
  O2-  O120  1  0.25135235  -0.00177756  0.05612339  1
  O2-  O121  1  0.24790360  -0.00643034  0.39446019  1
  O2-  O122  1  0.25486329  -0.00352609  0.72547664  1
  O2-  O123  1  0.24542154  0.49524250  0.06028678  1
  O2-  O124  1  0.25504141  0.50373623  0.39527862  1
  O2-  O125  1  0.25282643  0.50441780  0.72724639  1
  O2-  O126  1  0.75250670  0.00626818  0.06208615  1
  O2-  O127  1  0.74985196  -0.00793060  0.39499031  1
  O2-  O128  1  0.74984628  -0.00710565  0.72586148  1
  O2-  O129  1  0.75358864  0.50542700  0.06390766  1
  O2-  O130  1  0.74831043  0.50124330  0.38858924  1
  O2-  O131  1  0.74380762  0.50657721  0.73073828  1
  O2-  O132  1  0.00467093  0.24634939  0.27633454  1
  O2-  O133  1  0.00055333  0.24710533  0.60880483  1
  O2-  O134  1  -0.00324402  0.25376472  0.93754023  1
  O2-  O135  1  0.00417816  0.74908572  0.27195174  1
  O2-  O136  1  -0.00601501  0.74439871  0.60191419  1
  O2-  O137  1  -0.00803390  0.75080428  0.94042466  1
  O2-  O138  1  0.49495673  0.25599379  0.27395728  1
  O2-  O139  1  0.50743000  0.25050641  0.60497176  1
  O2-  O140  1  0.50561357  0.25491148  0.93567080  1
  O2-  O141  1  0.50280910  0.74305164  0.27340533  1
  O2-  O142  1  0.50530893  0.74764615  0.60496518  1
  O2-  O143  1  0.50031342  0.75089610  0.93522301  1
  O2-  O144  1  0.07118073  0.18017307  0.10042221  1
  O2-  O145  1  0.07405494  0.17802933  0.42545132  1
  O2-  O146  1  0.07283918  0.17719035  0.75562263  1
  O2-  O147  1  0.06873788  0.68211241  0.10063650  1
  O2-  O148  1  0.06751987  0.67509695  0.42090793  1
  O2-  O149  1  0.07223554  0.67833943  0.76326853  1
  O2-  O150  1  0.56950122  0.17719210  0.09743197  1
  O2-  O151  1  0.57226560  0.18489557  0.43414656  1
  O2-  O152  1  0.57060233  0.17615453  0.75454907  1
  O2-  O153  1  0.56829654  0.68014643  0.09977837  1
  O2-  O154  1  0.57382984  0.67500678  0.42258710  1
  O2-  O155  1  0.57073726  0.67591950  0.75449714  1
  O2-  O156  1  0.17947649  0.43158354  0.23305525  1
  O2-  O157  1  0.17908353  0.42695868  0.56951091  1
  O2-  O158  1  0.17804522  0.42523700  0.91150698  1
  O2-  O159  1  0.17646080  0.92704108  0.24493820  1
  O2-  O160  1  0.18026719  0.93290952  0.57584764  1
  O2-  O161  1  0.17692938  0.93042957  0.90901026  1
  O2-  O162  1  0.67954280  0.42849558  0.24219607  1
  O2-  O163  1  0.68138757  0.42780498  0.56669854  1
  O2-  O164  1  0.67988582  0.43240174  0.90343959  1
  O2-  O165  1  0.67822969  0.92840969  0.24481492  1
  O2-  O166  1  0.67222789  0.93241763  0.57696646  1
  O2-  O167  1  0.68100904  0.93101357  0.90119542  1
  O2-  O168  1  0.42670933  0.31713522  0.10159222  1
  O2-  O169  1  0.42679949  0.32104066  0.42390616  1
  O2-  O170  1  0.42755334  0.32010378  0.76349675  1
  O2-  O171  1  0.42762617  0.82177178  0.09920993  1
  O2-  O172  1  0.43307648  0.81938341  0.43175247  1
  O2-  O173  1  0.42967818  0.82196352  0.76396582  1
  O2-  O174  1  0.92921604  0.32311552  0.08644115  1
  O2-  O175  1  0.92808086  0.32179023  0.43476779  1
  O2-  O176  1  0.93119710  0.31372639  0.75941869  1
  O2-  O177  1  0.93127402  0.82409507  0.09036738  1
  O2-  O178  1  0.92963655  0.82178162  0.43083655  1
  O2-  O179  1  0.93357879  0.82403285  0.76634595  1
  O2-  O180  1  0.31983548  0.07000837  0.23335845  1
  O2-  O181  1  0.32189559  0.06949872  0.57777658  1
  O2-  O182  1  0.31622074  0.07156884  0.90731251  1
  O2-  O183  1  0.32250453  0.57464054  0.24672487  1
  O2-  O184  1  0.31809616  0.57354940  0.57597945  1
  O2-  O185  1  0.31642737  0.57324204  0.90004825  1
  O2-  O186  1  0.81931877  0.06971096  0.23281868  1
  O2-  O187  1  0.82249811  0.07249418  0.56820562  1
  O2-  O188  1  0.82836144  0.06716653  0.91332694  1
  O2-  O189  1  0.82213021  0.57063991  0.24162549  1
  O2-  O190  1  0.82022739  0.56924711  0.56680207  1
  O2-  O191  1  0.82558809  0.57019386  0.91340335  1
  O2-  O192  1  0.05059516  0.08458203  0.27280681  1
  O2-  O193  1  0.04761578  0.08503742  0.60364318  1
  O2-  O194  1  0.03998620  0.08344150  0.93079033  1
  O2-  O195  1  0.04077737  0.58611262  0.26701174  1
  O2-  O196  1  0.04260863  0.57395484  0.60052412  1
  O2-  O197  1  0.04297766  0.58149206  0.93373063  1
  O2-  O198  1  0.53927819  0.08481572  0.26822282  1
  O2-  O199  1  0.54531741  0.08791960  0.60056856  1
  O2-  O200  1  0.54129255  0.08327676  0.92781765  1
  O2-  O201  1  0.54653938  0.58060670  0.27238928  1
  O2-  O202  1  0.54496080  0.58530504  0.59981012  1
  O2-  O203  1  0.54218369  0.58069498  0.93462311  1
  O2-  O204  1  0.16756316  0.20609617  0.27438263  1
  O2-  O205  1  0.16475578  0.20550013  0.60379137  1
  O2-  O206  1  0.16492911  0.20821430  0.92855126  1
  O2-  O207  1  0.16499896  0.70066007  0.27133259  1
  O2-  O208  1  0.16506840  0.70699314  0.59285086  1
  O2-  O209  1  0.16269100  0.71375520  0.93068453  1
  O2-  O210  1  0.66464072  0.21202057  0.26312001  1
  O2-  O211  1  0.66939350  0.20448791  0.60731477  1
  O2-  O212  1  0.67546357  0.20012456  0.93523968  1
  O2-  O213  1  0.66574083  0.69837887  0.26926773  1
  O2-  O214  1  0.66658054  0.70117679  0.60340155  1
  O2-  O215  1  0.67141506  0.70544692  0.93485238  1
  O2-  O216  1  0.08249077  0.45185414  0.06137772  1
  O2-  O217  1  0.08220150  0.46303525  0.39991930  1
  O2-  O218  1  0.08308547  0.45277979  0.73860150  1
  O2-  O219  1  0.08763312  0.96041722  0.06294799  1
  O2-  O220  1  0.08495101  0.95442669  0.39818344  1
  O2-  O221  1  0.09255374  0.95952600  0.73172394  1
  O2-  O222  1  0.58302016  0.45948261  0.07254915  1
  O2-  O223  1  0.58643355  0.45284694  0.39516539  1
  O2-  O224  1  0.57533506  0.45547278  0.72940864  1
  O2-  O225  1  0.58120428  0.96237603  0.06770540  1
  O2-  O226  1  0.58601483  0.95535256  0.39657869  1
  O2-  O227  1  0.58494326  0.96084510  0.73091084  1
  O2-  O228  1  0.20316232  0.33191104  0.06227627  1
  O2-  O229  1  0.20582714  0.33466642  0.40387376  1
  O2-  O230  1  0.21249434  0.33034270  0.73528298  1
  O2-  O231  1  0.20291373  0.83770555  0.06324865  1
  O2-  O232  1  0.20070765  0.83147127  0.39581106  1
  O2-  O233  1  0.20782370  0.83492684  0.72450954  1
  O2-  O234  1  0.71243635  0.33275762  0.06895272  1
  O2-  O235  1  0.71022095  0.33728241  0.39397365  1
  O2-  O236  1  0.70817060  0.33374640  0.73686941  1
  O2-  O237  1  0.70763199  0.83399279  0.07091247  1
  O2-  O238  1  0.70011238  0.83036510  0.39376165  1
  O2-  O239  1  0.69523678  0.83339787  0.72666799  1
  O2-  O240  1  0.44835750  0.41868996  0.27578251  1
  O2-  O241  1  0.45273679  0.41933114  0.59436870  1
  O2-  O242  1  0.45431754  0.42141302  0.93694745  1
  O2-  O243  1  0.46076013  0.91590405  0.26492075  1
  O2-  O244  1  0.46216490  0.91887018  0.59746406  1
  O2-  O245  1  0.45542983  0.92006675  0.93257711  1
  O2-  O246  1  0.96018417  0.41629546  0.26398744  1
  O2-  O247  1  0.95646102  0.40903573  0.60844670  1
  O2-  O248  1  0.95292354  0.41615039  0.93412741  1
  O2-  O249  1  0.96000403  0.91888060  0.26300152  1
  O2-  O250  1  0.96580868  0.91789904  0.59928264  1
  O2-  O251  1  0.95639105  0.91530962  0.93853094  1
  O2-  O252  1  0.33101054  0.29651584  0.27485626  1
  O2-  O253  1  0.33406935  0.28426788  0.59672830  1
  O2-  O254  1  0.33289454  0.29043429  0.93231997  1
  O2-  O255  1  0.33098515  0.79343416  0.26647866  1
  O2-  O256  1  0.33467097  0.79260809  0.59400887  1
  O2-  O257  1  0.32892288  0.79412376  0.93397089  1
  O2-  O258  1  0.83522679  0.28872223  0.26359397  1
  O2-  O259  1  0.83688959  0.28831284  0.60865695  1
  O2-  O260  1  0.83497480  0.29699861  0.93429378  1
  O2-  O261  1  0.83184927  0.79158558  0.26396721  1
  O2-  O262  1  0.82685509  0.80314592  0.59996510  1
  O2-  O263  1  0.83233297  0.80206071  0.94111356  1
  O2-  O264  1  0.41236981  0.04701838  0.05866798  1
  O2-  O265  1  0.41794279  0.03703528  0.40251971  1
  O2-  O266  1  0.41615060  0.04424169  0.72867035  1
  O2-  O267  1  0.41423947  0.54367444  0.07098563  1
  O2-  O268  1  0.41686695  0.55120862  0.39938738  1
  O2-  O269  1  0.41431599  0.55001761  0.72546164  1
  O2-  O270  1  0.91763097  0.04289244  0.06635784  1
  O2-  O271  1  0.91923510  0.04396666  0.39856022  1
  O2-  O272  1  0.92123520  0.04009282  0.73536493  1
  O2-  O273  1  0.91669712  0.54289395  0.06596058  1
  O2-  O274  1  0.91169018  0.54187804  0.39424904  1
  O2-  O275  1  0.91643497  0.53893681  0.73617441  1
  O2-  O276  1  0.28701136  0.16187500  0.06068089  1
  O2-  O277  1  0.29161555  0.16413031  0.40496739  1
  O2-  O278  1  0.29165392  0.16002551  0.73067830  1
  O2-  O279  1  0.28341564  0.66725076  0.06853309  1
  O2-  O280  1  0.29532557  0.66773128  0.39774521  1
  O2-  O281  1  0.29278206  0.66860775  0.72564445  1
  O2-  O282  1  0.80551210  0.16792459  0.06103197  1
  O2-  O283  1  0.78635466  0.16638366  0.39897412  1
  O2-  O284  1  0.79303281  0.16331412  0.74045182  1
  O2-  O285  1  0.80231378  0.66769287  0.06308153  1
  O2-  O286  1  0.79343711  0.66339647  0.39404484  1
  O2-  O287  1  0.80098516  0.67501582  0.73133465  1
