# generated using pymatgen
data_Ca2Al2SiO7
_symmetry_space_group_name_H-M   'P 1'
_cell_length_a   15.46315854
_cell_length_b   15.46334100
_cell_length_c   15.28717931
_cell_angle_alpha   90.01486980
_cell_angle_beta   90.00098016
_cell_angle_gamma   90.02353223
_symmetry_Int_Tables_number   1
_chemical_formula_structural   Ca2Al2SiO7
_chemical_formula_sum   'Ca48 Al48 Si24 O168'
_cell_volume   3655.34901589
_cell_formula_units_Z   24
loop_
 _symmetry_equiv_pos_site_id
 _symmetry_equiv_pos_as_xyz
  1  'x, y, z'
loop_
 _atom_type_symbol
 _atom_type_oxidation_number
  Ca2+  2.0
  Al0+  0.0
  Si0+  0.0
  O2-  -2.0
loop_
 _atom_site_type_symbol
 _atom_site_label
 _atom_site_symmetry_multiplicity
 _atom_site_fract_x
 _atom_site_fract_y
 _atom_site_fract_z
 _atom_site_occupancy
  Ca2+  Ca0  1  0.16268717  0.06841265  0.16989773  1
  Ca2+  Ca1  1  0.17184597  0.07518290  0.50769681  1
  Ca2+  Ca2  1  0.16972596  0.07273216  0.83568094  1
  Ca2+  Ca3  1  0.17101295  0.59060757  0.16155375  1
  Ca2+  Ca4  1  0.16993892  0.57727872  0.50608133  1
  Ca2+  Ca5  1  0.16587501  0.58249329  0.84105691  1
  Ca2+  Ca6  1  0.66662314  0.08344947  0.15750714  1
  Ca2+  Ca7  1  0.66811250  0.07521164  0.50612349  1
  Ca2+  Ca8  1  0.66782744  0.07359135  0.84285827  1
  Ca2+  Ca9  1  0.67312869  0.57976087  0.16907436  1
  Ca2+  Ca10  1  0.67631754  0.57425700  0.50482480  1
  Ca2+  Ca11  1  0.67839427  0.57504668  0.84121826  1
  Ca2+  Ca12  1  0.07374084  0.32937640  0.15679103  1
  Ca2+  Ca13  1  0.07935243  0.33769296  0.50177215  1
  Ca2+  Ca14  1  0.07031233  0.33823559  0.82700130  1
  Ca2+  Ca15  1  0.08041581  0.83103579  0.16006469  1
  Ca2+  Ca16  1  0.07338499  0.84088170  0.49679309  1
  Ca2+  Ca17  1  0.08100931  0.83113859  0.83026903  1
  Ca2+  Ca18  1  0.58625757  0.33525592  0.15909790  1
  Ca2+  Ca19  1  0.58165276  0.33806052  0.49478632  1
  Ca2+  Ca20  1  0.59366238  0.32946832  0.83208077  1
  Ca2+  Ca21  1  0.57637894  0.82649690  0.15099091  1
  Ca2+  Ca22  1  0.58590091  0.83254381  0.49800804  1
  Ca2+  Ca23  1  0.58910069  0.83062728  0.83099175  1
  Ca2+  Ca24  1  0.34134008  0.42368793  0.16788256  1
  Ca2+  Ca25  1  0.32916376  0.41306560  0.50553843  1
  Ca2+  Ca26  1  0.32419724  0.42242730  0.83714238  1
  Ca2+  Ca27  1  0.32117593  0.90502247  0.16560453  1
  Ca2+  Ca28  1  0.31983079  0.92144345  0.50998468  1
  Ca2+  Ca29  1  0.32445086  0.91337386  0.83956580  1
  Ca2+  Ca30  1  0.82652060  0.42613657  0.16719810  1
  Ca2+  Ca31  1  0.82936517  0.42737590  0.50989054  1
  Ca2+  Ca32  1  0.83272570  0.42227800  0.84163685  1
  Ca2+  Ca33  1  0.83166191  0.91742134  0.16721235  1
  Ca2+  Ca34  1  0.83300452  0.91322186  0.50786491  1
  Ca2+  Ca35  1  0.82543055  0.91769847  0.83896056  1
  Ca2+  Ca36  1  0.42348488  0.17638334  0.15964542  1
  Ca2+  Ca37  1  0.41464844  0.17109795  0.49577109  1
  Ca2+  Ca38  1  0.42282228  0.15982793  0.83035857  1
  Ca2+  Ca39  1  0.42364653  0.66876292  0.15116142  1
  Ca2+  Ca40  1  0.42127438  0.66639179  0.49641547  1
  Ca2+  Ca41  1  0.42074396  0.66779646  0.83976172  1
  Ca2+  Ca42  1  0.91037069  0.17302256  0.15587250  1
  Ca2+  Ca43  1  0.91577985  0.17447477  0.49984168  1
  Ca2+  Ca44  1  0.90467496  0.17917158  0.83271786  1
  Ca2+  Ca45  1  0.91785367  0.66636940  0.16129491  1
  Ca2+  Ca46  1  0.90775255  0.67514824  0.49863177  1
  Ca2+  Ca47  1  0.91731451  0.66545715  0.82794785  1
  Al0+  Al48  1  0.00116521  0.00071983  0.00687101  1
  Al0+  Al49  1  -0.00096017  -0.00053415  0.33396595  1
  Al0+  Al50  1  0.00138086  0.00144913  0.66627268  1
  Al0+  Al51  1  -0.00011606  0.49956854  -0.00259982  1
  Al0+  Al52  1  0.00157283  0.50164834  0.33571394  1
  Al0+  Al53  1  0.00205271  0.50072286  0.66604810  1
  Al0+  Al54  1  0.49700261  0.00256641  -0.00254993  1
  Al0+  Al55  1  0.49942476  0.00163922  0.33182326  1
  Al0+  Al56  1  0.50061173  -0.00044202  0.66907629  1
  Al0+  Al57  1  0.49786965  0.50082727  0.00029553  1
  Al0+  Al58  1  0.50030979  0.49998556  0.33347874  1
  Al0+  Al59  1  0.50147995  0.49927887  0.66799391  1
  Al0+  Al60  1  0.24833912  0.24848728  -0.00066200  1
  Al0+  Al61  1  0.25135301  0.24995782  0.32603847  1
  Al0+  Al62  1  0.25117331  0.25041529  0.67492406  1
  Al0+  Al63  1  0.24885109  0.74821147  -0.00095415  1
  Al0+  Al64  1  0.24816293  0.74932979  0.34127863  1
  Al0+  Al65  1  0.25165147  0.75026239  0.66689518  1
  Al0+  Al66  1  0.74821176  0.24974927  -0.00101398  1
  Al0+  Al67  1  0.74906255  0.24806806  0.33654403  1
  Al0+  Al68  1  0.74886830  0.24953701  0.65868987  1
  Al0+  Al69  1  0.74957545  0.74965785  0.00361836  1
  Al0+  Al70  1  0.75046609  0.75061630  0.33113678  1
  Al0+  Al71  1  0.75065905  0.74827858  0.66833937  1
  Al0+  Al72  1  0.67635549  0.92778644  0.01548068  1
  Al0+  Al73  1  0.43008952  0.32095415  0.31954742  1
  Al0+  Al74  1  0.93004217  0.31878213  0.98767320  1
  Al0+  Al75  1  0.57375003  0.67774466  0.98359744  1
  Al0+  Al76  1  0.82297019  0.57232098  0.35016269  1
  Al0+  Al77  1  0.92892613  0.32186584  0.65070639  1
  Al0+  Al78  1  0.82431582  0.57217173  0.01565021  1
  Al0+  Al79  1  0.67862441  0.42839379  0.34928191  1
  Al0+  Al80  1  0.18000607  0.43037399  0.67979846  1
  Al0+  Al81  1  0.67839144  0.42696929  0.68206628  1
  Al0+  Al82  1  0.68080864  0.92861798  0.67826068  1
  Al0+  Al83  1  0.32173365  0.07121789  0.68182345  1
  Al0+  Al84  1  0.06867218  0.68059205  0.98703562  1
  Al0+  Al85  1  0.81989017  0.07023715  0.01362156  1
  Al0+  Al86  1  0.17864910  0.92851399  0.34923136  1
  Al0+  Al87  1  0.92908005  0.82085308  0.31823013  1
  Al0+  Al88  1  0.31837602  0.56858737  0.01263524  1
  Al0+  Al89  1  0.92996051  0.82059401  0.65523164  1
  Al0+  Al90  1  0.82159374  0.57039886  0.68244536  1
  Al0+  Al91  1  0.18061085  0.92891553  0.01465365  1
  Al0+  Al92  1  0.17708317  0.92797008  0.68346558  1
  Al0+  Al93  1  0.56864784  0.18193896  0.98474190  1
  Al0+  Al94  1  0.67908200  0.42890947  0.01427792  1
  Al0+  Al95  1  0.42802091  0.82091472  0.98484924  1
  Si0+  Si96  1  0.67777391  0.92972402  0.34669023  1
  Si0+  Si97  1  0.57036193  0.67884361  0.65026850  1
  Si0+  Si98  1  0.56913043  0.68091200  0.31937400  1
  Si0+  Si99  1  0.42904672  0.32071217  0.65322640  1
  Si0+  Si100  1  0.42916674  0.82216036  0.64958676  1
  Si0+  Si101  1  0.32114289  0.07310181  0.34795654  1
  Si0+  Si102  1  0.07316371  0.17503691  0.98254801  1
  Si0+  Si103  1  0.07028462  0.17963553  0.31878120  1
  Si0+  Si104  1  0.82160914  0.07092312  0.34990678  1
  Si0+  Si105  1  0.92870583  0.32158779  0.31932938  1
  Si0+  Si106  1  0.17692628  0.42635618  0.01757974  1
  Si0+  Si107  1  0.32435918  0.57327195  0.68285826  1
  Si0+  Si108  1  0.57018097  0.17683662  0.64918245  1
  Si0+  Si109  1  0.82266389  0.07319500  0.68022327  1
  Si0+  Si110  1  0.42707413  0.82126536  0.32159913  1
  Si0+  Si111  1  0.92778226  0.82461395  0.98475544  1
  Si0+  Si112  1  0.07451516  0.67710547  0.31718023  1
  Si0+  Si113  1  0.07445221  0.17988492  0.64995349  1
  Si0+  Si114  1  0.07514070  0.67818683  0.64837921  1
  Si0+  Si115  1  0.17984920  0.42618180  0.34624499  1
  Si0+  Si116  1  0.32119845  0.57010713  0.34856483  1
  Si0+  Si117  1  0.32216874  0.07447547  0.01971614  1
  Si0+  Si118  1  0.57360542  0.17572468  0.31534471  1
  Si0+  Si119  1  0.42478109  0.32368122  0.98027097  1
  O2-  O120  1  0.25490257  0.00399448  0.06323006  1
  O2-  O121  1  0.25538572  0.00262281  0.39337781  1
  O2-  O122  1  0.25187456  -0.00235135  0.73172526  1
  O2-  O123  1  0.24806254  0.49138731  0.06321013  1
  O2-  O124  1  0.25093181  0.49750196  0.38891211  1
  O2-  O125  1  0.25122827  0.50861793  0.72482814  1
  O2-  O126  1  0.75148623  -0.00379219  0.06655220  1
  O2-  O127  1  0.74959739  -0.00038450  0.38990895  1
  O2-  O128  1  0.75681777  0.00195185  0.72320944  1
  O2-  O129  1  0.74762913  0.50409202  0.06415067  1
  O2-  O130  1  0.75397289  0.49666493  0.39902981  1
  O2-  O131  1  0.75448340  0.49379967  0.73118311  1
  O2-  O132  1  -0.00085781  0.25026460  0.27639904  1
  O2-  O133  1  0.00483183  0.24723607  0.60388303  1
  O2-  O134  1  0.00462648  0.24393596  0.93959470  1
  O2-  O135  1  0.00384942  0.74458994  0.27489845  1
  O2-  O136  1  0.00697763  0.74834004  0.60566940  1
  O2-  O137  1  -0.00814413  0.75226872  0.94007412  1
  O2-  O138  1  0.50783869  0.24894339  0.27444511  1
  O2-  O139  1  0.50015504  0.25030345  0.60914998  1
  O2-  O140  1  0.49379987  0.25587600  0.93597041  1
  O2-  O141  1  0.49848012  0.75250846  0.27793482  1
  O2-  O142  1  0.49908815  0.75007317  0.60638439  1
  O2-  O143  1  0.50638332  0.75561606  0.93434658  1
  O2-  O144  1  0.07403905  0.17710477  0.08890945  1
  O2-  O145  1  0.07120601  0.18129368  0.42392030  1
  O2-  O146  1  0.07492622  0.18062036  0.75491457  1
  O2-  O147  1  0.07039150  0.68273570  0.10058725  1
  O2-  O148  1  0.07954909  0.67634115  0.42244938  1
  O2-  O149  1  0.07661097  0.67801251  0.75365209  1
  O2-  O150  1  0.56711955  0.18387678  0.09827926  1
  O2-  O151  1  0.57130977  0.17015818  0.42097902  1
  O2-  O152  1  0.57083828  0.17496887  0.75362621  1
  O2-  O153  1  0.56887401  0.67696572  0.09817557  1
  O2-  O154  1  0.56692842  0.68200825  0.42512715  1
  O2-  O155  1  0.56881890  0.67894099  0.75445229  1
  O2-  O156  1  0.17906608  0.42489604  0.24168354  1
  O2-  O157  1  0.18387663  0.42974995  0.56556288  1
  O2-  O158  1  0.17767230  0.42787255  0.91204888  1
  O2-  O159  1  0.18045122  0.92747754  0.23634413  1
  O2-  O160  1  0.17833788  0.93077427  0.56928029  1
  O2-  O161  1  0.18050873  0.92988781  0.90211937  1
  O2-  O162  1  0.67799651  0.43050976  0.23633527  1
  O2-  O163  1  0.67579223  0.43068498  0.56821738  1
  O2-  O164  1  0.68310990  0.42746999  0.90105556  1
  O2-  O165  1  0.67534919  0.93070990  0.24252570  1
  O2-  O166  1  0.67983056  0.93043687  0.56401642  1
  O2-  O167  1  0.67825262  0.93019972  0.90184740  1
  O2-  O168  1  0.42395292  0.32140042  0.08634443  1
  O2-  O169  1  0.42607202  0.31800967  0.43303711  1
  O2-  O170  1  0.42857200  0.32148515  0.75755918  1
  O2-  O171  1  0.42663272  0.81572689  0.09963194  1
  O2-  O172  1  0.42908984  0.81986733  0.42705801  1
  O2-  O173  1  0.42825422  0.82231079  0.75376943  1
  O2-  O174  1  0.93252678  0.31757359  0.10165058  1
  O2-  O175  1  0.93125479  0.31998372  0.42447404  1
  O2-  O176  1  0.92851352  0.31965181  0.76328872  1
  O2-  O177  1  0.93209186  0.82602898  0.09068634  1
  O2-  O178  1  0.92920447  0.82257562  0.43158790  1
  O2-  O179  1  0.92930865  0.82009174  0.76769917  1
  O2-  O180  1  0.31970040  0.07425079  0.24300419  1
  O2-  O181  1  0.32020779  0.07108057  0.56719861  1
  O2-  O182  1  0.31944495  0.07648356  0.91440261  1
  O2-  O183  1  0.32133786  0.57235126  0.24403651  1
  O2-  O184  1  0.32566078  0.57132296  0.57624206  1
  O2-  O185  1  0.31554352  0.56764681  0.89967445  1
  O2-  O186  1  0.82293569  0.07344428  0.24547188  1
  O2-  O187  1  0.82012061  0.07308612  0.57372701  1
  O2-  O188  1  0.81840448  0.07033645  0.89996094  1
  O2-  O189  1  0.82272248  0.57151952  0.23715510  1
  O2-  O190  1  0.81756862  0.57230962  0.56857480  1
  O2-  O191  1  0.82695289  0.56849806  0.90251571  1
  O2-  O192  1  0.04161088  0.08793191  0.27214065  1
  O2-  O193  1  0.04906241  0.08653067  0.60219519  1
  O2-  O194  1  0.04814200  0.08106512  0.93829710  1
  O2-  O195  1  0.05250237  0.58231869  0.27115365  1
  O2-  O196  1  0.05043812  0.58465293  0.60138836  1
  O2-  O197  1  0.04354709  0.58266432  0.93310177  1
  O2-  O198  1  0.54390504  0.08417425  0.26643803  1
  O2-  O199  1  0.53992569  0.08588032  0.59968418  1
  O2-  O200  1  0.53784842  0.08562705  0.93003160  1
  O2-  O201  1  0.53952875  0.58977006  0.27297730  1
  O2-  O202  1  0.53969587  0.58771550  0.60139450  1
  O2-  O203  1  0.53711689  0.58182039  0.93054179  1
  O2-  O204  1  0.16102290  0.20662663  0.26888488  1
  O2-  O205  1  0.16805596  0.20850114  0.60414138  1
  O2-  O206  1  0.16689373  0.19962530  0.93638017  1
  O2-  O207  1  0.16817862  0.70577628  0.27146562  1
  O2-  O208  1  0.17031580  0.70097760  0.60201218  1
  O2-  O209  1  0.16375817  0.71217818  0.93158499  1
  O2-  O210  1  0.66899721  0.19732824  0.27149029  1
  O2-  O211  1  0.66107933  0.20174046  0.59779214  1
  O2-  O212  1  0.66476069  0.21112050  0.92973935  1
  O2-  O213  1  0.66047195  0.70830428  0.27239037  1
  O2-  O214  1  0.66101765  0.70858877  0.60168908  1
  O2-  O215  1  0.67404732  0.70178929  0.93282644  1
  O2-  O216  1  0.08533043  0.45543993  0.06457725  1
  O2-  O217  1  0.08903414  0.45408659  0.39567018  1
  O2-  O218  1  0.08364148  0.45854377  0.73343018  1
  O2-  O219  1  0.08568629  0.96039865  0.07192801  1
  O2-  O220  1  0.08274475  0.96340719  0.40171829  1
  O2-  O221  1  0.07969681  0.95891409  0.73571757  1
  O2-  O222  1  0.57797175  0.45235705  0.06366087  1
  O2-  O223  1  0.58028344  0.46038740  0.40220498  1
  O2-  O224  1  0.58054372  0.45662804  0.73423210  1
  O2-  O225  1  0.57773179  0.96036150  0.06651458  1
  O2-  O226  1  0.58571635  0.95810055  0.39536761  1
  O2-  O227  1  0.58496596  0.95900667  0.73143106  1
  O2-  O228  1  0.19840499  0.33072313  0.06176290  1
  O2-  O229  1  0.20938909  0.33468980  0.39354534  1
  O2-  O230  1  0.21196446  0.33669763  0.73673775  1
  O2-  O231  1  0.21339108  0.83306644  0.06874383  1
  O2-  O232  1  0.20830315  0.83285200  0.40581696  1
  O2-  O233  1  0.20533974  0.82825422  0.73251452  1
  O2-  O234  1  0.70989158  0.33194647  0.06812839  1
  O2-  O235  1  0.70028056  0.32679459  0.39954810  1
  O2-  O236  1  0.70117745  0.32449406  0.72693370  1
  O2-  O237  1  0.69987084  0.82884790  0.06873488  1
  O2-  O238  1  0.70447998  0.83773182  0.39397896  1
  O2-  O239  1  0.70916510  0.83254558  0.73184856  1
  O2-  O240  1  0.45760437  0.41903513  0.26644652  1
  O2-  O241  1  0.45547544  0.41293269  0.60415879  1
  O2-  O242  1  0.44642984  0.41816031  0.93615252  1
  O2-  O243  1  0.45094374  0.91441054  0.27543616  1
  O2-  O244  1  0.45886008  0.91335155  0.60109047  1
  O2-  O245  1  0.44467631  0.92286003  0.93632171  1
  O2-  O246  1  0.95785970  0.41362315  0.27376324  1
  O2-  O247  1  0.96356202  0.41757729  0.59607901  1
  O2-  O248  1  0.96331164  0.41342893  0.93252206  1
  O2-  O249  1  0.96022841  0.91814563  0.26540529  1
  O2-  O250  1  0.95782217  0.91906314  0.60027423  1
  O2-  O251  1  0.95788966  0.91744604  0.93989696  1
  O2-  O252  1  0.33518008  0.28996931  0.26144302  1
  O2-  O253  1  0.33698817  0.29156585  0.60562523  1
  O2-  O254  1  0.33008532  0.29725728  0.93612357  1
  O2-  O255  1  0.33463504  0.79123361  0.27737700  1
  O2-  O256  1  0.33719434  0.79429772  0.60064365  1
  O2-  O257  1  0.33337818  0.78338485  0.93072916  1
  O2-  O258  1  0.83636711  0.29194957  0.27468838  1
  O2-  O259  1  0.83391467  0.28901769  0.59304500  1
  O2-  O260  1  0.83480808  0.28638807  0.93330401  1
  O2-  O261  1  0.83155768  0.79315421  0.26430282  1
  O2-  O262  1  0.83342304  0.78809421  0.59929914  1
  O2-  O263  1  0.83157246  0.80508521  0.94324698  1
  O2-  O264  1  0.41625279  0.05269786  0.06514809  1
  O2-  O265  1  0.41618860  0.05066056  0.39343619  1
  O2-  O266  1  0.42015252  0.04363254  0.73328344  1
  O2-  O267  1  0.41443376  0.54008544  0.06916737  1
  O2-  O268  1  0.41232218  0.54276278  0.39754647  1
  O2-  O269  1  0.41539310  0.54293151  0.72934279  1
  O2-  O270  1  0.91913827  0.04814530  0.06866040  1
  O2-  O271  1  0.91267754  0.04319884  0.39852222  1
  O2-  O272  1  0.91763893  0.05431932  0.72405734  1
  O2-  O273  1  0.92112054  0.53822630  0.06954531  1
  O2-  O274  1  0.92349309  0.54806438  0.40181134  1
  O2-  O275  1  0.92272723  0.54796714  0.72991465  1
  O2-  O276  1  0.29477431  0.16811167  0.06627502  1
  O2-  O277  1  0.29237001  0.16628605  0.39403897  1
  O2-  O278  1  0.29556662  0.16821729  0.73721061  1
  O2-  O279  1  0.28445213  0.66306368  0.06875677  1
  O2-  O280  1  0.29298176  0.66003756  0.40021691  1
  O2-  O281  1  0.30413111  0.66828145  0.72646344  1
  O2-  O282  1  0.78619184  0.16632370  0.06848930  1
  O2-  O283  1  0.79384020  0.16181399  0.39983218  1
  O2-  O284  1  0.79259188  0.16578324  0.72391573  1
  O2-  O285  1  0.80110481  0.67181904  0.06769040  1
  O2-  O286  1  0.78917375  0.67071560  0.40115096  1
  O2-  O287  1  0.78943322  0.66660313  0.73539823  1
