# generated using pymatgen
data_Ca2Al2SiO7
_symmetry_space_group_name_H-M   'P 1'
_cell_length_a   15.46041123
_cell_length_b   15.46168215
_cell_length_c   15.28536167
_cell_angle_alpha   90.00144663
_cell_angle_beta   90.00090016
_cell_angle_gamma   90.00561576
_symmetry_Int_Tables_number   1
_chemical_formula_structural   Ca2Al2SiO7
_chemical_formula_sum   'Ca48 Al48 Si24 O168'
_cell_volume   3653.87343279
_cell_formula_units_Z   24
loop_
 _symmetry_equiv_pos_site_id
 _symmetry_equiv_pos_as_xyz
  1  'x, y, z'
loop_
 _atom_type_symbol
 _atom_type_oxidation_number
  Ca2+  2.0
  Al0+  0.0
  Si0+  0.0
  O2-  -2.0
loop_
 _atom_site_type_symbol
 _atom_site_label
 _atom_site_symmetry_multiplicity
 _atom_site_fract_x
 _atom_site_fract_y
 _atom_site_fract_z
 _atom_site_occupancy
  Ca2+  Ca0  1  0.16366180  0.07206786  0.17216353  1
  Ca2+  Ca1  1  0.17244611  0.08524689  0.50988452  1
  Ca2+  Ca2  1  0.17205571  0.08258638  0.83131254  1
  Ca2+  Ca3  1  0.17477352  0.57847487  0.17249785  1
  Ca2+  Ca4  1  0.16702588  0.56716983  0.50392855  1
  Ca2+  Ca5  1  0.17335519  0.57698338  0.83497879  1
  Ca2+  Ca6  1  0.66762512  0.08434014  0.17687938  1
  Ca2+  Ca7  1  0.67310470  0.09098085  0.50321862  1
  Ca2+  Ca8  1  0.66935690  0.09430129  0.83304142  1
  Ca2+  Ca9  1  0.67234452  0.56671709  0.17591577  1
  Ca2+  Ca10  1  0.67258493  0.57917006  0.50454183  1
  Ca2+  Ca11  1  0.66681636  0.57904572  0.83521644  1
  Ca2+  Ca12  1  0.07004875  0.34202442  0.16767834  1
  Ca2+  Ca13  1  0.08330553  0.32991747  0.49403019  1
  Ca2+  Ca14  1  0.07932642  0.33142457  0.82465407  1
  Ca2+  Ca15  1  0.08628838  0.83584106  0.16193837  1
  Ca2+  Ca16  1  0.07600150  0.83646244  0.49630273  1
  Ca2+  Ca17  1  0.08019677  0.83406890  0.82684384  1
  Ca2+  Ca18  1  0.59439800  0.32449154  0.16424595  1
  Ca2+  Ca19  1  0.57745534  0.32498110  0.49123423  1
  Ca2+  Ca20  1  0.57867543  0.32746376  0.82792312  1
  Ca2+  Ca21  1  0.58603196  0.83305115  0.16594254  1
  Ca2+  Ca22  1  0.58513351  0.83118264  0.49937231  1
  Ca2+  Ca23  1  0.57630277  0.82293480  0.81860218  1
  Ca2+  Ca24  1  0.33231154  0.41904260  0.17364266  1
  Ca2+  Ca25  1  0.32439081  0.39841956  0.50487675  1
  Ca2+  Ca26  1  0.33144379  0.41566558  0.83254386  1
  Ca2+  Ca27  1  0.32211174  0.91817827  0.17216465  1
  Ca2+  Ca28  1  0.33040067  0.92226407  0.50611674  1
  Ca2+  Ca29  1  0.33582513  0.92246196  0.83513589  1
  Ca2+  Ca30  1  0.82729720  0.41326577  0.17556214  1
  Ca2+  Ca31  1  0.83276428  0.42305113  0.50152022  1
  Ca2+  Ca32  1  0.82823750  0.41859531  0.83780903  1
  Ca2+  Ca33  1  0.82461288  0.92838732  0.17902037  1
  Ca2+  Ca34  1  0.82906481  0.92736749  0.50467144  1
  Ca2+  Ca35  1  0.83729605  0.92301410  0.82951638  1
  Ca2+  Ca36  1  0.42893790  0.17284953  0.16630946  1
  Ca2+  Ca37  1  0.42287951  0.17192253  0.49761574  1
  Ca2+  Ca38  1  0.42676538  0.16832748  0.82046548  1
  Ca2+  Ca39  1  0.41462664  0.66526524  0.16199899  1
  Ca2+  Ca40  1  0.42089152  0.67103939  0.50196842  1
  Ca2+  Ca41  1  0.41929504  0.66970563  0.82514485  1
  Ca2+  Ca42  1  0.90731344  0.17993063  0.16743820  1
  Ca2+  Ca43  1  0.91984706  0.16486075  0.49527937  1
  Ca2+  Ca44  1  0.92192826  0.17209182  0.82674883  1
  Ca2+  Ca45  1  0.91586722  0.66448440  0.16743427  1
  Ca2+  Ca46  1  0.90738761  0.66908863  0.49757846  1
  Ca2+  Ca47  1  0.91466771  0.67438926  0.82147129  1
  Al0+  Al48  1  -0.00037765  0.00066814  0.00380015  1
  Al0+  Al49  1  -0.00128123  -0.00202778  0.33746883  1
  Al0+  Al50  1  -0.00195924  0.00003102  0.66342274  1
  Al0+  Al51  1  0.00073142  0.50251059  -0.00641688  1
  Al0+  Al52  1  0.00369595  0.50144961  0.33566751  1
  Al0+  Al53  1  -0.00065864  0.50088404  0.67739396  1
  Al0+  Al54  1  0.50064194  0.00002797  -0.00299959  1
  Al0+  Al55  1  0.49778424  -0.00198771  0.33087817  1
  Al0+  Al56  1  0.49981455  -0.00096694  0.66361555  1
  Al0+  Al57  1  0.50106601  0.49911543  0.00838764  1
  Al0+  Al58  1  0.49999118  0.50308883  0.33361275  1
  Al0+  Al59  1  0.49769979  0.50008992  0.65869318  1
  Al0+  Al60  1  0.24998503  0.24921923  0.00282127  1
  Al0+  Al61  1  0.25119817  0.24846554  0.32797960  1
  Al0+  Al62  1  0.24774681  0.24611017  0.67219322  1
  Al0+  Al63  1  0.24970381  0.74992727  0.00594812  1
  Al0+  Al64  1  0.24898236  0.74971574  0.33752774  1
  Al0+  Al65  1  0.24819957  0.74710162  0.66148022  1
  Al0+  Al66  1  0.75169825  0.25113569  -0.00639150  1
  Al0+  Al67  1  0.75128362  0.25078478  0.33509561  1
  Al0+  Al68  1  0.75088456  0.25156447  0.66946282  1
  Al0+  Al69  1  0.75082126  0.75104050  -0.00111696  1
  Al0+  Al70  1  0.74982113  0.75194654  0.33565105  1
  Al0+  Al71  1  0.75084396  0.75023423  0.66344332  1
  Al0+  Al72  1  0.93067738  0.82050725  0.65160351  1
  Al0+  Al73  1  0.57135988  0.17949642  0.31811385  1
  Al0+  Al74  1  0.93109916  0.32193966  0.98479887  1
  Al0+  Al75  1  0.68242633  0.42935518  0.01271044  1
  Al0+  Al76  1  0.42751974  0.32340558  0.31600942  1
  Al0+  Al77  1  0.57407136  0.17965982  0.65083370  1
  Al0+  Al78  1  0.81893257  0.57192849  0.68230307  1
  Al0+  Al79  1  0.93203718  0.32200386  0.32293930  1
  Al0+  Al80  1  0.57008016  0.17907882  0.98454830  1
  Al0+  Al81  1  0.32197159  0.06854227  0.68008546  1
  Al0+  Al82  1  0.67748444  0.42760619  0.35032823  1
  Al0+  Al83  1  0.31997702  0.56894612  0.01260134  1
  Al0+  Al84  1  0.67546993  0.92892282  0.34863520  1
  Al0+  Al85  1  0.18255751  0.42862099  0.34513845  1
  Al0+  Al86  1  0.18029632  0.93171903  0.01203643  1
  Al0+  Al87  1  0.42625456  0.82196896  0.65139085  1
  Al0+  Al88  1  0.06861789  0.18015600  0.65449389  1
  Al0+  Al89  1  0.82104373  0.07237302  0.68281596  1
  Al0+  Al90  1  0.57173946  0.67764893  0.65069157  1
  Al0+  Al91  1  0.17845700  0.92781188  0.34915569  1
  Al0+  Al92  1  0.82247975  0.57039642  0.34706309  1
  Al0+  Al93  1  0.81940996  0.07281917  0.34845409  1
  Al0+  Al94  1  0.42706608  0.31985091  0.65388877  1
  Al0+  Al95  1  0.17958165  0.42678715  0.68147789  1
  Si0+  Si96  1  0.57126943  0.67835525  0.98770554  1
  Si0+  Si97  1  0.32595200  0.07278901  0.01815889  1
  Si0+  Si98  1  0.92869423  0.32485821  0.65081672  1
  Si0+  Si99  1  0.42813836  0.81905246  0.98689884  1
  Si0+  Si100  1  0.42650455  0.81895919  0.31584910  1
  Si0+  Si101  1  0.92899380  0.82205126  0.98589401  1
  Si0+  Si102  1  0.81957959  0.06986035  0.01392506  1
  Si0+  Si103  1  0.57295838  0.68104020  0.31547849  1
  Si0+  Si104  1  0.42672608  0.32368428  0.98430095  1
  Si0+  Si105  1  0.17721519  0.92626924  0.68157584  1
  Si0+  Si106  1  0.07245109  0.17498220  0.31604368  1
  Si0+  Si107  1  0.82349472  0.57538542  0.01568517  1
  Si0+  Si108  1  0.07153923  0.68053060  0.31737733  1
  Si0+  Si109  1  0.67545499  0.42895937  0.68345935  1
  Si0+  Si110  1  0.07237521  0.17531138  0.98461519  1
  Si0+  Si111  1  0.67809427  0.92674407  0.01246851  1
  Si0+  Si112  1  0.07277725  0.68137101  0.98467491  1
  Si0+  Si113  1  0.32023411  0.07069739  0.34882553  1
  Si0+  Si114  1  0.17555215  0.42672719  0.01692005  1
  Si0+  Si115  1  0.92850288  0.82129699  0.31601962  1
  Si0+  Si116  1  0.32198229  0.57282979  0.68181940  1
  Si0+  Si117  1  0.67866723  0.92846013  0.68432131  1
  Si0+  Si118  1  0.32293800  0.57341387  0.35214466  1
  Si0+  Si119  1  0.07139034  0.67505738  0.64916280  1
  O2-  O120  1  0.25297979  0.00730375  0.06094938  1
  O2-  O121  1  0.24890140  0.00551458  0.39432295  1
  O2-  O122  1  0.25019935  -0.01040635  0.72652885  1
  O2-  O123  1  0.24800790  0.49195565  0.06007364  1
  O2-  O124  1  0.26302245  0.49620345  0.39385679  1
  O2-  O125  1  0.25575707  0.50172915  0.72603940  1
  O2-  O126  1  0.74646910  0.00007395  0.05457618  1
  O2-  O127  1  0.74351086  0.00444539  0.39763949  1
  O2-  O128  1  0.74311545  0.00053192  0.73070446  1
  O2-  O129  1  0.75816687  0.50403997  0.05892627  1
  O2-  O130  1  0.75062377  0.49964999  0.39819232  1
  O2-  O131  1  0.74356820  0.49829181  0.72900959  1
  O2-  O132  1  0.00429681  0.24505327  0.27310680  1
  O2-  O133  1  -0.00481909  0.25476339  0.60652835  1
  O2-  O134  1  0.01052232  0.25042851  0.94095750  1
  O2-  O135  1  0.00026346  0.75096946  0.27310885  1
  O2-  O136  1  0.00394628  0.74445655  0.60457177  1
  O2-  O137  1  -0.00144026  0.74961894  0.94332280  1
  O2-  O138  1  0.50450141  0.25616985  0.26613030  1
  O2-  O139  1  0.50232318  0.25243918  0.60298952  1
  O2-  O140  1  0.49115668  0.25095824  0.94063734  1
  O2-  O141  1  0.49940103  0.75003995  0.27239453  1
  O2-  O142  1  0.50022032  0.75152902  0.60202377  1
  O2-  O143  1  0.50103863  0.74995565  0.94490614  1
  O2-  O144  1  0.06905734  0.17057708  0.08991710  1
  O2-  O145  1  0.07337173  0.17516782  0.42149085  1
  O2-  O146  1  0.06813720  0.18066217  0.76822340  1
  O2-  O147  1  0.07295263  0.68154922  0.08992901  1
  O2-  O148  1  0.07247022  0.68144373  0.42190060  1
  O2-  O149  1  0.07225950  0.67779183  0.75545401  1
  O2-  O150  1  0.57164361  0.17704306  0.09727499  1
  O2-  O151  1  0.56861409  0.17775830  0.43083823  1
  O2-  O152  1  0.57219240  0.18241243  0.76514752  1
  O2-  O153  1  0.57209245  0.68158501  0.09272207  1
  O2-  O154  1  0.57316236  0.68280740  0.41994177  1
  O2-  O155  1  0.56969980  0.67825545  0.76574376  1
  O2-  O156  1  0.17970676  0.43517735  0.23172341  1
  O2-  O157  1  0.17864811  0.42785988  0.56839414  1
  O2-  O158  1  0.17501804  0.42865407  0.91149428  1
  O2-  O159  1  0.18065883  0.92710693  0.23528648  1
  O2-  O160  1  0.17703144  0.92908150  0.57620209  1
  O2-  O161  1  0.18055378  0.93018394  0.89931985  1
  O2-  O162  1  0.68112331  0.42845817  0.23595436  1
  O2-  O163  1  0.67750029  0.42914151  0.57842389  1
  O2-  O164  1  0.68119554  0.43322342  0.89969155  1
  O2-  O165  1  0.67976223  0.92719055  0.23364781  1
  O2-  O166  1  0.68182258  0.92709937  0.57923916  1
  O2-  O167  1  0.67964006  0.92124499  0.90809761  1
  O2-  O168  1  0.42731206  0.32396428  0.08953505  1
  O2-  O169  1  0.42405178  0.31651634  0.42884447  1
  O2-  O170  1  0.42887691  0.31984036  0.76831978  1
  O2-  O171  1  0.42808670  0.81793758  0.09218942  1
  O2-  O172  1  0.42378519  0.81657566  0.42018767  1
  O2-  O173  1  0.42660318  0.81853054  0.76624404  1
  O2-  O174  1  0.93025851  0.32132098  0.09811756  1
  O2-  O175  1  0.93648635  0.32402638  0.43542067  1
  O2-  O176  1  0.93091224  0.32327108  0.75705749  1
  O2-  O177  1  0.92849267  0.82186997  0.09089389  1
  O2-  O178  1  0.92949775  0.82071284  0.42059779  1
  O2-  O179  1  0.93354372  0.82049297  0.76592157  1
  O2-  O180  1  0.31955090  0.06688628  0.24260482  1
  O2-  O181  1  0.31799431  0.06957094  0.56723853  1
  O2-  O182  1  0.32788261  0.06990667  0.91281632  1
  O2-  O183  1  0.31777931  0.57823877  0.24599070  1
  O2-  O184  1  0.31893813  0.57734823  0.57687066  1
  O2-  O185  1  0.31809668  0.57154041  0.89975156  1
  O2-  O186  1  0.82066385  0.06997898  0.23360076  1
  O2-  O187  1  0.82320778  0.07016041  0.57062405  1
  O2-  O188  1  0.82221340  0.06721207  0.90894807  1
  O2-  O189  1  0.82108028  0.57045600  0.23257423  1
  O2-  O190  1  0.82022478  0.56983430  0.56974466  1
  O2-  O191  1  0.82041843  0.57987113  0.91050316  1
  O2-  O192  1  0.04461521  0.08082893  0.27103968  1
  O2-  O193  1  0.03910318  0.08436877  0.59949584  1
  O2-  O194  1  0.04008127  0.08430899  0.93640073  1
  O2-  O195  1  0.04421042  0.58969381  0.26760981  1
  O2-  O196  1  0.04314890  0.58114494  0.60647751  1
  O2-  O197  1  0.04982523  0.58939906  0.93542212  1
  O2-  O198  1  0.53933243  0.08061796  0.26474611  1
  O2-  O199  1  0.54821352  0.07993912  0.60180611  1
  O2-  O200  1  0.54360174  0.08046139  0.93090263  1
  O2-  O201  1  0.54663119  0.58879254  0.26784337  1
  O2-  O202  1  0.54264374  0.58172364  0.59455878  1
  O2-  O203  1  0.54249395  0.58639691  0.94206474  1
  O2-  O204  1  0.16573436  0.19755216  0.26815528  1
  O2-  O205  1  0.16509923  0.20963343  0.60133620  1
  O2-  O206  1  0.16971972  0.19369786  0.94244344  1
  O2-  O207  1  0.16310807  0.71047254  0.26910980  1
  O2-  O208  1  0.16471601  0.69645053  0.60151401  1
  O2-  O209  1  0.16317280  0.71345372  0.93708415  1
  O2-  O210  1  0.67174371  0.20463314  0.26634017  1
  O2-  O211  1  0.67354552  0.20754063  0.60080332  1
  O2-  O212  1  0.66556800  0.21247822  0.93038639  1
  O2-  O213  1  0.66356141  0.71215995  0.26663372  1
  O2-  O214  1  0.66909828  0.70729347  0.59807199  1
  O2-  O215  1  0.66330465  0.70600915  0.93970275  1
  O2-  O216  1  0.08311396  0.45954306  0.06174780  1
  O2-  O217  1  0.08979903  0.46588135  0.40122897  1
  O2-  O218  1  0.08577798  0.46093474  0.73958447  1
  O2-  O219  1  0.08320358  0.96007857  0.06838198  1
  O2-  O220  1  0.08025495  0.95232066  0.40056656  1
  O2-  O221  1  0.08537392  0.95658543  0.72832431  1
  O2-  O222  1  0.58740435  0.45943350  0.06979972  1
  O2-  O223  1  0.57876372  0.45821223  0.40039050  1
  O2-  O224  1  0.58063552  0.45533408  0.72727748  1
  O2-  O225  1  0.58487857  0.95091040  0.05910575  1
  O2-  O226  1  0.57353368  0.94694655  0.39675899  1
  O2-  O227  1  0.58269530  0.94751736  0.72805037  1
  O2-  O228  1  0.19403552  0.33084001  0.06135771  1
  O2-  O229  1  0.20613557  0.32848985  0.39518047  1
  O2-  O230  1  0.20930260  0.33200903  0.73904652  1
  O2-  O231  1  0.21166433  0.83631828  0.06886439  1
  O2-  O232  1  0.21089086  0.83253045  0.40336874  1
  O2-  O233  1  0.19686003  0.82943735  0.72413612  1
  O2-  O234  1  0.71631851  0.33270002  0.06483057  1
  O2-  O235  1  0.70495428  0.32994083  0.40205731  1
  O2-  O236  1  0.70297360  0.33670320  0.73159091  1
  O2-  O237  1  0.70824030  0.83632724  0.06278982  1
  O2-  O238  1  0.70875664  0.83292747  0.40177550  1
  O2-  O239  1  0.70898648  0.83607526  0.73104216  1
  O2-  O240  1  0.44721387  0.42686241  0.26896273  1
  O2-  O241  1  0.44397764  0.42012941  0.60124700  1
  O2-  O242  1  0.45657306  0.41700559  0.93972093  1
  O2-  O243  1  0.45059586  0.91088918  0.26657502  1
  O2-  O244  1  0.45240834  0.91954939  0.59773043  1
  O2-  O245  1  0.45355521  0.91140169  0.93985652  1
  O2-  O246  1  0.96635219  0.41770013  0.26678775  1
  O2-  O247  1  0.95648425  0.41907329  0.60889414  1
  O2-  O248  1  0.95676621  0.42022342  0.93036375  1
  O2-  O249  1  0.95700620  0.91296045  0.26784573  1
  O2-  O250  1  0.96250813  0.91513600  0.59600942  1
  O2-  O251  1  0.95887292  0.91354445  0.93888672  1
  O2-  O252  1  0.33079205  0.29109029  0.25920708  1
  O2-  O253  1  0.32987794  0.28460132  0.60410384  1
  O2-  O254  1  0.32995667  0.30351990  0.94132774  1
  O2-  O255  1  0.33516166  0.78697234  0.26798904  1
  O2-  O256  1  0.32840755  0.79256756  0.59736347  1
  O2-  O257  1  0.33689964  0.78900086  0.94024004  1
  O2-  O258  1  0.83557040  0.29222591  0.26754186  1
  O2-  O259  1  0.83372420  0.30268846  0.60846477  1
  O2-  O260  1  0.83767572  0.28724357  0.92786230  1
  O2-  O261  1  0.83686567  0.79303389  0.26762720  1
  O2-  O262  1  0.83460985  0.79098628  0.59801858  1
  O2-  O263  1  0.83710714  0.79566086  0.93706981  1
  O2-  O264  1  0.41747923  0.04132219  0.06552139  1
  O2-  O265  1  0.41201031  0.04062341  0.39422943  1
  O2-  O266  1  0.41890090  0.03889040  0.73531648  1
  O2-  O267  1  0.41621388  0.54331080  0.07010220  1
  O2-  O268  1  0.42002691  0.56082324  0.39319363  1
  O2-  O269  1  0.41682430  0.55018715  0.72678665  1
  O2-  O270  1  0.90959374  0.04023998  0.06348887  1
  O2-  O271  1  0.91617689  0.03914346  0.40078645  1
  O2-  O272  1  0.91642928  0.03530175  0.73701388  1
  O2-  O273  1  0.92003337  0.55385369  0.05729003  1
  O2-  O274  1  0.92154156  0.54587588  0.39928707  1
  O2-  O275  1  0.91480631  0.54373327  0.74009731  1
  O2-  O276  1  0.30437883  0.16792102  0.06292582  1
  O2-  O277  1  0.29707991  0.16509799  0.39250459  1
  O2-  O278  1  0.28577993  0.16055276  0.73952374  1
  O2-  O279  1  0.28627174  0.66367677  0.07008712  1
  O2-  O280  1  0.28769930  0.66257178  0.40030636  1
  O2-  O281  1  0.29244365  0.66524544  0.73028270  1
  O2-  O282  1  0.79200981  0.16251428  0.05845438  1
  O2-  O283  1  0.79878331  0.17166348  0.40142469  1
  O2-  O284  1  0.79428299  0.17019213  0.73786245  1
  O2-  O285  1  0.79689530  0.66866140  0.06316368  1
  O2-  O286  1  0.79398863  0.66940692  0.39735416  1
  O2-  O287  1  0.78966535  0.66986610  0.73568607  1
