# generated using pymatgen
data_Ca2Al2SiO7
_symmetry_space_group_name_H-M   'P 1'
_cell_length_a   15.46686956
_cell_length_b   15.46508591
_cell_length_c   15.28948111
_cell_angle_alpha   90.00996081
_cell_angle_beta   90.00132851
_cell_angle_gamma   90.02529998
_symmetry_Int_Tables_number   1
_chemical_formula_structural   Ca2Al2SiO7
_chemical_formula_sum   'Ca48 Al48 Si24 O168'
_cell_volume   3657.18944317
_cell_formula_units_Z   24
loop_
 _symmetry_equiv_pos_site_id
 _symmetry_equiv_pos_as_xyz
  1  'x, y, z'
loop_
 _atom_type_symbol
 _atom_type_oxidation_number
  Ca2+  2.0
  Al0+  0.0
  Si0+  0.0
  O2-  -2.0
loop_
 _atom_site_type_symbol
 _atom_site_label
 _atom_site_symmetry_multiplicity
 _atom_site_fract_x
 _atom_site_fract_y
 _atom_site_fract_z
 _atom_site_occupancy
  Ca2+  Ca0  1  0.17168260  0.08084792  0.17098504  1
  Ca2+  Ca1  1  0.16965975  0.07473248  0.49737007  1
  Ca2+  Ca2  1  0.16862283  0.07248750  0.84490719  1
  Ca2+  Ca3  1  0.16990995  0.57073184  0.16824564  1
  Ca2+  Ca4  1  0.16898823  0.57873222  0.50541310  1
  Ca2+  Ca5  1  0.17564665  0.58384301  0.83745030  1
  Ca2+  Ca6  1  0.67002364  0.08551430  0.16736749  1
  Ca2+  Ca7  1  0.66382971  0.08758501  0.50095958  1
  Ca2+  Ca8  1  0.67460757  0.07463214  0.84382674  1
  Ca2+  Ca9  1  0.67418621  0.57717119  0.17647691  1
  Ca2+  Ca10  1  0.67397684  0.57458156  0.50381738  1
  Ca2+  Ca11  1  0.66881051  0.58106375  0.83432188  1
  Ca2+  Ca12  1  0.09580904  0.32338252  0.16199600  1
  Ca2+  Ca13  1  0.08603476  0.32750506  0.48791305  1
  Ca2+  Ca14  1  0.09244117  0.32630241  0.83601977  1
  Ca2+  Ca15  1  0.08096374  0.83905287  0.16040048  1
  Ca2+  Ca16  1  0.09162568  0.82798731  0.49803742  1
  Ca2+  Ca17  1  0.08239879  0.83460108  0.82781761  1
  Ca2+  Ca18  1  0.57478673  0.33139086  0.16573720  1
  Ca2+  Ca19  1  0.58105926  0.33373274  0.48966548  1
  Ca2+  Ca20  1  0.57891048  0.33525406  0.83079268  1
  Ca2+  Ca21  1  0.57842683  0.83533651  0.16316889  1
  Ca2+  Ca22  1  0.56699158  0.83261445  0.49263078  1
  Ca2+  Ca23  1  0.57656276  0.83402409  0.82856027  1
  Ca2+  Ca24  1  0.33097886  0.41449200  0.16831666  1
  Ca2+  Ca25  1  0.32949375  0.41524423  0.50101467  1
  Ca2+  Ca26  1  0.33191430  0.42857891  0.84438777  1
  Ca2+  Ca27  1  0.32463798  0.92665129  0.17479498  1
  Ca2+  Ca28  1  0.32892929  0.91628047  0.50302985  1
  Ca2+  Ca29  1  0.32287770  0.91754639  0.84022071  1
  Ca2+  Ca30  1  0.82822121  0.42236361  0.17803712  1
  Ca2+  Ca31  1  0.82333711  0.42331587  0.50412594  1
  Ca2+  Ca32  1  0.82938657  0.42038586  0.83244513  1
  Ca2+  Ca33  1  0.83134528  0.91744195  0.16283032  1
  Ca2+  Ca34  1  0.83016118  0.91921051  0.50141026  1
  Ca2+  Ca35  1  0.82981453  0.91863356  0.84671658  1
  Ca2+  Ca36  1  0.40704682  0.17555819  0.16444251  1
  Ca2+  Ca37  1  0.42334251  0.17269517  0.48411649  1
  Ca2+  Ca38  1  0.40783960  0.17306014  0.83605213  1
  Ca2+  Ca39  1  0.41233091  0.67161407  0.16370156  1
  Ca2+  Ca40  1  0.40451544  0.67735337  0.49934755  1
  Ca2+  Ca41  1  0.40869011  0.67073989  0.82522766  1
  Ca2+  Ca42  1  0.92994226  0.16209482  0.15950479  1
  Ca2+  Ca43  1  0.92512982  0.17019108  0.49130509  1
  Ca2+  Ca44  1  0.92214217  0.16160457  0.83595908  1
  Ca2+  Ca45  1  0.91701763  0.67084726  0.15995380  1
  Ca2+  Ca46  1  0.91894283  0.65940758  0.49826052  1
  Ca2+  Ca47  1  0.92407423  0.67075749  0.82687257  1
  Al0+  Al48  1  -0.00210267  0.00007105  -0.00277465  1
  Al0+  Al49  1  -0.00039969  -0.00127456  0.33465748  1
  Al0+  Al50  1  -0.00013906  -0.00000335  0.66715213  1
  Al0+  Al51  1  -0.00027977  0.49968318  0.00127505  1
  Al0+  Al52  1  0.00234695  0.50083650  0.33966213  1
  Al0+  Al53  1  -0.00188295  0.49859893  0.66690815  1
  Al0+  Al54  1  0.50052074  -0.00036551  0.00461795  1
  Al0+  Al55  1  0.50111163  0.00012926  0.32795135  1
  Al0+  Al56  1  0.49971630  0.00208434  0.66330923  1
  Al0+  Al57  1  0.50133155  0.50082548  -0.00027849  1
  Al0+  Al58  1  0.50128568  0.50238603  0.33385125  1
  Al0+  Al59  1  0.49965600  0.49980375  0.67202399  1
  Al0+  Al60  1  0.25015894  0.25036476  -0.00688274  1
  Al0+  Al61  1  0.25135170  0.24878238  0.33491666  1
  Al0+  Al62  1  0.25056175  0.24815951  0.66352690  1
  Al0+  Al63  1  0.25012023  0.74853423  0.00718027  1
  Al0+  Al64  1  0.24723924  0.74990920  0.32851441  1
  Al0+  Al65  1  0.24681891  0.75000600  0.66610498  1
  Al0+  Al66  1  0.75060625  0.24977744  0.00198255  1
  Al0+  Al67  1  0.75077841  0.25086381  0.33324418  1
  Al0+  Al68  1  0.75038371  0.24982215  0.67051545  1
  Al0+  Al69  1  0.74987900  0.74990600  -0.00169570  1
  Al0+  Al70  1  0.75087932  0.75196343  0.33817610  1
  Al0+  Al71  1  0.74934098  0.74991915  0.66806915  1
  Al0+  Al72  1  0.06877558  0.67892301  0.65305666  1
  Al0+  Al73  1  0.18000347  0.93037595  0.68049234  1
  Al0+  Al74  1  0.67842133  0.92642252  0.01535517  1
  Al0+  Al75  1  0.43057116  0.32098705  0.98404800  1
  Al0+  Al76  1  0.67836392  0.42855838  0.34754015  1
  Al0+  Al77  1  0.31769789  0.56971723  0.67797890  1
  Al0+  Al78  1  0.17739014  0.92829919  0.34986524  1
  Al0+  Al79  1  0.06992033  0.17847269  0.31988348  1
  Al0+  Al80  1  0.82223648  0.57241942  0.68481419  1
  Al0+  Al81  1  0.82083938  0.07183139  0.01589717  1
  Al0+  Al82  1  0.32418941  0.57171464  0.01678547  1
  Al0+  Al83  1  0.42901218  0.82051114  0.65453204  1
  Al0+  Al84  1  0.17751436  0.92809990  0.01464834  1
  Al0+  Al85  1  0.57453196  0.17845856  0.31657267  1
  Al0+  Al86  1  0.32110625  0.07203682  0.01394291  1
  Al0+  Al87  1  0.17871322  0.42941010  0.01314315  1
  Al0+  Al88  1  0.42918071  0.32308688  0.31848310  1
  Al0+  Al89  1  0.18243718  0.42811883  0.34700824  1
  Al0+  Al90  1  0.42684944  0.82001532  0.31732823  1
  Al0+  Al91  1  0.82263660  0.57376378  0.34832432  1
  Al0+  Al92  1  0.92995279  0.81940135  0.98669323  1
  Al0+  Al93  1  0.07029025  0.18018848  0.98519891  1
  Al0+  Al94  1  0.32295422  0.07038003  0.34922678  1
  Al0+  Al95  1  0.67885480  0.42806837  0.68410738  1
  Si0+  Si96  1  0.42911255  0.32214414  0.65184828  1
  Si0+  Si97  1  0.92776029  0.82063445  0.31901991  1
  Si0+  Si98  1  0.57293185  0.67649492  0.64946115  1
  Si0+  Si99  1  0.17699946  0.42390714  0.68254868  1
  Si0+  Si100  1  0.93023113  0.32334083  0.31816210  1
  Si0+  Si101  1  0.42819190  0.82056216  0.98553864  1
  Si0+  Si102  1  0.67671870  0.93017309  0.67896925  1
  Si0+  Si103  1  0.67909101  0.42878184  0.01550853  1
  Si0+  Si104  1  0.57415343  0.17792307  0.98157903  1
  Si0+  Si105  1  0.92769973  0.31880425  0.65140411  1
  Si0+  Si106  1  0.92532357  0.32434277  0.98283801  1
  Si0+  Si107  1  0.07006479  0.67726022  0.31678146  1
  Si0+  Si108  1  0.57176841  0.18086541  0.65333830  1
  Si0+  Si109  1  0.92603336  0.82362485  0.64853073  1
  Si0+  Si110  1  0.82047225  0.57046378  0.01375134  1
  Si0+  Si111  1  0.07095175  0.17783080  0.64986104  1
  Si0+  Si112  1  0.57142038  0.67949269  0.98481964  1
  Si0+  Si113  1  0.07233703  0.67616003  0.98391065  1
  Si0+  Si114  1  0.67879201  0.92905993  0.34975675  1
  Si0+  Si115  1  0.82114834  0.07053839  0.34868396  1
  Si0+  Si116  1  0.82076336  0.06980986  0.68060928  1
  Si0+  Si117  1  0.57430659  0.68114217  0.31761934  1
  Si0+  Si118  1  0.32397480  0.07264119  0.68316130  1
  Si0+  Si119  1  0.32222952  0.57364623  0.34958873  1
  O2-  O120  1  0.24974944  -0.00030606  0.06373682  1
  O2-  O121  1  0.25323226  -0.00366764  0.39993450  1
  O2-  O122  1  0.25463165  0.00486406  0.72669171  1
  O2-  O123  1  0.25229943  0.49880148  0.06431314  1
  O2-  O124  1  0.25830024  0.50102251  0.39441192  1
  O2-  O125  1  0.24545266  0.49300373  0.72530151  1
  O2-  O126  1  0.74774832  0.00087886  0.06550885  1
  O2-  O127  1  0.74601777  0.00420932  0.39221257  1
  O2-  O128  1  0.75248840  -0.00435919  0.72133747  1
  O2-  O129  1  0.75323339  0.49681855  0.05653414  1
  O2-  O130  1  0.75090883  0.50068489  0.39630664  1
  O2-  O131  1  0.74814444  0.50257121  0.73496465  1
  O2-  O132  1  -0.00153173  0.25603896  0.27244278  1
  O2-  O133  1  0.00312870  0.25251853  0.60851477  1
  O2-  O134  1  -0.00460900  0.25640328  0.93881086  1
  O2-  O135  1  -0.00236954  0.74837919  0.27750547  1
  O2-  O136  1  -0.00787365  0.75246652  0.60474778  1
  O2-  O137  1  0.00742363  0.74835591  0.93940270  1
  O2-  O138  1  0.50021157  0.24918519  0.26876075  1
  O2-  O139  1  0.50071387  0.25125302  0.61106874  1
  O2-  O140  1  0.50412519  0.24457361  0.93598923  1
  O2-  O141  1  0.50247090  0.74515766  0.27153004  1
  O2-  O142  1  0.50355350  0.74523768  0.60647377  1
  O2-  O143  1  0.49826500  0.74852708  0.94244834  1
  O2-  O144  1  0.06922159  0.18063789  0.09801413  1
  O2-  O145  1  0.06551760  0.17863065  0.43390002  1
  O2-  O146  1  0.06993619  0.17691302  0.75471969  1
  O2-  O147  1  0.06729873  0.67269870  0.08943838  1
  O2-  O148  1  0.07111204  0.67686663  0.42205404  1
  O2-  O149  1  0.06893477  0.68182013  0.76605434  1
  O2-  O150  1  0.57814475  0.18211441  0.08632876  1
  O2-  O151  1  0.57487507  0.18052908  0.43136758  1
  O2-  O152  1  0.57290221  0.17910763  0.75809973  1
  O2-  O153  1  0.57401097  0.68016268  0.08975286  1
  O2-  O154  1  0.57697002  0.68537686  0.42305994  1
  O2-  O155  1  0.57406711  0.67900559  0.75537548  1
  O2-  O156  1  0.17959710  0.43023559  0.23465959  1
  O2-  O157  1  0.17901770  0.42129595  0.57690277  1
  O2-  O158  1  0.17951258  0.43217609  0.89896701  1
  O2-  O159  1  0.17453225  0.93030035  0.23696517  1
  O2-  O160  1  0.17951154  0.93187473  0.56774638  1
  O2-  O161  1  0.17979082  0.92744802  0.90047546  1
  O2-  O162  1  0.68150913  0.43081331  0.23350411  1
  O2-  O163  1  0.68121947  0.42568584  0.57110593  1
  O2-  O164  1  0.67912764  0.43047251  0.91031813  1
  O2-  O165  1  0.68304053  0.92408758  0.24541841  1
  O2-  O166  1  0.67598212  0.93372303  0.57378627  1
  O2-  O167  1  0.67954791  0.92694667  0.90068502  1
  O2-  O168  1  0.43305164  0.32281841  0.09641074  1
  O2-  O169  1  0.43072589  0.32230207  0.43301385  1
  O2-  O170  1  0.42810332  0.32069133  0.75679035  1
  O2-  O171  1  0.43019049  0.81876399  0.09031818  1
  O2-  O172  1  0.42796134  0.81803246  0.43110965  1
  O2-  O173  1  0.43169336  0.82116817  0.76781059  1
  O2-  O174  1  0.92266065  0.32598688  0.08801500  1
  O2-  O175  1  0.93074375  0.31990493  0.42433989  1
  O2-  O176  1  0.92508042  0.31550735  0.75631628  1
  O2-  O177  1  0.92703511  0.81508913  0.10000532  1
  O2-  O178  1  0.92612297  0.82222888  0.42421036  1
  O2-  O179  1  0.92658547  0.82613713  0.75385513  1
  O2-  O180  1  0.31925976  0.07083957  0.23615519  1
  O2-  O181  1  0.32516608  0.07374679  0.57803454  1
  O2-  O182  1  0.31953845  0.06900391  0.89941066  1
  O2-  O183  1  0.31930011  0.57452405  0.24434491  1
  O2-  O184  1  0.31589714  0.56845628  0.56492979  1
  O2-  O185  1  0.32277811  0.57296092  0.90274566  1
  O2-  O186  1  0.82322127  0.06751819  0.24435367  1
  O2-  O187  1  0.82023025  0.07073486  0.57514920  1
  O2-  O188  1  0.81870735  0.07023848  0.90134048  1
  O2-  O189  1  0.82068825  0.57419570  0.23400911  1
  O2-  O190  1  0.82093419  0.56958449  0.57164226  1
  O2-  O191  1  0.81885424  0.57064018  0.90894291  1
  O2-  O192  1  0.03374770  0.08314475  0.26743211  1
  O2-  O193  1  0.03792548  0.08777724  0.60197009  1
  O2-  O194  1  0.03579318  0.08523832  0.92910538  1
  O2-  O195  1  0.04152298  0.58540152  0.26973458  1
  O2-  O196  1  0.04060076  0.58035007  0.59969134  1
  O2-  O197  1  0.04268242  0.58436380  0.93572156  1
  O2-  O198  1  0.55392441  0.07807813  0.26563881  1
  O2-  O199  1  0.54538419  0.08953931  0.60357626  1
  O2-  O200  1  0.55123382  0.08189593  0.93847644  1
  O2-  O201  1  0.55392514  0.58598047  0.27302268  1
  O2-  O202  1  0.54765789  0.58191217  0.60590384  1
  O2-  O203  1  0.54701047  0.58727565  0.93655617  1
  O2-  O204  1  0.16709763  0.20787091  0.26888799  1
  O2-  O205  1  0.16403172  0.20243343  0.60285353  1
  O2-  O206  1  0.16470366  0.21038697  0.92607073  1
  O2-  O207  1  0.16003158  0.70484434  0.26677719  1
  O2-  O208  1  0.16340094  0.71179632  0.59661502  1
  O2-  O209  1  0.16835774  0.69892323  0.94174695  1
  O2-  O210  1  0.67332809  0.20737532  0.26394310  1
  O2-  O211  1  0.66434428  0.20761382  0.60604609  1
  O2-  O212  1  0.66740687  0.20571482  0.93404763  1
  O2-  O213  1  0.66679008  0.71135964  0.27067263  1
  O2-  O214  1  0.66670143  0.70247279  0.60357922  1
  O2-  O215  1  0.66146570  0.70940183  0.93444628  1
  O2-  O216  1  0.07993366  0.45634038  0.06669538  1
  O2-  O217  1  0.08668949  0.45944101  0.40327939  1
  O2-  O218  1  0.08224415  0.44636957  0.72595665  1
  O2-  O219  1  0.07817083  0.95577443  0.06359755  1
  O2-  O220  1  0.07964907  0.95913223  0.40418994  1
  O2-  O221  1  0.08212967  0.96092770  0.73284397  1
  O2-  O222  1  0.58959036  0.46075692  0.06303900  1
  O2-  O223  1  0.58079107  0.45839157  0.40171651  1
  O2-  O224  1  0.58033828  0.45459930  0.73744607  1
  O2-  O225  1  0.58035652  0.95155429  0.06841923  1
  O2-  O226  1  0.58614331  0.95373259  0.39608921  1
  O2-  O227  1  0.58730670  0.96271426  0.72829646  1
  O2-  O228  1  0.20696937  0.33012978  0.06147611  1
  O2-  O229  1  0.21059126  0.33223687  0.40342177  1
  O2-  O230  1  0.20382186  0.32988415  0.72777748  1
  O2-  O231  1  0.20240090  0.82973025  0.06782501  1
  O2-  O232  1  0.20424545  0.82750337  0.39880380  1
  O2-  O233  1  0.20958509  0.83403394  0.73403958  1
  O2-  O234  1  0.70395687  0.33638866  0.06141021  1
  O2-  O235  1  0.70794813  0.33044336  0.40120539  1
  O2-  O236  1  0.71151379  0.33084803  0.73847574  1
  O2-  O237  1  0.71059754  0.82928323  0.06864961  1
  O2-  O238  1  0.71135708  0.84081501  0.40143751  1
  O2-  O239  1  0.69762899  0.83626614  0.72455402  1
  O2-  O240  1  0.45647448  0.42288347  0.26708554  1
  O2-  O241  1  0.45598025  0.41454612  0.60586110  1
  O2-  O242  1  0.46457119  0.41780096  0.93043981  1
  O2-  O243  1  0.45986320  0.91532658  0.26397546  1
  O2-  O244  1  0.46134747  0.91687857  0.59964576  1
  O2-  O245  1  0.45662317  0.91260021  0.93857176  1
  O2-  O246  1  0.95394878  0.41842375  0.27495760  1
  O2-  O247  1  0.94977846  0.41221518  0.60532651  1
  O2-  O248  1  0.95006076  0.41826874  0.93596409  1
  O2-  O249  1  0.95644820  0.91168980  0.27139137  1
  O2-  O250  1  0.95283330  0.91727975  0.60197900  1
  O2-  O251  1  0.95466526  0.91660650  0.93120487  1
  O2-  O252  1  0.33090809  0.29358615  0.26660845  1
  O2-  O253  1  0.33708789  0.29425389  0.60391116  1
  O2-  O254  1  0.33513200  0.29167913  0.92656224  1
  O2-  O255  1  0.33097035  0.78896299  0.26256563  1
  O2-  O256  1  0.33327095  0.78808470  0.60053401  1
  O2-  O257  1  0.33544130  0.79213167  0.93968674  1
  O2-  O258  1  0.83656565  0.29839505  0.27293928  1
  O2-  O259  1  0.83786084  0.28503735  0.60286229  1
  O2-  O260  1  0.83262166  0.29632257  0.93483898  1
  O2-  O261  1  0.83560191  0.79387405  0.27161667  1
  O2-  O262  1  0.83032896  0.80168359  0.60393631  1
  O2-  O263  1  0.83397252  0.78648248  0.93112702  1
  O2-  O264  1  0.42034769  0.04846671  0.06545862  1
  O2-  O265  1  0.42389545  0.04423465  0.39894979  1
  O2-  O266  1  0.41810870  0.04854851  0.72880395  1
  O2-  O267  1  0.42341768  0.54495863  0.06824237  1
  O2-  O268  1  0.41844541  0.55706315  0.39320425  1
  O2-  O269  1  0.41523900  0.54436585  0.73260488  1
  O2-  O270  1  0.91772106  0.04058694  0.06788303  1
  O2-  O271  1  0.90952298  0.03720247  0.39968093  1
  O2-  O272  1  0.91276060  0.04425492  0.72812964  1
  O2-  O273  1  0.91278855  0.54663885  0.06132956  1
  O2-  O274  1  0.92008651  0.54559590  0.40214412  1
  O2-  O275  1  0.91972394  0.54036468  0.73778678  1
  O2-  O276  1  0.29180042  0.17105979  0.06244672  1
  O2-  O277  1  0.29340167  0.16763216  0.40359198  1
  O2-  O278  1  0.29705192  0.16683043  0.72799678  1
  O2-  O279  1  0.29561382  0.66833629  0.07153843  1
  O2-  O280  1  0.28885003  0.66504802  0.39527736  1
  O2-  O281  1  0.28462825  0.66496970  0.73287433  1
  O2-  O282  1  0.79529971  0.17085908  0.06859202  1
  O2-  O283  1  0.79794760  0.16366234  0.39602943  1
  O2-  O284  1  0.79093729  0.15955312  0.72964478  1
  O2-  O285  1  0.78879997  0.66056424  0.06114850  1
  O2-  O286  1  0.79393882  0.67132578  0.40321059  1
  O2-  O287  1  0.79639411  0.67293768  0.73559748  1
