# generated using pymatgen
data_Ca2Al2SiO7
_symmetry_space_group_name_H-M   'P 1'
_cell_length_a   15.46155686
_cell_length_b   15.46057813
_cell_length_c   15.28690670
_cell_angle_alpha   89.99973447
_cell_angle_beta   90.00041690
_cell_angle_gamma   90.01710662
_symmetry_Int_Tables_number   1
_chemical_formula_structural   Ca2Al2SiO7
_chemical_formula_sum   'Ca48 Al48 Si24 O168'
_cell_volume   3654.25245430
_cell_formula_units_Z   24
loop_
 _symmetry_equiv_pos_site_id
 _symmetry_equiv_pos_as_xyz
  1  'x, y, z'
loop_
 _atom_type_symbol
 _atom_type_oxidation_number
  Ca2+  2.0
  Al0+  0.0
  Si0+  0.0
  O2-  -2.0
loop_
 _atom_site_type_symbol
 _atom_site_label
 _atom_site_symmetry_multiplicity
 _atom_site_fract_x
 _atom_site_fract_y
 _atom_site_fract_z
 _atom_site_occupancy
  Ca2+  Ca0  1  0.17024583  0.07736278  0.17969744  1
  Ca2+  Ca1  1  0.17122275  0.07512575  0.49978088  1
  Ca2+  Ca2  1  0.16514653  0.07714389  0.83030518  1
  Ca2+  Ca3  1  0.17273405  0.57695079  0.17177194  1
  Ca2+  Ca4  1  0.16741514  0.57940711  0.50483317  1
  Ca2+  Ca5  1  0.16122755  0.57706876  0.84207182  1
  Ca2+  Ca6  1  0.67484481  0.07426328  0.17815579  1
  Ca2+  Ca7  1  0.67524156  0.07714680  0.50180330  1
  Ca2+  Ca8  1  0.67453442  0.08082804  0.83425031  1
  Ca2+  Ca9  1  0.66772460  0.58733657  0.17160926  1
  Ca2+  Ca10  1  0.66255864  0.58027002  0.49693901  1
  Ca2+  Ca11  1  0.67522050  0.58785551  0.84295740  1
  Ca2+  Ca12  1  0.09717900  0.32783352  0.16700354  1
  Ca2+  Ca13  1  0.08286387  0.33136136  0.49515702  1
  Ca2+  Ca14  1  0.08037921  0.33902922  0.82506578  1
  Ca2+  Ca15  1  0.08029321  0.82909177  0.15981185  1
  Ca2+  Ca16  1  0.08351314  0.84069348  0.49770145  1
  Ca2+  Ca17  1  0.07890787  0.82217444  0.82673524  1
  Ca2+  Ca18  1  0.57678115  0.33647131  0.16250298  1
  Ca2+  Ca19  1  0.58257821  0.33118254  0.49094702  1
  Ca2+  Ca20  1  0.57219598  0.33667128  0.83092448  1
  Ca2+  Ca21  1  0.57841094  0.82782229  0.16702809  1
  Ca2+  Ca22  1  0.57698114  0.82973831  0.48687461  1
  Ca2+  Ca23  1  0.58239926  0.82646191  0.83235137  1
  Ca2+  Ca24  1  0.32865989  0.42562763  0.16873609  1
  Ca2+  Ca25  1  0.32004904  0.42081126  0.49981155  1
  Ca2+  Ca26  1  0.32043214  0.42079129  0.84265854  1
  Ca2+  Ca27  1  0.32865199  0.92059727  0.18059883  1
  Ca2+  Ca28  1  0.32577371  0.91977248  0.50370484  1
  Ca2+  Ca29  1  0.32820688  0.91928033  0.83175950  1
  Ca2+  Ca30  1  0.82681470  0.42661762  0.17105500  1
  Ca2+  Ca31  1  0.82939780  0.41312433  0.50267411  1
  Ca2+  Ca32  1  0.83646522  0.42455255  0.83839987  1
  Ca2+  Ca33  1  0.82998183  0.91732164  0.17550242  1
  Ca2+  Ca34  1  0.83551005  0.92591828  0.50321575  1
  Ca2+  Ca35  1  0.84591579  0.91737110  0.83446896  1
  Ca2+  Ca36  1  0.41125800  0.17377306  0.16166527  1
  Ca2+  Ca37  1  0.40859886  0.16495606  0.49290775  1
  Ca2+  Ca38  1  0.41260870  0.17138078  0.82988413  1
  Ca2+  Ca39  1  0.42347841  0.65882949  0.16568954  1
  Ca2+  Ca40  1  0.41860293  0.67275369  0.48639584  1
  Ca2+  Ca41  1  0.42257819  0.65610229  0.83436842  1
  Ca2+  Ca42  1  0.92225382  0.16434332  0.16868785  1
  Ca2+  Ca43  1  0.91861154  0.16651090  0.49388996  1
  Ca2+  Ca44  1  0.91747270  0.17529606  0.82272221  1
  Ca2+  Ca45  1  0.92220409  0.67235200  0.15479444  1
  Ca2+  Ca46  1  0.92662719  0.67160539  0.50116072  1
  Ca2+  Ca47  1  0.92498580  0.67183725  0.82885136  1
  Al0+  Al48  1  0.00109810  0.00200005  -0.00245131  1
  Al0+  Al49  1  0.00110351  0.00274715  0.33433361  1
  Al0+  Al50  1  0.00040927  0.00086267  0.67206828  1
  Al0+  Al51  1  -0.00191825  0.49758848  0.00823112  1
  Al0+  Al52  1  -0.00239047  0.49981118  0.33498430  1
  Al0+  Al53  1  -0.00264795  0.50034599  0.66048600  1
  Al0+  Al54  1  0.50189328  0.00023590  -0.00146150  1
  Al0+  Al55  1  0.50211890  0.00043613  0.33451733  1
  Al0+  Al56  1  0.50210522  -0.00049746  0.67210338  1
  Al0+  Al57  1  0.49829153  0.49835913  -0.00782491  1
  Al0+  Al58  1  0.50076427  0.49960735  0.33724340  1
  Al0+  Al59  1  0.49890413  0.49669955  0.66391099  1
  Al0+  Al60  1  0.25064155  0.24884343  -0.00363134  1
  Al0+  Al61  1  0.24846357  0.25078826  0.33497526  1
  Al0+  Al62  1  0.24978738  0.25237202  0.67270352  1
  Al0+  Al63  1  0.25075050  0.75038037  -0.00033005  1
  Al0+  Al64  1  0.24932543  0.75041211  0.33538534  1
  Al0+  Al65  1  0.25385501  0.74889266  0.66856039  1
  Al0+  Al66  1  0.75092582  0.24777993  0.00053855  1
  Al0+  Al67  1  0.75022061  0.25248913  0.33661524  1
  Al0+  Al68  1  0.74776186  0.24877916  0.66809675  1
  Al0+  Al69  1  0.74838640  0.75200645  -0.00334050  1
  Al0+  Al70  1  0.75042901  0.74946004  0.33492264  1
  Al0+  Al71  1  0.75018042  0.74917740  0.66117627  1
  Al0+  Al72  1  0.17890231  0.92672293  0.68421464  1
  Al0+  Al73  1  0.17687208  0.43284832  0.68025345  1
  Al0+  Al74  1  0.93022186  0.82268149  0.64911154  1
  Al0+  Al75  1  0.17685816  0.42720115  0.01603508  1
  Al0+  Al76  1  0.17848264  0.92758671  0.34592455  1
  Al0+  Al77  1  0.92657642  0.32116134  0.65293281  1
  Al0+  Al78  1  0.56868739  0.67981714  0.98583143  1
  Al0+  Al79  1  0.82158596  0.07123694  0.34756719  1
  Al0+  Al80  1  0.32116708  0.57097714  0.34852165  1
  Al0+  Al81  1  0.17762203  0.42897329  0.34958455  1
  Al0+  Al82  1  0.67915133  0.92670601  0.34817976  1
  Al0+  Al83  1  0.82067400  0.07071548  0.68214863  1
  Al0+  Al84  1  0.42935254  0.31961638  0.98512663  1
  Al0+  Al85  1  0.42709754  0.82299016  0.31876552  1
  Al0+  Al86  1  0.32255240  0.07215767  0.34466572  1
  Al0+  Al87  1  0.67945199  0.43105579  0.34542362  1
  Al0+  Al88  1  0.07172511  0.67657000  0.98768135  1
  Al0+  Al89  1  0.92868918  0.82229121  0.98629651  1
  Al0+  Al90  1  0.57072540  0.67791610  0.31791356  1
  Al0+  Al91  1  0.07373679  0.67873198  0.65105468  1
  Al0+  Al92  1  0.06971893  0.18133818  0.32049257  1
  Al0+  Al93  1  0.32278976  0.07152346  0.68332510  1
  Al0+  Al94  1  0.32240371  0.57240929  0.01470358  1
  Al0+  Al95  1  0.81958325  0.57293966  0.01268580  1
  Si0+  Si96  1  0.82283855  0.57377450  0.35238212  1
  Si0+  Si97  1  0.32400323  0.57099081  0.68351208  1
  Si0+  Si98  1  0.07114213  0.67662349  0.31784897  1
  Si0+  Si99  1  0.67802307  0.42734083  0.01367513  1
  Si0+  Si100  1  0.43177685  0.82201827  0.65253728  1
  Si0+  Si101  1  0.82241822  0.07132253  0.01578917  1
  Si0+  Si102  1  0.93112176  0.82140272  0.31957853  1
  Si0+  Si103  1  0.57353359  0.17682449  0.98242430  1
  Si0+  Si104  1  0.07119613  0.18008763  0.98351332  1
  Si0+  Si105  1  0.81769880  0.57026823  0.68038430  1
  Si0+  Si106  1  0.57095637  0.67705057  0.65064385  1
  Si0+  Si107  1  0.42827869  0.31904585  0.64874904  1
  Si0+  Si108  1  0.32179432  0.06950235  0.01419615  1
  Si0+  Si109  1  0.67698172  0.42743626  0.68277549  1
  Si0+  Si110  1  0.92543012  0.32347347  0.31404266  1
  Si0+  Si111  1  0.42950838  0.31915707  0.31917560  1
  Si0+  Si112  1  0.07264846  0.17977577  0.65055739  1
  Si0+  Si113  1  0.57406054  0.17910119  0.31868101  1
  Si0+  Si114  1  0.67846202  0.92974473  0.01514666  1
  Si0+  Si115  1  0.42767849  0.82562822  0.98183342  1
  Si0+  Si116  1  0.56991192  0.17828319  0.65123793  1
  Si0+  Si117  1  0.67973128  0.92612545  0.68536464  1
  Si0+  Si118  1  0.17887871  0.93024671  0.01453469  1
  Si0+  Si119  1  0.92648258  0.31921410  0.98644150  1
  O2-  O120  1  0.25408151  -0.00330204  0.05681050  1
  O2-  O121  1  0.25563148  -0.00444902  0.39373940  1
  O2-  O122  1  0.25033606  0.00047204  0.73423188  1
  O2-  O123  1  0.24666859  0.50305570  0.06296075  1
  O2-  O124  1  0.24528592  0.50429969  0.39993786  1
  O2-  O125  1  0.24895240  0.50961275  0.72742967  1
  O2-  O126  1  0.75253240  -0.00132468  0.05618026  1
  O2-  O127  1  0.75073345  -0.00122266  0.39808280  1
  O2-  O128  1  0.75148639  -0.00879696  0.73087266  1
  O2-  O129  1  0.74288160  0.49898386  0.05815204  1
  O2-  O130  1  0.75375066  0.50431256  0.39505831  1
  O2-  O131  1  0.74672774  0.49929453  0.72449408  1
  O2-  O132  1  -0.00305636  0.25732202  0.27047232  1
  O2-  O133  1  0.00156605  0.24663981  0.60732177  1
  O2-  O134  1  0.00139361  0.25299665  0.94299517  1
  O2-  O135  1  0.00071084  0.74938251  0.27688080  1
  O2-  O136  1  0.00753359  0.75605682  0.59938262  1
  O2-  O137  1  -0.00085471  0.74826613  0.93767115  1
  O2-  O138  1  0.49911753  0.24609537  0.27651600  1
  O2-  O139  1  0.49594366  0.24482149  0.60677756  1
  O2-  O140  1  0.50573976  0.24587702  0.93767840  1
  O2-  O141  1  0.49781231  0.74937936  0.26840705  1
  O2-  O142  1  0.49988293  0.74805558  0.61057025  1
  O2-  O143  1  0.49169645  0.75192709  0.93755457  1
  O2-  O144  1  0.07033161  0.17770846  0.08852200  1
  O2-  O145  1  0.06867765  0.18151288  0.43322924  1
  O2-  O146  1  0.07135614  0.18240676  0.75701367  1
  O2-  O147  1  0.06968345  0.68002992  0.10163975  1
  O2-  O148  1  0.06866665  0.67505549  0.42276273  1
  O2-  O149  1  0.06817999  0.67516786  0.76458592  1
  O2-  O150  1  0.57412543  0.17615630  0.08785196  1
  O2-  O151  1  0.57629474  0.18262868  0.42389715  1
  O2-  O152  1  0.57091862  0.18202234  0.75657819  1
  O2-  O153  1  0.57067082  0.68105637  0.09801597  1
  O2-  O154  1  0.56905680  0.67815661  0.43205542  1
  O2-  O155  1  0.57162196  0.67634078  0.75603738  1
  O2-  O156  1  0.18247977  0.42779913  0.23631174  1
  O2-  O157  1  0.17991308  0.43089695  0.56763245  1
  O2-  O158  1  0.17686485  0.42613035  0.90217345  1
  O2-  O159  1  0.17577993  0.93110069  0.23159789  1
  O2-  O160  1  0.18144393  0.92907423  0.57106269  1
  O2-  O161  1  0.17817578  0.93344452  0.90971873  1
  O2-  O162  1  0.68038206  0.43015660  0.23216763  1
  O2-  O163  1  0.67576764  0.42778798  0.57777892  1
  O2-  O164  1  0.68144697  0.42544409  0.90771651  1
  O2-  O165  1  0.68161653  0.92831076  0.23385688  1
  O2-  O166  1  0.67723149  0.92891305  0.58034135  1
  O2-  O167  1  0.67516950  0.93259983  0.91005805  1
  O2-  O168  1  0.43101523  0.31717956  0.09845470  1
  O2-  O169  1  0.43123609  0.31777985  0.42458475  1
  O2-  O170  1  0.43193227  0.32085186  0.75382552  1
  O2-  O171  1  0.43204831  0.83304267  0.08646813  1
  O2-  O172  1  0.42998148  0.82240219  0.43292531  1
  O2-  O173  1  0.43485632  0.82300057  0.75793744  1
  O2-  O174  1  0.91915066  0.31449441  0.09070009  1
  O2-  O175  1  0.92328779  0.32159779  0.41961015  1
  O2-  O176  1  0.92610173  0.32118808  0.76685900  1
  O2-  O177  1  0.93015626  0.82464591  0.10042820  1
  O2-  O178  1  0.93194779  0.82135278  0.42443811  1
  O2-  O179  1  0.92773750  0.81713231  0.76254120  1
  O2-  O180  1  0.31900789  0.07395957  0.23032767  1
  O2-  O181  1  0.32468840  0.06988168  0.57043198  1
  O2-  O182  1  0.32126931  0.06917520  0.90923834  1
  O2-  O183  1  0.32302069  0.56711375  0.23518021  1
  O2-  O184  1  0.32893681  0.56686905  0.57841628  1
  O2-  O185  1  0.32412988  0.56763519  0.90085656  1
  O2-  O186  1  0.82032898  0.06944436  0.23313496  1
  O2-  O187  1  0.81601141  0.07337502  0.56982210  1
  O2-  O188  1  0.82067151  0.07412191  0.91077404  1
  O2-  O189  1  0.82299204  0.57373130  0.24660044  1
  O2-  O190  1  0.81485031  0.56960577  0.57547444  1
  O2-  O191  1  0.81872746  0.56990847  0.89907829  1
  O2-  O192  1  0.03709215  0.08582470  0.26323826  1
  O2-  O193  1  0.04856834  0.08499670  0.60819003  1
  O2-  O194  1  0.04027203  0.09012527  0.93424561  1
  O2-  O195  1  0.04093164  0.58519566  0.27051757  1
  O2-  O196  1  0.03628538  0.58443325  0.59506035  1
  O2-  O197  1  0.04149034  0.57637675  0.93899157  1
  O2-  O198  1  0.55252830  0.08606744  0.27152305  1
  O2-  O199  1  0.54781387  0.08375820  0.60716988  1
  O2-  O200  1  0.54697461  0.08424842  0.93420332  1
  O2-  O201  1  0.54302970  0.57815929  0.26636858  1
  O2-  O202  1  0.54354736  0.58408772  0.60485298  1
  O2-  O203  1  0.54274205  0.58283990  0.92870080  1
  O2-  O204  1  0.16642609  0.21200270  0.26455057  1
  O2-  O205  1  0.16627160  0.20805181  0.60673519  1
  O2-  O206  1  0.16309445  0.20413978  0.93509137  1
  O2-  O207  1  0.16343550  0.70253582  0.27168632  1
  O2-  O208  1  0.17662844  0.69794919  0.60369995  1
  O2-  O209  1  0.17048207  0.70406098  0.93459696  1
  O2-  O210  1  0.66377432  0.21184123  0.26929797  1
  O2-  O211  1  0.65954206  0.21067863  0.60291659  1
  O2-  O212  1  0.66773009  0.20195590  0.93621499  1
  O2-  O213  1  0.67097994  0.70528411  0.26730355  1
  O2-  O214  1  0.66204937  0.70339194  0.60211453  1
  O2-  O215  1  0.66342144  0.71419698  0.92921199  1
  O2-  O216  1  0.07764954  0.44677260  0.07057605  1
  O2-  O217  1  0.07618823  0.45131930  0.39832370  1
  O2-  O218  1  0.07741287  0.45968139  0.73116162  1
  O2-  O219  1  0.08854414  0.96367289  0.06190827  1
  O2-  O220  1  0.08366431  0.96329744  0.40047325  1
  O2-  O221  1  0.08129094  0.95581597  0.73840453  1
  O2-  O222  1  0.58257422  0.44908392  0.05547818  1
  O2-  O223  1  0.58478925  0.45966202  0.40413030  1
  O2-  O224  1  0.58445487  0.45538514  0.72932344  1
  O2-  O225  1  0.58811057  0.96133434  0.06362118  1
  O2-  O226  1  0.58218594  0.95662411  0.40200880  1
  O2-  O227  1  0.58878974  0.95605618  0.73501079  1
  O2-  O228  1  0.21173449  0.32850520  0.06567606  1
  O2-  O229  1  0.21079954  0.33293322  0.40347894  1
  O2-  O230  1  0.20939029  0.33743628  0.73557472  1
  O2-  O231  1  0.20107723  0.83676505  0.06007484  1
  O2-  O232  1  0.19922173  0.82883017  0.39974093  1
  O2-  O233  1  0.21105998  0.82880311  0.73734540  1
  O2-  O234  1  0.70590843  0.33415869  0.06021576  1
  O2-  O235  1  0.70945952  0.33559925  0.40239942  1
  O2-  O236  1  0.70315009  0.33617441  0.73116564  1
  O2-  O237  1  0.70362675  0.83776500  0.06177021  1
  O2-  O238  1  0.70618950  0.82877862  0.40177446  1
  O2-  O239  1  0.70153043  0.82996317  0.72817024  1
  O2-  O240  1  0.46202061  0.40954581  0.27279834  1
  O2-  O241  1  0.46099467  0.40886013  0.59999801  1
  O2-  O242  1  0.46013882  0.41326181  0.92557779  1
  O2-  O243  1  0.45789088  0.92154027  0.26540923  1
  O2-  O244  1  0.46286460  0.91340085  0.60651262  1
  O2-  O245  1  0.46042169  0.91648317  0.93205251  1
  O2-  O246  1  0.94681433  0.41905669  0.27006743  1
  O2-  O247  1  0.95364884  0.41669129  0.59630006  1
  O2-  O248  1  0.95059447  0.41292159  0.94182919  1
  O2-  O249  1  0.95824594  0.91322916  0.27199988  1
  O2-  O250  1  0.95364612  0.92465905  0.60136539  1
  O2-  O251  1  0.95956595  0.92055710  0.93326562  1
  O2-  O252  1  0.33813589  0.29212060  0.27129932  1
  O2-  O253  1  0.33496414  0.29415543  0.60391329  1
  O2-  O254  1  0.33471664  0.28509638  0.92885897  1
  O2-  O255  1  0.32677425  0.79901554  0.26748055  1
  O2-  O256  1  0.33917862  0.79760020  0.60635035  1
  O2-  O257  1  0.33225122  0.80584012  0.93796645  1
  O2-  O258  1  0.83271492  0.29499705  0.26697428  1
  O2-  O259  1  0.82875961  0.29029231  0.60086266  1
  O2-  O260  1  0.83670359  0.28784537  0.93533329  1
  O2-  O261  1  0.83857790  0.79387694  0.27324949  1
  O2-  O262  1  0.83227466  0.79027501  0.59612186  1
  O2-  O263  1  0.82942634  0.79911882  0.93338205  1
  O2-  O264  1  0.41628577  0.04705940  0.05903462  1
  O2-  O265  1  0.42347723  0.05382558  0.39510442  1
  O2-  O266  1  0.42142263  0.04292200  0.73799865  1
  O2-  O267  1  0.42064965  0.53732926  0.06488293  1
  O2-  O268  1  0.41763255  0.53905645  0.40293569  1
  O2-  O269  1  0.41553194  0.53609969  0.73036764  1
  O2-  O270  1  0.91523838  0.04544663  0.06193872  1
  O2-  O271  1  0.91873785  0.04315089  0.40086574  1
  O2-  O272  1  0.91816021  0.04736300  0.73750817  1
  O2-  O273  1  0.91242852  0.53954638  0.07131409  1
  O2-  O274  1  0.91497799  0.54652194  0.39976705  1
  O2-  O275  1  0.90903687  0.54092654  0.72670079  1
  O2-  O276  1  0.29165279  0.16090209  0.06005562  1
  O2-  O277  1  0.28979345  0.16778450  0.39958335  1
  O2-  O278  1  0.29487687  0.17026448  0.73640165  1
  O2-  O279  1  0.30234385  0.67388729  0.06488998  1
  O2-  O280  1  0.29674429  0.67036109  0.40003838  1
  O2-  O281  1  0.31091665  0.66736047  0.72739544  1
  O2-  O282  1  0.79261666  0.16189274  0.06460567  1
  O2-  O283  1  0.79292242  0.16950332  0.39914583  1
  O2-  O284  1  0.78293782  0.16548528  0.73763315  1
  O2-  O285  1  0.78905148  0.67014378  0.06530432  1
  O2-  O286  1  0.79732809  0.66617619  0.39968381  1
  O2-  O287  1  0.78812080  0.66178478  0.72753558  1
