# generated using pymatgen
data_Ca2Al2SiO7
_symmetry_space_group_name_H-M   'P 1'
_cell_length_a   15.45704151
_cell_length_b   15.45717974
_cell_length_c   15.28335532
_cell_angle_alpha   90.01041498
_cell_angle_beta   90.00272616
_cell_angle_gamma   89.99971625
_symmetry_Int_Tables_number   1
_chemical_formula_structural   Ca2Al2SiO7
_chemical_formula_sum   'Ca48 Al48 Si24 O168'
_cell_volume   3651.53386335
_cell_formula_units_Z   24
loop_
 _symmetry_equiv_pos_site_id
 _symmetry_equiv_pos_as_xyz
  1  'x, y, z'
loop_
 _atom_type_symbol
 _atom_type_oxidation_number
  Ca2+  2.0
  Al0+  0.0
  Si0+  0.0
  O2-  -2.0
loop_
 _atom_site_type_symbol
 _atom_site_label
 _atom_site_symmetry_multiplicity
 _atom_site_fract_x
 _atom_site_fract_y
 _atom_site_fract_z
 _atom_site_occupancy
  Ca2+  Ca0  1  0.16851317  0.07516539  0.17591043  1
  Ca2+  Ca1  1  0.17122766  0.08535258  0.50172575  1
  Ca2+  Ca2  1  0.16523682  0.08335316  0.83187791  1
  Ca2+  Ca3  1  0.17001252  0.57139643  0.16894964  1
  Ca2+  Ca4  1  0.16293752  0.57791217  0.50494992  1
  Ca2+  Ca5  1  0.17026393  0.57990353  0.84168719  1
  Ca2+  Ca6  1  0.67067522  0.07736024  0.17528403  1
  Ca2+  Ca7  1  0.67078113  0.07004552  0.51043537  1
  Ca2+  Ca8  1  0.67384590  0.08159238  0.82934812  1
  Ca2+  Ca9  1  0.66808706  0.58506497  0.17087351  1
  Ca2+  Ca10  1  0.66890157  0.58510705  0.51169900  1
  Ca2+  Ca11  1  0.67024347  0.58246264  0.82629132  1
  Ca2+  Ca12  1  0.08883297  0.32941956  0.16327177  1
  Ca2+  Ca13  1  0.08128402  0.32205095  0.49750382  1
  Ca2+  Ca14  1  0.07551969  0.33323116  0.82432689  1
  Ca2+  Ca15  1  0.08192574  0.84036376  0.15856366  1
  Ca2+  Ca16  1  0.08045229  0.83249157  0.49896564  1
  Ca2+  Ca17  1  0.07677214  0.83085569  0.82587124  1
  Ca2+  Ca18  1  0.57487457  0.32893969  0.15771440  1
  Ca2+  Ca19  1  0.57700416  0.33888943  0.50107959  1
  Ca2+  Ca20  1  0.57043570  0.33985124  0.82546410  1
  Ca2+  Ca21  1  0.57744816  0.83447573  0.17055819  1
  Ca2+  Ca22  1  0.58770879  0.82865713  0.49291618  1
  Ca2+  Ca23  1  0.58327368  0.82705033  0.82352756  1
  Ca2+  Ca24  1  0.32614752  0.41612842  0.16604765  1
  Ca2+  Ca25  1  0.32639302  0.41189161  0.50491621  1
  Ca2+  Ca26  1  0.32987376  0.41963640  0.84174416  1
  Ca2+  Ca27  1  0.32265657  0.91955792  0.17840383  1
  Ca2+  Ca28  1  0.33563179  0.92665330  0.50295629  1
  Ca2+  Ca29  1  0.32550345  0.92396138  0.83815599  1
  Ca2+  Ca30  1  0.83614604  0.41708949  0.16926710  1
  Ca2+  Ca31  1  0.82569257  0.42228130  0.51484322  1
  Ca2+  Ca32  1  0.83739485  0.41764531  0.83378715  1
  Ca2+  Ca33  1  0.82971363  0.91472534  0.17167691  1
  Ca2+  Ca34  1  0.82449756  0.91616742  0.51112916  1
  Ca2+  Ca35  1  0.83639494  0.91453857  0.83085837  1
  Ca2+  Ca36  1  0.41385955  0.16763963  0.16571199  1
  Ca2+  Ca37  1  0.40853196  0.16702747  0.49979837  1
  Ca2+  Ca38  1  0.41060760  0.17820419  0.82574743  1
  Ca2+  Ca39  1  0.41815268  0.66661583  0.16662816  1
  Ca2+  Ca40  1  0.43096915  0.67499327  0.49314730  1
  Ca2+  Ca41  1  0.41924732  0.66487641  0.82570175  1
  Ca2+  Ca42  1  0.92519571  0.17208940  0.16076815  1
  Ca2+  Ca43  1  0.92567144  0.16052771  0.50059263  1
  Ca2+  Ca44  1  0.92176074  0.17538052  0.82216286  1
  Ca2+  Ca45  1  0.92122330  0.67562260  0.16034619  1
  Ca2+  Ca46  1  0.91664158  0.66791684  0.50545200  1
  Ca2+  Ca47  1  0.92132531  0.67470383  0.82221960  1
  Al0+  Al48  1  -0.00176519  0.00125772  -0.00073869  1
  Al0+  Al49  1  0.00151014  0.00133374  0.33104813  1
  Al0+  Al50  1  -0.00044431  -0.00049319  0.66221140  1
  Al0+  Al51  1  -0.00025305  0.50047746  0.00273663  1
  Al0+  Al52  1  -0.00068072  0.50116525  0.33704752  1
  Al0+  Al53  1  -0.00131187  0.50002351  0.66349142  1
  Al0+  Al54  1  0.50242940  -0.00208223  -0.00107169  1
  Al0+  Al55  1  0.50078354  -0.00002822  0.33598123  1
  Al0+  Al56  1  0.49762936  0.00277586  0.67891185  1
  Al0+  Al57  1  0.50178258  0.49960812  0.00105545  1
  Al0+  Al58  1  0.50063594  0.50018141  0.32715122  1
  Al0+  Al59  1  0.49859329  0.50130976  0.66029062  1
  Al0+  Al60  1  0.25193133  0.24916217  -0.00067490  1
  Al0+  Al61  1  0.24771066  0.25037378  0.33485362  1
  Al0+  Al62  1  0.24913785  0.25052696  0.66426502  1
  Al0+  Al63  1  0.25231915  0.75037291  0.00818574  1
  Al0+  Al64  1  0.24976207  0.74840021  0.33356427  1
  Al0+  Al65  1  0.25030334  0.74991126  0.66199507  1
  Al0+  Al66  1  0.75139741  0.24881970  -0.00192487  1
  Al0+  Al67  1  0.74960024  0.25214854  0.33271977  1
  Al0+  Al68  1  0.74524933  0.24867554  0.67112160  1
  Al0+  Al69  1  0.75010823  0.74994158  -0.00234176  1
  Al0+  Al70  1  0.75110630  0.74883703  0.33122524  1
  Al0+  Al71  1  0.74988665  0.74758495  0.66859544  1
  Al0+  Al72  1  0.42862173  0.82287399  0.31848408  1
  Al0+  Al73  1  0.67530464  0.42846904  0.68154693  1
  Al0+  Al74  1  0.67873331  0.92687913  0.68386242  1
  Al0+  Al75  1  0.17970176  0.43031328  0.34950408  1
  Al0+  Al76  1  0.17611763  0.92571768  0.35034139  1
  Al0+  Al77  1  0.92943312  0.32225921  0.98655128  1
  Al0+  Al78  1  0.31855252  0.07268522  0.68308431  1
  Al0+  Al79  1  0.56876549  0.68156013  0.65438766  1
  Al0+  Al80  1  0.82222108  0.56918016  0.68354875  1
  Al0+  Al81  1  0.43041498  0.31905720  0.98674239  1
  Al0+  Al82  1  0.57295525  0.67892626  0.31541518  1
  Al0+  Al83  1  0.92433447  0.32131317  0.65124893  1
  Al0+  Al84  1  0.32052635  0.07050381  0.34827310  1
  Al0+  Al85  1  0.07391566  0.67777171  0.65208503  1
  Al0+  Al86  1  0.07039040  0.17989670  0.31695423  1
  Al0+  Al87  1  0.92928084  0.82143813  0.98605347  1
  Al0+  Al88  1  0.68177879  0.92946202  0.34559717  1
  Al0+  Al89  1  0.92912187  0.82033968  0.65047788  1
  Al0+  Al90  1  0.17845915  0.93155323  0.01165013  1
  Al0+  Al91  1  0.17737857  0.42790225  0.01365265  1
  Al0+  Al92  1  0.32456647  0.57144833  0.01587322  1
  Al0+  Al93  1  0.82336453  0.07086676  0.68189311  1
  Al0+  Al94  1  0.07058570  0.17937203  0.65094004  1
  Al0+  Al95  1  0.42948475  0.32102396  0.65166094  1
  Si0+  Si96  1  0.17860994  0.92585842  0.68238968  1
  Si0+  Si97  1  0.07137537  0.67597493  0.31670034  1
  Si0+  Si98  1  0.56974856  0.17574570  0.65055584  1
  Si0+  Si99  1  0.92732579  0.32343915  0.31694869  1
  Si0+  Si100  1  0.81980643  0.57046197  0.34765172  1
  Si0+  Si101  1  0.67955710  0.92667968  0.01699048  1
  Si0+  Si102  1  0.42845611  0.32056440  0.31721236  1
  Si0+  Si103  1  0.82008696  0.57214879  0.01603864  1
  Si0+  Si104  1  0.93094170  0.81975658  0.31824946  1
  Si0+  Si105  1  0.32452646  0.57088814  0.35187969  1
  Si0+  Si106  1  0.42718420  0.82571149  0.65265144  1
  Si0+  Si107  1  0.07363162  0.67899454  0.98708606  1
  Si0+  Si108  1  0.57295829  0.17955522  0.31977916  1
  Si0+  Si109  1  0.68021210  0.42809931  0.01563405  1
  Si0+  Si110  1  0.17948373  0.42996881  0.68047489  1
  Si0+  Si111  1  0.42821642  0.82130565  0.98482083  1
  Si0+  Si112  1  0.82209681  0.07454840  0.34796876  1
  Si0+  Si113  1  0.57361538  0.17536214  0.98247299  1
  Si0+  Si114  1  0.57108214  0.67938055  0.98353032  1
  Si0+  Si115  1  0.81973214  0.07165526  0.01646749  1
  Si0+  Si116  1  0.07202677  0.17852689  0.98366188  1
  Si0+  Si117  1  0.32020801  0.57156803  0.67796062  1
  Si0+  Si118  1  0.32435556  0.07132152  0.01640006  1
  Si0+  Si119  1  0.67766964  0.42821492  0.34618628  1
  O2-  O120  1  0.25486952  0.00388586  0.05992261  1
  O2-  O121  1  0.25096384  -0.00412101  0.39819833  1
  O2-  O122  1  0.24494124  -0.00382926  0.72803802  1
  O2-  O123  1  0.25069460  0.49957130  0.06359082  1
  O2-  O124  1  0.25490195  0.50425267  0.39732316  1
  O2-  O125  1  0.24670313  0.50467219  0.72202443  1
  O2-  O126  1  0.74925390  -0.00049151  0.05872334  1
  O2-  O127  1  0.75504297  0.00493968  0.39172627  1
  O2-  O128  1  0.75316868  -0.00287302  0.73366848  1
  O2-  O129  1  0.75236129  0.49777252  0.05921242  1
  O2-  O130  1  0.74769180  0.49968546  0.38731680  1
  O2-  O131  1  0.75305114  0.49355257  0.73342771  1
  O2-  O132  1  -0.00501113  0.25496534  0.27121316  1
  O2-  O133  1  -0.00612784  0.24729331  0.60110927  1
  O2-  O134  1  0.00851489  0.25241880  0.94094090  1
  O2-  O135  1  0.00656030  0.75349876  0.27498358  1
  O2-  O136  1  0.00256435  0.74973326  0.60052848  1
  O2-  O137  1  0.00730064  0.74914506  0.94232482  1
  O2-  O138  1  0.50075507  0.24931917  0.27673515  1
  O2-  O139  1  0.50425320  0.24650013  0.60436361  1
  O2-  O140  1  0.50311047  0.24250169  0.93962159  1
  O2-  O141  1  0.49876336  0.74915947  0.26604402  1
  O2-  O142  1  0.50023235  0.76200469  0.60869339  1
  O2-  O143  1  0.49750592  0.74849973  0.94270479  1
  O2-  O144  1  0.06912564  0.17725069  0.08950241  1
  O2-  O145  1  0.06958034  0.18059154  0.42926492  1
  O2-  O146  1  0.07286834  0.18360696  0.76504371  1
  O2-  O147  1  0.06941942  0.67863221  0.09312078  1
  O2-  O148  1  0.06673281  0.67196326  0.42114442  1
  O2-  O149  1  0.07724103  0.67989477  0.76618342  1
  O2-  O150  1  0.57484356  0.17613719  0.08887755  1
  O2-  O151  1  0.57753741  0.18245894  0.42402822  1
  O2-  O152  1  0.56635445  0.17545935  0.75633212  1
  O2-  O153  1  0.57385096  0.68111717  0.08853490  1
  O2-  O154  1  0.57446087  0.67872908  0.42840903  1
  O2-  O155  1  0.56432004  0.67986520  0.76812854  1
  O2-  O156  1  0.18086338  0.43069249  0.23625762  1
  O2-  O157  1  0.18236093  0.42947435  0.57518359  1
  O2-  O158  1  0.17730860  0.43067542  0.90000567  1
  O2-  O159  1  0.17472546  0.93011799  0.23607197  1
  O2-  O160  1  0.18212162  0.92348572  0.57729145  1
  O2-  O161  1  0.17981945  0.93186990  0.89863570  1
  O2-  O162  1  0.67940826  0.42597209  0.24053583  1
  O2-  O163  1  0.67336869  0.43421376  0.56733042  1
  O2-  O164  1  0.67808065  0.42958114  0.91139272  1
  O2-  O165  1  0.68403614  0.93126518  0.23154650  1
  O2-  O166  1  0.67826551  0.92825687  0.57003491  1
  O2-  O167  1  0.67854527  0.92526616  0.91262868  1
  O2-  O168  1  0.43298594  0.31718463  0.10045446  1
  O2-  O169  1  0.43021139  0.32268393  0.42207574  1
  O2-  O170  1  0.42854440  0.32216023  0.76488869  1
  O2-  O171  1  0.43080653  0.82460230  0.08950646  1
  O2-  O172  1  0.43331596  0.82285018  0.43193974  1
  O2-  O173  1  0.42431015  0.82068416  0.75883244  1
  O2-  O174  1  0.92539054  0.31831269  0.09998925  1
  O2-  O175  1  0.92488689  0.32309089  0.42158464  1
  O2-  O176  1  0.93090366  0.32224359  0.76522471  1
  O2-  O177  1  0.92707429  0.81915217  0.09993797  1
  O2-  O178  1  0.92766258  0.81661683  0.42252050  1
  O2-  O179  1  0.93223019  0.81886967  0.76446005  1
  O2-  O180  1  0.31942753  0.07116432  0.23401309  1
  O2-  O181  1  0.31903752  0.07180312  0.57041336  1
  O2-  O182  1  0.32464569  0.07058068  0.91101034  1
  O2-  O183  1  0.32444646  0.56738972  0.24615867  1
  O2-  O184  1  0.32044586  0.56953217  0.57309839  1
  O2-  O185  1  0.32494529  0.57111802  0.90174821  1
  O2-  O186  1  0.81899449  0.07533482  0.24154279  1
  O2-  O187  1  0.82005249  0.06882702  0.56785678  1
  O2-  O188  1  0.81927417  0.07292066  0.91220911  1
  O2-  O189  1  0.82049804  0.56995108  0.24171163  1
  O2-  O190  1  0.81896209  0.57003302  0.56946862  1
  O2-  O191  1  0.81873088  0.57405760  0.91190707  1
  O2-  O192  1  0.03956369  0.08342163  0.26116509  1
  O2-  O193  1  0.04791591  0.07980614  0.59828746  1
  O2-  O194  1  0.03984066  0.08788445  0.93624806  1
  O2-  O195  1  0.03537466  0.58722066  0.26706240  1
  O2-  O196  1  0.04422582  0.58063590  0.59775255  1
  O2-  O197  1  0.04634655  0.58593573  0.94165572  1
  O2-  O198  1  0.54650307  0.08800928  0.27114495  1
  O2-  O199  1  0.53991161  0.08251220  0.60591437  1
  O2-  O200  1  0.55164933  0.08042759  0.93754648  1
  O2-  O201  1  0.54564040  0.57977962  0.26087487  1
  O2-  O202  1  0.53340503  0.58882925  0.59651346  1
  O2-  O203  1  0.54631519  0.58627789  0.93828602  1
  O2-  O204  1  0.16648158  0.21321237  0.26278371  1
  O2-  O205  1  0.16605463  0.21427811  0.59658938  1
  O2-  O206  1  0.16834975  0.19658326  0.94080282  1
  O2-  O207  1  0.16615872  0.69449474  0.27189800  1
  O2-  O208  1  0.17172833  0.70432419  0.59568254  1
  O2-  O209  1  0.16947868  0.70105498  0.94459881  1
  O2-  O210  1  0.66339648  0.20932375  0.26811362  1
  O2-  O211  1  0.66453838  0.19584750  0.60562732  1
  O2-  O212  1  0.66645793  0.20263160  0.93693033  1
  O2-  O213  1  0.67111357  0.70877165  0.26101261  1
  O2-  O214  1  0.66675109  0.70621692  0.60192010  1
  O2-  O215  1  0.66151734  0.71047676  0.93581999  1
  O2-  O216  1  0.07978424  0.45664298  0.06998513  1
  O2-  O217  1  0.08274838  0.46206795  0.40203550  1
  O2-  O218  1  0.08643460  0.45465510  0.72569451  1
  O2-  O219  1  0.08154909  0.96266542  0.06607125  1
  O2-  O220  1  0.07773912  0.95691183  0.40124723  1
  O2-  O221  1  0.08392943  0.95006010  0.72580688  1
  O2-  O222  1  0.59006956  0.45783605  0.06555915  1
  O2-  O223  1  0.58455271  0.45414222  0.39109879  1
  O2-  O224  1  0.57875537  0.46659286  0.73393253  1
  O2-  O225  1  0.58702453  0.95419301  0.06419869  1
  O2-  O226  1  0.58593375  0.95916223  0.39931533  1
  O2-  O227  1  0.58164057  0.95705259  0.73965587  1
  O2-  O228  1  0.20780424  0.32915601  0.06614216  1
  O2-  O229  1  0.21136797  0.33457946  0.40295043  1
  O2-  O230  1  0.21134981  0.34034813  0.72841910  1
  O2-  O231  1  0.20641193  0.83502742  0.06741198  1
  O2-  O232  1  0.19770470  0.82408564  0.39900187  1
  O2-  O233  1  0.20685044  0.83282112  0.72957387  1
  O2-  O234  1  0.70647509  0.33502188  0.06269826  1
  O2-  O235  1  0.70453275  0.33698703  0.39503343  1
  O2-  O236  1  0.69004199  0.32706619  0.73267455  1
  O2-  O237  1  0.70983959  0.83568185  0.06484943  1
  O2-  O238  1  0.71398300  0.83255585  0.39720033  1
  O2-  O239  1  0.70592806  0.82850882  0.73667482  1
  O2-  O240  1  0.45729515  0.41114501  0.26762060  1
  O2-  O241  1  0.46021363  0.41586426  0.59440568  1
  O2-  O242  1  0.46406139  0.41579734  0.93450001  1
  O2-  O243  1  0.46032621  0.92062863  0.26412647  1
  O2-  O244  1  0.44862795  0.92218774  0.61265625  1
  O2-  O245  1  0.45804959  0.91234914  0.93608323  1
  O2-  O246  1  0.95339027  0.41782808  0.27169902  1
  O2-  O247  1  0.95341422  0.41905440  0.59832631  1
  O2-  O248  1  0.95441576  0.42168276  0.93564975  1
  O2-  O249  1  0.95279792  0.91342150  0.27110292  1
  O2-  O250  1  0.95347580  0.91865546  0.59667327  1
  O2-  O251  1  0.95611432  0.91928658  0.93366375  1
  O2-  O252  1  0.33736083  0.29128246  0.27036654  1
  O2-  O253  1  0.33409457  0.28844041  0.59737992  1
  O2-  O254  1  0.33320291  0.29164661  0.93202175  1
  O2-  O255  1  0.32877431  0.79508272  0.26656446  1
  O2-  O256  1  0.33658954  0.79683967  0.60330708  1
  O2-  O257  1  0.33548379  0.79494927  0.93885446  1
  O2-  O258  1  0.83289733  0.29899279  0.26935655  1
  O2-  O259  1  0.82207688  0.29882975  0.60397178  1
  O2-  O260  1  0.83331818  0.28945036  0.93304443  1
  O2-  O261  1  0.84169216  0.78633382  0.26794632  1
  O2-  O262  1  0.83118107  0.78836719  0.59936325  1
  O2-  O263  1  0.83353046  0.78773521  0.93275510  1
  O2-  O264  1  0.41919700  0.04543385  0.06108670  1
  O2-  O265  1  0.42041758  0.04681442  0.40055402  1
  O2-  O266  1  0.41352023  0.04582045  0.74217042  1
  O2-  O267  1  0.42246954  0.54113612  0.06993914  1
  O2-  O268  1  0.41914770  0.54348482  0.39513795  1
  O2-  O269  1  0.41029243  0.54047697  0.72604695  1
  O2-  O270  1  0.91117749  0.04397350  0.06468791  1
  O2-  O271  1  0.91624605  0.04982875  0.39057749  1
  O2-  O272  1  0.92304510  0.04486637  0.73403017  1
  O2-  O273  1  0.91228453  0.54788728  0.06498974  1
  O2-  O274  1  0.91053059  0.54346581  0.39633299  1
  O2-  O275  1  0.92227810  0.54460295  0.73574384  1
  O2-  O276  1  0.30169886  0.16574882  0.06161969  1
  O2-  O277  1  0.29027651  0.16845451  0.40029082  1
  O2-  O278  1  0.28461471  0.16899087  0.73658858  1
  O2-  O279  1  0.29881074  0.66924038  0.07159653  1
  O2-  O280  1  0.30206657  0.66574906  0.39540617  1
  O2-  O281  1  0.29696556  0.66491457  0.72565347  1
  O2-  O282  1  0.79022419  0.16257967  0.06613022  1
  O2-  O283  1  0.79602244  0.16823632  0.39317389  1
  O2-  O284  1  0.79157230  0.16776470  0.73699145  1
  O2-  O285  1  0.78721020  0.66234105  0.06514443  1
  O2-  O286  1  0.79192688  0.66174764  0.39456262  1
  O2-  O287  1  0.78953580  0.66532048  0.73807411  1
