# generated using pymatgen
data_Ca2Al2SiO7
_symmetry_space_group_name_H-M   'P 1'
_cell_length_a   15.45971413
_cell_length_b   15.45881240
_cell_length_c   15.28443824
_cell_angle_alpha   89.99756229
_cell_angle_beta   89.99343203
_cell_angle_gamma   90.00840321
_symmetry_Int_Tables_number   1
_chemical_formula_structural   Ca2Al2SiO7
_chemical_formula_sum   'Ca48 Al48 Si24 O168'
_cell_volume   3652.80980092
_cell_formula_units_Z   24
loop_
 _symmetry_equiv_pos_site_id
 _symmetry_equiv_pos_as_xyz
  1  'x, y, z'
loop_
 _atom_type_symbol
 _atom_type_oxidation_number
  Ca2+  2.0
  Al0+  0.0
  Si0+  0.0
  O2-  -2.0
loop_
 _atom_site_type_symbol
 _atom_site_label
 _atom_site_symmetry_multiplicity
 _atom_site_fract_x
 _atom_site_fract_y
 _atom_site_fract_z
 _atom_site_occupancy
  Ca2+  Ca0  1  0.17998711  0.08545138  0.16997935  1
  Ca2+  Ca1  1  0.17536790  0.08826947  0.50722163  1
  Ca2+  Ca2  1  0.17576029  0.09390409  0.83371557  1
  Ca2+  Ca3  1  0.16356929  0.57664642  0.16845359  1
  Ca2+  Ca4  1  0.17453975  0.57839351  0.51094673  1
  Ca2+  Ca5  1  0.16332414  0.57086921  0.83513744  1
  Ca2+  Ca6  1  0.66864475  0.08047621  0.16976155  1
  Ca2+  Ca7  1  0.67246504  0.06652596  0.50868829  1
  Ca2+  Ca8  1  0.67740453  0.08259457  0.83661285  1
  Ca2+  Ca9  1  0.66842557  0.58703082  0.17254396  1
  Ca2+  Ca10  1  0.67225774  0.58346668  0.50854909  1
  Ca2+  Ca11  1  0.66712477  0.58231455  0.82903974  1
  Ca2+  Ca12  1  0.07207673  0.33607400  0.16134374  1
  Ca2+  Ca13  1  0.07512757  0.33385516  0.50171774  1
  Ca2+  Ca14  1  0.07615332  0.33274183  0.82451734  1
  Ca2+  Ca15  1  0.07720045  0.83380464  0.16671920  1
  Ca2+  Ca16  1  0.06829588  0.83564505  0.49739535  1
  Ca2+  Ca17  1  0.07564213  0.83327894  0.82378634  1
  Ca2+  Ca18  1  0.57994539  0.32482151  0.15792702  1
  Ca2+  Ca19  1  0.58677093  0.33330840  0.50092001  1
  Ca2+  Ca20  1  0.58686068  0.32714122  0.82758473  1
  Ca2+  Ca21  1  0.58754827  0.82605732  0.16935602  1
  Ca2+  Ca22  1  0.58833896  0.82483832  0.49399073  1
  Ca2+  Ca23  1  0.58879909  0.82302620  0.82615713  1
  Ca2+  Ca24  1  0.32455379  0.41360517  0.16829082  1
  Ca2+  Ca25  1  0.32721776  0.42403521  0.51297929  1
  Ca2+  Ca26  1  0.32081614  0.41877910  0.83236585  1
  Ca2+  Ca27  1  0.34104267  0.92487383  0.17302017  1
  Ca2+  Ca28  1  0.33879485  0.92437703  0.50311402  1
  Ca2+  Ca29  1  0.33307046  0.92672167  0.83520203  1
  Ca2+  Ca30  1  0.83583458  0.42029771  0.17327548  1
  Ca2+  Ca31  1  0.83397412  0.42571673  0.50749764  1
  Ca2+  Ca32  1  0.83495605  0.41533205  0.83303116  1
  Ca2+  Ca33  1  0.82842240  0.92265572  0.17475154  1
  Ca2+  Ca34  1  0.82574157  0.91168934  0.50885457  1
  Ca2+  Ca35  1  0.83456285  0.92637974  0.83154016  1
  Ca2+  Ca36  1  0.42124517  0.15950749  0.16134700  1
  Ca2+  Ca37  1  0.41345177  0.16376726  0.49679720  1
  Ca2+  Ca38  1  0.41991240  0.15968168  0.83054535  1
  Ca2+  Ca39  1  0.42877342  0.67283264  0.16061073  1
  Ca2+  Ca40  1  0.42810867  0.66858154  0.49355338  1
  Ca2+  Ca41  1  0.42696937  0.66172492  0.82452909  1
  Ca2+  Ca42  1  0.91072371  0.17911768  0.15821997  1
  Ca2+  Ca43  1  0.91350577  0.17648107  0.50102546  1
  Ca2+  Ca44  1  0.91728828  0.17349971  0.82158867  1
  Ca2+  Ca45  1  0.90897771  0.67257329  0.16983107  1
  Ca2+  Ca46  1  0.90425657  0.67400850  0.49795537  1
  Ca2+  Ca47  1  0.91279780  0.67301048  0.82355604  1
  Al0+  Al48  1  0.00021757  0.00200453  0.00562817  1
  Al0+  Al49  1  0.00304062  0.00189642  0.32736320  1
  Al0+  Al50  1  0.00119498  0.00040889  0.65983217  1
  Al0+  Al51  1  -0.00091163  0.50148300  0.00161874  1
  Al0+  Al52  1  -0.00095204  0.49929377  0.33409291  1
  Al0+  Al53  1  0.00007724  0.50116033  0.66964274  1
  Al0+  Al54  1  0.50071509  -0.00174210  -0.00099036  1
  Al0+  Al55  1  0.50130568  -0.00058343  0.33887381  1
  Al0+  Al56  1  0.50058053  -0.00209418  0.67473838  1
  Al0+  Al57  1  0.49947429  0.50037072  -0.00340329  1
  Al0+  Al58  1  0.49909444  0.49760096  0.32731802  1
  Al0+  Al59  1  0.50096877  0.49848296  0.66929708  1
  Al0+  Al60  1  0.24878411  0.25095157  0.01079275  1
  Al0+  Al61  1  0.24928182  0.24979241  0.33619775  1
  Al0+  Al62  1  0.25077443  0.25057117  0.67034378  1
  Al0+  Al63  1  0.24955141  0.74956955  -0.00001598  1
  Al0+  Al64  1  0.24962702  0.75075996  0.32917028  1
  Al0+  Al65  1  0.25233000  0.75257117  0.67033669  1
  Al0+  Al66  1  0.74829241  0.25126560  -0.00335215  1
  Al0+  Al67  1  0.74960515  0.25038508  0.32901719  1
  Al0+  Al68  1  0.74947862  0.24938897  0.66562353  1
  Al0+  Al69  1  0.74951360  0.75024529  -0.00422690  1
  Al0+  Al70  1  0.75100973  0.74994175  0.33071938  1
  Al0+  Al71  1  0.74839553  0.74818690  0.66748898  1
  Al0+  Al72  1  0.82304786  0.07068119  0.67861435  1
  Al0+  Al73  1  0.82081300  0.07312384  0.01437726  1
  Al0+  Al74  1  0.57141251  0.67744191  0.31758347  1
  Al0+  Al75  1  0.92964037  0.81962621  0.65408177  1
  Al0+  Al76  1  0.07347790  0.17959863  0.65146351  1
  Al0+  Al77  1  0.32053110  0.07090062  0.68115232  1
  Al0+  Al78  1  0.92983617  0.32018373  0.31871899  1
  Al0+  Al79  1  0.17798467  0.43091533  0.01660353  1
  Al0+  Al80  1  0.81899381  0.56892296  0.34562910  1
  Al0+  Al81  1  0.82068391  0.57069483  0.68226602  1
  Al0+  Al82  1  0.56866862  0.67805313  0.65167097  1
  Al0+  Al83  1  0.67881784  0.42721135  0.68149384  1
  Al0+  Al84  1  0.92946453  0.32188075  0.98517940  1
  Al0+  Al85  1  0.17843715  0.43009838  0.68091301  1
  Al0+  Al86  1  0.57103393  0.67904971  0.98254412  1
  Al0+  Al87  1  0.32004328  0.06891612  0.34851879  1
  Al0+  Al88  1  0.32116143  0.06837481  0.01498935  1
  Al0+  Al89  1  0.32291771  0.57395550  0.68051876  1
  Al0+  Al90  1  0.92687263  0.32281866  0.65023655  1
  Al0+  Al91  1  0.56910660  0.17819785  0.98561030  1
  Al0+  Al92  1  0.68248755  0.93074557  0.34614639  1
  Al0+  Al93  1  0.67937406  0.92692430  0.68357320  1
  Al0+  Al94  1  0.92886083  0.82199167  0.31870478  1
  Al0+  Al95  1  0.42850580  0.82240047  0.31882370  1
  Si0+  Si96  1  0.56930819  0.17917776  0.32063750  1
  Si0+  Si97  1  0.07099760  0.67966702  0.98573807  1
  Si0+  Si98  1  0.42531029  0.32148378  0.98332929  1
  Si0+  Si99  1  0.81966906  0.57210931  0.01583827  1
  Si0+  Si100  1  0.17678349  0.92494247  0.01817336  1
  Si0+  Si101  1  0.43026457  0.31851732  0.65289112  1
  Si0+  Si102  1  0.32291586  0.57248806  0.01855817  1
  Si0+  Si103  1  0.42633135  0.32058506  0.31843973  1
  Si0+  Si104  1  0.67752851  0.42941079  0.01533910  1
  Si0+  Si105  1  0.07262196  0.67722069  0.31696462  1
  Si0+  Si106  1  0.68059345  0.92688117  0.01769827  1
  Si0+  Si107  1  0.07262852  0.17841319  0.98564518  1
  Si0+  Si108  1  0.82475864  0.07514170  0.34851945  1
  Si0+  Si109  1  0.07510379  0.67828571  0.65177248  1
  Si0+  Si110  1  0.57102866  0.17584674  0.65099951  1
  Si0+  Si111  1  0.17925994  0.43047326  0.34940468  1
  Si0+  Si112  1  0.42627556  0.82148797  0.98135067  1
  Si0+  Si113  1  0.32212857  0.57117000  0.34527495  1
  Si0+  Si114  1  0.17595598  0.92597186  0.35057960  1
  Si0+  Si115  1  0.17682207  0.92832309  0.68195171  1
  Si0+  Si116  1  0.93033546  0.82267544  0.98556413  1
  Si0+  Si117  1  0.07521452  0.17954918  0.31373810  1
  Si0+  Si118  1  0.42749047  0.82412629  0.65070819  1
  Si0+  Si119  1  0.67500719  0.42526492  0.34718881  1
  O2-  O120  1  0.24751654  -0.00776007  0.06154776  1
  O2-  O121  1  0.24565813  -0.00623429  0.39444012  1
  O2-  O122  1  0.24395640  -0.00197126  0.72709921  1
  O2-  O123  1  0.25415032  0.50450536  0.06439850  1
  O2-  O124  1  0.25093146  0.50155779  0.38956667  1
  O2-  O125  1  0.24678506  0.50630418  0.73039650  1
  O2-  O126  1  0.74714695  -0.00228935  0.06219756  1
  O2-  O127  1  0.76157952  0.00149879  0.39199852  1
  O2-  O128  1  0.75088417  0.00046686  0.73132507  1
  O2-  O129  1  0.74797486  0.50112026  0.05752407  1
  O2-  O130  1  0.74208809  0.49553388  0.38983291  1
  O2-  O131  1  0.75314770  0.49538534  0.73366776  1
  O2-  O132  1  0.00121829  0.24291068  0.27013914  1
  O2-  O133  1  -0.00066248  0.24981921  0.60165379  1
  O2-  O134  1  0.00209028  0.24429325  0.94104552  1
  O2-  O135  1  0.00481539  0.74738684  0.27271064  1
  O2-  O136  1  0.00463152  0.74452831  0.60715436  1
  O2-  O137  1  0.00410757  0.75430085  0.94408117  1
  O2-  O138  1  0.49893873  0.25085850  0.27743028  1
  O2-  O139  1  0.50013637  0.24720093  0.60852031  1
  O2-  O140  1  0.49270343  0.25177145  0.93896615  1
  O2-  O141  1  0.49833100  0.74888280  0.26767664  1
  O2-  O142  1  0.49310797  0.75272517  0.60677055  1
  O2-  O143  1  0.49336925  0.75154706  0.93738303  1
  O2-  O144  1  0.07258019  0.18028104  0.09154874  1
  O2-  O145  1  0.08003321  0.18258196  0.41864333  1
  O2-  O146  1  0.07524512  0.18187232  0.76545264  1
  O2-  O147  1  0.07005875  0.67922170  0.09107800  1
  O2-  O148  1  0.07584811  0.67638431  0.42198950  1
  O2-  O149  1  0.07528838  0.68148348  0.75787507  1
  O2-  O150  1  0.56795712  0.18004164  0.09967222  1
  O2-  O151  1  0.56884918  0.18092919  0.42560066  1
  O2-  O152  1  0.56944314  0.17650153  0.75612854  1
  O2-  O153  1  0.57200404  0.68038813  0.09573989  1
  O2-  O154  1  0.56976964  0.67554575  0.43060291  1
  O2-  O155  1  0.56760021  0.67949421  0.76499057  1
  O2-  O156  1  0.17991443  0.43133631  0.24392984  1
  O2-  O157  1  0.18243963  0.43056680  0.56667448  1
  O2-  O158  1  0.17839335  0.43220295  0.90435419  1
  O2-  O159  1  0.17518173  0.92743601  0.24475058  1
  O2-  O160  1  0.17843386  0.92615181  0.57655127  1
  O2-  O161  1  0.17519176  0.92298693  0.91284852  1
  O2-  O162  1  0.67463500  0.42271408  0.24120252  1
  O2-  O163  1  0.67659354  0.42924351  0.56749107  1
  O2-  O164  1  0.67720987  0.42859986  0.91099805  1
  O2-  O165  1  0.68228370  0.93404071  0.23250206  1
  O2-  O166  1  0.67911051  0.92752105  0.56960227  1
  O2-  O167  1  0.68365746  0.92521081  0.91263878  1
  O2-  O168  1  0.42797019  0.32192697  0.08973615  1
  O2-  O169  1  0.42447619  0.32236905  0.42333411  1
  O2-  O170  1  0.42988622  0.31673119  0.75791666  1
  O2-  O171  1  0.42616008  0.82078615  0.08702980  1
  O2-  O172  1  0.42847268  0.82051288  0.43203244  1
  O2-  O173  1  0.42771790  0.82511358  0.75640965  1
  O2-  O174  1  0.93086334  0.32312256  0.09895423  1
  O2-  O175  1  0.93103322  0.32169420  0.43089078  1
  O2-  O176  1  0.92879891  0.32112521  0.76395002  1
  O2-  O177  1  0.92982908  0.82032729  0.09085682  1
  O2-  O178  1  0.92893759  0.82022622  0.43132440  1
  O2-  O179  1  0.93303754  0.81978584  0.76789713  1
  O2-  O180  1  0.31988342  0.06975866  0.23531926  1
  O2-  O181  1  0.32111041  0.06987805  0.56802340  1
  O2-  O182  1  0.31899226  0.06852239  0.90223208  1
  O2-  O183  1  0.32110147  0.56772806  0.24006095  1
  O2-  O184  1  0.32209598  0.57048821  0.56590688  1
  O2-  O185  1  0.32137857  0.57199836  0.91351596  1
  O2-  O186  1  0.81941739  0.07684524  0.24252536  1
  O2-  O187  1  0.81933604  0.06974973  0.56475034  1
  O2-  O188  1  0.82252963  0.07071485  0.90187998  1
  O2-  O189  1  0.81892408  0.56740141  0.23162990  1
  O2-  O190  1  0.81777667  0.57177827  0.56859754  1
  O2-  O191  1  0.82117877  0.57369186  0.91146526  1
  O2-  O192  1  0.05812020  0.08387503  0.26849011  1
  O2-  O193  1  0.05055524  0.08080051  0.59668710  1
  O2-  O194  1  0.05221678  0.08243825  0.94240136  1
  O2-  O195  1  0.04350889  0.58489934  0.26944865  1
  O2-  O196  1  0.05363163  0.58363256  0.60725944  1
  O2-  O197  1  0.03862545  0.58999613  0.93791999  1
  O2-  O198  1  0.53940963  0.08857689  0.27288465  1
  O2-  O199  1  0.54078512  0.08369647  0.60578397  1
  O2-  O200  1  0.54072843  0.08090550  0.93219263  1
  O2-  O201  1  0.54384129  0.57837051  0.26316400  1
  O2-  O202  1  0.53855267  0.58045850  0.59912922  1
  O2-  O203  1  0.54179947  0.58115607  0.93045096  1
  O2-  O204  1  0.16672101  0.21194553  0.26568272  1
  O2-  O205  1  0.17185912  0.21127876  0.59861839  1
  O2-  O206  1  0.16677806  0.20724854  0.94268434  1
  O2-  O207  1  0.16533149  0.70116872  0.26700470  1
  O2-  O208  1  0.16893201  0.70521004  0.60598962  1
  O2-  O209  1  0.16451276  0.70169886  0.93888736  1
  O2-  O210  1  0.66044169  0.20557229  0.27044519  1
  O2-  O211  1  0.66158828  0.20333763  0.60177165  1
  O2-  O212  1  0.66378065  0.21213288  0.93094329  1
  O2-  O213  1  0.66815338  0.70937733  0.26323011  1
  O2-  O214  1  0.66494447  0.70997936  0.59882177  1
  O2-  O215  1  0.66736348  0.71155061  0.92904408  1
  O2-  O216  1  0.08288936  0.46716301  0.07179679  1
  O2-  O217  1  0.08817720  0.45893492  0.39623067  1
  O2-  O218  1  0.08088665  0.45617534  0.73551662  1
  O2-  O219  1  0.08452561  0.95230403  0.06667805  1
  O2-  O220  1  0.08223862  0.95348025  0.39582048  1
  O2-  O221  1  0.08309724  0.95235024  0.72756813  1
  O2-  O222  1  0.58441811  0.45570060  0.06231409  1
  O2-  O223  1  0.57942263  0.44686190  0.39140622  1
  O2-  O224  1  0.58163198  0.45571339  0.73664335  1
  O2-  O225  1  0.58552022  0.95044662  0.06116325  1
  O2-  O226  1  0.58826363  0.96374403  0.40251945  1
  O2-  O227  1  0.58213697  0.95424227  0.73852020  1
  O2-  O228  1  0.20802617  0.33607890  0.07502299  1
  O2-  O229  1  0.20821518  0.33903722  0.39550457  1
  O2-  O230  1  0.21295472  0.33501532  0.73574779  1
  O2-  O231  1  0.19981566  0.83035610  0.06464301  1
  O2-  O232  1  0.19825686  0.83082145  0.39453923  1
  O2-  O233  1  0.20272277  0.83623355  0.73183441  1
  O2-  O234  1  0.70523567  0.33796456  0.06372579  1
  O2-  O235  1  0.70148351  0.33194530  0.39343825  1
  O2-  O236  1  0.70239768  0.32730788  0.73318564  1
  O2-  O237  1  0.71025413  0.83412682  0.06420986  1
  O2-  O238  1  0.71123205  0.83310706  0.39768071  1
  O2-  O239  1  0.70995005  0.83019351  0.73646476  1
  O2-  O240  1  0.45162645  0.41097886  0.26656663  1
  O2-  O241  1  0.45855325  0.40969727  0.60438231  1
  O2-  O242  1  0.45026622  0.41500321  0.93789206  1
  O2-  O243  1  0.46135878  0.92059218  0.26700289  1
  O2-  O244  1  0.45622181  0.91732976  0.60519542  1
  O2-  O245  1  0.45282122  0.91470182  0.93589333  1
  O2-  O246  1  0.96419666  0.41613091  0.26422051  1
  O2-  O247  1  0.95732115  0.42226714  0.59960887  1
  O2-  O248  1  0.96184826  0.41916682  0.93401544  1
  O2-  O249  1  0.95901276  0.91887053  0.26310352  1
  O2-  O250  1  0.95995199  0.91437499  0.59662059  1
  O2-  O251  1  0.95715552  0.91587105  0.94071003  1
  O2-  O252  1  0.33529538  0.29077633  0.26997578  1
  O2-  O253  1  0.33911590  0.29099371  0.60415651  1
  O2-  O254  1  0.33010089  0.29601582  0.94187746  1
  O2-  O255  1  0.32893629  0.79829462  0.26457942  1
  O2-  O256  1  0.33201444  0.80410114  0.60561509  1
  O2-  O257  1  0.33093848  0.79887309  0.93677846  1
  O2-  O258  1  0.83174562  0.29298849  0.26364822  1
  O2-  O259  1  0.82818905  0.29437769  0.59670197  1
  O2-  O260  1  0.83158380  0.29496345  0.93372288  1
  O2-  O261  1  0.83503679  0.78851220  0.26124965  1
  O2-  O262  1  0.83375745  0.78650807  0.60097147  1
  O2-  O263  1  0.84011708  0.79190244  0.93797838  1
  O2-  O264  1  0.41867008  0.03745742  0.06833942  1
  O2-  O265  1  0.41647076  0.04059378  0.40337403  1
  O2-  O266  1  0.41508691  0.03856106  0.73748606  1
  O2-  O267  1  0.41674289  0.54534495  0.06402725  1
  O2-  O268  1  0.41372695  0.54102497  0.39163892  1
  O2-  O269  1  0.41714771  0.53775854  0.73517338  1
  O2-  O270  1  0.91775631  0.04502491  0.07025568  1
  O2-  O271  1  0.92238554  0.05691672  0.38733868  1
  O2-  O272  1  0.92220630  0.04246925  0.73000732  1
  O2-  O273  1  0.91112096  0.54489405  0.06424653  1
  O2-  O274  1  0.91577518  0.53874441  0.39927149  1
  O2-  O275  1  0.92117209  0.55069482  0.73430666  1
  O2-  O276  1  0.29162316  0.16454719  0.07141771  1
  O2-  O277  1  0.28951161  0.16674979  0.40113799  1
  O2-  O278  1  0.29222290  0.16714227  0.73639689  1
  O2-  O279  1  0.29682716  0.66662943  0.06403938  1
  O2-  O280  1  0.29595050  0.66397861  0.39067477  1
  O2-  O281  1  0.30195765  0.67391100  0.73339300  1
  O2-  O282  1  0.78620146  0.16957228  0.06754866  1
  O2-  O283  1  0.79363172  0.16724876  0.39418942  1
  O2-  O284  1  0.79388841  0.16848910  0.73110887  1
  O2-  O285  1  0.79052984  0.66442898  0.06254123  1
  O2-  O286  1  0.79066956  0.66641378  0.39735208  1
  O2-  O287  1  0.78780462  0.66653034  0.73715443  1
