# generated using pymatgen
data_Ca2Al2SiO7
_symmetry_space_group_name_H-M   'P 1'
_cell_length_a   15.45524186
_cell_length_b   15.45572812
_cell_length_c   15.28218407
_cell_angle_alpha   89.99856287
_cell_angle_beta   89.99022858
_cell_angle_gamma   90.00530660
_symmetry_Int_Tables_number   1
_chemical_formula_structural   Ca2Al2SiO7
_chemical_formula_sum   'Ca48 Al48 Si24 O168'
_cell_volume   3650.48605136
_cell_formula_units_Z   24
loop_
 _symmetry_equiv_pos_site_id
 _symmetry_equiv_pos_as_xyz
  1  'x, y, z'
loop_
 _atom_type_symbol
 _atom_type_oxidation_number
  Ca2+  2.0
  Al0+  0.0
  Si0+  0.0
  O2-  -2.0
loop_
 _atom_site_type_symbol
 _atom_site_label
 _atom_site_symmetry_multiplicity
 _atom_site_fract_x
 _atom_site_fract_y
 _atom_site_fract_z
 _atom_site_occupancy
  Ca2+  Ca0  1  0.17020518  0.08194958  0.17272415  1
  Ca2+  Ca1  1  0.16940212  0.07435414  0.50723462  1
  Ca2+  Ca2  1  0.18140763  0.08100601  0.83552876  1
  Ca2+  Ca3  1  0.17150478  0.58353262  0.16645645  1
  Ca2+  Ca4  1  0.17069477  0.57464222  0.51028344  1
  Ca2+  Ca5  1  0.17890850  0.57887662  0.83234487  1
  Ca2+  Ca6  1  0.67572658  0.09585296  0.16926986  1
  Ca2+  Ca7  1  0.66967645  0.09321135  0.49989178  1
  Ca2+  Ca8  1  0.66652110  0.08682256  0.83971566  1
  Ca2+  Ca9  1  0.67187399  0.56694192  0.17497259  1
  Ca2+  Ca10  1  0.67454284  0.58202622  0.50386640  1
  Ca2+  Ca11  1  0.66614403  0.58052787  0.83855897  1
  Ca2+  Ca12  1  0.06969388  0.32927521  0.16365412  1
  Ca2+  Ca13  1  0.08095179  0.32903955  0.49116958  1
  Ca2+  Ca14  1  0.07823191  0.33930109  0.83031908  1
  Ca2+  Ca15  1  0.07902805  0.83627527  0.16343019  1
  Ca2+  Ca16  1  0.08948113  0.83475976  0.49539950  1
  Ca2+  Ca17  1  0.07862354  0.83824674  0.83166563  1
  Ca2+  Ca18  1  0.58779058  0.32777232  0.15966780  1
  Ca2+  Ca19  1  0.58603487  0.32510932  0.49550139  1
  Ca2+  Ca20  1  0.58247374  0.32529056  0.83527555  1
  Ca2+  Ca21  1  0.57868432  0.83184562  0.16596710  1
  Ca2+  Ca22  1  0.56945712  0.82841964  0.49896784  1
  Ca2+  Ca23  1  0.57630074  0.82492613  0.82044457  1
  Ca2+  Ca24  1  0.34241678  0.42186275  0.16555505  1
  Ca2+  Ca25  1  0.32465117  0.41955338  0.51104845  1
  Ca2+  Ca26  1  0.33842499  0.42403243  0.84001812  1
  Ca2+  Ca27  1  0.33057667  0.92278474  0.17321071  1
  Ca2+  Ca28  1  0.32692258  0.91570316  0.50720313  1
  Ca2+  Ca29  1  0.33913731  0.92596237  0.83361368  1
  Ca2+  Ca30  1  0.82517727  0.40884120  0.17333894  1
  Ca2+  Ca31  1  0.83178421  0.42210658  0.49958388  1
  Ca2+  Ca32  1  0.82708110  0.42069165  0.83967811  1
  Ca2+  Ca33  1  0.83708392  0.92858700  0.16970598  1
  Ca2+  Ca34  1  0.83223860  0.92611386  0.50153993  1
  Ca2+  Ca35  1  0.83054552  0.92270448  0.84315777  1
  Ca2+  Ca36  1  0.42877340  0.17181157  0.15607240  1
  Ca2+  Ca37  1  0.42669857  0.15892162  0.49665706  1
  Ca2+  Ca38  1  0.42375805  0.16252556  0.82793065  1
  Ca2+  Ca39  1  0.41178992  0.67273895  0.16227850  1
  Ca2+  Ca40  1  0.41031188  0.67468871  0.49906128  1
  Ca2+  Ca41  1  0.41827867  0.66712980  0.82322984  1
  Ca2+  Ca42  1  0.91373810  0.17176268  0.16323738  1
  Ca2+  Ca43  1  0.92408206  0.17312705  0.48618574  1
  Ca2+  Ca44  1  0.91294296  0.17283946  0.83437175  1
  Ca2+  Ca45  1  0.91486292  0.67145458  0.16173567  1
  Ca2+  Ca46  1  0.91437221  0.66303608  0.49587499  1
  Ca2+  Ca47  1  0.91250923  0.67291941  0.82706659  1
  Al0+  Al48  1  -0.00065287  -0.00055653  -0.00180252  1
  Al0+  Al49  1  0.00126537  -0.00108342  0.33858922  1
  Al0+  Al50  1  -0.00049120  0.00186238  0.67057423  1
  Al0+  Al51  1  0.00238841  0.50109639  -0.00517581  1
  Al0+  Al52  1  0.00111505  0.50092862  0.33041518  1
  Al0+  Al53  1  -0.00291217  0.50244363  0.67451592  1
  Al0+  Al54  1  0.49969342  -0.00161258  0.00173717  1
  Al0+  Al55  1  0.50077568  -0.00084549  0.32287403  1
  Al0+  Al56  1  0.50176585  -0.00130930  0.66009832  1
  Al0+  Al57  1  0.50073110  0.49978760  0.00687159  1
  Al0+  Al58  1  0.50176835  0.50105616  0.34057000  1
  Al0+  Al59  1  0.50236315  0.49715793  0.66426417  1
  Al0+  Al60  1  0.24955767  0.25100479  0.00236693  1
  Al0+  Al61  1  0.25199875  0.25039746  0.32915455  1
  Al0+  Al62  1  0.24746709  0.24766176  0.67397729  1
  Al0+  Al63  1  0.24877115  0.74876571  0.00245657  1
  Al0+  Al64  1  0.24930232  0.75179071  0.33087156  1
  Al0+  Al65  1  0.24537109  0.74857049  0.67109393  1
  Al0+  Al66  1  0.75111347  0.24975578  -0.00249452  1
  Al0+  Al67  1  0.74989859  0.25052149  0.33696426  1
  Al0+  Al68  1  0.75065703  0.25252726  0.66240124  1
  Al0+  Al69  1  0.75011010  0.75098164  -0.00356048  1
  Al0+  Al70  1  0.74886704  0.75054486  0.33587430  1
  Al0+  Al71  1  0.74973087  0.75176886  0.66444705  1
  Al0+  Al72  1  0.57073878  0.17978188  0.65136838  1
  Al0+  Al73  1  0.18057627  0.93052945  0.34625977  1
  Al0+  Al74  1  0.57015467  0.18079504  0.31809405  1
  Al0+  Al75  1  0.92957842  0.82052967  0.98663410  1
  Al0+  Al76  1  0.17634763  0.92749729  0.68414305  1
  Al0+  Al77  1  0.67861499  0.42728268  0.35168802  1
  Al0+  Al78  1  0.42627197  0.81869749  0.65246484  1
  Al0+  Al79  1  0.32287473  0.56877087  0.67999891  1
  Al0+  Al80  1  0.93085600  0.32127956  0.31915853  1
  Al0+  Al81  1  0.57301239  0.67522590  0.65068937  1
  Al0+  Al82  1  0.92930879  0.32072807  0.98439541  1
  Al0+  Al83  1  0.07339182  0.17557072  0.31896222  1
  Al0+  Al84  1  0.32307443  0.07232695  0.01597286  1
  Al0+  Al85  1  0.81954270  0.06950354  0.01252695  1
  Al0+  Al86  1  0.32050685  0.56993085  0.01535308  1
  Al0+  Al87  1  0.17710315  0.42665560  0.68179824  1
  Al0+  Al88  1  0.82253494  0.57260453  0.34676515  1
  Al0+  Al89  1  0.81795768  0.57247937  0.68227821  1
  Al0+  Al90  1  0.42787285  0.81845799  0.31711609  1
  Al0+  Al91  1  0.32404802  0.06853072  0.67999008  1
  Al0+  Al92  1  0.68184840  0.43055231  0.01272047  1
  Al0+  Al93  1  0.57055674  0.17843665  0.98399137  1
  Al0+  Al94  1  0.81958728  0.07001257  0.34766248  1
  Al0+  Al95  1  0.42845824  0.32283782  0.98563900  1
  Si0+  Si96  1  0.68052528  0.93050955  0.67956772  1
  Si0+  Si97  1  0.93064767  0.32256813  0.65120605  1
  Si0+  Si98  1  0.92742183  0.82126983  0.32079780  1
  Si0+  Si99  1  0.32419046  0.07281358  0.34758548  1
  Si0+  Si100  1  0.07369729  0.67833007  0.98010245  1
  Si0+  Si101  1  0.07052903  0.17849323  0.65292951  1
  Si0+  Si102  1  0.17525693  0.42762842  0.01941546  1
  Si0+  Si103  1  0.82037184  0.07313939  0.68143769  1
  Si0+  Si104  1  0.06704117  0.67932141  0.65197234  1
  Si0+  Si105  1  0.92882446  0.82402943  0.64984141  1
  Si0+  Si106  1  0.17902691  0.92952426  0.01735101  1
  Si0+  Si107  1  0.67560042  0.92683424  0.35076131  1
  Si0+  Si108  1  0.67712902  0.92468877  0.01654529  1
  Si0+  Si109  1  0.56988928  0.67922341  0.98777054  1
  Si0+  Si110  1  0.82388828  0.57433977  0.01497983  1
  Si0+  Si111  1  0.67926860  0.42557323  0.68498462  1
  Si0+  Si112  1  0.07272372  0.17689193  0.98160551  1
  Si0+  Si113  1  0.17987587  0.42908379  0.34513018  1
  Si0+  Si114  1  0.42749751  0.81961692  0.98517703  1
  Si0+  Si115  1  0.07110329  0.67935265  0.31855184  1
  Si0+  Si116  1  0.42475088  0.32080427  0.65124765  1
  Si0+  Si117  1  0.42697786  0.32583312  0.31817669  1
  Si0+  Si118  1  0.31985996  0.57238188  0.34786827  1
  Si0+  Si119  1  0.57285214  0.67738182  0.31576796  1
  O2-  O120  1  0.24716697  -0.00194574  0.06209578  1
  O2-  O121  1  0.25299235  0.00718281  0.39253411  1
  O2-  O122  1  0.25328144  -0.00468612  0.73153411  1
  O2-  O123  1  0.24749435  0.49353363  0.06315846  1
  O2-  O124  1  0.25385101  0.49639787  0.38847540  1
  O2-  O125  1  0.25593538  0.49211057  0.73060138  1
  O2-  O126  1  0.74420221  -0.00455476  0.05974829  1
  O2-  O127  1  0.74311977  -0.00299172  0.39512368  1
  O2-  O128  1  0.74899331  0.00290417  0.72358003  1
  O2-  O129  1  0.75966574  0.50265409  0.05963526  1
  O2-  O130  1  0.75079597  0.50149980  0.39816072  1
  O2-  O131  1  0.74110149  0.50080681  0.72908340  1
  O2-  O132  1  0.00009003  0.24622656  0.26908271  1
  O2-  O133  1  0.00336802  0.25295589  0.61010187  1
  O2-  O134  1  0.00643048  0.24836698  0.93684160  1
  O2-  O135  1  -0.00373103  0.74780094  0.27876737  1
  O2-  O136  1  -0.00055719  0.75280786  0.60746131  1
  O2-  O137  1  0.00128871  0.74431932  0.93747803  1
  O2-  O138  1  0.49548376  0.25682240  0.27464142  1
  O2-  O139  1  0.49219818  0.25144463  0.60568218  1
  O2-  O140  1  0.49433078  0.24608939  0.93396565  1
  O2-  O141  1  0.50241314  0.74341676  0.26975908  1
  O2-  O142  1  0.49442184  0.74201764  0.60268508  1
  O2-  O143  1  0.50000942  0.75029916  0.94392591  1
  O2-  O144  1  0.07013212  0.17565647  0.08715561  1
  O2-  O145  1  0.07271111  0.17836943  0.43326276  1
  O2-  O146  1  0.06668173  0.17644651  0.75779614  1
  O2-  O147  1  0.07481756  0.67940994  0.08624074  1
  O2-  O148  1  0.07382634  0.67882434  0.42362539  1
  O2-  O149  1  0.06391646  0.67889124  0.75678451  1
  O2-  O150  1  0.57254837  0.18149919  0.09738271  1
  O2-  O151  1  0.56807072  0.18040796  0.43156283  1
  O2-  O152  1  0.57432953  0.18029678  0.76396978  1
  O2-  O153  1  0.56976707  0.68179129  0.09290507  1
  O2-  O154  1  0.57222475  0.67956741  0.42098325  1
  O2-  O155  1  0.57477600  0.68042265  0.76506383  1
  O2-  O156  1  0.17843247  0.43248445  0.24037510  1
  O2-  O157  1  0.17550092  0.42918196  0.56720959  1
  O2-  O158  1  0.17307663  0.43135991  0.91412027  1
  O2-  O159  1  0.18153834  0.92770964  0.23316421  1
  O2-  O160  1  0.17400304  0.93081872  0.57048255  1
  O2-  O161  1  0.17987829  0.92935050  0.91200688  1
  O2-  O162  1  0.67915241  0.42821161  0.23779611  1
  O2-  O163  1  0.68474549  0.42173318  0.57990836  1
  O2-  O164  1  0.68157372  0.43374465  0.89951123  1
  O2-  O165  1  0.67892093  0.92318153  0.24516153  1
  O2-  O166  1  0.68329736  0.93013871  0.57458005  1
  O2-  O167  1  0.67897365  0.92166493  0.91063806  1
  O2-  O168  1  0.43359271  0.32373357  0.09942345  1
  O2-  O169  1  0.42304326  0.32553481  0.42380344  1
  O2-  O170  1  0.42708586  0.32152619  0.75648757  1
  O2-  O171  1  0.42714335  0.81777112  0.09047239  1
  O2-  O172  1  0.42491552  0.81594702  0.42980166  1
  O2-  O173  1  0.43161516  0.82011225  0.76653550  1
  O2-  O174  1  0.92928229  0.31935050  0.09712852  1
  O2-  O175  1  0.93583018  0.32291899  0.43334784  1
  O2-  O176  1  0.92881008  0.32034625  0.75642600  1
  O2-  O177  1  0.93146418  0.82004917  0.10014903  1
  O2-  O178  1  0.92860438  0.82170020  0.42603586  1
  O2-  O179  1  0.92836240  0.82387642  0.75498287  1
  O2-  O180  1  0.32268889  0.07017590  0.24199720  1
  O2-  O181  1  0.32212228  0.06863744  0.56613962  1
  O2-  O182  1  0.32471673  0.06785790  0.90297712  1
  O2-  O183  1  0.31779433  0.57337658  0.24258253  1
  O2-  O184  1  0.31614817  0.56925147  0.56578771  1
  O2-  O185  1  0.32031053  0.57209801  0.90281944  1
  O2-  O186  1  0.82059287  0.06797182  0.23463808  1
  O2-  O187  1  0.82190397  0.07152022  0.57637221  1
  O2-  O188  1  0.81858325  0.06767992  0.89877816  1
  O2-  O189  1  0.82123950  0.57578084  0.23320242  1
  O2-  O190  1  0.82178839  0.56981580  0.56955327  1
  O2-  O191  1  0.81923399  0.57610615  0.90930119  1
  O2-  O192  1  0.04605468  0.07588081  0.26838949  1
  O2-  O193  1  0.03811544  0.08807115  0.60459483  1
  O2-  O194  1  0.04399513  0.08463606  0.93476324  1
  O2-  O195  1  0.04651124  0.58842719  0.26785174  1
  O2-  O196  1  0.03562852  0.58813911  0.60435581  1
  O2-  O197  1  0.05297370  0.58430724  0.93379641  1
  O2-  O198  1  0.54378345  0.08421216  0.26200718  1
  O2-  O199  1  0.54492542  0.08259676  0.59576847  1
  O2-  O200  1  0.54636072  0.07659140  0.93469644  1
  O2-  O201  1  0.54858376  0.58214217  0.27267483  1
  O2-  O202  1  0.55469639  0.57392613  0.59976622  1
  O2-  O203  1  0.54109821  0.58791571  0.94147188  1
  O2-  O204  1  0.17152299  0.20426870  0.26541352  1
  O2-  O205  1  0.16408739  0.20103542  0.60656345  1
  O2-  O206  1  0.16751171  0.20046084  0.93753360  1
  O2-  O207  1  0.15997361  0.71162149  0.26779847  1
  O2-  O208  1  0.15963992  0.70288136  0.60416209  1
  O2-  O209  1  0.16571924  0.70902690  0.93350999  1
  O2-  O210  1  0.66772212  0.21182328  0.26738319  1
  O2-  O211  1  0.66690947  0.21441620  0.59692627  1
  O2-  O212  1  0.66763193  0.21003867  0.93034841  1
  O2-  O213  1  0.66571916  0.70589028  0.26916350  1
  O2-  O214  1  0.66871478  0.71241435  0.59648408  1
  O2-  O215  1  0.66174696  0.70524719  0.93896282  1
  O2-  O216  1  0.08320552  0.45982884  0.06633511  1
  O2-  O217  1  0.08991576  0.46057347  0.39389821  1
  O2-  O218  1  0.08256249  0.46376106  0.73713850  1
  O2-  O219  1  0.08477456  0.95493255  0.06214905  1
  O2-  O220  1  0.08400329  0.95518181  0.40318930  1
  O2-  O221  1  0.07949578  0.96167866  0.73829908  1
  O2-  O222  1  0.58803745  0.46335941  0.07032147  1
  O2-  O223  1  0.58035570  0.45494083  0.40652032  1
  O2-  O224  1  0.58268305  0.44245995  0.72691120  1
  O2-  O225  1  0.58284614  0.94618049  0.06220025  1
  O2-  O226  1  0.58058587  0.95235851  0.39308763  1
  O2-  O227  1  0.58828233  0.95573166  0.72641868  1
  O2-  O228  1  0.19413523  0.33247380  0.06399248  1
  O2-  O229  1  0.20450531  0.33603258  0.39230402  1
  O2-  O230  1  0.19414074  0.32645779  0.73452285  1
  O2-  O231  1  0.20353070  0.83526964  0.06288972  1
  O2-  O232  1  0.21290420  0.83364122  0.40019006  1
  O2-  O233  1  0.19473271  0.82690966  0.73544932  1
  O2-  O234  1  0.71338608  0.33390580  0.06502220  1
  O2-  O235  1  0.70913664  0.33105145  0.40658918  1
  O2-  O236  1  0.71408716  0.33534739  0.73300312  1
  O2-  O237  1  0.70531970  0.83213879  0.06419677  1
  O2-  O238  1  0.70240378  0.83471615  0.39902573  1
  O2-  O239  1  0.71017107  0.84007731  0.72867002  1
  O2-  O240  1  0.45261722  0.42096410  0.27470170  1
  O2-  O241  1  0.44955829  0.41398964  0.60342755  1
  O2-  O242  1  0.46213535  0.42097809  0.93444327  1
  O2-  O243  1  0.45910028  0.91343495  0.26041426  1
  O2-  O244  1  0.46069649  0.91384207  0.59642296  1
  O2-  O245  1  0.45474259  0.91162152  0.93894933  1
  O2-  O246  1  0.96118425  0.41866799  0.26425480  1
  O2-  O247  1  0.95764415  0.41601594  0.60724377  1
  O2-  O248  1  0.95810752  0.41880985  0.93077478  1
  O2-  O249  1  0.95944768  0.91127940  0.27284304  1
  O2-  O250  1  0.95698310  0.91665157  0.60379877  1
  O2-  O251  1  0.96126173  0.91590555  0.93006792  1
  O2-  O252  1  0.33390325  0.30344905  0.26926393  1
  O2-  O253  1  0.32887627  0.29725887  0.60786447  1
  O2-  O254  1  0.32559680  0.30451018  0.93816329  1
  O2-  O255  1  0.33247184  0.78544083  0.26105406  1
  O2-  O256  1  0.32487001  0.79367188  0.60307675  1
  O2-  O257  1  0.33561883  0.79064416  0.93947756  1
  O2-  O258  1  0.83178106  0.29248652  0.26994793  1
  O2-  O259  1  0.84041508  0.29285772  0.60245803  1
  O2-  O260  1  0.83535465  0.28687039  0.92769052  1
  O2-  O261  1  0.83491701  0.79696920  0.27305442  1
  O2-  O262  1  0.83737517  0.79703319  0.60189391  1
  O2-  O263  1  0.83241544  0.79271223  0.93042759  1
  O2-  O264  1  0.41876164  0.03878848  0.07049631  1
  O2-  O265  1  0.41772930  0.04275932  0.39068628  1
  O2-  O266  1  0.42324660  0.03924712  0.73162008  1
  O2-  O267  1  0.41616204  0.54189857  0.07273321  1
  O2-  O268  1  0.41343983  0.55268365  0.39432529  1
  O2-  O269  1  0.42412607  0.54636292  0.73011422  1
  O2-  O270  1  0.91600039  0.03661340  0.06588991  1
  O2-  O271  1  0.91477500  0.03645191  0.40349499  1
  O2-  O272  1  0.91078070  0.04455913  0.73035371  1
  O2-  O273  1  0.92088966  0.55491116  0.05551365  1
  O2-  O274  1  0.92257622  0.54546748  0.39847368  1
  O2-  O275  1  0.91253731  0.54132202  0.73944570  1
  O2-  O276  1  0.29417381  0.16984168  0.06881654  1
  O2-  O277  1  0.30404349  0.16863322  0.39153856  1
  O2-  O278  1  0.29429977  0.16534866  0.73526697  1
  O2-  O279  1  0.28511551  0.66550414  0.07080599  1
  O2-  O280  1  0.28472203  0.66174169  0.39462340  1
  O2-  O281  1  0.28886292  0.66479607  0.73418065  1
  O2-  O282  1  0.78981680  0.16601298  0.06590412  1
  O2-  O283  1  0.79080212  0.16576698  0.40350440  1
  O2-  O284  1  0.79276474  0.16584981  0.72660981  1
  O2-  O285  1  0.79611315  0.66767332  0.06061870  1
  O2-  O286  1  0.79506736  0.67136200  0.40106400  1
  O2-  O287  1  0.79123846  0.67180830  0.73374869  1
