# generated using pymatgen
data_Ca2Al2SiO7
_symmetry_space_group_name_H-M   'P 1'
_cell_length_a   15.45716401
_cell_length_b   15.45714642
_cell_length_c   15.28288972
_cell_angle_alpha   89.98681551
_cell_angle_beta   90.00809385
_cell_angle_gamma   90.01631676
_symmetry_Int_Tables_number   1
_chemical_formula_structural   Ca2Al2SiO7
_chemical_formula_sum   'Ca48 Al48 Si24 O168'
_cell_volume   3651.44347273
_cell_formula_units_Z   24
loop_
 _symmetry_equiv_pos_site_id
 _symmetry_equiv_pos_as_xyz
  1  'x, y, z'
loop_
 _atom_type_symbol
 _atom_type_oxidation_number
  Ca2+  2.0
  Al0+  0.0
  Si0+  0.0
  O2-  -2.0
loop_
 _atom_site_type_symbol
 _atom_site_label
 _atom_site_symmetry_multiplicity
 _atom_site_fract_x
 _atom_site_fract_y
 _atom_site_fract_z
 _atom_site_occupancy
  Ca2+  Ca0  1  0.17221788  0.08375187  0.17062800  1
  Ca2+  Ca1  1  0.16713789  0.07179364  0.51157860  1
  Ca2+  Ca2  1  0.17412055  0.08963339  0.83488140  1
  Ca2+  Ca3  1  0.17409719  0.57579908  0.17789061  1
  Ca2+  Ca4  1  0.16864022  0.58025918  0.50161636  1
  Ca2+  Ca5  1  0.16360110  0.58501910  0.83584775  1
  Ca2+  Ca6  1  0.66306796  0.07676294  0.17411131  1
  Ca2+  Ca7  1  0.67490255  0.08551807  0.50032123  1
  Ca2+  Ca8  1  0.66983452  0.08096738  0.84174217  1
  Ca2+  Ca9  1  0.67387307  0.57288991  0.17599764  1
  Ca2+  Ca10  1  0.67189736  0.58843144  0.50424658  1
  Ca2+  Ca11  1  0.67562774  0.58168718  0.84137289  1
  Ca2+  Ca12  1  0.07686766  0.33127444  0.15725004  1
  Ca2+  Ca13  1  0.08326041  0.32770286  0.49575039  1
  Ca2+  Ca14  1  0.07765195  0.32275774  0.83166709  1
  Ca2+  Ca15  1  0.08190825  0.83459798  0.16566416  1
  Ca2+  Ca16  1  0.08685868  0.83407128  0.49764447  1
  Ca2+  Ca17  1  0.08193378  0.82775426  0.82374883  1
  Ca2+  Ca18  1  0.59571695  0.32373295  0.16434283  1
  Ca2+  Ca19  1  0.58505352  0.32860696  0.49017792  1
  Ca2+  Ca20  1  0.58765811  0.33040639  0.83582579  1
  Ca2+  Ca21  1  0.58560784  0.83149420  0.16097215  1
  Ca2+  Ca22  1  0.58881359  0.82367312  0.49277853  1
  Ca2+  Ca23  1  0.58017885  0.83445475  0.83208745  1
  Ca2+  Ca24  1  0.32625914  0.42084036  0.17518896  1
  Ca2+  Ca25  1  0.33230623  0.42061932  0.49638301  1
  Ca2+  Ca26  1  0.33126227  0.41793901  0.83578648  1
  Ca2+  Ca27  1  0.33195127  0.91882634  0.16728751  1
  Ca2+  Ca28  1  0.32333585  0.92087919  0.50548819  1
  Ca2+  Ca29  1  0.33109384  0.92434610  0.83765988  1
  Ca2+  Ca30  1  0.82903646  0.42100689  0.16907881  1
  Ca2+  Ca31  1  0.82626156  0.42573129  0.50017765  1
  Ca2+  Ca32  1  0.83403685  0.42725264  0.84151119  1
  Ca2+  Ca33  1  0.81985847  0.92338918  0.17313198  1
  Ca2+  Ca34  1  0.82899449  0.92672492  0.49944824  1
  Ca2+  Ca35  1  0.82791968  0.92201086  0.83547720  1
  Ca2+  Ca36  1  0.42783923  0.16173315  0.16028219  1
  Ca2+  Ca37  1  0.42052303  0.16539265  0.49517952  1
  Ca2+  Ca38  1  0.41936221  0.15930460  0.83338076  1
  Ca2+  Ca39  1  0.42073289  0.67100920  0.16429422  1
  Ca2+  Ca40  1  0.42846655  0.66461997  0.49075392  1
  Ca2+  Ca41  1  0.42407854  0.67616883  0.82650024  1
  Ca2+  Ca42  1  0.92063846  0.17194330  0.15767751  1
  Ca2+  Ca43  1  0.91830625  0.15806332  0.49546250  1
  Ca2+  Ca44  1  0.92263679  0.16895626  0.82721045  1
  Ca2+  Ca45  1  0.91299912  0.66171243  0.16483758  1
  Ca2+  Ca46  1  0.91703343  0.66224714  0.49811087  1
  Ca2+  Ca47  1  0.91646876  0.66521018  0.82549926  1
  Al0+  Al48  1  0.00152338  -0.00316580  -0.00579723  1
  Al0+  Al49  1  0.00089717  -0.00151658  0.33679342  1
  Al0+  Al50  1  -0.00166170  -0.00115332  0.67107937  1
  Al0+  Al51  1  0.00121038  0.49968591  -0.00051001  1
  Al0+  Al52  1  0.00024323  0.49844869  0.33965560  1
  Al0+  Al53  1  -0.00147999  0.49947285  0.66568499  1
  Al0+  Al54  1  0.49802640  -0.00046878  -0.00111899  1
  Al0+  Al55  1  0.49904157  -0.00166879  0.33448760  1
  Al0+  Al56  1  0.49826457  0.00036536  0.66635635  1
  Al0+  Al57  1  0.50130785  0.49932626  0.00306361  1
  Al0+  Al58  1  0.49930665  0.49917087  0.33329021  1
  Al0+  Al59  1  0.49866042  0.49908603  0.66335065  1
  Al0+  Al60  1  0.25200053  0.24977985  0.00135593  1
  Al0+  Al61  1  0.25025677  0.25016603  0.33560142  1
  Al0+  Al62  1  0.24917287  0.25044459  0.66481763  1
  Al0+  Al63  1  0.25101502  0.75172565  -0.00465795  1
  Al0+  Al64  1  0.25053054  0.74990732  0.33915730  1
  Al0+  Al65  1  0.24961565  0.74937744  0.66570593  1
  Al0+  Al66  1  0.75176197  0.25195763  -0.00809759  1
  Al0+  Al67  1  0.75233777  0.25167371  0.33594257  1
  Al0+  Al68  1  0.74934642  0.25113041  0.67042107  1
  Al0+  Al69  1  0.75171555  0.75099049  0.00628792  1
  Al0+  Al70  1  0.75129939  0.75148087  0.33380875  1
  Al0+  Al71  1  0.75030285  0.75001466  0.66699197  1
  Al0+  Al72  1  0.67874389  0.42809156  0.34870375  1
  Al0+  Al73  1  0.32067210  0.07246936  0.68238280  1
  Al0+  Al74  1  0.17788685  0.42712194  0.34894858  1
  Al0+  Al75  1  0.82077634  0.07204683  0.34465348  1
  Al0+  Al76  1  0.81948229  0.57025299  0.68130752  1
  Al0+  Al77  1  0.92934487  0.32222055  0.98351336  1
  Al0+  Al78  1  0.17897345  0.93032250  0.34584581  1
  Al0+  Al79  1  0.31917147  0.07081412  0.01536282  1
  Al0+  Al80  1  0.57313477  0.67876279  0.31710926  1
  Al0+  Al81  1  0.17859324  0.92662183  0.68446630  1
  Al0+  Al82  1  0.07078953  0.67801844  0.65150349  1
  Al0+  Al83  1  0.07322597  0.17684269  0.98531616  1
  Al0+  Al84  1  0.57035552  0.17934268  0.98636812  1
  Al0+  Al85  1  0.57099714  0.17972673  0.32101155  1
  Al0+  Al86  1  0.82326811  0.57130972  0.01613882  1
  Al0+  Al87  1  0.81971922  0.07233308  0.68244586  1
  Al0+  Al88  1  0.67584126  0.92891077  0.34870003  1
  Al0+  Al89  1  0.57039425  0.68005423  0.65428215  1
  Al0+  Al90  1  0.32155460  0.57154361  0.34824716  1
  Al0+  Al91  1  0.67815668  0.42743849  0.01550497  1
  Al0+  Al92  1  0.42906449  0.82036361  0.98530990  1
  Al0+  Al93  1  0.06922427  0.17921986  0.65110562  1
  Al0+  Al94  1  0.82059893  0.57224897  0.34998177  1
  Al0+  Al95  1  0.67864050  0.93184144  0.01250215  1
  Si0+  Si96  1  0.57307020  0.67777581  0.98494297  1
  Si0+  Si97  1  0.67467386  0.42832235  0.68441666  1
  Si0+  Si98  1  0.42605352  0.32134570  0.31513643  1
  Si0+  Si99  1  0.42719505  0.32434196  0.98371507  1
  Si0+  Si100  1  0.93084075  0.82232755  0.31763977  1
  Si0+  Si101  1  0.18106324  0.43002980  0.01259739  1
  Si0+  Si102  1  0.17879218  0.42979272  0.68274852  1
  Si0+  Si103  1  0.17741235  0.92532153  0.01647760  1
  Si0+  Si104  1  0.07098795  0.68007543  0.98746653  1
  Si0+  Si105  1  0.93132667  0.32156491  0.31897993  1
  Si0+  Si106  1  0.82447845  0.07207103  0.01344592  1
  Si0+  Si107  1  0.32214151  0.56987960  0.68241588  1
  Si0+  Si108  1  0.32101354  0.57375628  0.01208198  1
  Si0+  Si109  1  0.42798730  0.32149899  0.65056621  1
  Si0+  Si110  1  0.92678601  0.32153359  0.64731448  1
  Si0+  Si111  1  0.57134388  0.17903881  0.65220003  1
  Si0+  Si112  1  0.07142234  0.17673976  0.31925138  1
  Si0+  Si113  1  0.92698576  0.82040815  0.98506748  1
  Si0+  Si114  1  0.92738444  0.82181807  0.64849307  1
  Si0+  Si115  1  0.42636584  0.82061056  0.31660422  1
  Si0+  Si116  1  0.07111996  0.67822441  0.31925176  1
  Si0+  Si117  1  0.32238971  0.07211325  0.34947984  1
  Si0+  Si118  1  0.42798976  0.82304872  0.64802453  1
  Si0+  Si119  1  0.67782071  0.92818976  0.68292798  1
  O2-  O120  1  0.24112715  -0.00150423  0.06054221  1
  O2-  O121  1  0.25160326  0.00599519  0.39303391  1
  O2-  O122  1  0.24875213  0.00077930  0.73339675  1
  O2-  O123  1  0.25230052  0.50081205  0.05441513  1
  O2-  O124  1  0.24964486  0.49937962  0.39875615  1
  O2-  O125  1  0.24772638  0.50293336  0.72607595  1
  O2-  O126  1  0.75190636  0.00858309  0.05863831  1
  O2-  O127  1  0.74532880  0.00434190  0.39616211  1
  O2-  O128  1  0.74267520  -0.00022961  0.72821956  1
  O2-  O129  1  0.74977143  0.50035344  0.06420978  1
  O2-  O130  1  0.74324553  0.50602212  0.39993987  1
  O2-  O131  1  0.74322693  0.49742284  0.72760637  1
  O2-  O132  1  0.00240345  0.24950226  0.27710545  1
  O2-  O133  1  -0.00836712  0.24966002  0.60174369  1
  O2-  O134  1  -0.00225989  0.24545062  0.93525507  1
  O2-  O135  1  -0.00066134  0.74756861  0.27558928  1
  O2-  O136  1  -0.00212458  0.75419640  0.60459558  1
  O2-  O137  1  -0.00208149  0.74818282  0.94466085  1
  O2-  O138  1  0.49603078  0.25368805  0.27198891  1
  O2-  O139  1  0.49954720  0.24980981  0.61069023  1
  O2-  O140  1  0.49744700  0.25696321  0.93998118  1
  O2-  O141  1  0.49807718  0.75483440  0.27202048  1
  O2-  O142  1  0.49727279  0.75495791  0.60468818  1
  O2-  O143  1  0.50457014  0.74588149  0.93923230  1
  O2-  O144  1  0.07314066  0.17952988  0.09971244  1
  O2-  O145  1  0.07021856  0.17625045  0.42428628  1
  O2-  O146  1  0.07092030  0.18414662  0.76386069  1
  O2-  O147  1  0.07402304  0.68112124  0.09265948  1
  O2-  O148  1  0.07103629  0.67943629  0.42409295  1
  O2-  O149  1  0.06887552  0.67745996  0.76545389  1
  O2-  O150  1  0.56871749  0.17803875  0.09942353  1
  O2-  O151  1  0.56843415  0.18164162  0.43470301  1
  O2-  O152  1  0.57096454  0.17948908  0.75721387  1
  O2-  O153  1  0.57054608  0.67857161  0.09027213  1
  O2-  O154  1  0.57160379  0.68080138  0.43065543  1
  O2-  O155  1  0.56774834  0.68021121  0.76768996  1
  O2-  O156  1  0.17811376  0.42888845  0.23459693  1
  O2-  O157  1  0.18114148  0.42965419  0.57798271  1
  O2-  O158  1  0.18153290  0.43221181  0.90719111  1
  O2-  O159  1  0.17801722  0.93135038  0.23251215  1
  O2-  O160  1  0.18152020  0.92750294  0.57060633  1
  O2-  O161  1  0.17978343  0.91974986  0.91168536  1
  O2-  O162  1  0.68452205  0.42532079  0.23564458  1
  O2-  O163  1  0.67414924  0.42735170  0.57902626  1
  O2-  O164  1  0.67580381  0.43253021  0.90159674  1
  O2-  O165  1  0.67765934  0.92991710  0.23484033  1
  O2-  O166  1  0.67933515  0.92827589  0.57758055  1
  O2-  O167  1  0.68116726  0.93112135  0.89901643  1
  O2-  O168  1  0.42207098  0.32498519  0.08862594  1
  O2-  O169  1  0.42343176  0.31840201  0.42112169  1
  O2-  O170  1  0.42754588  0.32547352  0.75556072  1
  O2-  O171  1  0.42506628  0.81649092  0.09815751  1
  O2-  O172  1  0.42488852  0.81881537  0.42212862  1
  O2-  O173  1  0.42925771  0.82206991  0.75390874  1
  O2-  O174  1  0.93372414  0.32337341  0.09764937  1
  O2-  O175  1  0.93269267  0.32168345  0.42402032  1
  O2-  O176  1  0.93059496  0.32228567  0.75277318  1
  O2-  O177  1  0.92883824  0.82322558  0.09012758  1
  O2-  O178  1  0.93348917  0.82499637  0.42243274  1
  O2-  O179  1  0.92589611  0.81889555  0.75462110  1
  O2-  O180  1  0.32178643  0.07178697  0.24378007  1
  O2-  O181  1  0.32101552  0.07154961  0.56858554  1
  O2-  O182  1  0.31906947  0.06998988  0.90266463  1
  O2-  O183  1  0.31736220  0.57199186  0.23372977  1
  O2-  O184  1  0.32378338  0.56666220  0.57791799  1
  O2-  O185  1  0.31872286  0.57327437  0.90656591  1
  O2-  O186  1  0.82368773  0.06992992  0.23096218  1
  O2-  O187  1  0.81775791  0.07167859  0.56945476  1
  O2-  O188  1  0.82369043  0.06721144  0.90772280  1
  O2-  O189  1  0.82394570  0.56799837  0.23669222  1
  O2-  O190  1  0.81909297  0.56928681  0.56876600  1
  O2-  O191  1  0.82350166  0.57214908  0.90225534  1
  O2-  O192  1  0.04286717  0.08544495  0.27134425  1
  O2-  O193  1  0.04050722  0.07991842  0.60148069  1
  O2-  O194  1  0.05123301  0.07663891  0.93292622  1
  O2-  O195  1  0.04456845  0.58498964  0.27326171  1
  O2-  O196  1  0.03950107  0.58129065  0.59801154  1
  O2-  O197  1  0.04690344  0.58773211  0.93940544  1
  O2-  O198  1  0.53975633  0.08193543  0.26859989  1
  O2-  O199  1  0.54453289  0.08692807  0.60472291  1
  O2-  O200  1  0.53556149  0.08480351  0.93103394  1
  O2-  O201  1  0.54081142  0.58135639  0.26507112  1
  O2-  O202  1  0.53834683  0.58351715  0.60024819  1
  O2-  O203  1  0.54713944  0.58388993  0.93927432  1
  O2-  O204  1  0.16486802  0.20303253  0.27378649  1
  O2-  O205  1  0.16536058  0.21319140  0.59720817  1
  O2-  O206  1  0.17027097  0.21180112  0.93303819  1
  O2-  O207  1  0.16313910  0.70739905  0.27236984  1
  O2-  O208  1  0.16922343  0.70493351  0.59874586  1
  O2-  O209  1  0.16115350  0.70898324  0.93681516  1
  O2-  O210  1  0.66880763  0.21041876  0.26888410  1
  O2-  O211  1  0.66318696  0.20820273  0.60545925  1
  O2-  O212  1  0.66675429  0.20681888  0.92987615  1
  O2-  O213  1  0.67043846  0.70948914  0.26428717  1
  O2-  O214  1  0.66715700  0.71060512  0.60068068  1
  O2-  O215  1  0.66741214  0.70525840  0.94128944  1
  O2-  O216  1  0.09060135  0.45905347  0.06109319  1
  O2-  O217  1  0.08199304  0.45567646  0.40495094  1
  O2-  O218  1  0.08681613  0.45676203  0.72958990  1
  O2-  O219  1  0.08121856  0.94537877  0.05975047  1
  O2-  O220  1  0.08406847  0.95963223  0.40283572  1
  O2-  O221  1  0.07834729  0.94967224  0.73455458  1
  O2-  O222  1  0.57851889  0.45173931  0.06900283  1
  O2-  O223  1  0.57649634  0.44582679  0.39659467  1
  O2-  O224  1  0.58010979  0.45265540  0.72935291  1
  O2-  O225  1  0.58176932  0.95972399  0.06584134  1
  O2-  O226  1  0.57656176  0.95158911  0.40182523  1
  O2-  O227  1  0.58247997  0.95091622  0.72642874  1
  O2-  O228  1  0.20844952  0.33926678  0.06133825  1
  O2-  O229  1  0.20679450  0.32911591  0.40300728  1
  O2-  O230  1  0.21094165  0.33977728  0.73051151  1
  O2-  O231  1  0.20838128  0.83347676  0.06446134  1
  O2-  O232  1  0.20857448  0.83453900  0.40104917  1
  O2-  O233  1  0.20774451  0.82728529  0.73608936  1
  O2-  O234  1  0.70828767  0.32767356  0.06444675  1
  O2-  O235  1  0.71350508  0.33338178  0.40518854  1
  O2-  O236  1  0.70027184  0.33500973  0.73082257  1
  O2-  O237  1  0.71118150  0.83669332  0.06793328  1
  O2-  O238  1  0.71023791  0.83303077  0.40151107  1
  O2-  O239  1  0.70669090  0.83629444  0.73053849  1
  O2-  O240  1  0.44681123  0.41625847  0.27050281  1
  O2-  O241  1  0.45586025  0.41207480  0.60031084  1
  O2-  O242  1  0.45135616  0.41868583  0.93624984  1
  O2-  O243  1  0.44784567  0.91580808  0.27186469  1
  O2-  O244  1  0.45138085  0.91730428  0.60200902  1
  O2-  O245  1  0.46033086  0.91555844  0.92993279  1
  O2-  O246  1  0.96182231  0.41276252  0.27119238  1
  O2-  O247  1  0.95693609  0.41346736  0.60086227  1
  O2-  O248  1  0.96490415  0.41888156  0.92934149  1
  O2-  O249  1  0.96433963  0.91160492  0.26768494  1
  O2-  O250  1  0.95197766  0.91584681  0.60355701  1
  O2-  O251  1  0.95474431  0.91027548  0.93341057  1
  O2-  O252  1  0.33202085  0.29507598  0.26830982  1
  O2-  O253  1  0.33693499  0.29398268  0.60169575  1
  O2-  O254  1  0.33488971  0.29709533  0.93515103  1
  O2-  O255  1  0.33338855  0.79146066  0.26961783  1
  O2-  O256  1  0.33446115  0.79593855  0.60346562  1
  O2-  O257  1  0.33404291  0.78779469  0.92782431  1
  O2-  O258  1  0.84003414  0.29420384  0.27112572  1
  O2-  O259  1  0.83048708  0.29990219  0.60509385  1
  O2-  O260  1  0.83131889  0.30087581  0.92740006  1
  O2-  O261  1  0.83872526  0.79750680  0.26974609  1
  O2-  O262  1  0.83465883  0.79473047  0.60190359  1
  O2-  O263  1  0.83562070  0.79280503  0.93650229  1
  O2-  O264  1  0.41397097  0.03557990  0.06910066  1
  O2-  O265  1  0.41418387  0.04453706  0.39726720  1
  O2-  O266  1  0.42002306  0.04403771  0.73445670  1
  O2-  O267  1  0.41330630  0.54924900  0.05906695  1
  O2-  O268  1  0.41865151  0.54161951  0.40191225  1
  O2-  O269  1  0.41187141  0.53731475  0.73151539  1
  O2-  O270  1  0.91766247  0.04243354  0.05839583  1
  O2-  O271  1  0.91633559  0.03730605  0.40004398  1
  O2-  O272  1  0.91475865  0.03969109  0.73727311  1
  O2-  O273  1  0.92270609  0.54258671  0.06787824  1
  O2-  O274  1  0.91735290  0.53973978  0.40355407  1
  O2-  O275  1  0.91659831  0.53812704  0.73435190  1
  O2-  O276  1  0.29234027  0.16849140  0.07007097  1
  O2-  O277  1  0.30036075  0.16653598  0.39459060  1
  O2-  O278  1  0.29291046  0.17211772  0.73386386  1
  O2-  O279  1  0.28953467  0.66389663  0.05986655  1
  O2-  O280  1  0.29274724  0.66783341  0.40385322  1
  O2-  O281  1  0.29740272  0.66291160  0.72837979  1
  O2-  O282  1  0.80548780  0.16904616  0.05296683  1
  O2-  O283  1  0.79801026  0.17000145  0.39995700  1
  O2-  O284  1  0.79093223  0.16956520  0.73647524  1
  O2-  O285  1  0.79859680  0.67025616  0.06891586  1
  O2-  O286  1  0.79954441  0.67297387  0.39987108  1
  O2-  O287  1  0.79134725  0.66818841  0.73442418  1
