# generated using pymatgen
data_Ca2Al2SiO7
_symmetry_space_group_name_H-M   'P 1'
_cell_length_a   15.46614552
_cell_length_b   15.46609767
_cell_length_c   15.28985906
_cell_angle_alpha   90.00381265
_cell_angle_beta   90.00933770
_cell_angle_gamma   90.00584359
_symmetry_Int_Tables_number   1
_chemical_formula_structural   Ca2Al2SiO7
_chemical_formula_sum   'Ca48 Al48 Si24 O168'
_cell_volume   3657.34823614
_cell_formula_units_Z   24
loop_
 _symmetry_equiv_pos_site_id
 _symmetry_equiv_pos_as_xyz
  1  'x, y, z'
loop_
 _atom_type_symbol
 _atom_type_oxidation_number
  Ca2+  2.0
  Al0+  0.0
  Si0+  0.0
  O2-  -2.0
loop_
 _atom_site_type_symbol
 _atom_site_label
 _atom_site_symmetry_multiplicity
 _atom_site_fract_x
 _atom_site_fract_y
 _atom_site_fract_z
 _atom_site_occupancy
  Ca2+  Ca0  1  0.17616848  0.07494970  0.17894352  1
  Ca2+  Ca1  1  0.17168258  0.07622741  0.49928907  1
  Ca2+  Ca2  1  0.16824117  0.08104141  0.83718210  1
  Ca2+  Ca3  1  0.16939139  0.58438525  0.17656208  1
  Ca2+  Ca4  1  0.17114431  0.58512234  0.50653965  1
  Ca2+  Ca5  1  0.16780016  0.58673098  0.83137593  1
  Ca2+  Ca6  1  0.66521143  0.08347596  0.16863184  1
  Ca2+  Ca7  1  0.67141279  0.07578970  0.51291412  1
  Ca2+  Ca8  1  0.66367698  0.08297643  0.83074273  1
  Ca2+  Ca9  1  0.65767229  0.57274633  0.16884897  1
  Ca2+  Ca10  1  0.67064595  0.57334591  0.50955593  1
  Ca2+  Ca11  1  0.66756842  0.57752961  0.83808631  1
  Ca2+  Ca12  1  0.08526075  0.33586303  0.16589458  1
  Ca2+  Ca13  1  0.08910032  0.33883166  0.49803581  1
  Ca2+  Ca14  1  0.08418352  0.33321576  0.82460111  1
  Ca2+  Ca15  1  0.08118064  0.82580990  0.16493930  1
  Ca2+  Ca16  1  0.07503145  0.82331950  0.49184132  1
  Ca2+  Ca17  1  0.07270496  0.82155295  0.82672023  1
  Ca2+  Ca18  1  0.57792551  0.33170072  0.15480333  1
  Ca2+  Ca19  1  0.58564735  0.33408897  0.50008963  1
  Ca2+  Ca20  1  0.57905512  0.33354595  0.82536685  1
  Ca2+  Ca21  1  0.57428147  0.82606138  0.16280514  1
  Ca2+  Ca22  1  0.58065224  0.83378221  0.49563639  1
  Ca2+  Ca23  1  0.58774171  0.82799784  0.82906327  1
  Ca2+  Ca24  1  0.32962349  0.42244194  0.17528134  1
  Ca2+  Ca25  1  0.32482041  0.42835706  0.50683573  1
  Ca2+  Ca26  1  0.33574358  0.41572132  0.83092356  1
  Ca2+  Ca27  1  0.32983078  0.92122449  0.18194140  1
  Ca2+  Ca28  1  0.33146110  0.91462679  0.49930016  1
  Ca2+  Ca29  1  0.33173727  0.91806561  0.83656677  1
  Ca2+  Ca30  1  0.81877526  0.41798945  0.17164930  1
  Ca2+  Ca31  1  0.82417780  0.42345130  0.50800676  1
  Ca2+  Ca32  1  0.82228837  0.42170606  0.83290419  1
  Ca2+  Ca33  1  0.83862031  0.91242999  0.16811521  1
  Ca2+  Ca34  1  0.83303227  0.91629368  0.51093944  1
  Ca2+  Ca35  1  0.83639095  0.91588776  0.83100877  1
  Ca2+  Ca36  1  0.42007055  0.17326305  0.15848106  1
  Ca2+  Ca37  1  0.41860132  0.17191575  0.49899974  1
  Ca2+  Ca38  1  0.42860058  0.18032308  0.82597676  1
  Ca2+  Ca39  1  0.41528209  0.66789911  0.16732988  1
  Ca2+  Ca40  1  0.41214192  0.66617603  0.49603241  1
  Ca2+  Ca41  1  0.42286523  0.66058227  0.83037709  1
  Ca2+  Ca42  1  0.92004749  0.16892086  0.16441324  1
  Ca2+  Ca43  1  0.91276271  0.16669637  0.49963831  1
  Ca2+  Ca44  1  0.91448122  0.16735962  0.82674633  1
  Ca2+  Ca45  1  0.92902043  0.67517775  0.15995138  1
  Ca2+  Ca46  1  0.92202603  0.66915556  0.49563837  1
  Ca2+  Ca47  1  0.92392248  0.66831366  0.82209578  1
  Al0+  Al48  1  0.00051901  0.00016344  -0.00096277  1
  Al0+  Al49  1  0.00089745  0.00225210  0.33275444  1
  Al0+  Al50  1  0.00055421  -0.00036645  0.66748412  1
  Al0+  Al51  1  -0.00015956  0.49956672  -0.00217187  1
  Al0+  Al52  1  -0.00330142  0.49818922  0.32925556  1
  Al0+  Al53  1  0.00119788  0.49812184  0.66931122  1
  Al0+  Al54  1  0.50104822  0.00204444  -0.00138954  1
  Al0+  Al55  1  0.50255299  0.00075110  0.33242850  1
  Al0+  Al56  1  0.50076826  0.00111246  0.66803700  1
  Al0+  Al57  1  0.49741751  0.50151728  -0.00207841  1
  Al0+  Al58  1  0.49822689  0.49692642  0.34133738  1
  Al0+  Al59  1  0.49666868  0.50003934  0.66753463  1
  Al0+  Al60  1  0.25062768  0.25048436  -0.00228807  1
  Al0+  Al61  1  0.25180721  0.24974455  0.33891490  1
  Al0+  Al62  1  0.25155293  0.25007744  0.66542213  1
  Al0+  Al63  1  0.24757999  0.75031728  -0.00195188  1
  Al0+  Al64  1  0.25011628  0.75173746  0.33277031  1
  Al0+  Al65  1  0.25002271  0.74974527  0.66932468  1
  Al0+  Al66  1  0.75133725  0.24832348  0.00246592  1
  Al0+  Al67  1  0.74973145  0.24844716  0.33525382  1
  Al0+  Al68  1  0.75114846  0.24795147  0.66933708  1
  Al0+  Al69  1  0.74957399  0.75253902  -0.00349243  1
  Al0+  Al70  1  0.74994293  0.74888291  0.32684312  1
  Al0+  Al71  1  0.74958758  0.75059069  0.66948157  1
  Al0+  Al72  1  0.07150472  0.67685656  0.98242263  1
  Al0+  Al73  1  0.92957208  0.82301750  0.98261420  1
  Al0+  Al74  1  0.67854103  0.42763627  0.34699394  1
  Al0+  Al75  1  0.43073078  0.82142889  0.32206416  1
  Al0+  Al76  1  0.31978677  0.57355557  0.68521427  1
  Al0+  Al77  1  0.17795862  0.92895657  0.34915885  1
  Al0+  Al78  1  0.82281373  0.06963435  0.68246549  1
  Al0+  Al79  1  0.67896042  0.43045755  0.01375663  1
  Al0+  Al80  1  0.67818566  0.42901260  0.68222817  1
  Al0+  Al81  1  0.31960807  0.57246313  0.34748825  1
  Al0+  Al82  1  0.07140323  0.67726664  0.64909369  1
  Al0+  Al83  1  0.32524786  0.07115232  0.34934400  1
  Al0+  Al84  1  0.67699681  0.92823945  0.68251899  1
  Al0+  Al85  1  0.92742514  0.82351847  0.31710279  1
  Al0+  Al86  1  0.42865134  0.32281035  0.64628597  1
  Al0+  Al87  1  0.82150284  0.57192300  0.68059630  1
  Al0+  Al88  1  0.17986059  0.42800564  0.68363836  1
  Al0+  Al89  1  0.57239711  0.17988186  0.64884203  1
  Al0+  Al90  1  0.17577979  0.42888235  0.34615677  1
  Al0+  Al91  1  0.07104228  0.67711511  0.31818065  1
  Al0+  Al92  1  0.92799302  0.82059540  0.65022536  1
  Al0+  Al93  1  0.56869942  0.67999089  0.98762334  1
  Al0+  Al94  1  0.57361432  0.17820777  0.98428995  1
  Al0+  Al95  1  0.42817504  0.32200139  0.98518301  1
  Si0+  Si96  1  0.07087097  0.18042732  0.98663349  1
  Si0+  Si97  1  0.82275104  0.06997639  0.01770246  1
  Si0+  Si98  1  0.17799492  0.42716055  0.01499611  1
  Si0+  Si99  1  0.67742483  0.92847549  0.01777319  1
  Si0+  Si100  1  0.42926085  0.31991326  0.31844141  1
  Si0+  Si101  1  0.57277522  0.17994157  0.31755014  1
  Si0+  Si102  1  0.07258978  0.18066110  0.31882302  1
  Si0+  Si103  1  0.92865450  0.32023215  0.98565057  1
  Si0+  Si104  1  0.82022660  0.57216381  0.34676823  1
  Si0+  Si105  1  0.31928841  0.57208478  0.01591921  1
  Si0+  Si106  1  0.68042154  0.92779983  0.34423023  1
  Si0+  Si107  1  0.42880406  0.82225640  0.65360035  1
  Si0+  Si108  1  0.17945982  0.93059041  0.01500282  1
  Si0+  Si109  1  0.18002350  0.92978911  0.68311591  1
  Si0+  Si110  1  0.57134108  0.67465836  0.31881363  1
  Si0+  Si111  1  0.42717984  0.82345250  0.98457344  1
  Si0+  Si112  1  0.93003122  0.31939775  0.65201347  1
  Si0+  Si113  1  0.32076997  0.07135270  0.01389202  1
  Si0+  Si114  1  0.32132582  0.07119108  0.68355589  1
  Si0+  Si115  1  0.82272308  0.57355420  0.01756969  1
  Si0+  Si116  1  0.92598279  0.31904356  0.31778500  1
  Si0+  Si117  1  0.07286624  0.17751263  0.65101069  1
  Si0+  Si118  1  0.82095285  0.07057547  0.34610372  1
  Si0+  Si119  1  0.57058712  0.67909164  0.65239107  1
  O2-  O120  1  0.25395620  -0.00229109  0.05791776  1
  O2-  O121  1  0.25415910  -0.00235988  0.39864635  1
  O2-  O122  1  0.25074133  0.00051863  0.72731211  1
  O2-  O123  1  0.24654221  0.50100512  0.05601237  1
  O2-  O124  1  0.24188041  0.50569085  0.39568962  1
  O2-  O125  1  0.24943861  0.50026510  0.73606010  1
  O2-  O126  1  0.75047332  -0.00072700  0.05875013  1
  O2-  O127  1  0.75710604  -0.00727183  0.38552095  1
  O2-  O128  1  0.75057613  -0.00130668  0.73321237  1
  O2-  O129  1  0.75178306  0.50681346  0.06263839  1
  O2-  O130  1  0.74964679  0.50595589  0.39150572  1
  O2-  O131  1  0.74685576  0.50367944  0.73250999  1
  O2-  O132  1  0.00296637  0.25327589  0.27604202  1
  O2-  O133  1  0.00227929  0.24912520  0.60955439  1
  O2-  O134  1  0.00210954  0.25192853  0.94308754  1
  O2-  O135  1  0.00030320  0.75150873  0.26884047  1
  O2-  O136  1  -0.00282621  0.74704128  0.59996321  1
  O2-  O137  1  -0.00479014  0.74504610  0.93412058  1
  O2-  O138  1  0.50135486  0.25023008  0.27521164  1
  O2-  O139  1  0.50348530  0.25308325  0.59642104  1
  O2-  O140  1  0.50508761  0.25424514  0.93674582  1
  O2-  O141  1  0.50217368  0.74369092  0.27515884  1
  O2-  O142  1  0.50004871  0.75148380  0.61168820  1
  O2-  O143  1  0.49570783  0.75597790  0.93949234  1
  O2-  O144  1  0.07062378  0.18067406  0.09188404  1
  O2-  O145  1  0.07033758  0.17857004  0.42363012  1
  O2-  O146  1  0.07300943  0.17722734  0.75681642  1
  O2-  O147  1  0.07428491  0.67808660  0.09595169  1
  O2-  O148  1  0.06762225  0.67609584  0.43103345  1
  O2-  O149  1  0.07154263  0.68101686  0.76274399  1
  O2-  O150  1  0.57044238  0.17727269  0.09886837  1
  O2-  O151  1  0.57599895  0.17984281  0.42180385  1
  O2-  O152  1  0.56911824  0.17941774  0.76221021  1
  O2-  O153  1  0.56477210  0.68016721  0.10112960  1
  O2-  O154  1  0.57444193  0.67699778  0.42415691  1
  O2-  O155  1  0.56947103  0.67984610  0.75773288  1
  O2-  O156  1  0.18072156  0.42570936  0.23176652  1
  O2-  O157  1  0.18082876  0.42726943  0.57046939  1
  O2-  O158  1  0.17818031  0.42221558  0.91080536  1
  O2-  O159  1  0.17897032  0.93357245  0.23474743  1
  O2-  O160  1  0.18147161  0.93170855  0.57843441  1
  O2-  O161  1  0.18044257  0.93434475  0.90969754  1
  O2-  O162  1  0.67860593  0.42586889  0.23332935  1
  O2-  O163  1  0.68240128  0.42995977  0.56833260  1
  O2-  O164  1  0.68146975  0.43034606  0.90162164  1
  O2-  O165  1  0.67768878  0.93136736  0.23898986  1
  O2-  O166  1  0.67533980  0.92960885  0.56817904  1
  O2-  O167  1  0.67383330  0.92916083  0.91348964  1
  O2-  O168  1  0.42567613  0.31885231  0.09965419  1
  O2-  O169  1  0.42982338  0.31862190  0.42265202  1
  O2-  O170  1  0.42767330  0.31856107  0.76002631  1
  O2-  O171  1  0.42777293  0.82425281  0.09019015  1
  O2-  O172  1  0.43601371  0.82459141  0.43492972  1
  O2-  O173  1  0.42863029  0.82316589  0.75905800  1
  O2-  O174  1  0.92912391  0.31752986  0.09121566  1
  O2-  O175  1  0.92129656  0.31521463  0.42234592  1
  O2-  O176  1  0.93100091  0.31673375  0.75753867  1
  O2-  O177  1  0.93539832  0.82518798  0.09626517  1
  O2-  O178  1  0.92507910  0.82421636  0.42983593  1
  O2-  O179  1  0.93271069  0.82226565  0.76355308  1
  O2-  O180  1  0.32272115  0.07193610  0.23475056  1
  O2-  O181  1  0.32022707  0.06959511  0.57871865  1
  O2-  O182  1  0.31692564  0.07036189  0.90880452  1
  O2-  O183  1  0.32319783  0.56792474  0.23316120  1
  O2-  O184  1  0.31833789  0.57634718  0.57205099  1
  O2-  O185  1  0.31968557  0.57374364  0.91149584  1
  O2-  O186  1  0.81877951  0.07559054  0.24074384  1
  O2-  O187  1  0.82327372  0.06893266  0.56825588  1
  O2-  O188  1  0.82720224  0.07104404  0.91357856  1
  O2-  O189  1  0.81927609  0.56907687  0.24099535  1
  O2-  O190  1  0.81919181  0.56897376  0.56644354  1
  O2-  O191  1  0.82302966  0.56952491  0.91244094  1
  O2-  O192  1  0.04226788  0.09114639  0.26786934  1
  O2-  O193  1  0.04406059  0.08662341  0.60309561  1
  O2-  O194  1  0.04216569  0.08958011  0.93843444  1
  O2-  O195  1  0.04148976  0.57859937  0.26348713  1
  O2-  O196  1  0.04627799  0.57627755  0.60072942  1
  O2-  O197  1  0.04780033  0.57621003  0.93199127  1
  O2-  O198  1  0.54606499  0.08816825  0.26921192  1
  O2-  O199  1  0.54073004  0.08072544  0.59800412  1
  O2-  O200  1  0.54235998  0.08093161  0.93119212  1
  O2-  O201  1  0.54286308  0.58078162  0.27429095  1
  O2-  O202  1  0.54186194  0.58819833  0.60454050  1
  O2-  O203  1  0.53635136  0.58569475  0.93169919  1
  O2-  O204  1  0.16509674  0.20690583  0.27135465  1
  O2-  O205  1  0.16425262  0.20388281  0.60316252  1
  O2-  O206  1  0.16239452  0.20583136  0.93770389  1
  O2-  O207  1  0.17008199  0.70536045  0.26602124  1
  O2-  O208  1  0.16994108  0.71133223  0.60000110  1
  O2-  O209  1  0.16865866  0.71020501  0.92956738  1
  O2-  O210  1  0.66435052  0.20820929  0.26870383  1
  O2-  O211  1  0.67346490  0.20367618  0.59872533  1
  O2-  O212  1  0.67516063  0.19942889  0.93650473  1
  O2-  O213  1  0.66342878  0.69937735  0.26904683  1
  O2-  O214  1  0.66208882  0.70599442  0.60467317  1
  O2-  O215  1  0.66547963  0.70889483  0.93421686  1
  O2-  O216  1  0.08403136  0.45021319  0.06126867  1
  O2-  O217  1  0.07250827  0.44526238  0.39335969  1
  O2-  O218  1  0.08021174  0.45085305  0.73606696  1
  O2-  O219  1  0.08967445  0.96379994  0.06267579  1
  O2-  O220  1  0.08185083  0.96500915  0.40212992  1
  O2-  O221  1  0.08983068  0.96062662  0.73136937  1
  O2-  O222  1  0.58087410  0.46142208  0.06633875  1
  O2-  O223  1  0.58272252  0.45398580  0.40249365  1
  O2-  O224  1  0.57856824  0.45492022  0.73148174  1
  O2-  O225  1  0.58584079  0.95887453  0.06609944  1
  O2-  O226  1  0.59198045  0.96083013  0.39395705  1
  O2-  O227  1  0.57917908  0.95800729  0.73736200  1
  O2-  O228  1  0.20721404  0.33529377  0.06334765  1
  O2-  O229  1  0.20639779  0.33196590  0.39989844  1
  O2-  O230  1  0.20789025  0.32774431  0.73530756  1
  O2-  O231  1  0.20409237  0.83749221  0.06072804  1
  O2-  O232  1  0.20385869  0.83084383  0.40099003  1
  O2-  O233  1  0.20969691  0.83985037  0.73220521  1
  O2-  O234  1  0.71281764  0.33355919  0.06763699  1
  O2-  O235  1  0.71480775  0.33270393  0.40037732  1
  O2-  O236  1  0.71078644  0.33178926  0.73383811  1
  O2-  O237  1  0.70308206  0.83633173  0.06603112  1
  O2-  O238  1  0.70055349  0.83309222  0.38895317  1
  O2-  O239  1  0.70259673  0.82999736  0.73584996  1
  O2-  O240  1  0.45678111  0.41242342  0.27197435  1
  O2-  O241  1  0.45259582  0.42323788  0.59621267  1
  O2-  O242  1  0.45105691  0.42119416  0.93388793  1
  O2-  O243  1  0.46508357  0.91666203  0.26498959  1
  O2-  O244  1  0.45551974  0.91394328  0.60610445  1
  O2-  O245  1  0.45156805  0.91745945  0.93900438  1
  O2-  O246  1  0.94689901  0.41094741  0.26781778  1
  O2-  O247  1  0.95671020  0.41055129  0.60389970  1
  O2-  O248  1  0.95329742  0.41209807  0.93846574  1
  O2-  O249  1  0.95493894  0.92394278  0.26579411  1
  O2-  O250  1  0.95927353  0.91993272  0.59982189  1
  O2-  O251  1  0.96355859  0.92041921  0.93036411  1
  O2-  O252  1  0.33743283  0.29060759  0.27109267  1
  O2-  O253  1  0.33117300  0.28781226  0.59491101  1
  O2-  O254  1  0.33160989  0.28835482  0.93103227  1
  O2-  O255  1  0.33351321  0.79684499  0.26652007  1
  O2-  O256  1  0.33717569  0.79450174  0.60666470  1
  O2-  O257  1  0.33332588  0.79923592  0.93898985  1
  O2-  O258  1  0.83779474  0.28267607  0.26712828  1
  O2-  O259  1  0.83967367  0.28922978  0.60348419  1
  O2-  O260  1  0.83922862  0.28774747  0.93795850  1
  O2-  O261  1  0.82893863  0.79570674  0.26166446  1
  O2-  O262  1  0.82687904  0.79710678  0.60066848  1
  O2-  O263  1  0.82715932  0.80590347  0.93561474  1
  O2-  O264  1  0.41419943  0.04793490  0.06005908  1
  O2-  O265  1  0.42411968  0.04398331  0.40103928  1
  O2-  O266  1  0.41190838  0.04209528  0.73174292  1
  O2-  O267  1  0.41040383  0.54419884  0.06421226  1
  O2-  O268  1  0.41541142  0.54032757  0.40318967  1
  O2-  O269  1  0.41846616  0.54487645  0.73675246  1
  O2-  O270  1  0.91486375  0.04176869  0.06650036  1
  O2-  O271  1  0.91516415  0.05254250  0.39183152  1
  O2-  O272  1  0.92218978  0.04377408  0.73647238  1
  O2-  O273  1  0.91574892  0.54366335  0.06361426  1
  O2-  O274  1  0.91212858  0.54269251  0.39279538  1
  O2-  O275  1  0.91764758  0.53887511  0.73436554  1
  O2-  O276  1  0.28910992  0.16201361  0.06181296  1
  O2-  O277  1  0.29303264  0.16699003  0.40350315  1
  O2-  O278  1  0.29093497  0.16167579  0.73104610  1
  O2-  O279  1  0.29223496  0.66511062  0.06269608  1
  O2-  O280  1  0.30023258  0.67329834  0.39754296  1
  O2-  O281  1  0.29285602  0.67217440  0.74002593  1
  O2-  O282  1  0.79669943  0.16152382  0.06762072  1
  O2-  O283  1  0.78749629  0.15886285  0.39654449  1
  O2-  O284  1  0.79641720  0.16786415  0.73615155  1
  O2-  O285  1  0.79963175  0.66917242  0.06020169  1
  O2-  O286  1  0.79732303  0.66702875  0.39106683  1
  O2-  O287  1  0.79622738  0.67016854  0.73387419  1
