# generated using pymatgen
data_Ca2Al2SiO7
_symmetry_space_group_name_H-M   'P 1'
_cell_length_a   15.45990081
_cell_length_b   15.46092011
_cell_length_c   15.28556484
_cell_angle_alpha   89.99367442
_cell_angle_beta   90.00844196
_cell_angle_gamma   89.99413485
_symmetry_Int_Tables_number   1
_chemical_formula_structural   Ca2Al2SiO7
_chemical_formula_sum   'Ca48 Al48 Si24 O168'
_cell_volume   3653.62122328
_cell_formula_units_Z   24
loop_
 _symmetry_equiv_pos_site_id
 _symmetry_equiv_pos_as_xyz
  1  'x, y, z'
loop_
 _atom_type_symbol
 _atom_type_oxidation_number
  Ca2+  2.0
  Al0+  0.0
  Si0+  0.0
  O2-  -2.0
loop_
 _atom_site_type_symbol
 _atom_site_label
 _atom_site_symmetry_multiplicity
 _atom_site_fract_x
 _atom_site_fract_y
 _atom_site_fract_z
 _atom_site_occupancy
  Ca2+  Ca0  1  0.16881486  0.07245876  0.17152930  1
  Ca2+  Ca1  1  0.16796091  0.07595368  0.50821123  1
  Ca2+  Ca2  1  0.17143806  0.07765390  0.83876632  1
  Ca2+  Ca3  1  0.16517786  0.57989441  0.17349392  1
  Ca2+  Ca4  1  0.16951273  0.58663491  0.49713659  1
  Ca2+  Ca5  1  0.16224925  0.57527728  0.84174257  1
  Ca2+  Ca6  1  0.67183613  0.09647515  0.16777584  1
  Ca2+  Ca7  1  0.66979941  0.08823708  0.50667854  1
  Ca2+  Ca8  1  0.67558720  0.09321450  0.83730039  1
  Ca2+  Ca9  1  0.66367878  0.57713633  0.17886483  1
  Ca2+  Ca10  1  0.66308369  0.57652023  0.50305868  1
  Ca2+  Ca11  1  0.67624895  0.58547282  0.83579724  1
  Ca2+  Ca12  1  0.08924393  0.32765785  0.16293044  1
  Ca2+  Ca13  1  0.08364085  0.31737750  0.49587094  1
  Ca2+  Ca14  1  0.08535074  0.32707766  0.82905682  1
  Ca2+  Ca15  1  0.08947382  0.82514737  0.16092145  1
  Ca2+  Ca16  1  0.07996945  0.83737737  0.49398013  1
  Ca2+  Ca17  1  0.07676207  0.84339717  0.83244567  1
  Ca2+  Ca18  1  0.57405802  0.32971862  0.16561966  1
  Ca2+  Ca19  1  0.58088497  0.32400457  0.49100130  1
  Ca2+  Ca20  1  0.57575399  0.32143216  0.83217008  1
  Ca2+  Ca21  1  0.57665500  0.83047967  0.16803455  1
  Ca2+  Ca22  1  0.57337358  0.82733170  0.49045610  1
  Ca2+  Ca23  1  0.58132856  0.83549020  0.83041504  1
  Ca2+  Ca24  1  0.33658135  0.41837917  0.17055760  1
  Ca2+  Ca25  1  0.34242596  0.42216234  0.49649867  1
  Ca2+  Ca26  1  0.32788730  0.41537323  0.84185318  1
  Ca2+  Ca27  1  0.32525562  0.91695208  0.17291790  1
  Ca2+  Ca28  1  0.32217619  0.91744536  0.50513213  1
  Ca2+  Ca29  1  0.32276521  0.92886836  0.83862394  1
  Ca2+  Ca30  1  0.82439750  0.41782415  0.17531166  1
  Ca2+  Ca31  1  0.82719485  0.42315090  0.50382712  1
  Ca2+  Ca32  1  0.83603729  0.42363234  0.83644125  1
  Ca2+  Ca33  1  0.83693159  0.91960843  0.16395712  1
  Ca2+  Ca34  1  0.83097859  0.91921933  0.50827913  1
  Ca2+  Ca35  1  0.83969690  0.92450538  0.83716054  1
  Ca2+  Ca36  1  0.42325605  0.17400680  0.15577882  1
  Ca2+  Ca37  1  0.42538519  0.16666197  0.49186872  1
  Ca2+  Ca38  1  0.41974240  0.15938271  0.82943282  1
  Ca2+  Ca39  1  0.41331253  0.66822235  0.17235050  1
  Ca2+  Ca40  1  0.41673745  0.67271133  0.48567157  1
  Ca2+  Ca41  1  0.41701440  0.66931942  0.83147998  1
  Ca2+  Ca42  1  0.92193727  0.16372730  0.16464956  1
  Ca2+  Ca43  1  0.92828162  0.15602245  0.49955726  1
  Ca2+  Ca44  1  0.92148304  0.15865434  0.82624097  1
  Ca2+  Ca45  1  0.92989639  0.67300063  0.15730288  1
  Ca2+  Ca46  1  0.91985126  0.67127586  0.49726354  1
  Ca2+  Ca47  1  0.92155557  0.67796088  0.82836693  1
  Al0+  Al48  1  -0.00089222  -0.00026093  0.00626886  1
  Al0+  Al49  1  -0.00009904  0.00082944  0.33228583  1
  Al0+  Al50  1  -0.00252494  -0.00148544  0.66426709  1
  Al0+  Al51  1  0.00099270  0.50015846  0.00204815  1
  Al0+  Al52  1  -0.00053238  0.49999944  0.33315905  1
  Al0+  Al53  1  -0.00103302  0.50124880  0.66907143  1
  Al0+  Al54  1  0.50338816  -0.00123550  -0.00115114  1
  Al0+  Al55  1  0.50222988  -0.00031834  0.32502630  1
  Al0+  Al56  1  0.49892046  -0.00145440  0.66379568  1
  Al0+  Al57  1  0.50066347  0.49851306  -0.00606932  1
  Al0+  Al58  1  0.50044247  0.49888167  0.33692241  1
  Al0+  Al59  1  0.49999406  0.49837656  0.67044311  1
  Al0+  Al60  1  0.25018543  0.25201337  0.00416655  1
  Al0+  Al61  1  0.24950292  0.24912105  0.32629118  1
  Al0+  Al62  1  0.25079569  0.25184928  0.66372403  1
  Al0+  Al63  1  0.25256845  0.74755575  -0.00346636  1
  Al0+  Al64  1  0.24751964  0.74974477  0.33475614  1
  Al0+  Al65  1  0.24844874  0.74819356  0.67267200  1
  Al0+  Al66  1  0.74981611  0.25182073  0.00102555  1
  Al0+  Al67  1  0.75148899  0.25222522  0.33792058  1
  Al0+  Al68  1  0.74794183  0.25177308  0.66745312  1
  Al0+  Al69  1  0.75258411  0.75182994  -0.00240520  1
  Al0+  Al70  1  0.75030722  0.75249478  0.33056492  1
  Al0+  Al71  1  0.75062014  0.74858235  0.66649091  1
  Al0+  Al72  1  0.57435575  0.17843032  0.31784890  1
  Al0+  Al73  1  0.93079779  0.82171358  0.98333291  1
  Al0+  Al74  1  0.17978467  0.92989091  0.34809311  1
  Al0+  Al75  1  0.42654499  0.82126378  0.31874145  1
  Al0+  Al76  1  0.06901787  0.67934670  0.32123685  1
  Al0+  Al77  1  0.57197154  0.17821125  0.98302854  1
  Al0+  Al78  1  0.92967076  0.82007961  0.65142735  1
  Al0+  Al79  1  0.82080887  0.57144331  0.68111307  1
  Al0+  Al80  1  0.17851877  0.43006102  0.01425317  1
  Al0+  Al81  1  0.31797885  0.56832941  0.34619962  1
  Al0+  Al82  1  0.81825287  0.07057989  0.67847503  1
  Al0+  Al83  1  0.07384722  0.67741310  0.98323298  1
  Al0+  Al84  1  0.32210863  0.07257859  0.67867409  1
  Al0+  Al85  1  0.67934077  0.43031442  0.34841914  1
  Al0+  Al86  1  0.57025484  0.17853382  0.65178458  1
  Al0+  Al87  1  0.42746069  0.32070432  0.98237129  1
  Al0+  Al88  1  0.07026858  0.17943500  0.65523821  1
  Al0+  Al89  1  0.57164015  0.67847719  0.32064262  1
  Al0+  Al90  1  0.42904064  0.32074701  0.31866269  1
  Al0+  Al91  1  0.32386062  0.07162411  0.01633150  1
  Al0+  Al92  1  0.81945971  0.07201812  0.01479131  1
  Al0+  Al93  1  0.17986393  0.92868999  0.01648522  1
  Al0+  Al94  1  0.17698126  0.92844830  0.68217634  1
  Al0+  Al95  1  0.07060960  0.17772674  0.31814854  1
  Si0+  Si96  1  0.07236389  0.67535337  0.64905503  1
  Si0+  Si97  1  0.57030722  0.67798762  0.65321489  1
  Si0+  Si98  1  0.32221608  0.57065521  0.68262389  1
  Si0+  Si99  1  0.92783806  0.32190749  0.98632954  1
  Si0+  Si100  1  0.82094401  0.57259259  0.01616183  1
  Si0+  Si101  1  0.67762917  0.92711889  0.34825439  1
  Si0+  Si102  1  0.32391367  0.07284192  0.34770242  1
  Si0+  Si103  1  0.92936936  0.32201798  0.31817394  1
  Si0+  Si104  1  0.67672650  0.92663412  0.68141773  1
  Si0+  Si105  1  0.42754334  0.32386622  0.64829342  1
  Si0+  Si106  1  0.32540883  0.57100369  0.01614040  1
  Si0+  Si107  1  0.92693413  0.82380085  0.31575416  1
  Si0+  Si108  1  0.17895364  0.42951393  0.67937040  1
  Si0+  Si109  1  0.06915288  0.17997591  0.98674285  1
  Si0+  Si110  1  0.67840970  0.92504093  0.01815624  1
  Si0+  Si111  1  0.82322992  0.57450307  0.34917306  1
  Si0+  Si112  1  0.92736164  0.32495199  0.65092203  1
  Si0+  Si113  1  0.42959096  0.82106641  0.98286648  1
  Si0+  Si114  1  0.57233088  0.67835503  0.98442172  1
  Si0+  Si115  1  0.17487160  0.42499160  0.35197005  1
  Si0+  Si116  1  0.67702314  0.42864577  0.68758665  1
  Si0+  Si117  1  0.42718748  0.81839340  0.65308289  1
  Si0+  Si118  1  0.68013269  0.43183708  0.01476300  1
  Si0+  Si119  1  0.81937193  0.07052378  0.34950294  1
  O2-  O120  1  0.25335704  -0.00130007  0.06718650  1
  O2-  O121  1  0.25542278  0.00463521  0.39350963  1
  O2-  O122  1  0.24783123  0.00315796  0.72936382  1
  O2-  O123  1  0.25321343  0.50568555  0.05864754  1
  O2-  O124  1  0.24513034  0.49256595  0.39592047  1
  O2-  O125  1  0.25034324  0.50000555  0.72267238  1
  O2-  O126  1  0.74330349  -0.00179348  0.06115949  1
  O2-  O127  1  0.74633672  0.00063971  0.39028602  1
  O2-  O128  1  0.74215525  -0.00218550  0.72615189  1
  O2-  O129  1  0.74874661  0.50401504  0.05940985  1
  O2-  O130  1  0.75168147  0.50883453  0.39364976  1
  O2-  O131  1  0.74727378  0.49660864  0.73076574  1
  O2-  O132  1  -0.00045589  0.25651975  0.27211386  1
  O2-  O133  1  -0.00669664  0.25315037  0.60791419  1
  O2-  O134  1  -0.00201559  0.25076340  0.94357640  1
  O2-  O135  1  -0.00634408  0.75255356  0.27387040  1
  O2-  O136  1  0.00695103  0.74743469  0.60572724  1
  O2-  O137  1  0.00548147  0.75250745  0.93285424  1
  O2-  O138  1  0.49722520  0.24507464  0.26896865  1
  O2-  O139  1  0.49351022  0.25176048  0.60639109  1
  O2-  O140  1  0.49357182  0.24316242  0.93244836  1
  O2-  O141  1  0.49988731  0.74940177  0.26912919  1
  O2-  O142  1  0.49787306  0.74669405  0.61084947  1
  O2-  O143  1  0.50205321  0.74973976  0.94137179  1
  O2-  O144  1  0.06623096  0.18143922  0.09183257  1
  O2-  O145  1  0.06779207  0.17660116  0.43163557  1
  O2-  O146  1  0.06950612  0.18247489  0.76864628  1
  O2-  O147  1  0.07017582  0.67561123  0.09689915  1
  O2-  O148  1  0.06685753  0.67954600  0.43461480  1
  O2-  O149  1  0.07053636  0.67043780  0.75405274  1
  O2-  O150  1  0.57548960  0.18541762  0.09599911  1
  O2-  O151  1  0.57508092  0.18005883  0.43187667  1
  O2-  O152  1  0.57215115  0.18102485  0.76435519  1
  O2-  O153  1  0.57282380  0.67671822  0.08891133  1
  O2-  O154  1  0.57065868  0.68083231  0.43482119  1
  O2-  O155  1  0.56942637  0.67881808  0.75885347  1
  O2-  O156  1  0.17193186  0.42831632  0.24683673  1
  O2-  O157  1  0.17828481  0.43038780  0.57459520  1
  O2-  O158  1  0.17722545  0.43056860  0.90021536  1
  O2-  O159  1  0.17946990  0.92926572  0.23536754  1
  O2-  O160  1  0.17945398  0.92700282  0.56836238  1
  O2-  O161  1  0.17899513  0.93312384  0.90290070  1
  O2-  O162  1  0.68256844  0.43111094  0.23490204  1
  O2-  O163  1  0.67534439  0.43083011  0.58212267  1
  O2-  O164  1  0.68320515  0.43432287  0.90964499  1
  O2-  O165  1  0.68030257  0.92220132  0.24368985  1
  O2-  O166  1  0.67769742  0.92482468  0.57566417  1
  O2-  O167  1  0.67934350  0.92015906  0.91257507  1
  O2-  O168  1  0.43320559  0.32630868  0.09513427  1
  O2-  O169  1  0.43187961  0.32046246  0.43279202  1
  O2-  O170  1  0.42851530  0.32913170  0.75343268  1
  O2-  O171  1  0.42930184  0.81938708  0.08748760  1
  O2-  O172  1  0.42809876  0.81926381  0.43309232  1
  O2-  O173  1  0.42973476  0.81605426  0.75835806  1
  O2-  O174  1  0.92652143  0.32216908  0.09138066  1
  O2-  O175  1  0.92959266  0.32184894  0.42384812  1
  O2-  O176  1  0.93054985  0.32788946  0.75680454  1
  O2-  O177  1  0.92707521  0.81732280  0.09681522  1
  O2-  O178  1  0.92582157  0.82421278  0.42157004  1
  O2-  O179  1  0.92814362  0.81983594  0.76394217  1
  O2-  O180  1  0.32157209  0.07095736  0.24246609  1
  O2-  O181  1  0.32316629  0.06973393  0.56498751  1
  O2-  O182  1  0.32086400  0.06948036  0.90236816  1
  O2-  O183  1  0.31682598  0.56820925  0.23340163  1
  O2-  O184  1  0.32508505  0.57190816  0.57795296  1
  O2-  O185  1  0.32793935  0.56884934  0.90980682  1
  O2-  O186  1  0.81989031  0.07097748  0.24438464  1
  O2-  O187  1  0.81802782  0.06793612  0.56511565  1
  O2-  O188  1  0.81992614  0.07259158  0.90168145  1
  O2-  O189  1  0.82367510  0.57144926  0.24340947  1
  O2-  O190  1  0.81866245  0.56969955  0.56807914  1
  O2-  O191  1  0.81942317  0.57093418  0.91092042  1
  O2-  O192  1  0.03354945  0.08415391  0.26277976  1
  O2-  O193  1  0.03761497  0.08440965  0.59964927  1
  O2-  O194  1  0.03954290  0.08840778  0.94110941  1
  O2-  O195  1  0.04075544  0.58156341  0.26755961  1
  O2-  O196  1  0.04306631  0.58323047  0.60132297  1
  O2-  O197  1  0.03900610  0.57970040  0.93132348  1
  O2-  O198  1  0.55743486  0.07780110  0.26590614  1
  O2-  O199  1  0.54414046  0.07994164  0.59857140  1
  O2-  O200  1  0.55479243  0.07572014  0.93334596  1
  O2-  O201  1  0.54334214  0.58042878  0.26907610  1
  O2-  O202  1  0.54363258  0.58454635  0.60864096  1
  O2-  O203  1  0.54434352  0.58817699  0.93351466  1
  O2-  O204  1  0.16659920  0.20467576  0.26266597  1
  O2-  O205  1  0.16553958  0.21232840  0.59920837  1
  O2-  O206  1  0.16090531  0.20894600  0.94099947  1
  O2-  O207  1  0.16449494  0.70980184  0.26700719  1
  O2-  O208  1  0.16884395  0.69731462  0.60706592  1
  O2-  O209  1  0.17523990  0.69602283  0.93210037  1
  O2-  O210  1  0.67212741  0.21379540  0.26779339  1
  O2-  O211  1  0.66687948  0.21234763  0.59844872  1
  O2-  O212  1  0.66877542  0.21600304  0.93069739  1
  O2-  O213  1  0.67002732  0.70600937  0.26677575  1
  O2-  O214  1  0.66153613  0.70486581  0.60564337  1
  O2-  O215  1  0.66413546  0.70682400  0.93662211  1
  O2-  O216  1  0.08166842  0.45887610  0.07002500  1
  O2-  O217  1  0.08174722  0.45244091  0.39915077  1
  O2-  O218  1  0.08758495  0.45700298  0.72820694  1
  O2-  O219  1  0.08204852  0.95687873  0.07020071  1
  O2-  O220  1  0.08217558  0.96251942  0.40023599  1
  O2-  O221  1  0.07826207  0.95732579  0.73227835  1
  O2-  O222  1  0.58764144  0.46036225  0.05962691  1
  O2-  O223  1  0.58451738  0.46004601  0.40577661  1
  O2-  O224  1  0.58461315  0.45707257  0.73529388  1
  O2-  O225  1  0.58345286  0.94497534  0.06270241  1
  O2-  O226  1  0.58404368  0.95106207  0.39440231  1
  O2-  O227  1  0.58195630  0.94812377  0.72648791  1
  O2-  O228  1  0.20724072  0.33455807  0.07021002  1
  O2-  O229  1  0.19945411  0.32969418  0.39503335  1
  O2-  O230  1  0.20610660  0.33826940  0.72802051  1
  O2-  O231  1  0.20894212  0.82732048  0.06337290  1
  O2-  O232  1  0.20890605  0.83350736  0.40304702  1
  O2-  O233  1  0.20527786  0.82988136  0.73580456  1
  O2-  O234  1  0.71034593  0.34171050  0.06287006  1
  O2-  O235  1  0.71558130  0.33659411  0.40572532  1
  O2-  O236  1  0.70302574  0.33568089  0.73358361  1
  O2-  O237  1  0.70900481  0.83314232  0.06617668  1
  O2-  O238  1  0.70725189  0.83644153  0.39867818  1
  O2-  O239  1  0.70324024  0.83361870  0.72842875  1
  O2-  O240  1  0.46167969  0.41812755  0.26708543  1
  O2-  O241  1  0.45869378  0.41699232  0.60241797  1
  O2-  O242  1  0.46176792  0.41719896  0.92626783  1
  O2-  O243  1  0.45604604  0.91730008  0.26281841  1
  O2-  O244  1  0.45449807  0.90891495  0.60403010  1
  O2-  O245  1  0.45926526  0.91141866  0.93393198  1
  O2-  O246  1  0.94976868  0.41663226  0.27183867  1
  O2-  O247  1  0.95568494  0.41719296  0.60312169  1
  O2-  O248  1  0.95661286  0.41333583  0.93842671  1
  O2-  O249  1  0.95428320  0.91628678  0.26970949  1
  O2-  O250  1  0.95688422  0.91622482  0.59513137  1
  O2-  O251  1  0.95749534  0.92237773  0.93371746  1
  O2-  O252  1  0.32869026  0.30154874  0.26651746  1
  O2-  O253  1  0.33278811  0.30520975  0.60246026  1
  O2-  O254  1  0.32572660  0.29909268  0.93302253  1
  O2-  O255  1  0.33027470  0.78830703  0.26585261  1
  O2-  O256  1  0.33509535  0.78875017  0.60750779  1
  O2-  O257  1  0.34008262  0.79117872  0.93219086  1
  O2-  O258  1  0.83704001  0.29313166  0.27174762  1
  O2-  O259  1  0.83192845  0.30382027  0.60758528  1
  O2-  O260  1  0.83634675  0.29673938  0.93740041  1
  O2-  O261  1  0.83293351  0.80184750  0.26921303  1
  O2-  O262  1  0.83285184  0.78645383  0.59760150  1
  O2-  O263  1  0.83250909  0.79165709  0.92948725  1
  O2-  O264  1  0.42492217  0.04555308  0.06463579  1
  O2-  O265  1  0.41980563  0.04811308  0.39015856  1
  O2-  O266  1  0.41934269  0.03942712  0.73230981  1
  O2-  O267  1  0.41863110  0.54214226  0.06142421  1
  O2-  O268  1  0.41463745  0.53968146  0.40257429  1
  O2-  O269  1  0.41366249  0.54285485  0.73205404  1
  O2-  O270  1  0.91407321  0.04007371  0.07187419  1
  O2-  O271  1  0.91046275  0.03939660  0.39631254  1
  O2-  O272  1  0.91394316  0.03821778  0.73221395  1
  O2-  O273  1  0.91152527  0.54204591  0.06343002  1
  O2-  O274  1  0.91483070  0.54475709  0.39761833  1
  O2-  O275  1  0.91688043  0.54068712  0.73666917  1
  O2-  O276  1  0.29606549  0.17043965  0.06713161  1
  O2-  O277  1  0.29865430  0.16755634  0.39183656  1
  O2-  O278  1  0.29856181  0.17350329  0.72899313  1
  O2-  O279  1  0.30539017  0.66639174  0.05936966  1
  O2-  O280  1  0.28555132  0.66369409  0.40249548  1
  O2-  O281  1  0.29597245  0.66135138  0.73301595  1
  O2-  O282  1  0.79039946  0.16975610  0.06902382  1
  O2-  O283  1  0.79514899  0.16266099  0.39775122  1
  O2-  O284  1  0.79251875  0.16937098  0.73153474  1
  O2-  O285  1  0.79458787  0.66516917  0.06173560  1
  O2-  O286  1  0.80124236  0.67007654  0.39271033  1
  O2-  O287  1  0.78669868  0.66629638  0.73690153  1
