# generated using pymatgen
data_Ca2Al2SiO7
_symmetry_space_group_name_H-M   'P 1'
_cell_length_a   15.45963501
_cell_length_b   15.46171101
_cell_length_c   15.28559882
_cell_angle_alpha   89.99870340
_cell_angle_beta   89.98804223
_cell_angle_gamma   89.98544934
_symmetry_Int_Tables_number   1
_chemical_formula_structural   Ca2Al2SiO7
_chemical_formula_sum   'Ca48 Al48 Si24 O168'
_cell_volume   3653.75330581
_cell_formula_units_Z   24
loop_
 _symmetry_equiv_pos_site_id
 _symmetry_equiv_pos_as_xyz
  1  'x, y, z'
loop_
 _atom_type_symbol
 _atom_type_oxidation_number
  Ca2+  2.0
  Al0+  0.0
  Si0+  0.0
  O2-  -2.0
loop_
 _atom_site_type_symbol
 _atom_site_label
 _atom_site_symmetry_multiplicity
 _atom_site_fract_x
 _atom_site_fract_y
 _atom_site_fract_z
 _atom_site_occupancy
  Ca2+  Ca0  1  0.17182993  0.07691738  0.17519651  1
  Ca2+  Ca1  1  0.15774883  0.07055126  0.50121931  1
  Ca2+  Ca2  1  0.17151284  0.07328343  0.84040528  1
  Ca2+  Ca3  1  0.17217501  0.59281646  0.16920982  1
  Ca2+  Ca4  1  0.16777496  0.59450602  0.50763662  1
  Ca2+  Ca5  1  0.17564812  0.59237937  0.83153990  1
  Ca2+  Ca6  1  0.67083351  0.07885810  0.16963493  1
  Ca2+  Ca7  1  0.66555722  0.07777236  0.50168685  1
  Ca2+  Ca8  1  0.66938240  0.08446177  0.84029318  1
  Ca2+  Ca9  1  0.67042510  0.58257863  0.17730243  1
  Ca2+  Ca10  1  0.68305034  0.58154146  0.50203365  1
  Ca2+  Ca11  1  0.67130258  0.58798199  0.83728412  1
  Ca2+  Ca12  1  0.07803355  0.32954539  0.16883347  1
  Ca2+  Ca13  1  0.07318689  0.33039274  0.49174931  1
  Ca2+  Ca14  1  0.07831285  0.32925819  0.82597681  1
  Ca2+  Ca15  1  0.07506447  0.83516895  0.17061955  1
  Ca2+  Ca16  1  0.07683243  0.82819985  0.49513527  1
  Ca2+  Ca17  1  0.07467461  0.83350285  0.82501924  1
  Ca2+  Ca18  1  0.58715209  0.33024737  0.16206512  1
  Ca2+  Ca19  1  0.58779372  0.33071664  0.49821902  1
  Ca2+  Ca20  1  0.58605950  0.31925364  0.82917130  1
  Ca2+  Ca21  1  0.57606221  0.83351469  0.16121006  1
  Ca2+  Ca22  1  0.57123282  0.83758667  0.49341566  1
  Ca2+  Ca23  1  0.56981917  0.83031111  0.83285902  1
  Ca2+  Ca24  1  0.33466810  0.42541819  0.16906619  1
  Ca2+  Ca25  1  0.32791652  0.42666819  0.50761756  1
  Ca2+  Ca26  1  0.33485643  0.43005161  0.83816175  1
  Ca2+  Ca27  1  0.33516290  0.91760847  0.17297450  1
  Ca2+  Ca28  1  0.32071041  0.90609499  0.50413344  1
  Ca2+  Ca29  1  0.32890457  0.91082830  0.83605502  1
  Ca2+  Ca30  1  0.82649429  0.42390004  0.17953423  1
  Ca2+  Ca31  1  0.84205142  0.42488750  0.50186338  1
  Ca2+  Ca32  1  0.83855509  0.42321159  0.83194108  1
  Ca2+  Ca33  1  0.83103187  0.91543666  0.17343157  1
  Ca2+  Ca34  1  0.82998506  0.90778338  0.50274264  1
  Ca2+  Ca35  1  0.83723875  0.92059413  0.84202881  1
  Ca2+  Ca36  1  0.42288866  0.16532127  0.15723260  1
  Ca2+  Ca37  1  0.42449058  0.16374970  0.49793986  1
  Ca2+  Ca38  1  0.42778009  0.15551167  0.83232513  1
  Ca2+  Ca39  1  0.42167625  0.67767263  0.15798480  1
  Ca2+  Ca40  1  0.41099287  0.67721995  0.49714550  1
  Ca2+  Ca41  1  0.41517581  0.67033015  0.83022980  1
  Ca2+  Ca42  1  0.91807552  0.16591990  0.16593723  1
  Ca2+  Ca43  1  0.92015544  0.17900451  0.49294266  1
  Ca2+  Ca44  1  0.91280713  0.17167838  0.82760659  1
  Ca2+  Ca45  1  0.91341901  0.67698888  0.16560976  1
  Ca2+  Ca46  1  0.92496554  0.66788735  0.49343765  1
  Ca2+  Ca47  1  0.92043316  0.67853165  0.82268550  1
  Al0+  Al48  1  0.00007245  0.00209749  0.00140670  1
  Al0+  Al49  1  0.00172482  0.00072514  0.33090927  1
  Al0+  Al50  1  -0.00120834  -0.00000235  0.66904142  1
  Al0+  Al51  1  -0.00094782  0.49912734  0.00121172  1
  Al0+  Al52  1  0.00299960  0.49891214  0.32637554  1
  Al0+  Al53  1  0.00001993  0.49983798  0.66635689  1
  Al0+  Al54  1  0.49951844  -0.00077017  -0.00421985  1
  Al0+  Al55  1  0.50107208  0.00204546  0.33312487  1
  Al0+  Al56  1  0.50079683  -0.00072761  0.65817554  1
  Al0+  Al57  1  0.49953064  0.49930352  0.00095176  1
  Al0+  Al58  1  0.50023300  0.49961170  0.33977156  1
  Al0+  Al59  1  0.50132762  0.49730788  0.67119610  1
  Al0+  Al60  1  0.24885930  0.24935538  0.00337925  1
  Al0+  Al61  1  0.25298649  0.25192263  0.33088739  1
  Al0+  Al62  1  0.25280802  0.24917966  0.66769149  1
  Al0+  Al63  1  0.24757117  0.74868076  0.00331638  1
  Al0+  Al64  1  0.25038984  0.75365516  0.32789453  1
  Al0+  Al65  1  0.24961843  0.75142438  0.67070041  1
  Al0+  Al66  1  0.75080146  0.25003525  0.00049279  1
  Al0+  Al67  1  0.74881011  0.24974163  0.33308958  1
  Al0+  Al68  1  0.75003819  0.24873411  0.65774249  1
  Al0+  Al69  1  0.74988495  0.75093164  -0.00714913  1
  Al0+  Al70  1  0.74909872  0.74949417  0.34051207  1
  Al0+  Al71  1  0.74668930  0.74972865  0.67109887  1
  Al0+  Al72  1  0.42673939  0.82076288  0.98461229  1
  Al0+  Al73  1  0.32039779  0.57080236  0.01593776  1
  Al0+  Al74  1  0.32184392  0.06932320  0.01323508  1
  Al0+  Al75  1  0.57004773  0.17938130  0.65046031  1
  Al0+  Al76  1  0.92552314  0.82398180  0.65215258  1
  Al0+  Al77  1  0.17990532  0.93043486  0.34734968  1
  Al0+  Al78  1  0.32105556  0.57078569  0.67990897  1
  Al0+  Al79  1  0.82175914  0.57092888  0.68277165  1
  Al0+  Al80  1  0.43024557  0.82174258  0.31910713  1
  Al0+  Al81  1  0.43038782  0.81804238  0.65213209  1
  Al0+  Al82  1  0.57076838  0.18063082  0.98784379  1
  Al0+  Al83  1  0.92763862  0.32083868  0.31546239  1
  Al0+  Al84  1  0.93047571  0.82224633  0.98632778  1
  Al0+  Al85  1  0.07289475  0.17853993  0.31790404  1
  Al0+  Al86  1  0.93122444  0.32015697  0.65357094  1
  Al0+  Al87  1  0.82388096  0.57091222  0.34776663  1
  Al0+  Al88  1  0.17839644  0.93086672  0.68134865  1
  Al0+  Al89  1  0.67754793  0.42734465  0.34956975  1
  Al0+  Al90  1  0.57137425  0.67632007  0.98585051  1
  Al0+  Al91  1  0.82109050  0.07233766  0.01372038  1
  Al0+  Al92  1  0.67862952  0.92957547  0.34670485  1
  Al0+  Al93  1  0.92570638  0.82018962  0.31930504  1
  Al0+  Al94  1  0.06994188  0.68137856  0.65416059  1
  Al0+  Al95  1  0.07278699  0.67858198  0.31696981  1
  Si0+  Si96  1  0.17777218  0.42541335  0.68255589  1
  Si0+  Si97  1  0.81829252  0.07070843  0.67975386  1
  Si0+  Si98  1  0.57027735  0.67713034  0.32093079  1
  Si0+  Si99  1  0.17685202  0.92808079  0.01882856  1
  Si0+  Si100  1  0.31930579  0.57181574  0.34784056  1
  Si0+  Si101  1  0.07516894  0.17701403  0.65261230  1
  Si0+  Si102  1  0.32456949  0.07221674  0.68203526  1
  Si0+  Si103  1  0.42545983  0.32198680  0.98348904  1
  Si0+  Si104  1  0.92910810  0.32063580  0.98431480  1
  Si0+  Si105  1  0.57238198  0.67379369  0.64908397  1
  Si0+  Si106  1  0.68050273  0.42856011  0.01252654  1
  Si0+  Si107  1  0.32315892  0.07448545  0.35074732  1
  Si0+  Si108  1  0.42782105  0.32400129  0.64995652  1
  Si0+  Si109  1  0.17600338  0.42671734  0.01836958  1
  Si0+  Si110  1  0.18101490  0.42731950  0.34749381  1
  Si0+  Si111  1  0.82031792  0.57243226  0.01393526  1
  Si0+  Si112  1  0.56990645  0.17970525  0.31637816  1
  Si0+  Si113  1  0.06988734  0.67535861  0.98256296  1
  Si0+  Si114  1  0.82263529  0.07163451  0.35060534  1
  Si0+  Si115  1  0.07203280  0.17974491  0.98412614  1
  Si0+  Si116  1  0.67552943  0.92929090  0.68301151  1
  Si0+  Si117  1  0.67920638  0.92780027  0.01453409  1
  Si0+  Si118  1  0.68042606  0.42536802  0.68539519  1
  Si0+  Si119  1  0.42992349  0.32363529  0.31823405  1
  O2-  O120  1  0.25070145  -0.00741071  0.06145131  1
  O2-  O121  1  0.25295282  0.00772129  0.39437307  1
  O2-  O122  1  0.25263383  0.00759551  0.72645677  1
  O2-  O123  1  0.24459492  0.49611958  0.06207156  1
  O2-  O124  1  0.24568140  0.50362656  0.39038852  1
  O2-  O125  1  0.24719077  0.49380998  0.72599434  1
  O2-  O126  1  0.74869600  -0.00462945  0.05948754  1
  O2-  O127  1  0.75759941  -0.00035713  0.39513148  1
  O2-  O128  1  0.75164959  -0.00388918  0.72352536  1
  O2-  O129  1  0.74578028  0.50449358  0.05483781  1
  O2-  O130  1  0.75401644  0.49547137  0.39742568  1
  O2-  O131  1  0.74554415  0.49674139  0.73068947  1
  O2-  O132  1  -0.00180650  0.24696515  0.26570085  1
  O2-  O133  1  0.01004950  0.24886968  0.60902175  1
  O2-  O134  1  0.00087708  0.25055252  0.94153906  1
  O2-  O135  1  -0.00404262  0.74657671  0.26844556  1
  O2-  O136  1  -0.00483140  0.74957071  0.60356800  1
  O2-  O137  1  0.00343394  0.74618462  0.93944422  1
  O2-  O138  1  0.50127239  0.25354156  0.27545892  1
  O2-  O139  1  0.49418609  0.25378450  0.60484386  1
  O2-  O140  1  0.49268793  0.25162418  0.93963387  1
  O2-  O141  1  0.50597870  0.74788431  0.27394862  1
  O2-  O142  1  0.50317678  0.74151236  0.60466385  1
  O2-  O143  1  0.49618922  0.74528077  0.93588760  1
  O2-  O144  1  0.07247398  0.18106207  0.08870397  1
  O2-  O145  1  0.07257840  0.18226938  0.43191998  1
  O2-  O146  1  0.07406656  0.17815942  0.75876098  1
  O2-  O147  1  0.06726351  0.67291551  0.08789661  1
  O2-  O148  1  0.07549347  0.68109365  0.43024502  1
  O2-  O149  1  0.06980850  0.68330047  0.76813088  1
  O2-  O150  1  0.57124985  0.18408270  0.10086181  1
  O2-  O151  1  0.56747213  0.17824009  0.42147837  1
  O2-  O152  1  0.57085374  0.17984548  0.76378256  1
  O2-  O153  1  0.57249698  0.67698803  0.09975311  1
  O2-  O154  1  0.56562823  0.67606499  0.42628558  1
  O2-  O155  1  0.57134105  0.67531623  0.75479829  1
  O2-  O156  1  0.18652301  0.42337620  0.24259260  1
  O2-  O157  1  0.17988413  0.42225033  0.57704265  1
  O2-  O158  1  0.17501653  0.42454111  0.91281622  1
  O2-  O159  1  0.18307569  0.93143056  0.23420461  1
  O2-  O160  1  0.17856107  0.93122055  0.56844225  1
  O2-  O161  1  0.17504052  0.93156765  0.91295780  1
  O2-  O162  1  0.67500900  0.43016702  0.23515993  1
  O2-  O163  1  0.68132963  0.42523450  0.58020215  1
  O2-  O164  1  0.68454736  0.42490855  0.90764290  1
  O2-  O165  1  0.67534710  0.93408142  0.23355087  1
  O2-  O166  1  0.67318639  0.93231885  0.57785428  1
  O2-  O167  1  0.67989815  0.93025765  0.90872069  1
  O2-  O168  1  0.42736349  0.32249039  0.08942326  1
  O2-  O169  1  0.42814156  0.32304927  0.42319855  1
  O2-  O170  1  0.42860524  0.32543362  0.75532879  1
  O2-  O171  1  0.43100078  0.82204594  0.09823946  1
  O2-  O172  1  0.42862331  0.81904856  0.43221565  1
  O2-  O173  1  0.43103595  0.81875613  0.76505149  1
  O2-  O174  1  0.92903191  0.32096434  0.08879123  1
  O2-  O175  1  0.93072168  0.31995303  0.42913027  1
  O2-  O176  1  0.93063569  0.31698309  0.76756215  1
  O2-  O177  1  0.92845878  0.82136238  0.09905379  1
  O2-  O178  1  0.92678733  0.81947782  0.43237702  1
  O2-  O179  1  0.92904767  0.82563439  0.76619668  1
  O2-  O180  1  0.32459979  0.07444444  0.24495567  1
  O2-  O181  1  0.32494643  0.07352244  0.57665237  1
  O2-  O182  1  0.31870072  0.07116103  0.90007778  1
  O2-  O183  1  0.32152644  0.56800160  0.24278219  1
  O2-  O184  1  0.31943130  0.56952833  0.56643398  1
  O2-  O185  1  0.31909747  0.56896327  0.90281538  1
  O2-  O186  1  0.81862123  0.07321401  0.24481482  1
  O2-  O187  1  0.81640221  0.07275595  0.57494102  1
  O2-  O188  1  0.81897471  0.07482067  0.90011511  1
  O2-  O189  1  0.81835303  0.57164106  0.23328164  1
  O2-  O190  1  0.82298605  0.56864833  0.57028297  1
  O2-  O191  1  0.82257455  0.56950726  0.90891888  1
  O2-  O192  1  0.04789008  0.08042675  0.26369106  1
  O2-  O193  1  0.04405899  0.08575269  0.60668130  1
  O2-  O194  1  0.04385327  0.08861324  0.93635515  1
  O2-  O195  1  0.05537697  0.57779504  0.26448875  1
  O2-  O196  1  0.04789000  0.58057053  0.60365355  1
  O2-  O197  1  0.04402063  0.58149375  0.93650117  1
  O2-  O198  1  0.53889786  0.09011149  0.26730504  1
  O2-  O199  1  0.53849720  0.08494847  0.59325216  1
  O2-  O200  1  0.54305457  0.08413119  0.93236617  1
  O2-  O201  1  0.54194798  0.58395363  0.27447540  1
  O2-  O202  1  0.54981624  0.57826787  0.60629311  1
  O2-  O203  1  0.54683278  0.57627980  0.93344243  1
  O2-  O204  1  0.17127359  0.21057636  0.26541809  1
  O2-  O205  1  0.17073741  0.19679954  0.60824200  1
  O2-  O206  1  0.16355513  0.20822267  0.93592488  1
  O2-  O207  1  0.16804191  0.71364033  0.26107277  1
  O2-  O208  1  0.16789032  0.71161854  0.60258431  1
  O2-  O209  1  0.16512325  0.69913123  0.94006720  1
  O2-  O210  1  0.66249198  0.20423584  0.26975084  1
  O2-  O211  1  0.66433802  0.21103326  0.59351643  1
  O2-  O212  1  0.66603536  0.21541938  0.93260044  1
  O2-  O213  1  0.66546625  0.69888228  0.27794804  1
  O2-  O214  1  0.66589649  0.70080985  0.60479318  1
  O2-  O215  1  0.66764792  0.70673902  0.92942960  1
  O2-  O216  1  0.08206764  0.45210845  0.06466849  1
  O2-  O217  1  0.08650050  0.44784770  0.39108705  1
  O2-  O218  1  0.08483866  0.45018790  0.72972747  1
  O2-  O219  1  0.08620001  0.96142148  0.06577899  1
  O2-  O220  1  0.08267177  0.96044572  0.40109511  1
  O2-  O221  1  0.08217468  0.96256859  0.73739292  1
  O2-  O222  1  0.58611655  0.44795919  0.05848874  1
  O2-  O223  1  0.58031233  0.45638367  0.40585617  1
  O2-  O224  1  0.58508795  0.44499940  0.73098346  1
  O2-  O225  1  0.58574225  0.95518765  0.05942158  1
  O2-  O226  1  0.58438193  0.96768741  0.40245717  1
  O2-  O227  1  0.58589295  0.96464809  0.73017227  1
  O2-  O228  1  0.20198476  0.33384719  0.06595674  1
  O2-  O229  1  0.21483342  0.33861148  0.39801593  1
  O2-  O230  1  0.20311890  0.33155463  0.73047649  1
  O2-  O231  1  0.19495859  0.83227346  0.06219386  1
  O2-  O232  1  0.21498697  0.83455873  0.40028104  1
  O2-  O233  1  0.21175433  0.83668245  0.73796703  1
  O2-  O234  1  0.71355235  0.33990227  0.06309545  1
  O2-  O235  1  0.70037706  0.32649610  0.39985842  1
  O2-  O236  1  0.71083235  0.33171515  0.72965313  1
  O2-  O237  1  0.70417072  0.83364434  0.05962293  1
  O2-  O238  1  0.70141577  0.83253751  0.40316159  1
  O2-  O239  1  0.69467480  0.83579937  0.73023363  1
  O2-  O240  1  0.45818235  0.41565161  0.27090093  1
  O2-  O241  1  0.45550389  0.41636246  0.60217921  1
  O2-  O242  1  0.45316479  0.41451095  0.93711583  1
  O2-  O243  1  0.46117244  0.91933236  0.26728760  1
  O2-  O244  1  0.46213981  0.91313152  0.59630319  1
  O2-  O245  1  0.45714156  0.91753360  0.92941071  1
  O2-  O246  1  0.95844934  0.41714085  0.26014133  1
  O2-  O247  1  0.96064131  0.41626163  0.59969255  1
  O2-  O248  1  0.95692947  0.41282486  0.93682917  1
  O2-  O249  1  0.95486536  0.91904403  0.26753240  1
  O2-  O250  1  0.95377697  0.92282855  0.60060597  1
  O2-  O251  1  0.96147634  0.91989609  0.93365568  1
  O2-  O252  1  0.33956578  0.29674337  0.26791212  1
  O2-  O253  1  0.33311704  0.30087649  0.60405383  1
  O2-  O254  1  0.33057015  0.29919754  0.93923640  1
  O2-  O255  1  0.33612881  0.79046242  0.26273689  1
  O2-  O256  1  0.33336014  0.78671859  0.60036972  1
  O2-  O257  1  0.32604130  0.79397126  0.93581754  1
  O2-  O258  1  0.82764522  0.29366134  0.26472141  1
  O2-  O259  1  0.83765348  0.28607259  0.59732061  1
  O2-  O260  1  0.83862258  0.29090245  0.93603238  1
  O2-  O261  1  0.82538869  0.79354724  0.26786135  1
  O2-  O262  1  0.82352778  0.79975508  0.60616532  1
  O2-  O263  1  0.83393831  0.79449783  0.93100206  1
  O2-  O264  1  0.42023352  0.04231853  0.06623923  1
  O2-  O265  1  0.41633475  0.04777553  0.39647346  1
  O2-  O266  1  0.41764595  0.04153718  0.72647499  1
  O2-  O267  1  0.41697467  0.53805414  0.07001055  1
  O2-  O268  1  0.40910595  0.54109629  0.39731326  1
  O2-  O269  1  0.41750943  0.53907972  0.73497238  1
  O2-  O270  1  0.91865682  0.04558440  0.06729250  1
  O2-  O271  1  0.91844750  0.05303611  0.39355068  1
  O2-  O272  1  0.91122070  0.04899654  0.72834931  1
  O2-  O273  1  0.91088035  0.54116950  0.06163975  1
  O2-  O274  1  0.92444590  0.54210291  0.39617904  1
  O2-  O275  1  0.91764754  0.53712338  0.73763188  1
  O2-  O276  1  0.29176257  0.16669520  0.06750130  1
  O2-  O277  1  0.30131599  0.16990623  0.39545198  1
  O2-  O278  1  0.30619416  0.16798324  0.72821613  1
  O2-  O279  1  0.28978067  0.66697128  0.07132696  1
  O2-  O280  1  0.29258080  0.66471911  0.39213057  1
  O2-  O281  1  0.28834023  0.66516917  0.73639949  1
  O2-  O282  1  0.78765937  0.16763159  0.06899215  1
  O2-  O283  1  0.79162552  0.16368103  0.39704618  1
  O2-  O284  1  0.78591335  0.16177552  0.72711226  1
  O2-  O285  1  0.79417253  0.66554036  0.05886282  1
  O2-  O286  1  0.79308746  0.66650988  0.40445580  1
  O2-  O287  1  0.78974311  0.66740575  0.73776551  1
