# generated using pymatgen
data_Ca2Al2SiO7
_symmetry_space_group_name_H-M   'P 1'
_cell_length_a   15.46316508
_cell_length_b   15.46259321
_cell_length_c   15.28750967
_cell_angle_alpha   89.99027669
_cell_angle_beta   90.00937651
_cell_angle_gamma   90.02127117
_symmetry_Int_Tables_number   1
_chemical_formula_structural   Ca2Al2SiO7
_chemical_formula_sum   'Ca48 Al48 Si24 O168'
_cell_volume   3655.25286111
_cell_formula_units_Z   24
loop_
 _symmetry_equiv_pos_site_id
 _symmetry_equiv_pos_as_xyz
  1  'x, y, z'
loop_
 _atom_type_symbol
 _atom_type_oxidation_number
  Ca2+  2.0
  Al0+  0.0
  Si0+  0.0
  O2-  -2.0
loop_
 _atom_site_type_symbol
 _atom_site_label
 _atom_site_symmetry_multiplicity
 _atom_site_fract_x
 _atom_site_fract_y
 _atom_site_fract_z
 _atom_site_occupancy
  Ca2+  Ca0  1  0.17720918  0.07733313  0.17643322  1
  Ca2+  Ca1  1  0.17252017  0.07457392  0.50952003  1
  Ca2+  Ca2  1  0.17115353  0.08039407  0.83397727  1
  Ca2+  Ca3  1  0.16340784  0.57797823  0.17522864  1
  Ca2+  Ca4  1  0.16357181  0.57782086  0.50594268  1
  Ca2+  Ca5  1  0.15868427  0.57782012  0.83388976  1
  Ca2+  Ca6  1  0.67091615  0.07761625  0.16449387  1
  Ca2+  Ca7  1  0.66856477  0.07844305  0.50999194  1
  Ca2+  Ca8  1  0.67015190  0.07444201  0.83633841  1
  Ca2+  Ca9  1  0.67878840  0.58936615  0.17458815  1
  Ca2+  Ca10  1  0.67312998  0.59291699  0.49974208  1
  Ca2+  Ca11  1  0.67581332  0.58427133  0.83939300  1
  Ca2+  Ca12  1  0.08088810  0.34334915  0.16587399  1
  Ca2+  Ca13  1  0.09028202  0.33125045  0.49764461  1
  Ca2+  Ca14  1  0.08915972  0.32998538  0.82790690  1
  Ca2+  Ca15  1  0.09151468  0.82063292  0.16392689  1
  Ca2+  Ca16  1  0.09169285  0.82584778  0.49699877  1
  Ca2+  Ca17  1  0.07922646  0.82433757  0.81998097  1
  Ca2+  Ca18  1  0.57745474  0.33215618  0.16292926  1
  Ca2+  Ca19  1  0.57999671  0.32659144  0.49663446  1
  Ca2+  Ca20  1  0.57842989  0.32317085  0.82333704  1
  Ca2+  Ca21  1  0.58357615  0.83051794  0.16486735  1
  Ca2+  Ca22  1  0.57408704  0.83327746  0.49938283  1
  Ca2+  Ca23  1  0.57911048  0.84221460  0.82520465  1
  Ca2+  Ca24  1  0.31838441  0.42178191  0.17517043  1
  Ca2+  Ca25  1  0.32463172  0.43039908  0.50478123  1
  Ca2+  Ca26  1  0.32137007  0.42218463  0.83290345  1
  Ca2+  Ca27  1  0.32860747  0.92577032  0.17184793  1
  Ca2+  Ca28  1  0.32314577  0.91917994  0.50513890  1
  Ca2+  Ca29  1  0.33190743  0.92272016  0.82907418  1
  Ca2+  Ca30  1  0.83800744  0.42759081  0.17363394  1
  Ca2+  Ca31  1  0.84060998  0.42149628  0.49773778  1
  Ca2+  Ca32  1  0.83428109  0.42338079  0.83853825  1
  Ca2+  Ca33  1  0.83068427  0.91791833  0.16611324  1
  Ca2+  Ca34  1  0.82607048  0.90803615  0.50824330  1
  Ca2+  Ca35  1  0.82415394  0.91366120  0.83684371  1
  Ca2+  Ca36  1  0.41034137  0.16297478  0.16228577  1
  Ca2+  Ca37  1  0.41892074  0.15510575  0.49936921  1
  Ca2+  Ca38  1  0.41810140  0.15926792  0.82371460  1
  Ca2+  Ca39  1  0.42023907  0.66145959  0.16659051  1
  Ca2+  Ca40  1  0.41376740  0.66779814  0.49440694  1
  Ca2+  Ca41  1  0.41844744  0.67438721  0.82132059  1
  Ca2+  Ca42  1  0.91710115  0.17280876  0.16279381  1
  Ca2+  Ca43  1  0.92764515  0.17229774  0.49630330  1
  Ca2+  Ca44  1  0.92219591  0.16647922  0.82524718  1
  Ca2+  Ca45  1  0.92636406  0.65910407  0.16341077  1
  Ca2+  Ca46  1  0.92799922  0.67051264  0.49728364  1
  Ca2+  Ca47  1  0.92457234  0.66947932  0.82927502  1
  Al0+  Al48  1  -0.00064218  -0.00076935  0.00358702  1
  Al0+  Al49  1  -0.00145566  0.00083504  0.33437156  1
  Al0+  Al50  1  -0.00153692  0.00191915  0.66120910  1
  Al0+  Al51  1  -0.00095965  0.49940137  0.00095855  1
  Al0+  Al52  1  -0.00221136  0.50053046  0.33521369  1
  Al0+  Al53  1  -0.00176700  0.50081160  0.66855209  1
  Al0+  Al54  1  0.50042434  -0.00033017  0.00774666  1
  Al0+  Al55  1  0.50255454  -0.00126458  0.33248702  1
  Al0+  Al56  1  0.50186454  -0.00189757  0.66392323  1
  Al0+  Al57  1  0.49881573  0.49874681  -0.00431215  1
  Al0+  Al58  1  0.50121970  0.49718064  0.33016062  1
  Al0+  Al59  1  0.50150176  0.49865829  0.67029038  1
  Al0+  Al60  1  0.24856994  0.25231033  0.00715347  1
  Al0+  Al61  1  0.25286881  0.24982360  0.33941044  1
  Al0+  Al62  1  0.25088357  0.25310900  0.66823885  1
  Al0+  Al63  1  0.25287126  0.74893800  -0.00678960  1
  Al0+  Al64  1  0.25186870  0.75219322  0.33103367  1
  Al0+  Al65  1  0.25140732  0.75087514  0.66562433  1
  Al0+  Al66  1  0.74835159  0.24974429  0.00123956  1
  Al0+  Al67  1  0.75028923  0.24986249  0.32724678  1
  Al0+  Al68  1  0.74805461  0.25049105  0.66218983  1
  Al0+  Al69  1  0.75013097  0.74885042  0.00785360  1
  Al0+  Al70  1  0.74953079  0.74990652  0.33355302  1
  Al0+  Al71  1  0.75013189  0.74977267  0.66970842  1
  Al0+  Al72  1  0.31837009  0.07008140  0.01269292  1
  Al0+  Al73  1  0.57053894  0.67827804  0.31987518  1
  Al0+  Al74  1  0.67906395  0.92930699  0.01704079  1
  Al0+  Al75  1  0.82391849  0.07329886  0.01477433  1
  Al0+  Al76  1  0.07087415  0.67844515  0.98526097  1
  Al0+  Al77  1  0.17743335  0.43128232  0.68335443  1
  Al0+  Al78  1  0.81904312  0.56838429  0.01429405  1
  Al0+  Al79  1  0.07320179  0.17993487  0.65440172  1
  Al0+  Al80  1  0.17684161  0.43115455  0.34988532  1
  Al0+  Al81  1  0.07109315  0.68124993  0.31968747  1
  Al0+  Al82  1  0.17491122  0.92823333  0.68213117  1
  Al0+  Al83  1  0.93055875  0.31979789  0.31885334  1
  Al0+  Al84  1  0.32323420  0.07053393  0.34957783  1
  Al0+  Al85  1  0.18000687  0.43185362  0.01479295  1
  Al0+  Al86  1  0.56920470  0.17878505  0.65292421  1
  Al0+  Al87  1  0.92675159  0.82213189  0.65335738  1
  Al0+  Al88  1  0.07066643  0.67932725  0.65135012  1
  Al0+  Al89  1  0.68120071  0.92927937  0.67858946  1
  Al0+  Al90  1  0.32065704  0.06980432  0.68058968  1
  Al0+  Al91  1  0.32364317  0.57347732  0.68227702  1
  Al0+  Al92  1  0.81959871  0.57143460  0.34953390  1
  Al0+  Al93  1  0.17666060  0.92870771  0.34714908  1
  Al0+  Al94  1  0.32409774  0.57138880  0.34574871  1
  Al0+  Al95  1  0.42953353  0.82037012  0.65284743  1
  Si0+  Si96  1  0.68216058  0.92961334  0.34976267  1
  Si0+  Si97  1  0.42649742  0.32057135  0.98389790  1
  Si0+  Si98  1  0.67509728  0.42703958  0.01605813  1
  Si0+  Si99  1  0.07409352  0.17794330  0.31620867  1
  Si0+  Si100  1  0.32439525  0.57376171  0.01567397  1
  Si0+  Si101  1  0.57257261  0.67561520  0.65228545  1
  Si0+  Si102  1  0.92574568  0.82324068  0.31541600  1
  Si0+  Si103  1  0.67874407  0.42573831  0.68166642  1
  Si0+  Si104  1  0.92692183  0.82254919  0.98470566  1
  Si0+  Si105  1  0.81865416  0.56983376  0.68268171  1
  Si0+  Si106  1  0.42937158  0.31990289  0.31684117  1
  Si0+  Si107  1  0.42862689  0.32373203  0.64870044  1
  Si0+  Si108  1  0.82143029  0.07559068  0.68030573  1
  Si0+  Si109  1  0.82008274  0.07408623  0.34888823  1
  Si0+  Si110  1  0.57248661  0.67803419  0.98500120  1
  Si0+  Si111  1  0.92815624  0.32019553  0.98530805  1
  Si0+  Si112  1  0.17736404  0.92483514  0.01449257  1
  Si0+  Si113  1  0.57133485  0.17740539  0.31471566  1
  Si0+  Si114  1  0.07138893  0.17878886  0.98808515  1
  Si0+  Si115  1  0.56911475  0.17890824  0.98473424  1
  Si0+  Si116  1  0.67828408  0.42576648  0.34946856  1
  Si0+  Si117  1  0.42958208  0.82279305  0.31352563  1
  Si0+  Si118  1  0.92653572  0.32204969  0.65114142  1
  Si0+  Si119  1  0.43225963  0.82199566  0.98434639  1
  O2-  O120  1  0.24252718  -0.00316983  0.05889020  1
  O2-  O121  1  0.24663796  0.00292148  0.39651238  1
  O2-  O122  1  0.24580742  0.00187020  0.73227004  1
  O2-  O123  1  0.25278543  0.50885752  0.05984492  1
  O2-  O124  1  0.24677137  0.50647622  0.39705639  1
  O2-  O125  1  0.24738281  0.50597993  0.73281892  1
  O2-  O126  1  0.75387665  -0.00045875  0.06571557  1
  O2-  O127  1  0.75397434  -0.00061121  0.39190004  1
  O2-  O128  1  0.75806021  0.00208893  0.72443595  1
  O2-  O129  1  0.74185461  0.49603073  0.06130815  1
  O2-  O130  1  0.74378637  0.49645087  0.39511501  1
  O2-  O131  1  0.74790845  0.49784030  0.72425844  1
  O2-  O132  1  0.00771381  0.24826938  0.27025280  1
  O2-  O133  1  -0.00214741  0.25546763  0.60892428  1
  O2-  O134  1  -0.00482458  0.24479903  0.94508952  1
  O2-  O135  1  -0.00164261  0.75855241  0.27173256  1
  O2-  O136  1  0.00384185  0.75690040  0.60204575  1
  O2-  O137  1  -0.00083008  0.75767674  0.94101591  1
  O2-  O138  1  0.49749139  0.24568588  0.27307532  1
  O2-  O139  1  0.49340030  0.25111636  0.60415243  1
  O2-  O140  1  0.49763534  0.24911144  0.94191741  1
  O2-  O141  1  0.49412606  0.74937096  0.26980316  1
  O2-  O142  1  0.49931558  0.73901039  0.60881791  1
  O2-  O143  1  0.50213673  0.74883245  0.94248875  1
  O2-  O144  1  0.07204212  0.18108539  0.09301923  1
  O2-  O145  1  0.07067583  0.17785336  0.42156097  1
  O2-  O146  1  0.07051455  0.18107125  0.76850286  1
  O2-  O147  1  0.06959823  0.67810048  0.09849784  1
  O2-  O148  1  0.06887905  0.68021571  0.43211914  1
  O2-  O149  1  0.06410011  0.67642374  0.76532453  1
  O2-  O150  1  0.56916997  0.18094994  0.09012108  1
  O2-  O151  1  0.57401112  0.17786649  0.41957997  1
  O2-  O152  1  0.57116738  0.18132911  0.76647639  1
  O2-  O153  1  0.57073203  0.67677095  0.08998467  1
  O2-  O154  1  0.57218654  0.68267212  0.43274266  1
  O2-  O155  1  0.57490058  0.67645240  0.75839407  1
  O2-  O156  1  0.17837412  0.43187336  0.23577423  1
  O2-  O157  1  0.17738716  0.43130010  0.57036874  1
  O2-  O158  1  0.18102931  0.42879337  0.90225458  1
  O2-  O159  1  0.17929907  0.92986486  0.23252277  1
  O2-  O160  1  0.17716950  0.92967855  0.56900586  1
  O2-  O161  1  0.17769276  0.92599130  0.90934494  1
  O2-  O162  1  0.67911006  0.42465175  0.24361317  1
  O2-  O163  1  0.67890203  0.42320761  0.57699444  1
  O2-  O164  1  0.67590608  0.42658463  0.91022687  1
  O2-  O165  1  0.68187889  0.93099725  0.24457891  1
  O2-  O166  1  0.68154627  0.93004933  0.56526140  1
  O2-  O167  1  0.67775730  0.93135492  0.90362153  1
  O2-  O168  1  0.42943462  0.32114265  0.08910672  1
  O2-  O169  1  0.43406809  0.32215018  0.42130994  1
  O2-  O170  1  0.43317636  0.32421256  0.75480063  1
  O2-  O171  1  0.43263903  0.82153697  0.08943204  1
  O2-  O172  1  0.43360487  0.82677930  0.41856622  1
  O2-  O173  1  0.43564881  0.82327148  0.76662992  1
  O2-  O174  1  0.92885664  0.32157433  0.09019537  1
  O2-  O175  1  0.92625424  0.31532915  0.43164802  1
  O2-  O176  1  0.92247229  0.32039072  0.75720223  1
  O2-  O177  1  0.92622211  0.82204129  0.09029706  1
  O2-  O178  1  0.92096457  0.82035509  0.42050312  1
  O2-  O179  1  0.92214874  0.81634518  0.76721492  1
  O2-  O180  1  0.32288219  0.06853195  0.23521611  1
  O2-  O181  1  0.32149312  0.06630372  0.56767446  1
  O2-  O182  1  0.32049799  0.07008475  0.90028135  1
  O2-  O183  1  0.32550510  0.56581893  0.23166316  1
  O2-  O184  1  0.32857499  0.56822702  0.56937298  1
  O2-  O185  1  0.32864033  0.57138623  0.91068256  1
  O2-  O186  1  0.81724197  0.07461548  0.24372577  1
  O2-  O187  1  0.81622416  0.08053410  0.57479570  1
  O2-  O188  1  0.82138445  0.07660047  0.90143921  1
  O2-  O189  1  0.81842796  0.56948985  0.23629076  1
  O2-  O190  1  0.81746898  0.56979939  0.57786677  1
  O2-  O191  1  0.81696695  0.56598116  0.90076776  1
  O2-  O192  1  0.04521073  0.08507204  0.26933589  1
  O2-  O193  1  0.04202458  0.08564195  0.59648812  1
  O2-  O194  1  0.04893792  0.08468112  0.94215222  1
  O2-  O195  1  0.03546758  0.58511093  0.26705108  1
  O2-  O196  1  0.03407058  0.58243446  0.59971374  1
  O2-  O197  1  0.03339593  0.58319884  0.93212101  1
  O2-  O198  1  0.54586275  0.08484633  0.26714892  1
  O2-  O199  1  0.54141421  0.08307768  0.59687847  1
  O2-  O200  1  0.54121802  0.08594914  0.94048821  1
  O2-  O201  1  0.54630729  0.57962986  0.26506588  1
  O2-  O202  1  0.55508332  0.57938006  0.60833434  1
  O2-  O203  1  0.54746059  0.58514047  0.93681441  1
  O2-  O204  1  0.17015435  0.20063437  0.27382295  1
  O2-  O205  1  0.16908286  0.21183210  0.60002913  1
  O2-  O206  1  0.16135431  0.21304366  0.94096354  1
  O2-  O207  1  0.16883211  0.70901996  0.26431915  1
  O2-  O208  1  0.17152630  0.70004374  0.60208511  1
  O2-  O209  1  0.16966240  0.70300213  0.93228202  1
  O2-  O210  1  0.66095179  0.20894948  0.26480251  1
  O2-  O211  1  0.66404473  0.21292963  0.59630671  1
  O2-  O212  1  0.66109362  0.20723830  0.93754586  1
  O2-  O213  1  0.66583167  0.71396590  0.26475372  1
  O2-  O214  1  0.66411125  0.70686195  0.60593526  1
  O2-  O215  1  0.66568083  0.70480263  0.93987879  1
  O2-  O216  1  0.08256713  0.46051144  0.06711369  1
  O2-  O217  1  0.07774292  0.45487998  0.40157010  1
  O2-  O218  1  0.07727819  0.45643319  0.73636382  1
  O2-  O219  1  0.08259279  0.94449474  0.06010069  1
  O2-  O220  1  0.07627712  0.95219690  0.39816460  1
  O2-  O221  1  0.07469200  0.95588679  0.73272643  1
  O2-  O222  1  0.58021732  0.45096155  0.06053010  1
  O2-  O223  1  0.58398448  0.44753436  0.39421355  1
  O2-  O224  1  0.58775305  0.45070138  0.73184252  1
  O2-  O225  1  0.58408208  0.96224119  0.07437214  1
  O2-  O226  1  0.59057173  0.95919847  0.39538305  1
  O2-  O227  1  0.58713758  0.96436440  0.73345710  1
  O2-  O228  1  0.21203079  0.33739512  0.07228460  1
  O2-  O229  1  0.20801579  0.33279843  0.40030148  1
  O2-  O230  1  0.20952737  0.33412421  0.73723174  1
  O2-  O231  1  0.20963301  0.83249001  0.05978012  1
  O2-  O232  1  0.20856095  0.83154376  0.39889206  1
  O2-  O233  1  0.20484454  0.83025942  0.73414325  1
  O2-  O234  1  0.69941387  0.33361545  0.06250746  1
  O2-  O235  1  0.70692674  0.33241861  0.39469677  1
  O2-  O236  1  0.70864740  0.33521403  0.73132920  1
  O2-  O237  1  0.70454677  0.83079882  0.07093328  1
  O2-  O238  1  0.70869198  0.83808289  0.39690486  1
  O2-  O239  1  0.70905624  0.83279601  0.73540535  1
  O2-  O240  1  0.46084713  0.40860552  0.26476071  1
  O2-  O241  1  0.46215800  0.41479523  0.60192526  1
  O2-  O242  1  0.45499281  0.41160824  0.93438548  1
  O2-  O243  1  0.46398049  0.91366885  0.26496570  1
  O2-  O244  1  0.46916159  0.91212553  0.59608027  1
  O2-  O245  1  0.46432149  0.91355334  0.93893844  1
  O2-  O246  1  0.95822872  0.41738353  0.26519874  1
  O2-  O247  1  0.94966175  0.41648827  0.60692569  1
  O2-  O248  1  0.95915571  0.40984198  0.93592766  1
  O2-  O249  1  0.94503812  0.91986798  0.27177367  1
  O2-  O250  1  0.94115773  0.92386143  0.60249652  1
  O2-  O251  1  0.94602941  0.91869391  0.94038479  1
  O2-  O252  1  0.33665787  0.29363931  0.26963925  1
  O2-  O253  1  0.33381592  0.30428402  0.60495925  1
  O2-  O254  1  0.33418229  0.29256874  0.93873967  1
  O2-  O255  1  0.33544464  0.80331017  0.26640584  1
  O2-  O256  1  0.33245588  0.79646567  0.59800003  1
  O2-  O257  1  0.34064216  0.79724860  0.93536003  1
  O2-  O258  1  0.83463825  0.28746966  0.26196089  1
  O2-  O259  1  0.83443161  0.29563321  0.60243382  1
  O2-  O260  1  0.83378622  0.29768169  0.93901847  1
  O2-  O261  1  0.83368976  0.79382419  0.26777638  1
  O2-  O262  1  0.83040335  0.78565908  0.59920727  1
  O2-  O263  1  0.83332047  0.79188442  0.94059381  1
  O2-  O264  1  0.41389464  0.03923877  0.06871307  1
  O2-  O265  1  0.42264788  0.03966552  0.39873178  1
  O2-  O266  1  0.41888662  0.03709730  0.73222951  1
  O2-  O267  1  0.41789215  0.54455551  0.06126442  1
  O2-  O268  1  0.42135664  0.53773527  0.39811323  1
  O2-  O269  1  0.42175334  0.54131866  0.73711065  1
  O2-  O270  1  0.92225019  0.04816535  0.07038291  1
  O2-  O271  1  0.91401997  0.05304168  0.39392546  1
  O2-  O272  1  0.91679105  0.05670858  0.72358313  1
  O2-  O273  1  0.91351427  0.53319422  0.06826381  1
  O2-  O274  1  0.91362764  0.53785439  0.40454879  1
  O2-  O275  1  0.90866393  0.54051853  0.73205318  1
  O2-  O276  1  0.28940068  0.16630810  0.06843739  1
  O2-  O277  1  0.30415183  0.17090743  0.40050296  1
  O2-  O278  1  0.29916172  0.17107756  0.73053960  1
  O2-  O279  1  0.30391132  0.66945833  0.05910150  1
  O2-  O280  1  0.30666893  0.67415344  0.39106857  1
  O2-  O281  1  0.30307764  0.67404740  0.73247803  1
  O2-  O282  1  0.79123941  0.17075683  0.06885168  1
  O2-  O283  1  0.78620771  0.16392013  0.39546361  1
  O2-  O284  1  0.79002583  0.16694223  0.72860190  1
  O2-  O285  1  0.79077131  0.66391235  0.07052660  1
  O2-  O286  1  0.78608602  0.66733139  0.40280363  1
  O2-  O287  1  0.78815785  0.65945830  0.73246126  1
