# generated using pymatgen
data_Ca2Al2SiO7
_symmetry_space_group_name_H-M   'P 1'
_cell_length_a   15.46154736
_cell_length_b   15.46237968
_cell_length_c   15.28601752
_cell_angle_alpha   90.01181224
_cell_angle_beta   89.99920666
_cell_angle_gamma   89.99720478
_symmetry_Int_Tables_number   1
_chemical_formula_structural   Ca2Al2SiO7
_chemical_formula_sum   'Ca48 Al48 Si24 O168'
_cell_volume   3654.46352401
_cell_formula_units_Z   24
loop_
 _symmetry_equiv_pos_site_id
 _symmetry_equiv_pos_as_xyz
  1  'x, y, z'
loop_
 _atom_type_symbol
 _atom_type_oxidation_number
  Ca2+  2.0
  Al0+  0.0
  Si0+  0.0
  O2-  -2.0
loop_
 _atom_site_type_symbol
 _atom_site_label
 _atom_site_symmetry_multiplicity
 _atom_site_fract_x
 _atom_site_fract_y
 _atom_site_fract_z
 _atom_site_occupancy
  Ca2+  Ca0  1  0.16410175  0.07955470  0.16814986  1
  Ca2+  Ca1  1  0.17010797  0.08058040  0.51067060  1
  Ca2+  Ca2  1  0.17339307  0.06997088  0.83358552  1
  Ca2+  Ca3  1  0.15991695  0.57280538  0.16459817  1
  Ca2+  Ca4  1  0.17006323  0.57028512  0.50765751  1
  Ca2+  Ca5  1  0.17178327  0.57791696  0.83788605  1
  Ca2+  Ca6  1  0.66646757  0.08595257  0.16598358  1
  Ca2+  Ca7  1  0.67484872  0.07807960  0.51469282  1
  Ca2+  Ca8  1  0.66268540  0.08513091  0.83331083  1
  Ca2+  Ca9  1  0.67262189  0.58266777  0.16565335  1
  Ca2+  Ca10  1  0.67322180  0.58577379  0.50177030  1
  Ca2+  Ca11  1  0.67304014  0.58061777  0.84466778  1
  Ca2+  Ca12  1  0.08433610  0.33363365  0.16000244  1
  Ca2+  Ca13  1  0.09175891  0.32819711  0.49536721  1
  Ca2+  Ca14  1  0.07859784  0.34357210  0.83120862  1
  Ca2+  Ca15  1  0.07699456  0.82570342  0.15670648  1
  Ca2+  Ca16  1  0.07140490  0.84233649  0.49897360  1
  Ca2+  Ca17  1  0.08498586  0.83072497  0.82801515  1
  Ca2+  Ca18  1  0.57890937  0.32984547  0.15076962  1
  Ca2+  Ca19  1  0.57718752  0.32901208  0.50359123  1
  Ca2+  Ca20  1  0.57674987  0.32912623  0.82765741  1
  Ca2+  Ca21  1  0.57622159  0.82549620  0.15548471  1
  Ca2+  Ca22  1  0.57765896  0.84115068  0.50452845  1
  Ca2+  Ca23  1  0.57538711  0.82963545  0.82849454  1
  Ca2+  Ca24  1  0.32493389  0.41051873  0.16798303  1
  Ca2+  Ca25  1  0.32454276  0.41850782  0.51200857  1
  Ca2+  Ca26  1  0.32718697  0.41138407  0.83672098  1
  Ca2+  Ca27  1  0.32784005  0.91019128  0.16325442  1
  Ca2+  Ca28  1  0.32630010  0.92358984  0.51679820  1
  Ca2+  Ca29  1  0.33223285  0.91352406  0.83910102  1
  Ca2+  Ca30  1  0.83595527  0.42707714  0.16186662  1
  Ca2+  Ca31  1  0.83606012  0.42604198  0.50294688  1
  Ca2+  Ca32  1  0.82685294  0.41909145  0.84782039  1
  Ca2+  Ca33  1  0.83205646  0.91406019  0.17117296  1
  Ca2+  Ca34  1  0.83171148  0.91888125  0.51343071  1
  Ca2+  Ca35  1  0.83182562  0.92002739  0.82970144  1
  Ca2+  Ca36  1  0.42422232  0.17425756  0.15498452  1
  Ca2+  Ca37  1  0.41475354  0.16633178  0.50455092  1
  Ca2+  Ca38  1  0.42293222  0.17449270  0.82695298  1
  Ca2+  Ca39  1  0.42413954  0.67061641  0.15430136  1
  Ca2+  Ca40  1  0.41062957  0.66961682  0.50487788  1
  Ca2+  Ca41  1  0.41472622  0.67304345  0.82841473  1
  Ca2+  Ca42  1  0.92535816  0.17522495  0.16067874  1
  Ca2+  Ca43  1  0.92408750  0.16411250  0.49672126  1
  Ca2+  Ca44  1  0.91448447  0.17162335  0.82994677  1
  Ca2+  Ca45  1  0.91712941  0.66424898  0.16105616  1
  Ca2+  Ca46  1  0.91386523  0.67890628  0.49551343  1
  Ca2+  Ca47  1  0.92493896  0.66491303  0.83040190  1
  Al0+  Al48  1  0.00031244  0.00043633  0.00556258  1
  Al0+  Al49  1  -0.00118625  0.00095403  0.32331257  1
  Al0+  Al50  1  -0.00098055  0.00121524  0.67165491  1
  Al0+  Al51  1  0.00090113  0.50082659  -0.00077648  1
  Al0+  Al52  1  -0.00121387  0.50079847  0.34396451  1
  Al0+  Al53  1  0.00026826  0.50103637  0.66609140  1
  Al0+  Al54  1  0.50024409  0.00059085  -0.00374816  1
  Al0+  Al55  1  0.49931936  0.00033866  0.33172830  1
  Al0+  Al56  1  0.50191641  -0.00073676  0.66538617  1
  Al0+  Al57  1  0.50018287  0.49980560  -0.00311406  1
  Al0+  Al58  1  0.49988461  0.50050158  0.33382143  1
  Al0+  Al59  1  0.50083541  0.50049152  0.66278794  1
  Al0+  Al60  1  0.25064881  0.24618127  0.00085259  1
  Al0+  Al61  1  0.25074953  0.24769903  0.33192880  1
  Al0+  Al62  1  0.24810358  0.24885919  0.67210721  1
  Al0+  Al63  1  0.24673881  0.74932865  -0.00013794  1
  Al0+  Al64  1  0.24771098  0.74989705  0.33371192  1
  Al0+  Al65  1  0.24939048  0.74555761  0.66555717  1
  Al0+  Al66  1  0.75246228  0.25002336  -0.00077164  1
  Al0+  Al67  1  0.74993368  0.25019392  0.33418338  1
  Al0+  Al68  1  0.75115272  0.25144420  0.66281855  1
  Al0+  Al69  1  0.75040106  0.75351662  0.00069900  1
  Al0+  Al70  1  0.74780421  0.75048630  0.33365285  1
  Al0+  Al71  1  0.75141910  0.75118197  0.66701568  1
  Al0+  Al72  1  0.42769751  0.81977672  0.65258074  1
  Al0+  Al73  1  0.42693041  0.32085025  0.65015317  1
  Al0+  Al74  1  0.17829556  0.92760150  0.67952532  1
  Al0+  Al75  1  0.42635730  0.32194458  0.98522703  1
  Al0+  Al76  1  0.42827293  0.81884685  0.98567957  1
  Al0+  Al77  1  0.32295005  0.07101110  0.68253433  1
  Al0+  Al78  1  0.81889183  0.57144275  0.34892585  1
  Al0+  Al79  1  0.82158977  0.07354682  0.68210444  1
  Al0+  Al80  1  0.57248523  0.17859763  0.64935292  1
  Al0+  Al81  1  0.18064411  0.42783000  0.01392815  1
  Al0+  Al82  1  0.67913467  0.92791790  0.68311596  1
  Al0+  Al83  1  0.06804373  0.67909145  0.98645045  1
  Al0+  Al84  1  0.07168307  0.18059412  0.31943764  1
  Al0+  Al85  1  0.67741830  0.42799737  0.01350660  1
  Al0+  Al86  1  0.93366373  0.32017471  0.98783089  1
  Al0+  Al87  1  0.17854049  0.92742785  0.01626466  1
  Al0+  Al88  1  0.57342294  0.17929359  0.98481955  1
  Al0+  Al89  1  0.92783261  0.82018392  0.31869202  1
  Al0+  Al90  1  0.18102358  0.42829429  0.34681408  1
  Al0+  Al91  1  0.32328045  0.57023262  0.68220728  1
  Al0+  Al92  1  0.57418974  0.67808220  0.98520274  1
  Al0+  Al93  1  0.17845209  0.42813243  0.68358736  1
  Al0+  Al94  1  0.93166013  0.82024939  0.65497648  1
  Al0+  Al95  1  0.82150907  0.57337229  0.01346893  1
  Si0+  Si96  1  0.32168116  0.57268708  0.01680030  1
  Si0+  Si97  1  0.82042736  0.57202615  0.68135964  1
  Si0+  Si98  1  0.32285975  0.06915379  0.01874886  1
  Si0+  Si99  1  0.57395142  0.67836240  0.64801071  1
  Si0+  Si100  1  0.82125846  0.07105309  0.34657396  1
  Si0+  Si101  1  0.32145548  0.06835118  0.34743836  1
  Si0+  Si102  1  0.17725434  0.92907986  0.34695608  1
  Si0+  Si103  1  0.07270126  0.17504393  0.98130405  1
  Si0+  Si104  1  0.56965412  0.67921289  0.31891846  1
  Si0+  Si105  1  0.57171461  0.17855623  0.31870665  1
  Si0+  Si106  1  0.42745733  0.82223476  0.31943283  1
  Si0+  Si107  1  0.82213238  0.07220826  0.01823375  1
  Si0+  Si108  1  0.06847845  0.17990217  0.65443841  1
  Si0+  Si109  1  0.07191319  0.67553138  0.64668351  1
  Si0+  Si110  1  0.92849686  0.32395363  0.65011832  1
  Si0+  Si111  1  0.67534732  0.42674053  0.35158012  1
  Si0+  Si112  1  0.92728637  0.82558348  0.98252105  1
  Si0+  Si113  1  0.67836098  0.93123952  0.01644676  1
  Si0+  Si114  1  0.67801164  0.93068069  0.34741719  1
  Si0+  Si115  1  0.92690966  0.32435760  0.31772202  1
  Si0+  Si116  1  0.68062293  0.42986553  0.67927865  1
  Si0+  Si117  1  0.43008021  0.32054661  0.31914173  1
  Si0+  Si118  1  0.07113188  0.67685019  0.31765297  1
  Si0+  Si119  1  0.32454107  0.57343787  0.34922084  1
  O2-  O120  1  0.25383796  0.00118160  0.06457343  1
  O2-  O121  1  0.25039543  -0.00271751  0.38947431  1
  O2-  O122  1  0.25793997  -0.00901220  0.73001309  1
  O2-  O123  1  0.25820869  0.49922132  0.06212122  1
  O2-  O124  1  0.25563301  0.50398015  0.39140124  1
  O2-  O125  1  0.25371855  0.49666628  0.73247516  1
  O2-  O126  1  0.74997986  0.00150781  0.06005235  1
  O2-  O127  1  0.75005334  0.00080600  0.38907030  1
  O2-  O128  1  0.74685092  0.00458875  0.73217990  1
  O2-  O129  1  0.74679290  0.50328762  0.06330692  1
  O2-  O130  1  0.74562152  0.49442398  0.39548629  1
  O2-  O131  1  0.75046506  0.50079861  0.72251346  1
  O2-  O132  1  -0.00138493  0.25809631  0.27454828  1
  O2-  O133  1  0.00023500  0.25297802  0.60972901  1
  O2-  O134  1  0.00843231  0.24761228  0.93752894  1
  O2-  O135  1  0.00244855  0.74539524  0.27281740  1
  O2-  O136  1  0.00698887  0.74868644  0.60366750  1
  O2-  O137  1  -0.00591201  0.75484522  0.94016692  1
  O2-  O138  1  0.50501390  0.25344816  0.27700443  1
  O2-  O139  1  0.49688080  0.24689344  0.59833377  1
  O2-  O140  1  0.50344392  0.25412250  0.93760137  1
  O2-  O141  1  0.49471292  0.74722084  0.27845446  1
  O2-  O142  1  0.50359605  0.74618244  0.60385122  1
  O2-  O143  1  0.49877927  0.74599308  0.93556119  1
  O2-  O144  1  0.06924488  0.17493444  0.08760607  1
  O2-  O145  1  0.07042331  0.17832232  0.43277046  1
  O2-  O146  1  0.06539583  0.17886416  0.75899822  1
  O2-  O147  1  0.06648047  0.67930519  0.10037489  1
  O2-  O148  1  0.07216379  0.67920039  0.42292243  1
  O2-  O149  1  0.06776276  0.67154380  0.75193151  1
  O2-  O150  1  0.57064690  0.17846372  0.10003447  1
  O2-  O151  1  0.57116300  0.17576234  0.42298173  1
  O2-  O152  1  0.57618692  0.18549733  0.76193657  1
  O2-  O153  1  0.57351548  0.68279484  0.10006159  1
  O2-  O154  1  0.57150253  0.67960652  0.42377284  1
  O2-  O155  1  0.57701630  0.67872816  0.75285818  1
  O2-  O156  1  0.18177909  0.42846908  0.23373899  1
  O2-  O157  1  0.17759764  0.42881005  0.56916838  1
  O2-  O158  1  0.17887681  0.43105890  0.90190343  1
  O2-  O159  1  0.17953701  0.92874312  0.24205898  1
  O2-  O160  1  0.17557181  0.93409452  0.56478446  1
  O2-  O161  1  0.17757678  0.92913497  0.90388259  1
  O2-  O162  1  0.67223420  0.42664536  0.24668353  1
  O2-  O163  1  0.68355335  0.43140784  0.57343688  1
  O2-  O164  1  0.68225702  0.42633047  0.89981280  1
  O2-  O165  1  0.67634611  0.93246115  0.24215366  1
  O2-  O166  1  0.68340478  0.92719624  0.56816931  1
  O2-  O167  1  0.67873924  0.93049754  0.91220108  1
  O2-  O168  1  0.42583121  0.31743446  0.10031501  1
  O2-  O169  1  0.42928636  0.31896314  0.42378336  1
  O2-  O170  1  0.42971113  0.32141269  0.76281520  1
  O2-  O171  1  0.43087468  0.81801783  0.10085475  1
  O2-  O172  1  0.42855434  0.82531355  0.42405047  1
  O2-  O173  1  0.42806191  0.81730468  0.76479496  1
  O2-  O174  1  0.93490144  0.31882261  0.10150870  1
  O2-  O175  1  0.92463260  0.32127792  0.42349500  1
  O2-  O176  1  0.92733168  0.32600579  0.75489678  1
  O2-  O177  1  0.92840780  0.82590617  0.08881950  1
  O2-  O178  1  0.92875429  0.82287927  0.43173833  1
  O2-  O179  1  0.93167521  0.81743802  0.76749054  1
  O2-  O180  1  0.32419573  0.06708633  0.24263969  1
  O2-  O181  1  0.31672276  0.07121869  0.56747923  1
  O2-  O182  1  0.32241791  0.06828920  0.91388918  1
  O2-  O183  1  0.32834593  0.57407155  0.24399120  1
  O2-  O184  1  0.31954980  0.56884824  0.56753442  1
  O2-  O185  1  0.31793111  0.57588882  0.91197618  1
  O2-  O186  1  0.81879490  0.07187289  0.24150523  1
  O2-  O187  1  0.82406897  0.07091207  0.56742277  1
  O2-  O188  1  0.82510345  0.07143727  0.91380909  1
  O2-  O189  1  0.81748645  0.57160123  0.23642573  1
  O2-  O190  1  0.81909006  0.57162047  0.57567739  1
  O2-  O191  1  0.82190781  0.57031409  0.89972764  1
  O2-  O192  1  0.03805758  0.08702465  0.26087595  1
  O2-  O193  1  0.03774789  0.08972325  0.60477403  1
  O2-  O194  1  0.04074655  0.08298298  0.93699636  1
  O2-  O195  1  0.04327824  0.58236499  0.27475206  1
  O2-  O196  1  0.03944253  0.58456190  0.59757640  1
  O2-  O197  1  0.03680206  0.58465477  0.93004587  1
  O2-  O198  1  0.54056257  0.08797290  0.26959485  1
  O2-  O199  1  0.55032416  0.07819113  0.59728461  1
  O2-  O200  1  0.54365586  0.08197791  0.93253076  1
  O2-  O201  1  0.54544136  0.58610083  0.27163578  1
  O2-  O202  1  0.55027299  0.58524413  0.59926213  1
  O2-  O203  1  0.55346283  0.57798111  0.93478415  1
  O2-  O204  1  0.16898898  0.20730490  0.26408369  1
  O2-  O205  1  0.16056080  0.20537987  0.60631401  1
  O2-  O206  1  0.16856114  0.19331618  0.93981423  1
  O2-  O207  1  0.16517433  0.70150853  0.27087582  1
  O2-  O208  1  0.16672752  0.69421306  0.60139958  1
  O2-  O209  1  0.16383877  0.70973761  0.93281889  1
  O2-  O210  1  0.66558211  0.20186581  0.27249611  1
  O2-  O211  1  0.66993044  0.21209192  0.59374228  1
  O2-  O212  1  0.67357096  0.20161307  0.93504459  1
  O2-  O213  1  0.65913567  0.71135888  0.27025617  1
  O2-  O214  1  0.66663208  0.70739044  0.60045552  1
  O2-  O215  1  0.67137714  0.71066633  0.93286260  1
  O2-  O216  1  0.08543725  0.46308530  0.06849351  1
  O2-  O217  1  0.08441011  0.45546019  0.40275667  1
  O2-  O218  1  0.07976599  0.46097621  0.73353291  1
  O2-  O219  1  0.08280662  0.96052318  0.07247661  1
  O2-  O220  1  0.08481476  0.96080780  0.39051383  1
  O2-  O221  1  0.08425136  0.96298925  0.73523274  1
  O2-  O222  1  0.57768921  0.45261113  0.06679691  1
  O2-  O223  1  0.58276414  0.45509288  0.39918474  1
  O2-  O224  1  0.58805029  0.45555537  0.72393296  1
  O2-  O225  1  0.58684373  0.95970262  0.06531299  1
  O2-  O226  1  0.58628173  0.96025654  0.39482238  1
  O2-  O227  1  0.57923916  0.95006238  0.73309715  1
  O2-  O228  1  0.20693592  0.32857972  0.06689551  1
  O2-  O229  1  0.21308244  0.33085148  0.39924806  1
  O2-  O230  1  0.19943562  0.32884660  0.73560268  1
  O2-  O231  1  0.20871037  0.83110106  0.07235557  1
  O2-  O232  1  0.20018616  0.83579464  0.39377727  1
  O2-  O233  1  0.19617846  0.82512116  0.72544060  1
  O2-  O234  1  0.71033060  0.33071149  0.06807926  1
  O2-  O235  1  0.70050723  0.33230679  0.39714623  1
  O2-  O236  1  0.71004217  0.33891802  0.72522910  1
  O2-  O237  1  0.70659271  0.84038389  0.06660358  1
  O2-  O238  1  0.70309453  0.83856847  0.39419457  1
  O2-  O239  1  0.71297020  0.83145354  0.73620952  1
  O2-  O240  1  0.45315553  0.41450590  0.27353993  1
  O2-  O241  1  0.45919871  0.41829934  0.59512916  1
  O2-  O242  1  0.44676140  0.42213219  0.93498116  1
  O2-  O243  1  0.45924679  0.91204815  0.26981500  1
  O2-  O244  1  0.45791510  0.91631836  0.59696061  1
  O2-  O245  1  0.45713898  0.91703984  0.93510496  1
  O2-  O246  1  0.95072582  0.41991641  0.27618722  1
  O2-  O247  1  0.95669155  0.41549371  0.60124981  1
  O2-  O248  1  0.96178814  0.41612655  0.93260649  1
  O2-  O249  1  0.95703752  0.91565661  0.26184978  1
  O2-  O250  1  0.96076484  0.91853742  0.60140478  1
  O2-  O251  1  0.95554834  0.91905645  0.93891391  1
  O2-  O252  1  0.34040996  0.28803091  0.27068533  1
  O2-  O253  1  0.32662692  0.29161454  0.59991403  1
  O2-  O254  1  0.32969655  0.28789953  0.93286443  1
  O2-  O255  1  0.33358394  0.79826525  0.27368525  1
  O2-  O256  1  0.33148181  0.78778271  0.59603718  1
  O2-  O257  1  0.32886097  0.79344549  0.93603895  1
  O2-  O258  1  0.83385011  0.29601654  0.27134360  1
  O2-  O259  1  0.83831679  0.29691190  0.59934929  1
  O2-  O260  1  0.83795140  0.28797288  0.93397406  1
  O2-  O261  1  0.82986041  0.79072197  0.26624140  1
  O2-  O262  1  0.83570780  0.78771429  0.59910083  1
  O2-  O263  1  0.83237328  0.80498809  0.93906045  1
  O2-  O264  1  0.41665443  0.04311376  0.06568434  1
  O2-  O265  1  0.41321684  0.04036940  0.39566677  1
  O2-  O266  1  0.42467912  0.05212982  0.72940016  1
  O2-  O267  1  0.41779004  0.55294480  0.06039406  1
  O2-  O268  1  0.41806354  0.54943850  0.39674897  1
  O2-  O269  1  0.42491290  0.54876470  0.73032686  1
  O2-  O270  1  0.91258329  0.04320011  0.06854081  1
  O2-  O271  1  0.91408558  0.04253419  0.39126117  1
  O2-  O272  1  0.91681256  0.04231576  0.73818219  1
  O2-  O273  1  0.91749701  0.53923344  0.06819887  1
  O2-  O274  1  0.91417327  0.54348453  0.40735263  1
  O2-  O275  1  0.91282045  0.54452765  0.72599627  1
  O2-  O276  1  0.29620174  0.16190790  0.06692831  1
  O2-  O277  1  0.29364991  0.16010937  0.39425781  1
  O2-  O278  1  0.28797311  0.16528421  0.73730525  1
  O2-  O279  1  0.29073615  0.66358822  0.06621926  1
  O2-  O280  1  0.29764848  0.66749890  0.39502959  1
  O2-  O281  1  0.29292502  0.66747770  0.73484755  1
  O2-  O282  1  0.79474505  0.16317240  0.06766347  1
  O2-  O283  1  0.79599333  0.16353951  0.39448727  1
  O2-  O284  1  0.79686910  0.17424857  0.73143699  1
  O2-  O285  1  0.79663624  0.67340312  0.06629578  1
  O2-  O286  1  0.78362885  0.66742450  0.40306975  1
  O2-  O287  1  0.79346373  0.66295979  0.72862920  1
