# generated using pymatgen
data_Ca2Al2SiO7
_symmetry_space_group_name_H-M   'P 1'
_cell_length_a   15.47312607
_cell_length_b   15.47138246
_cell_length_c   15.29414000
_cell_angle_alpha   90.00316541
_cell_angle_beta   90.00271771
_cell_angle_gamma   90.01341337
_symmetry_Int_Tables_number   1
_chemical_formula_structural   Ca2Al2SiO7
_chemical_formula_sum   'Ca48 Al48 Si24 O168'
_cell_volume   3661.27402443
_cell_formula_units_Z   24
loop_
 _symmetry_equiv_pos_site_id
 _symmetry_equiv_pos_as_xyz
  1  'x, y, z'
loop_
 _atom_type_symbol
 _atom_type_oxidation_number
  Ca2+  2.0
  Al0+  0.0
  Si0+  0.0
  O2-  -2.0
loop_
 _atom_site_type_symbol
 _atom_site_label
 _atom_site_symmetry_multiplicity
 _atom_site_fract_x
 _atom_site_fract_y
 _atom_site_fract_z
 _atom_site_occupancy
  Ca2+  Ca0  1  0.17678991  0.08186807  0.17450859  1
  Ca2+  Ca1  1  0.17860400  0.07522890  0.50502474  1
  Ca2+  Ca2  1  0.18000217  0.08078954  0.83690382  1
  Ca2+  Ca3  1  0.17648702  0.57797841  0.17867696  1
  Ca2+  Ca4  1  0.17412811  0.57618636  0.50224296  1
  Ca2+  Ca5  1  0.16336831  0.57978271  0.82861025  1
  Ca2+  Ca6  1  0.66221976  0.07655150  0.17797423  1
  Ca2+  Ca7  1  0.65504688  0.08223542  0.50189525  1
  Ca2+  Ca8  1  0.66190310  0.08454317  0.83324355  1
  Ca2+  Ca9  1  0.67319087  0.57874332  0.18255287  1
  Ca2+  Ca10  1  0.66769540  0.57780993  0.50623408  1
  Ca2+  Ca11  1  0.65998582  0.58160462  0.82683896  1
  Ca2+  Ca12  1  0.08199834  0.33285672  0.16754265  1
  Ca2+  Ca13  1  0.07819175  0.34552519  0.49275175  1
  Ca2+  Ca14  1  0.08851816  0.32720616  0.82663942  1
  Ca2+  Ca15  1  0.08664992  0.83547468  0.16716241  1
  Ca2+  Ca16  1  0.08883945  0.83289529  0.49772161  1
  Ca2+  Ca17  1  0.08306249  0.82771044  0.82130967  1
  Ca2+  Ca18  1  0.57804253  0.33387435  0.17285382  1
  Ca2+  Ca19  1  0.57966591  0.32792408  0.49034716  1
  Ca2+  Ca20  1  0.57464248  0.32756785  0.81811931  1
  Ca2+  Ca21  1  0.58025996  0.82873917  0.16717122  1
  Ca2+  Ca22  1  0.58034826  0.82442860  0.49655378  1
  Ca2+  Ca23  1  0.57041371  0.83026009  0.82365668  1
  Ca2+  Ca24  1  0.32751407  0.41962356  0.18073879  1
  Ca2+  Ca25  1  0.32858679  0.40993377  0.50406966  1
  Ca2+  Ca26  1  0.33119470  0.41150173  0.82886919  1
  Ca2+  Ca27  1  0.33422270  0.92654824  0.17531701  1
  Ca2+  Ca28  1  0.33454633  0.92748284  0.50704729  1
  Ca2+  Ca29  1  0.34131982  0.92424902  0.83556554  1
  Ca2+  Ca30  1  0.82844848  0.42092886  0.17989370  1
  Ca2+  Ca31  1  0.82131567  0.42065859  0.50108732  1
  Ca2+  Ca32  1  0.82550494  0.42069433  0.82801250  1
  Ca2+  Ca33  1  0.82588971  0.92066996  0.17666425  1
  Ca2+  Ca34  1  0.82519267  0.91701290  0.49978524  1
  Ca2+  Ca35  1  0.83085345  0.91783383  0.83350082  1
  Ca2+  Ca36  1  0.41286063  0.16607436  0.17084176  1
  Ca2+  Ca37  1  0.41732983  0.17398742  0.49803922  1
  Ca2+  Ca38  1  0.41724594  0.16722016  0.82393196  1
  Ca2+  Ca39  1  0.42027381  0.66843297  0.16654118  1
  Ca2+  Ca40  1  0.42450251  0.66602536  0.49363374  1
  Ca2+  Ca41  1  0.41727169  0.68145476  0.82243472  1
  Ca2+  Ca42  1  0.92446191  0.17441865  0.16454373  1
  Ca2+  Ca43  1  0.92112577  0.17603989  0.49042524  1
  Ca2+  Ca44  1  0.92700827  0.16559793  0.82942180  1
  Ca2+  Ca45  1  0.91632683  0.66491832  0.16855470  1
  Ca2+  Ca46  1  0.92125633  0.65283702  0.49829185  1
  Ca2+  Ca47  1  0.92123806  0.66465290  0.82192211  1
  Al0+  Al48  1  -0.00033191  0.00028059  -0.00414923  1
  Al0+  Al49  1  -0.00072936  -0.00054847  0.33431364  1
  Al0+  Al50  1  0.00017425  -0.00080560  0.66928134  1
  Al0+  Al51  1  -0.00259652  0.49959067  -0.00025407  1
  Al0+  Al52  1  0.00091324  0.50112490  0.33078003  1
  Al0+  Al53  1  -0.00013515  0.50044754  0.67202883  1
  Al0+  Al54  1  0.49975905  0.00007281  0.00193474  1
  Al0+  Al55  1  0.50025115  -0.00092860  0.33854250  1
  Al0+  Al56  1  0.50069343  0.00050831  0.66525766  1
  Al0+  Al57  1  0.49989651  0.49883164  -0.00028092  1
  Al0+  Al58  1  0.50155805  0.49982720  0.32897288  1
  Al0+  Al59  1  0.49734259  0.50035011  0.66670255  1
  Al0+  Al60  1  0.24962045  0.24866369  0.00082887  1
  Al0+  Al61  1  0.24885895  0.24866828  0.33681342  1
  Al0+  Al62  1  0.25023929  0.24676130  0.67135298  1
  Al0+  Al63  1  0.24945062  0.74975431  -0.00462872  1
  Al0+  Al64  1  0.24900964  0.74870861  0.33720254  1
  Al0+  Al65  1  0.24634372  0.75008670  0.66067885  1
  Al0+  Al66  1  0.75100147  0.25082451  0.00043065  1
  Al0+  Al67  1  0.75229985  0.25049934  0.32546139  1
  Al0+  Al68  1  0.75219663  0.25031836  0.66950341  1
  Al0+  Al69  1  0.75086553  0.74897387  -0.00076895  1
  Al0+  Al70  1  0.75236947  0.75232940  0.33584547  1
  Al0+  Al71  1  0.75097152  0.75226169  0.66901795  1
  Al0+  Al72  1  0.57045674  0.17752044  0.31706576  1
  Al0+  Al73  1  0.43044830  0.82072336  0.98829349  1
  Al0+  Al74  1  0.82164779  0.57260019  0.34750806  1
  Al0+  Al75  1  0.17752566  0.92716990  0.68363296  1
  Al0+  Al76  1  0.32224787  0.07123790  0.35091001  1
  Al0+  Al77  1  0.17954561  0.42957682  0.68120671  1
  Al0+  Al78  1  0.07112983  0.18023634  0.98562349  1
  Al0+  Al79  1  0.17696630  0.92853318  0.34735791  1
  Al0+  Al80  1  0.67898016  0.92961632  0.34724407  1
  Al0+  Al81  1  0.32194049  0.06800011  0.68458461  1
  Al0+  Al82  1  0.18019121  0.42883895  0.34633120  1
  Al0+  Al83  1  0.81905938  0.57138445  0.68264226  1
  Al0+  Al84  1  0.42653923  0.32038243  0.65293545  1
  Al0+  Al85  1  0.67900891  0.42727896  0.34644782  1
  Al0+  Al86  1  0.67559664  0.42757728  0.68166970  1
  Al0+  Al87  1  0.93063993  0.32290262  0.31973967  1
  Al0+  Al88  1  0.42647060  0.32088552  0.31787630  1
  Al0+  Al89  1  0.57340659  0.67900579  0.31987659  1
  Al0+  Al90  1  0.57125683  0.67945243  0.65160006  1
  Al0+  Al91  1  0.57438825  0.18050731  0.65295245  1
  Al0+  Al92  1  0.42697404  0.82234473  0.64962546  1
  Al0+  Al93  1  0.32433097  0.57138981  0.34696082  1
  Al0+  Al94  1  0.06890027  0.67768658  0.65079139  1
  Al0+  Al95  1  0.32123777  0.07033630  0.01657057  1
  Si0+  Si96  1  0.82064208  0.57077580  0.01591691  1
  Si0+  Si97  1  0.57346490  0.67702571  0.98354915  1
  Si0+  Si98  1  0.68056563  0.93023071  0.01408292  1
  Si0+  Si99  1  0.92723961  0.32281400  0.97986565  1
  Si0+  Si100  1  0.06949133  0.67853500  0.98536330  1
  Si0+  Si101  1  0.92971580  0.82330621  0.31730660  1
  Si0+  Si102  1  0.82315357  0.07270563  0.68241604  1
  Si0+  Si103  1  0.32198786  0.57359969  0.68374090  1
  Si0+  Si104  1  0.92796357  0.82390706  0.64837006  1
  Si0+  Si105  1  0.32024751  0.57255328  0.01281151  1
  Si0+  Si106  1  0.07101045  0.67992300  0.31659058  1
  Si0+  Si107  1  0.57157112  0.17949037  0.98677066  1
  Si0+  Si108  1  0.67807932  0.42829733  0.01565223  1
  Si0+  Si109  1  0.17904986  0.42937758  0.01405859  1
  Si0+  Si110  1  0.93146777  0.32050773  0.65265923  1
  Si0+  Si111  1  0.07066414  0.17555665  0.31768787  1
  Si0+  Si112  1  0.82183692  0.07254628  0.34805707  1
  Si0+  Si113  1  0.82314898  0.07134357  0.01524328  1
  Si0+  Si114  1  0.42730589  0.82000168  0.31741018  1
  Si0+  Si115  1  0.68037531  0.93081971  0.68319002  1
  Si0+  Si116  1  0.17661961  0.92635687  0.01565528  1
  Si0+  Si117  1  0.92742262  0.82077051  0.98467627  1
  Si0+  Si118  1  0.07057012  0.17767476  0.65162802  1
  Si0+  Si119  1  0.42887665  0.32162280  0.98530099  1
  O2-  O120  1  0.24544858  -0.00564663  0.05980540  1
  O2-  O121  1  0.25106357  -0.00327838  0.39756538  1
  O2-  O122  1  0.25253583  -0.00625456  0.73595477  1
  O2-  O123  1  0.24995425  0.50064509  0.05515079  1
  O2-  O124  1  0.25844112  0.49346061  0.39591531  1
  O2-  O125  1  0.25517224  0.50286207  0.72940366  1
  O2-  O126  1  0.75122629  0.00147160  0.05710344  1
  O2-  O127  1  0.74875209  0.00972620  0.39302748  1
  O2-  O128  1  0.74972126  0.00410121  0.72537901  1
  O2-  O129  1  0.74779946  0.50159372  0.05654469  1
  O2-  O130  1  0.74595213  0.50429389  0.39540466  1
  O2-  O131  1  0.74373730  0.50331732  0.73364909  1
  O2-  O132  1  0.00567305  0.24808906  0.27335860  1
  O2-  O133  1  0.00248696  0.25065736  0.60911594  1
  O2-  O134  1  -0.00278541  0.25533831  0.93619455  1
  O2-  O135  1  0.00149822  0.75313530  0.27437741  1
  O2-  O136  1  -0.00482875  0.75417225  0.60487233  1
  O2-  O137  1  -0.00015792  0.75126364  0.94340497  1
  O2-  O138  1  0.49777568  0.24828663  0.26565022  1
  O2-  O139  1  0.50583560  0.25587113  0.60476558  1
  O2-  O140  1  0.50172999  0.25135803  0.94505396  1
  O2-  O141  1  0.49601126  0.75124086  0.27213482  1
  O2-  O142  1  0.49594196  0.74696179  0.60103554  1
  O2-  O143  1  0.50357709  0.74462999  0.94096351  1
  O2-  O144  1  0.06792954  0.18192818  0.09845855  1
  O2-  O145  1  0.06533676  0.17127968  0.42281572  1
  O2-  O146  1  0.06745739  0.17880043  0.75732455  1
  O2-  O147  1  0.06865666  0.67800008  0.09039571  1
  O2-  O148  1  0.06863435  0.67769673  0.42081449  1
  O2-  O149  1  0.06480920  0.67756392  0.76521749  1
  O2-  O150  1  0.57331795  0.17862911  0.09118210  1
  O2-  O151  1  0.57247352  0.17948192  0.42968251  1
  O2-  O152  1  0.57366411  0.18039690  0.76796967  1
  O2-  O153  1  0.57614670  0.67804347  0.08890808  1
  O2-  O154  1  0.57608483  0.68267341  0.43200363  1
  O2-  O155  1  0.57011778  0.68440298  0.76636463  1
  O2-  O156  1  0.17800338  0.43329202  0.23149333  1
  O2-  O157  1  0.17692746  0.43129939  0.56912309  1
  O2-  O158  1  0.17866168  0.43010877  0.90905739  1
  O2-  O159  1  0.17625524  0.93085519  0.23271429  1
  O2-  O160  1  0.17210587  0.93405497  0.57110944  1
  O2-  O161  1  0.17523860  0.92560208  0.91077037  1
  O2-  O162  1  0.68288998  0.42888259  0.23160037  1
  O2-  O163  1  0.68073589  0.42270132  0.56936100  1
  O2-  O164  1  0.67814445  0.42746803  0.91088951  1
  O2-  O165  1  0.68298112  0.92894799  0.23296336  1
  O2-  O166  1  0.68320110  0.92992639  0.57866516  1
  O2-  O167  1  0.68265380  0.93123524  0.90894526  1
  O2-  O168  1  0.42877650  0.32476765  0.08977710  1
  O2-  O169  1  0.42555328  0.31939025  0.43043874  1
  O2-  O170  1  0.42664662  0.31624121  0.76804480  1
  O2-  O171  1  0.43257317  0.81916052  0.10121743  1
  O2-  O172  1  0.42827990  0.81858083  0.42230609  1
  O2-  O173  1  0.43148891  0.82253594  0.76430545  1
  O2-  O174  1  0.92705458  0.32339141  0.08516839  1
  O2-  O175  1  0.93154356  0.32104025  0.43290317  1
  O2-  O176  1  0.93213776  0.31744783  0.75834803  1
  O2-  O177  1  0.92451519  0.82067498  0.08955145  1
  O2-  O178  1  0.92949619  0.82753721  0.42144144  1
  O2-  O179  1  0.92823595  0.82463712  0.75495875  1
  O2-  O180  1  0.31991987  0.06898079  0.23626761  1
  O2-  O181  1  0.31953023  0.06964884  0.57201442  1
  O2-  O182  1  0.32274379  0.07071718  0.90420798  1
  O2-  O183  1  0.31821747  0.57405278  0.23191984  1
  O2-  O184  1  0.32080643  0.57404877  0.57886617  1
  O2-  O185  1  0.31923700  0.57335982  0.90808561  1
  O2-  O186  1  0.82456726  0.06742359  0.24187030  1
  O2-  O187  1  0.82754307  0.07154679  0.57799181  1
  O2-  O188  1  0.82324326  0.07022598  0.91004764  1
  O2-  O189  1  0.82175281  0.57129628  0.23255445  1
  O2-  O190  1  0.82113509  0.56725665  0.57014556  1
  O2-  O191  1  0.82380430  0.57186006  0.91151915  1
  O2-  O192  1  0.03938219  0.08468380  0.26788771  1
  O2-  O193  1  0.03787485  0.08733055  0.60562809  1
  O2-  O194  1  0.03809908  0.08418654  0.93071247  1
  O2-  O195  1  0.04004646  0.59089025  0.26495209  1
  O2-  O196  1  0.03450292  0.58125131  0.59940357  1
  O2-  O197  1  0.03872662  0.58716885  0.93816611  1
  O2-  O198  1  0.54306714  0.07681528  0.26609788  1
  O2-  O199  1  0.54586924  0.08221291  0.60256311  1
  O2-  O200  1  0.54415689  0.08747520  0.93969917  1
  O2-  O201  1  0.54718193  0.58291711  0.26217204  1
  O2-  O202  1  0.54874803  0.57864150  0.60325727  1
  O2-  O203  1  0.54842847  0.58250675  0.93899625  1
  O2-  O204  1  0.16460462  0.19910014  0.27274024  1
  O2-  O205  1  0.16328571  0.20235201  0.60781953  1
  O2-  O206  1  0.16720406  0.21204801  0.93110735  1
  O2-  O207  1  0.16272446  0.70685777  0.26732896  1
  O2-  O208  1  0.16496139  0.70367609  0.59547732  1
  O2-  O209  1  0.16119556  0.70299726  0.93672395  1
  O2-  O210  1  0.66983944  0.20334234  0.26260389  1
  O2-  O211  1  0.67620863  0.20065574  0.60355154  1
  O2-  O212  1  0.66512928  0.20459607  0.94024320  1
  O2-  O213  1  0.66959332  0.71516142  0.26526924  1
  O2-  O214  1  0.66992378  0.71202075  0.60267971  1
  O2-  O215  1  0.66711925  0.70332925  0.93740427  1
  O2-  O216  1  0.08560401  0.45671514  0.05911125  1
  O2-  O217  1  0.08440929  0.46524740  0.39765581  1
  O2-  O218  1  0.08493107  0.46204965  0.73916121  1
  O2-  O219  1  0.08136730  0.95148303  0.05976727  1
  O2-  O220  1  0.07852598  0.95673261  0.39976077  1
  O2-  O221  1  0.07912489  0.95821764  0.73802251  1
  O2-  O222  1  0.58505142  0.45352382  0.06205204  1
  O2-  O223  1  0.57883341  0.44918550  0.39466205  1
  O2-  O224  1  0.57644443  0.45374650  0.73601621  1
  O2-  O225  1  0.59002086  0.95824065  0.06243650  1
  O2-  O226  1  0.58292453  0.95396309  0.40260862  1
  O2-  O227  1  0.58941271  0.95856734  0.73186580  1
  O2-  O228  1  0.20624433  0.33801458  0.06133818  1
  O2-  O229  1  0.19587827  0.32815296  0.39739264  1
  O2-  O230  1  0.20959032  0.33282647  0.73637480  1
  O2-  O231  1  0.20046587  0.83121599  0.06024919  1
  O2-  O232  1  0.19803561  0.82818244  0.39690828  1
  O2-  O233  1  0.19744350  0.82467577  0.73162749  1
  O2-  O234  1  0.70821209  0.33690474  0.06256657  1
  O2-  O235  1  0.71390103  0.32995135  0.39615073  1
  O2-  O236  1  0.71204811  0.33169306  0.73823291  1
  O2-  O237  1  0.70963781  0.83763856  0.05977437  1
  O2-  O238  1  0.71790843  0.83776869  0.40285021  1
  O2-  O239  1  0.71133501  0.84170841  0.73439632  1
  O2-  O240  1  0.45467265  0.41888643  0.26176248  1
  O2-  O241  1  0.44199639  0.42296724  0.60658624  1
  O2-  O242  1  0.45552585  0.41369221  0.93672608  1
  O2-  O243  1  0.45538566  0.91350214  0.27264131  1
  O2-  O244  1  0.46170260  0.91845544  0.59832867  1
  O2-  O245  1  0.46514334  0.91626663  0.93400118  1
  O2-  O246  1  0.96327645  0.41769411  0.26163325  1
  O2-  O247  1  0.96042289  0.41202490  0.60790139  1
  O2-  O248  1  0.95160359  0.41730364  0.93492263  1
  O2-  O249  1  0.95692050  0.91438890  0.26617899  1
  O2-  O250  1  0.95368510  0.91766183  0.60306567  1
  O2-  O251  1  0.95131420  0.91321198  0.93654860  1
  O2-  O252  1  0.32650862  0.29265831  0.26495966  1
  O2-  O253  1  0.32977983  0.28547319  0.60141517  1
  O2-  O254  1  0.33700164  0.29317790  0.93916524  1
  O2-  O255  1  0.33318293  0.79449186  0.27130744  1
  O2-  O256  1  0.32647666  0.80151304  0.60032646  1
  O2-  O257  1  0.33348503  0.79191841  0.93322768  1
  O2-  O258  1  0.83749175  0.29066842  0.25947934  1
  O2-  O259  1  0.84022445  0.29134861  0.60659979  1
  O2-  O260  1  0.83404265  0.29415488  0.93407949  1
  O2-  O261  1  0.83945860  0.79445771  0.26689378  1
  O2-  O262  1  0.83334895  0.80132758  0.60475437  1
  O2-  O263  1  0.83659201  0.79151607  0.93511597  1
  O2-  O264  1  0.41814156  0.03905228  0.07006720  1
  O2-  O265  1  0.41993304  0.04391907  0.40315725  1
  O2-  O266  1  0.42185290  0.04082748  0.73699989  1
  O2-  O267  1  0.41347779  0.54620940  0.05867687  1
  O2-  O268  1  0.42566367  0.55295569  0.39414323  1
  O2-  O269  1  0.41520117  0.55199544  0.73271967  1
  O2-  O270  1  0.91400682  0.04123246  0.06293027  1
  O2-  O271  1  0.91228330  0.04128306  0.39635846  1
  O2-  O272  1  0.91198421  0.03995556  0.73390169  1
  O2-  O273  1  0.91224850  0.54212670  0.06429596  1
  O2-  O274  1  0.91890358  0.53996434  0.39749920  1
  O2-  O275  1  0.91467773  0.53681379  0.73893169  1
  O2-  O276  1  0.28839345  0.16714509  0.06936001  1
  O2-  O277  1  0.29180661  0.16814904  0.40296969  1
  O2-  O278  1  0.28869262  0.16435234  0.73976753  1
  O2-  O279  1  0.29071681  0.66359851  0.06079821  1
  O2-  O280  1  0.28924191  0.66592310  0.40141029  1
  O2-  O281  1  0.29107814  0.66620413  0.72941405  1
  O2-  O282  1  0.79800500  0.16463704  0.06097638  1
  O2-  O283  1  0.80367377  0.16843367  0.38982320  1
  O2-  O284  1  0.79946426  0.16377330  0.73341755  1
  O2-  O285  1  0.79586355  0.66426795  0.06250683  1
  O2-  O286  1  0.80287538  0.67305520  0.39764314  1
  O2-  O287  1  0.79662924  0.67223903  0.73554499  1
