# generated using pymatgen
data_Ca2Al2SiO7
_symmetry_space_group_name_H-M   'P 1'
_cell_length_a   15.46081997
_cell_length_b   15.46192328
_cell_length_c   15.28590061
_cell_angle_alpha   90.01369423
_cell_angle_beta   89.99736038
_cell_angle_gamma   89.99408791
_symmetry_Int_Tables_number   1
_chemical_formula_structural   Ca2Al2SiO7
_chemical_formula_sum   'Ca48 Al48 Si24 O168'
_cell_volume   3654.15574170
_cell_formula_units_Z   24
loop_
 _symmetry_equiv_pos_site_id
 _symmetry_equiv_pos_as_xyz
  1  'x, y, z'
loop_
 _atom_type_symbol
 _atom_type_oxidation_number
  Ca2+  2.0
  Al0+  0.0
  Si0+  0.0
  O2-  -2.0
loop_
 _atom_site_type_symbol
 _atom_site_label
 _atom_site_symmetry_multiplicity
 _atom_site_fract_x
 _atom_site_fract_y
 _atom_site_fract_z
 _atom_site_occupancy
  Ca2+  Ca0  1  0.16411442  0.07660507  0.17010986  1
  Ca2+  Ca1  1  0.17387151  0.07379895  0.50008100  1
  Ca2+  Ca2  1  0.16226282  0.07276167  0.83941523  1
  Ca2+  Ca3  1  0.17386980  0.57423129  0.16953650  1
  Ca2+  Ca4  1  0.17065406  0.57880093  0.50813403  1
  Ca2+  Ca5  1  0.16079236  0.57273270  0.83492892  1
  Ca2+  Ca6  1  0.67686581  0.08602178  0.17015921  1
  Ca2+  Ca7  1  0.67676559  0.08942725  0.50493258  1
  Ca2+  Ca8  1  0.67443087  0.09423811  0.83748600  1
  Ca2+  Ca9  1  0.66340425  0.57775258  0.17043104  1
  Ca2+  Ca10  1  0.66302109  0.58483039  0.50050182  1
  Ca2+  Ca11  1  0.66692306  0.57479177  0.84166073  1
  Ca2+  Ca12  1  0.07781463  0.32329956  0.15296329  1
  Ca2+  Ca13  1  0.08374356  0.33379179  0.49752849  1
  Ca2+  Ca14  1  0.08703893  0.32944268  0.83140928  1
  Ca2+  Ca15  1  0.08099707  0.84048941  0.15868378  1
  Ca2+  Ca16  1  0.08324136  0.84093552  0.50186803  1
  Ca2+  Ca17  1  0.07709129  0.83607709  0.82562766  1
  Ca2+  Ca18  1  0.57257596  0.32787786  0.15685639  1
  Ca2+  Ca19  1  0.57289357  0.32624018  0.49806760  1
  Ca2+  Ca20  1  0.57801351  0.32676036  0.83244064  1
  Ca2+  Ca21  1  0.59134951  0.82886227  0.16739638  1
  Ca2+  Ca22  1  0.58007328  0.83176946  0.49326922  1
  Ca2+  Ca23  1  0.57498386  0.83239023  0.82612607  1
  Ca2+  Ca24  1  0.33260282  0.41283098  0.17113885  1
  Ca2+  Ca25  1  0.33746083  0.42008854  0.50398628  1
  Ca2+  Ca26  1  0.32778140  0.40981549  0.83640247  1
  Ca2+  Ca27  1  0.32088202  0.92671645  0.17536769  1
  Ca2+  Ca28  1  0.32695500  0.91479219  0.50634294  1
  Ca2+  Ca29  1  0.32329820  0.91152008  0.83721270  1
  Ca2+  Ca30  1  0.82511235  0.40660956  0.16455064  1
  Ca2+  Ca31  1  0.83034572  0.41995036  0.50727003  1
  Ca2+  Ca32  1  0.82845307  0.41534893  0.84424622  1
  Ca2+  Ca33  1  0.83325230  0.92832165  0.17139274  1
  Ca2+  Ca34  1  0.82798077  0.92450471  0.50462119  1
  Ca2+  Ca35  1  0.84138498  0.92571638  0.83740630  1
  Ca2+  Ca36  1  0.41676299  0.17275266  0.15880505  1
  Ca2+  Ca37  1  0.40906771  0.17691140  0.49456939  1
  Ca2+  Ca38  1  0.42766127  0.17426073  0.82640534  1
  Ca2+  Ca39  1  0.41812365  0.66359663  0.17007537  1
  Ca2+  Ca40  1  0.41690066  0.67152328  0.49419199  1
  Ca2+  Ca41  1  0.41551632  0.67266881  0.82876707  1
  Ca2+  Ca42  1  0.91936994  0.16341852  0.15597725  1
  Ca2+  Ca43  1  0.91537692  0.15893153  0.49987557  1
  Ca2+  Ca44  1  0.91801271  0.16485929  0.83627435  1
  Ca2+  Ca45  1  0.91962697  0.67856962  0.15884015  1
  Ca2+  Ca46  1  0.92561846  0.67221457  0.49992473  1
  Ca2+  Ca47  1  0.92205127  0.68142149  0.82560929  1
  Al0+  Al48  1  -0.00132240  -0.00002663  0.00010852  1
  Al0+  Al49  1  -0.00097173  0.00035718  0.34080115  1
  Al0+  Al50  1  -0.00054478  0.00149962  0.66918108  1
  Al0+  Al51  1  0.00080762  0.50158566  0.00400024  1
  Al0+  Al52  1  -0.00183914  0.50130436  0.33006228  1
  Al0+  Al53  1  0.00028747  0.50113413  0.66743278  1
  Al0+  Al54  1  0.50057957  -0.00199642  -0.00346791  1
  Al0+  Al55  1  0.49998176  0.00120905  0.33756832  1
  Al0+  Al56  1  0.50312928  -0.00021310  0.65785346  1
  Al0+  Al57  1  0.50102407  0.50068118  0.00021789  1
  Al0+  Al58  1  0.49888543  0.49996700  0.32966122  1
  Al0+  Al59  1  0.50017195  0.49888512  0.66561498  1
  Al0+  Al60  1  0.24928739  0.24900318  -0.00439321  1
  Al0+  Al61  1  0.24538312  0.24862874  0.33114653  1
  Al0+  Al62  1  0.24987614  0.25019980  0.66563885  1
  Al0+  Al63  1  0.24996672  0.74848327  0.00622797  1
  Al0+  Al64  1  0.24952734  0.74631525  0.33848932  1
  Al0+  Al65  1  0.25115173  0.74819615  0.66412718  1
  Al0+  Al66  1  0.75007146  0.25073950  0.00342398  1
  Al0+  Al67  1  0.74810487  0.25211142  0.33904135  1
  Al0+  Al68  1  0.75057224  0.25134554  0.66721528  1
  Al0+  Al69  1  0.75058842  0.75010231  -0.00601792  1
  Al0+  Al70  1  0.75120138  0.74956007  0.33220628  1
  Al0+  Al71  1  0.75186207  0.75164490  0.66367346  1
  Al0+  Al72  1  0.42762898  0.31989122  0.64976463  1
  Al0+  Al73  1  0.17938798  0.92784687  0.34955416  1
  Al0+  Al74  1  0.92996596  0.82456215  0.64821899  1
  Al0+  Al75  1  0.93006507  0.82096803  0.98705251  1
  Al0+  Al76  1  0.07062966  0.17785168  0.98408319  1
  Al0+  Al77  1  0.32118651  0.07402324  0.34640266  1
  Al0+  Al78  1  0.92890013  0.32252129  0.98633449  1
  Al0+  Al79  1  0.81891744  0.07272257  0.34997767  1
  Al0+  Al80  1  0.81806033  0.06923329  0.01306812  1
  Al0+  Al81  1  0.67977521  0.43006826  0.01468911  1
  Al0+  Al82  1  0.42813988  0.31855665  0.31812058  1
  Al0+  Al83  1  0.81902529  0.07088817  0.68447681  1
  Al0+  Al84  1  0.67920173  0.92614010  0.34765849  1
  Al0+  Al85  1  0.32142601  0.56724636  0.34768874  1
  Al0+  Al86  1  0.18249311  0.92962403  0.68170774  1
  Al0+  Al87  1  0.17902132  0.42671723  0.01409024  1
  Al0+  Al88  1  0.07054825  0.67798156  0.65126137  1
  Al0+  Al89  1  0.17917554  0.92948764  0.01275056  1
  Al0+  Al90  1  0.42769240  0.32275693  0.98406814  1
  Al0+  Al91  1  0.57418921  0.17985949  0.64934264  1
  Al0+  Al92  1  0.57145698  0.17701542  0.98674224  1
  Al0+  Al93  1  0.57059539  0.68144023  0.31896314  1
  Al0+  Al94  1  0.42916321  0.82054869  0.65320623  1
  Al0+  Al95  1  0.17872051  0.42856623  0.67996879  1
  Si0+  Si96  1  0.67863087  0.43126482  0.34980383  1
  Si0+  Si97  1  0.17530933  0.42848713  0.34854026  1
  Si0+  Si98  1  0.32498044  0.07270487  0.68297485  1
  Si0+  Si99  1  0.57442760  0.17782308  0.31642538  1
  Si0+  Si100  1  0.07108517  0.17895035  0.65054207  1
  Si0+  Si101  1  0.82195760  0.57160921  0.34841031  1
  Si0+  Si102  1  0.57141382  0.67925999  0.98484529  1
  Si0+  Si103  1  0.06614809  0.17911734  0.31981910  1
  Si0+  Si104  1  0.92969234  0.32193513  0.65251694  1
  Si0+  Si105  1  0.92656469  0.32406989  0.31966490  1
  Si0+  Si106  1  0.93233303  0.82010190  0.31848703  1
  Si0+  Si107  1  0.32278329  0.57189898  0.01763154  1
  Si0+  Si108  1  0.32466621  0.07051444  0.01281608  1
  Si0+  Si109  1  0.82186742  0.57262520  0.68163712  1
  Si0+  Si110  1  0.67716553  0.92576182  0.68411858  1
  Si0+  Si111  1  0.07459463  0.67833027  0.98508966  1
  Si0+  Si112  1  0.67482174  0.92449273  0.01471628  1
  Si0+  Si113  1  0.42513058  0.82357922  0.31597278  1
  Si0+  Si114  1  0.57289941  0.67722051  0.65159015  1
  Si0+  Si115  1  0.82154023  0.57498330  0.01700482  1
  Si0+  Si116  1  0.07259354  0.67605292  0.31589335  1
  Si0+  Si117  1  0.42733967  0.81955341  0.98816600  1
  Si0+  Si118  1  0.67982441  0.43156426  0.68167595  1
  Si0+  Si119  1  0.32369266  0.57076916  0.68394127  1
  O2-  O120  1  0.25341899  0.00478554  0.05794758  1
  O2-  O121  1  0.25773594  -0.00552188  0.39730160  1
  O2-  O122  1  0.25924075  0.00208687  0.72915514  1
  O2-  O123  1  0.25725596  0.49875436  0.05964091  1
  O2-  O124  1  0.24584506  0.49370313  0.39418465  1
  O2-  O125  1  0.25519797  0.50163905  0.72698503  1
  O2-  O126  1  0.74133918  -0.00451643  0.05779635  1
  O2-  O127  1  0.74441121  0.00313771  0.39946305  1
  O2-  O128  1  0.74389724  -0.00458763  0.72942491  1
  O2-  O129  1  0.75646039  0.50337802  0.06245782  1
  O2-  O130  1  0.75163259  0.50062962  0.39218497  1
  O2-  O131  1  0.74783223  0.50542774  0.72398936  1
  O2-  O132  1  -0.00531790  0.25044444  0.27893798  1
  O2-  O133  1  0.00095993  0.25212108  0.60908355  1
  O2-  O134  1  0.00295040  0.25460022  0.93383864  1
  O2-  O135  1  0.00671089  0.75259144  0.27511682  1
  O2-  O136  1  0.00329717  0.75322339  0.59851804  1
  O2-  O137  1  0.00552083  0.74645712  0.94147670  1
  O2-  O138  1  0.49973712  0.24016014  0.27269965  1
  O2-  O139  1  0.49593121  0.24481625  0.59899432  1
  O2-  O140  1  0.49864269  0.24840089  0.93676880  1
  O2-  O141  1  0.49834207  0.75884654  0.27120429  1
  O2-  O142  1  0.50640244  0.74741931  0.60789584  1
  O2-  O143  1  0.50022861  0.75042683  0.94471101  1
  O2-  O144  1  0.06759794  0.17640634  0.09833402  1
  O2-  O145  1  0.06659401  0.18098239  0.42516409  1
  O2-  O146  1  0.07089770  0.17880605  0.75527405  1
  O2-  O147  1  0.07424101  0.67992323  0.09121882  1
  O2-  O148  1  0.06831987  0.66914483  0.42019430  1
  O2-  O149  1  0.06557504  0.67542495  0.76481156  1
  O2-  O150  1  0.56953077  0.17715898  0.10061747  1
  O2-  O151  1  0.58013532  0.18517804  0.42138808  1
  O2-  O152  1  0.57599903  0.18562000  0.76273917  1
  O2-  O153  1  0.57330628  0.67904070  0.08972957  1
  O2-  O154  1  0.56957368  0.68033872  0.43204262  1
  O2-  O155  1  0.57218462  0.67589748  0.75760605  1
  O2-  O156  1  0.17370300  0.43073021  0.24307417  1
  O2-  O157  1  0.17595677  0.43088350  0.56669711  1
  O2-  O158  1  0.17781359  0.43085761  0.90109120  1
  O2-  O159  1  0.17591361  0.93140119  0.23569298  1
  O2-  O160  1  0.18322634  0.93242630  0.56883218  1
  O2-  O161  1  0.18142270  0.92690446  0.89980867  1
  O2-  O162  1  0.68054907  0.43115092  0.24488829  1
  O2-  O163  1  0.68154544  0.43348539  0.57610847  1
  O2-  O164  1  0.67979107  0.43437352  0.90127672  1
  O2-  O165  1  0.68678338  0.92295250  0.23391297  1
  O2-  O166  1  0.68009499  0.92225615  0.57887928  1
  O2-  O167  1  0.67349625  0.92049391  0.90951608  1
  O2-  O168  1  0.42961814  0.32241271  0.09809768  1
  O2-  O169  1  0.43055327  0.32066337  0.43094023  1
  O2-  O170  1  0.42998431  0.32166429  0.76285615  1
  O2-  O171  1  0.42673043  0.81814390  0.09284354  1
  O2-  O172  1  0.42412533  0.81814338  0.42135721  1
  O2-  O173  1  0.42934810  0.81674578  0.76728941  1
  O2-  O174  1  0.92913146  0.31888875  0.10056970  1
  O2-  O175  1  0.92883406  0.32934220  0.42496179  1
  O2-  O176  1  0.92840864  0.32346083  0.75695971  1
  O2-  O177  1  0.92991693  0.81974236  0.10086493  1
  O2-  O178  1  0.93227717  0.81767131  0.42312658  1
  O2-  O179  1  0.93053259  0.82231289  0.76190843  1
  O2-  O180  1  0.31553268  0.07508133  0.23250546  1
  O2-  O181  1  0.31975266  0.07326699  0.57739665  1
  O2-  O182  1  0.32734959  0.06505886  0.90745037  1
  O2-  O183  1  0.32012241  0.56611129  0.23441239  1
  O2-  O184  1  0.32569471  0.56904890  0.57839396  1
  O2-  O185  1  0.32232907  0.57753742  0.91233855  1
  O2-  O186  1  0.82159504  0.07281696  0.23650120  1
  O2-  O187  1  0.81806127  0.07173842  0.57142990  1
  O2-  O188  1  0.81887909  0.06818493  0.90026513  1
  O2-  O189  1  0.82271026  0.57154679  0.24362577  1
  O2-  O190  1  0.82199402  0.56938193  0.57602842  1
  O2-  O191  1  0.81697990  0.57703879  0.91129771  1
  O2-  O192  1  0.03738065  0.08697247  0.27346882  1
  O2-  O193  1  0.03932360  0.08929538  0.60230435  1
  O2-  O194  1  0.03639014  0.08199377  0.93034430  1
  O2-  O195  1  0.03832956  0.58733972  0.26488494  1
  O2-  O196  1  0.03577760  0.58162480  0.59603058  1
  O2-  O197  1  0.04903966  0.58450548  0.94052949  1
  O2-  O198  1  0.55859531  0.08025423  0.27535691  1
  O2-  O199  1  0.55802866  0.07843380  0.59910273  1
  O2-  O200  1  0.54748321  0.07760624  0.93235358  1
  O2-  O201  1  0.53710499  0.58599772  0.26364939  1
  O2-  O202  1  0.54650487  0.58442720  0.60442009  1
  O2-  O203  1  0.54293976  0.58862343  0.93587006  1
  O2-  O204  1  0.15642383  0.20632114  0.26962678  1
  O2-  O205  1  0.16240303  0.20604414  0.60220233  1
  O2-  O206  1  0.16988615  0.19992337  0.93090619  1
  O2-  O207  1  0.16681758  0.69795910  0.27123293  1
  O2-  O208  1  0.17084470  0.69961722  0.60061741  1
  O2-  O209  1  0.16852547  0.70283695  0.93989370  1
  O2-  O210  1  0.66613450  0.21169404  0.26973366  1
  O2-  O211  1  0.66959030  0.21861967  0.59557419  1
  O2-  O212  1  0.66865452  0.21012402  0.93548448  1
  O2-  O213  1  0.66892303  0.70799417  0.26417485  1
  O2-  O214  1  0.66754506  0.69904184  0.60596317  1
  O2-  O215  1  0.66209609  0.70528088  0.93425437  1
  O2-  O216  1  0.08346267  0.45975558  0.07063623  1
  O2-  O217  1  0.08183022  0.45746735  0.39413487  1
  O2-  O218  1  0.08243060  0.46122450  0.73440825  1
  O2-  O219  1  0.08344075  0.96142101  0.06702403  1
  O2-  O220  1  0.08407000  0.96269359  0.40441244  1
  O2-  O221  1  0.08578702  0.96315914  0.73345241  1
  O2-  O222  1  0.58451101  0.46499109  0.06934357  1
  O2-  O223  1  0.58849289  0.46346167  0.39643827  1
  O2-  O224  1  0.58777442  0.45810306  0.72918145  1
  O2-  O225  1  0.58030720  0.94551088  0.06140569  1
  O2-  O226  1  0.57673223  0.94287793  0.39587925  1
  O2-  O227  1  0.58132461  0.94822413  0.72721258  1
  O2-  O228  1  0.20523359  0.32803636  0.06677274  1
  O2-  O229  1  0.19570850  0.33329872  0.39206788  1
  O2-  O230  1  0.20691613  0.33089500  0.73305005  1
  O2-  O231  1  0.20941831  0.83332188  0.06869907  1
  O2-  O232  1  0.20021915  0.82691140  0.39968092  1
  O2-  O233  1  0.21107951  0.83070643  0.73271187  1
  O2-  O234  1  0.70991484  0.33512968  0.07165103  1
  O2-  O235  1  0.70588988  0.34097880  0.40004638  1
  O2-  O236  1  0.71228977  0.34198881  0.72891425  1
  O2-  O237  1  0.70395051  0.83115292  0.06020903  1
  O2-  O238  1  0.71250824  0.82917688  0.40178964  1
  O2-  O239  1  0.70230148  0.83117481  0.73029064  1
  O2-  O240  1  0.46299263  0.41386989  0.26445868  1
  O2-  O241  1  0.46064659  0.41828099  0.59810228  1
  O2-  O242  1  0.45836579  0.42152791  0.93263952  1
  O2-  O243  1  0.44417026  0.92014974  0.27332194  1
  O2-  O244  1  0.45585972  0.91651015  0.59670037  1
  O2-  O245  1  0.45223576  0.91022984  0.93789168  1
  O2-  O246  1  0.95373762  0.41477681  0.26947330  1
  O2-  O247  1  0.95630354  0.41363833  0.60362884  1
  O2-  O248  1  0.95027543  0.42493241  0.93819267  1
  O2-  O249  1  0.95824502  0.91389440  0.27389577  1
  O2-  O250  1  0.95921980  0.92305289  0.59672407  1
  O2-  O251  1  0.96188759  0.91559827  0.93235199  1
  O2-  O252  1  0.32852075  0.29199253  0.26705502  1
  O2-  O253  1  0.32790597  0.29518763  0.59676088  1
  O2-  O254  1  0.32913740  0.29737261  0.93181513  1
  O2-  O255  1  0.33279558  0.79112850  0.27019942  1
  O2-  O256  1  0.33518947  0.78651609  0.59713462  1
  O2-  O257  1  0.33687292  0.78717612  0.94011786  1
  O2-  O258  1  0.83261334  0.29866677  0.27577879  1
  O2-  O259  1  0.83861385  0.29427462  0.60339888  1
  O2-  O260  1  0.83064224  0.29386804  0.93455675  1
  O2-  O261  1  0.84253994  0.78731289  0.27045589  1
  O2-  O262  1  0.83165735  0.79341126  0.59611636  1
  O2-  O263  1  0.83458285  0.78963814  0.93039606  1
  O2-  O264  1  0.41655774  0.04192089  0.06172692  1
  O2-  O265  1  0.42318803  0.05936789  0.39631506  1
  O2-  O266  1  0.42158066  0.05018097  0.72336411  1
  O2-  O267  1  0.41790363  0.55063618  0.06230866  1
  O2-  O268  1  0.41805302  0.53668076  0.40153735  1
  O2-  O269  1  0.41795181  0.54646562  0.73063350  1
  O2-  O270  1  0.91326448  0.03529014  0.06803079  1
  O2-  O271  1  0.91547673  0.04127309  0.40435699  1
  O2-  O272  1  0.91633404  0.04083756  0.73677833  1
  O2-  O273  1  0.91669574  0.55639165  0.06232743  1
  O2-  O274  1  0.91336900  0.54235216  0.39657026  1
  O2-  O275  1  0.91119984  0.54142912  0.73040117  1
  O2-  O276  1  0.30181531  0.16556621  0.05585445  1
  O2-  O277  1  0.28197040  0.16839503  0.40206085  1
  O2-  O278  1  0.29726410  0.16581105  0.72830570  1
  O2-  O279  1  0.29310992  0.66231621  0.06895603  1
  O2-  O280  1  0.29253996  0.66339764  0.40279376  1
  O2-  O281  1  0.29804614  0.66404938  0.73006037  1
  O2-  O282  1  0.79048263  0.16573669  0.06884146  1
  O2-  O283  1  0.79405323  0.17258914  0.40378921  1
  O2-  O284  1  0.78903331  0.16950488  0.73563470  1
  O2-  O285  1  0.79046640  0.66710067  0.06395604  1
  O2-  O286  1  0.79360854  0.66209324  0.39703260  1
  O2-  O287  1  0.79730176  0.66597200  0.72755463  1
