# generated using pymatgen
data_Ca2Al2SiO7
_symmetry_space_group_name_H-M   'P 1'
_cell_length_a   15.46455361
_cell_length_b   15.46515496
_cell_length_c   15.28953475
_cell_angle_alpha   90.00103027
_cell_angle_beta   90.01232015
_cell_angle_gamma   90.00246724
_symmetry_Int_Tables_number   1
_chemical_formula_structural   Ca2Al2SiO7
_chemical_formula_sum   'Ca48 Al48 Si24 O168'
_cell_volume   3656.67131094
_cell_formula_units_Z   24
loop_
 _symmetry_equiv_pos_site_id
 _symmetry_equiv_pos_as_xyz
  1  'x, y, z'
loop_
 _atom_type_symbol
 _atom_type_oxidation_number
  Ca2+  2.0
  Al0+  0.0
  Si0+  0.0
  O2-  -2.0
loop_
 _atom_site_type_symbol
 _atom_site_label
 _atom_site_symmetry_multiplicity
 _atom_site_fract_x
 _atom_site_fract_y
 _atom_site_fract_z
 _atom_site_occupancy
  Ca2+  Ca0  1  0.17348351  0.09445068  0.16901368  1
  Ca2+  Ca1  1  0.16878960  0.08746591  0.50675419  1
  Ca2+  Ca2  1  0.16372713  0.07598863  0.84115258  1
  Ca2+  Ca3  1  0.15428131  0.56944752  0.16624232  1
  Ca2+  Ca4  1  0.15986271  0.56775612  0.50502987  1
  Ca2+  Ca5  1  0.15885269  0.57277967  0.83907970  1
  Ca2+  Ca6  1  0.68101421  0.09011146  0.16358445  1
  Ca2+  Ca7  1  0.67606511  0.09040813  0.50324440  1
  Ca2+  Ca8  1  0.67187133  0.08396035  0.84558531  1
  Ca2+  Ca9  1  0.67418588  0.57357412  0.17140456  1
  Ca2+  Ca10  1  0.67152603  0.58427417  0.50436160  1
  Ca2+  Ca11  1  0.66623787  0.57733830  0.83936126  1
  Ca2+  Ca12  1  0.07598935  0.32763436  0.16030096  1
  Ca2+  Ca13  1  0.08223417  0.32821165  0.49351094  1
  Ca2+  Ca14  1  0.07863722  0.32574436  0.82954936  1
  Ca2+  Ca15  1  0.08884152  0.82402164  0.15675714  1
  Ca2+  Ca16  1  0.07899183  0.83956954  0.50196066  1
  Ca2+  Ca17  1  0.08603189  0.83252670  0.82740107  1
  Ca2+  Ca18  1  0.58103199  0.32890572  0.15593277  1
  Ca2+  Ca19  1  0.58037384  0.32791179  0.50071568  1
  Ca2+  Ca20  1  0.58735252  0.32136035  0.83159292  1
  Ca2+  Ca21  1  0.58461536  0.83708082  0.16013290  1
  Ca2+  Ca22  1  0.57855245  0.83002480  0.50071976  1
  Ca2+  Ca23  1  0.57785764  0.83325957  0.82330818  1
  Ca2+  Ca24  1  0.31531328  0.40822280  0.16810840  1
  Ca2+  Ca25  1  0.31839187  0.41287923  0.50512099  1
  Ca2+  Ca26  1  0.31963914  0.41438591  0.83758449  1
  Ca2+  Ca27  1  0.32659716  0.92889662  0.16464214  1
  Ca2+  Ca28  1  0.32642232  0.92047789  0.50619166  1
  Ca2+  Ca29  1  0.32576510  0.91893300  0.83841028  1
  Ca2+  Ca30  1  0.83626150  0.41414457  0.16937886  1
  Ca2+  Ca31  1  0.84467991  0.41967378  0.50190960  1
  Ca2+  Ca32  1  0.83185181  0.40924380  0.84003618  1
  Ca2+  Ca33  1  0.83499546  0.93369919  0.16607753  1
  Ca2+  Ca34  1  0.83953893  0.92541952  0.50502903  1
  Ca2+  Ca35  1  0.82819857  0.92282247  0.84083260  1
  Ca2+  Ca36  1  0.41991522  0.15867225  0.16016446  1
  Ca2+  Ca37  1  0.42279704  0.15822752  0.49712920  1
  Ca2+  Ca38  1  0.42890063  0.15456169  0.83422307  1
  Ca2+  Ca39  1  0.41638389  0.66990268  0.16013471  1
  Ca2+  Ca40  1  0.41692095  0.67096698  0.50143535  1
  Ca2+  Ca41  1  0.42390195  0.67469056  0.82300511  1
  Ca2+  Ca42  1  0.92383592  0.17073462  0.15920373  1
  Ca2+  Ca43  1  0.92998730  0.17600371  0.49299418  1
  Ca2+  Ca44  1  0.92370614  0.17266753  0.82996344  1
  Ca2+  Ca45  1  0.91878128  0.66681979  0.16234314  1
  Ca2+  Ca46  1  0.91206917  0.67342238  0.49777705  1
  Ca2+  Ca47  1  0.92117720  0.67584172  0.83166942  1
  Al0+  Al48  1  -0.00132177  -0.00215058  0.00504237  1
  Al0+  Al49  1  -0.00073602  -0.00041209  0.33247934  1
  Al0+  Al50  1  0.00128038  0.00118487  0.66435270  1
  Al0+  Al51  1  -0.00107341  0.50244114  -0.00499840  1
  Al0+  Al52  1  -0.00189207  0.50121271  0.33939492  1
  Al0+  Al53  1  -0.00138732  0.50221206  0.67152534  1
  Al0+  Al54  1  0.49816660  -0.00151297  0.00247384  1
  Al0+  Al55  1  0.49793331  -0.00242825  0.33587765  1
  Al0+  Al56  1  0.50146043  -0.00155277  0.65594497  1
  Al0+  Al57  1  0.49973129  0.50022304  0.00333322  1
  Al0+  Al58  1  0.49985023  0.50073028  0.33263187  1
  Al0+  Al59  1  0.50219792  0.49914939  0.66271640  1
  Al0+  Al60  1  0.24967567  0.25090462  0.00313705  1
  Al0+  Al61  1  0.25228169  0.24939226  0.34034908  1
  Al0+  Al62  1  0.25291155  0.24986751  0.67235557  1
  Al0+  Al63  1  0.25128451  0.74921255  -0.00247671  1
  Al0+  Al64  1  0.25135019  0.75085927  0.33176899  1
  Al0+  Al65  1  0.25113649  0.74943766  0.66419671  1
  Al0+  Al66  1  0.74793741  0.25101600  0.00148455  1
  Al0+  Al67  1  0.74844988  0.24969566  0.33616042  1
  Al0+  Al68  1  0.75103237  0.25227039  0.65837556  1
  Al0+  Al69  1  0.74936488  0.74844976  0.00323636  1
  Al0+  Al70  1  0.74847257  0.74787409  0.33528881  1
  Al0+  Al71  1  0.75129986  0.75037935  0.65999459  1
  Al0+  Al72  1  0.82151713  0.07180794  0.34991573  1
  Al0+  Al73  1  0.57125588  0.17859013  0.65234204  1
  Al0+  Al74  1  0.07345642  0.17672217  0.98510748  1
  Al0+  Al75  1  0.92859197  0.32090331  0.98535009  1
  Al0+  Al76  1  0.67809966  0.42887680  0.01231210  1
  Al0+  Al77  1  0.82178499  0.07275744  0.01270313  1
  Al0+  Al78  1  0.57224708  0.67736222  0.65098736  1
  Al0+  Al79  1  0.17817891  0.42888481  0.68378580  1
  Al0+  Al80  1  0.31922485  0.07091343  0.01332634  1
  Al0+  Al81  1  0.92990261  0.32282108  0.65099823  1
  Al0+  Al82  1  0.42727673  0.82088077  0.64929212  1
  Al0+  Al83  1  0.56839359  0.17933777  0.98906282  1
  Al0+  Al84  1  0.17699136  0.43012477  0.01325277  1
  Al0+  Al85  1  0.92912366  0.32293448  0.31768971  1
  Al0+  Al86  1  0.81909725  0.56973922  0.34846600  1
  Al0+  Al87  1  0.07357971  0.17931487  0.65300668  1
  Al0+  Al88  1  0.17890227  0.93032004  0.67972000  1
  Al0+  Al89  1  0.67737388  0.92706751  0.01207547  1
  Al0+  Al90  1  0.07113699  0.68086923  0.98599947  1
  Al0+  Al91  1  0.93046723  0.82165411  0.65408487  1
  Al0+  Al92  1  0.17713060  0.92634691  0.01415060  1
  Al0+  Al93  1  0.18009419  0.43111438  0.34728229  1
  Al0+  Al94  1  0.07341072  0.17858808  0.31751454  1
  Al0+  Al95  1  0.32018743  0.06957925  0.34934789  1
  Si0+  Si96  1  0.82108283  0.57195117  0.01584901  1
  Si0+  Si97  1  0.32602163  0.07084835  0.68380971  1
  Si0+  Si98  1  0.07205423  0.67793072  0.64959894  1
  Si0+  Si99  1  0.67471366  0.42767243  0.35247440  1
  Si0+  Si100  1  0.57127968  0.67884425  0.31501922  1
  Si0+  Si101  1  0.92644402  0.82118859  0.31736324  1
  Si0+  Si102  1  0.42920537  0.82033797  0.31427630  1
  Si0+  Si103  1  0.92520606  0.82175056  0.98552463  1
  Si0+  Si104  1  0.42877792  0.32238820  0.65074052  1
  Si0+  Si105  1  0.56955034  0.17772399  0.31758866  1
  Si0+  Si106  1  0.32380052  0.57450111  0.35013766  1
  Si0+  Si107  1  0.17828849  0.92473148  0.34974419  1
  Si0+  Si108  1  0.67845142  0.92772633  0.35177570  1
  Si0+  Si109  1  0.32402095  0.57100072  0.68252326  1
  Si0+  Si110  1  0.42996119  0.32183842  0.31906216  1
  Si0+  Si111  1  0.68025483  0.92913138  0.67812682  1
  Si0+  Si112  1  0.42703081  0.32476928  0.98387445  1
  Si0+  Si113  1  0.32239480  0.57172452  0.01552460  1
  Si0+  Si114  1  0.57180748  0.67718776  0.98667767  1
  Si0+  Si115  1  0.67941209  0.42894919  0.68155252  1
  Si0+  Si116  1  0.43054319  0.81981131  0.98493316  1
  Si0+  Si117  1  0.81978298  0.07257173  0.68028899  1
  Si0+  Si118  1  0.07039106  0.68090712  0.32070678  1
  Si0+  Si119  1  0.81971560  0.57398769  0.68402622  1
  O2-  O120  1  0.24087287  0.00569493  0.06441526  1
  O2-  O121  1  0.24096085  -0.00112814  0.39355080  1
  O2-  O122  1  0.25375518  0.00516581  0.72609292  1
  O2-  O123  1  0.25334994  0.50403034  0.06015914  1
  O2-  O124  1  0.25524856  0.50642271  0.39415777  1
  O2-  O125  1  0.25395977  0.50508324  0.72803127  1
  O2-  O126  1  0.74945478  -0.00110987  0.06144094  1
  O2-  O127  1  0.74699309  -0.00427303  0.39703944  1
  O2-  O128  1  0.74745851  0.00213858  0.72214897  1
  O2-  O129  1  0.75460527  0.50098178  0.05944383  1
  O2-  O130  1  0.74704487  0.49271652  0.39619719  1
  O2-  O131  1  0.75054158  0.50006571  0.72402217  1
  O2-  O132  1  -0.00114713  0.24869179  0.26844571  1
  O2-  O133  1  0.00598683  0.25503280  0.60227763  1
  O2-  O134  1  0.00049648  0.24854173  0.93609871  1
  O2-  O135  1  0.00145822  0.75339510  0.27696406  1
  O2-  O136  1  0.00648898  0.74912314  0.60496531  1
  O2-  O137  1  -0.00013019  0.75964495  0.94107202  1
  O2-  O138  1  0.50080737  0.25116624  0.27624127  1
  O2-  O139  1  0.49335104  0.25008301  0.60556322  1
  O2-  O140  1  0.49381571  0.25366217  0.94066951  1
  O2-  O141  1  0.50032725  0.74919151  0.27163473  1
  O2-  O142  1  0.49889331  0.74741867  0.60002609  1
  O2-  O143  1  0.50415312  0.75049936  0.94387295  1
  O2-  O144  1  0.07418388  0.18135440  0.09858440  1
  O2-  O145  1  0.07451029  0.18037466  0.43116779  1
  O2-  O146  1  0.07014694  0.17673371  0.76619035  1
  O2-  O147  1  0.06820847  0.67905105  0.09988813  1
  O2-  O148  1  0.07047706  0.68247652  0.42569510  1
  O2-  O149  1  0.06988946  0.67817300  0.75510929  1
  O2-  O150  1  0.56748275  0.18137980  0.10238539  1
  O2-  O151  1  0.56824629  0.17857351  0.42296930  1
  O2-  O152  1  0.57278674  0.17812484  0.76530352  1
  O2-  O153  1  0.56945889  0.67649892  0.09195515  1
  O2-  O154  1  0.57068947  0.67937899  0.41972611  1
  O2-  O155  1  0.57170682  0.67878432  0.76502721  1
  O2-  O156  1  0.18026013  0.43323842  0.23428056  1
  O2-  O157  1  0.17957464  0.43093376  0.57032748  1
  O2-  O158  1  0.17889705  0.43217056  0.90038889  1
  O2-  O159  1  0.18359562  0.91634241  0.24496715  1
  O2-  O160  1  0.17980042  0.93123645  0.56634735  1
  O2-  O161  1  0.18288990  0.92306766  0.90072361  1
  O2-  O162  1  0.66992762  0.43119706  0.24707115  1
  O2-  O163  1  0.67777196  0.42990449  0.57649199  1
  O2-  O164  1  0.67574114  0.43196664  0.89901035  1
  O2-  O165  1  0.67879413  0.92737879  0.24636190  1
  O2-  O166  1  0.68261324  0.92909273  0.57299596  1
  O2-  O167  1  0.67788564  0.92559645  0.89790050  1
  O2-  O168  1  0.42957741  0.32749419  0.08981970  1
  O2-  O169  1  0.43222801  0.32305499  0.42417989  1
  O2-  O170  1  0.43229608  0.32613932  0.75594259  1
  O2-  O171  1  0.43031778  0.81722091  0.09039297  1
  O2-  O172  1  0.42905874  0.81856380  0.41891661  1
  O2-  O173  1  0.43060574  0.82102384  0.76317859  1
  O2-  O174  1  0.92957437  0.32240375  0.09880788  1
  O2-  O175  1  0.93393667  0.32369621  0.43107814  1
  O2-  O176  1  0.92562836  0.31914728  0.76407220  1
  O2-  O177  1  0.92151442  0.81629186  0.09117245  1
  O2-  O178  1  0.92598744  0.82003662  0.42266564  1
  O2-  O179  1  0.92718241  0.81912338  0.76680160  1
  O2-  O180  1  0.32470502  0.06705415  0.23679766  1
  O2-  O181  1  0.32675236  0.06890590  0.57798094  1
  O2-  O182  1  0.32647055  0.06454185  0.90031983  1
  O2-  O183  1  0.32546680  0.57574007  0.24472033  1
  O2-  O184  1  0.32377390  0.56850421  0.57668711  1
  O2-  O185  1  0.32515233  0.57107864  0.91012509  1
  O2-  O186  1  0.81923081  0.07155598  0.23722318  1
  O2-  O187  1  0.81792484  0.07020514  0.57501142  1
  O2-  O188  1  0.81876834  0.07178861  0.89858749  1
  O2-  O189  1  0.81636450  0.57278499  0.23554805  1
  O2-  O190  1  0.81855765  0.57508866  0.57886619  1
  O2-  O191  1  0.81735082  0.57676331  0.91040372  1
  O2-  O192  1  0.04876148  0.07743001  0.26791688  1
  O2-  O193  1  0.04261164  0.08286956  0.59805634  1
  O2-  O194  1  0.04624571  0.07536913  0.93736807  1
  O2-  O195  1  0.03896184  0.59008806  0.27427621  1
  O2-  O196  1  0.04049981  0.58631213  0.60353229  1
  O2-  O197  1  0.03572032  0.58803224  0.92854979  1
  O2-  O198  1  0.53880855  0.08557286  0.27324627  1
  O2-  O199  1  0.54475170  0.08316310  0.59402103  1
  O2-  O200  1  0.53801554  0.08204900  0.93524353  1
  O2-  O201  1  0.54346333  0.58647415  0.26814560  1
  O2-  O202  1  0.54603599  0.57904194  0.59616822  1
  O2-  O203  1  0.54133709  0.58661830  0.93821606  1
  O2-  O204  1  0.17363770  0.20950873  0.26944455  1
  O2-  O205  1  0.17559956  0.20311821  0.60518205  1
  O2-  O206  1  0.17298287  0.20446071  0.93389136  1
  O2-  O207  1  0.16323190  0.70577671  0.27294513  1
  O2-  O208  1  0.16715580  0.69687099  0.60462230  1
  O2-  O209  1  0.16920929  0.70621678  0.93194020  1
  O2-  O210  1  0.66217943  0.20407418  0.27223026  1
  O2-  O211  1  0.66417247  0.21483951  0.59468442  1
  O2-  O212  1  0.66352139  0.21130148  0.93379091  1
  O2-  O213  1  0.66301724  0.70704764  0.26777980  1
  O2-  O214  1  0.66823114  0.70885070  0.59531181  1
  O2-  O215  1  0.66503120  0.70034134  0.94042275  1
  O2-  O216  1  0.08159665  0.46665172  0.06573591  1
  O2-  O217  1  0.08563131  0.46495076  0.40283270  1
  O2-  O218  1  0.08234541  0.46293774  0.73710183  1
  O2-  O219  1  0.07526390  0.93902443  0.06440719  1
  O2-  O220  1  0.08145091  0.94315289  0.39092912  1
  O2-  O221  1  0.08141141  0.95840738  0.73366024  1
  O2-  O222  1  0.58316441  0.46221177  0.06949832  1
  O2-  O223  1  0.58273207  0.45897930  0.39995618  1
  O2-  O224  1  0.58734690  0.45627586  0.72880752  1
  O2-  O225  1  0.57980931  0.95343470  0.06678260  1
  O2-  O226  1  0.58419484  0.95259905  0.39676509  1
  O2-  O227  1  0.58588893  0.95327803  0.72163759  1
  O2-  O228  1  0.20873415  0.33524505  0.06922520  1
  O2-  O229  1  0.21479439  0.33699219  0.40317108  1
  O2-  O230  1  0.21179760  0.33339343  0.73823182  1
  O2-  O231  1  0.21498233  0.83021912  0.06788776  1
  O2-  O232  1  0.21055256  0.83383867  0.39901482  1
  O2-  O233  1  0.20848167  0.83106498  0.73012611  1
  O2-  O234  1  0.70440055  0.33326570  0.06884006  1
  O2-  O235  1  0.69402458  0.33236227  0.39661854  1
  O2-  O236  1  0.70847471  0.33659066  0.72726308  1
  O2-  O237  1  0.70337608  0.82836733  0.06707631  1
  O2-  O238  1  0.70255562  0.83315956  0.39656353  1
  O2-  O239  1  0.70920152  0.83721966  0.72460761  1
  O2-  O240  1  0.45608349  0.41417154  0.27104547  1
  O2-  O241  1  0.45811450  0.41319290  0.60058748  1
  O2-  O242  1  0.45494131  0.41774328  0.93742382  1
  O2-  O243  1  0.45914888  0.91178051  0.26756685  1
  O2-  O244  1  0.45869901  0.91587519  0.59164771  1
  O2-  O245  1  0.45721608  0.91085688  0.93702920  1
  O2-  O246  1  0.95728097  0.42329004  0.26786554  1
  O2-  O247  1  0.95340686  0.42501710  0.60386018  1
  O2-  O248  1  0.95394487  0.42013210  0.93242267  1
  O2-  O249  1  0.94975669  0.91374997  0.27048518  1
  O2-  O250  1  0.96092459  0.91688102  0.59742708  1
  O2-  O251  1  0.94198330  0.91758759  0.94245063  1
  O2-  O252  1  0.33828869  0.29311164  0.27321420  1
  O2-  O253  1  0.33419583  0.29965922  0.60638475  1
  O2-  O254  1  0.33291367  0.30163202  0.93945111  1
  O2-  O255  1  0.33798056  0.79126403  0.26605691  1
  O2-  O256  1  0.33016163  0.79085878  0.59379360  1
  O2-  O257  1  0.34094776  0.78901184  0.93560496  1
  O2-  O258  1  0.82606471  0.29957131  0.27167987  1
  O2-  O259  1  0.83300488  0.29492062  0.59480895  1
  O2-  O260  1  0.82875184  0.29408997  0.93448059  1
  O2-  O261  1  0.83585995  0.78775119  0.27132374  1
  O2-  O262  1  0.83655338  0.78886942  0.59576872  1
  O2-  O263  1  0.83408223  0.78876091  0.93702961  1
  O2-  O264  1  0.41432912  0.03488788  0.06972151  1
  O2-  O265  1  0.41526130  0.03302933  0.40430771  1
  O2-  O266  1  0.41988675  0.03939423  0.72664480  1
  O2-  O267  1  0.41520729  0.54745014  0.06457557  1
  O2-  O268  1  0.41781242  0.54910609  0.39594718  1
  O2-  O269  1  0.41845307  0.54481351  0.72738304  1
  O2-  O270  1  0.91770000  0.04380028  0.07014714  1
  O2-  O271  1  0.91825888  0.03897160  0.40305657  1
  O2-  O272  1  0.91101703  0.04280751  0.72598228  1
  O2-  O273  1  0.91501944  0.54837997  0.06097268  1
  O2-  O274  1  0.91545310  0.54473063  0.40554581  1
  O2-  O275  1  0.91202083  0.55098971  0.73200094  1
  O2-  O276  1  0.30065713  0.17152108  0.06658510  1
  O2-  O277  1  0.29763257  0.16704953  0.40521774  1
  O2-  O278  1  0.30947321  0.16630948  0.72858958  1
  O2-  O279  1  0.29784300  0.66530406  0.06168970  1
  O2-  O280  1  0.29834090  0.66838462  0.39581424  1
  O2-  O281  1  0.30219213  0.66623268  0.72641363  1
  O2-  O282  1  0.78810979  0.16807471  0.06811448  1
  O2-  O283  1  0.78746047  0.16733191  0.40465721  1
  O2-  O284  1  0.79018019  0.16506810  0.72427095  1
  O2-  O285  1  0.79308918  0.66308004  0.06608876  1
  O2-  O286  1  0.78437560  0.66528126  0.40400361  1
  O2-  O287  1  0.78835423  0.66513939  0.73075774  1
