# generated using pymatgen
data_Ca2Al2SiO7
_symmetry_space_group_name_H-M   'P 1'
_cell_length_a   15.45637495
_cell_length_b   15.45587253
_cell_length_c   15.28281012
_cell_angle_alpha   89.98885882
_cell_angle_beta   90.00065237
_cell_angle_gamma   89.99774324
_symmetry_Int_Tables_number   1
_chemical_formula_structural   Ca2Al2SiO7
_chemical_formula_sum   'Ca48 Al48 Si24 O168'
_cell_volume   3650.93735109
_cell_formula_units_Z   24
loop_
 _symmetry_equiv_pos_site_id
 _symmetry_equiv_pos_as_xyz
  1  'x, y, z'
loop_
 _atom_type_symbol
 _atom_type_oxidation_number
  Ca2+  2.0
  Al0+  0.0
  Si0+  0.0
  O2-  -2.0
loop_
 _atom_site_type_symbol
 _atom_site_label
 _atom_site_symmetry_multiplicity
 _atom_site_fract_x
 _atom_site_fract_y
 _atom_site_fract_z
 _atom_site_occupancy
  Ca2+  Ca0  1  0.18446108  0.08369438  0.17071385  1
  Ca2+  Ca1  1  0.17085284  0.08263187  0.50750852  1
  Ca2+  Ca2  1  0.16796337  0.08059652  0.83784100  1
  Ca2+  Ca3  1  0.17159815  0.57985453  0.16862835  1
  Ca2+  Ca4  1  0.17682359  0.58462580  0.50253824  1
  Ca2+  Ca5  1  0.16531489  0.57606716  0.84177384  1
  Ca2+  Ca6  1  0.66275164  0.08100367  0.17051874  1
  Ca2+  Ca7  1  0.66356791  0.07534516  0.50851559  1
  Ca2+  Ca8  1  0.67312904  0.09149204  0.83588882  1
  Ca2+  Ca9  1  0.66588030  0.58711951  0.17429803  1
  Ca2+  Ca10  1  0.67391006  0.58097718  0.50878308  1
  Ca2+  Ca11  1  0.66882771  0.57966254  0.83241172  1
  Ca2+  Ca12  1  0.08269121  0.33673812  0.16095638  1
  Ca2+  Ca13  1  0.07721806  0.32968958  0.50490461  1
  Ca2+  Ca14  1  0.07855364  0.32716378  0.82422649  1
  Ca2+  Ca15  1  0.08212751  0.82398046  0.15937511  1
  Ca2+  Ca16  1  0.07594230  0.84053972  0.50319450  1
  Ca2+  Ca17  1  0.07995830  0.83114348  0.82445431  1
  Ca2+  Ca18  1  0.57447597  0.32235521  0.15819609  1
  Ca2+  Ca19  1  0.59079539  0.32173117  0.50132776  1
  Ca2+  Ca20  1  0.57699886  0.32479864  0.82417579  1
  Ca2+  Ca21  1  0.58367862  0.82385586  0.16231509  1
  Ca2+  Ca22  1  0.59238583  0.83096829  0.49298130  1
  Ca2+  Ca23  1  0.58326492  0.83315783  0.83331832  1
  Ca2+  Ca24  1  0.33083724  0.41681086  0.16689349  1
  Ca2+  Ca25  1  0.34234416  0.42249015  0.50361670  1
  Ca2+  Ca26  1  0.32937520  0.40743362  0.84014650  1
  Ca2+  Ca27  1  0.34665596  0.92627197  0.16590513  1
  Ca2+  Ca28  1  0.32945411  0.92538600  0.50521663  1
  Ca2+  Ca29  1  0.33074510  0.92126253  0.83911886  1
  Ca2+  Ca30  1  0.82825820  0.42588535  0.17313806  1
  Ca2+  Ca31  1  0.82900777  0.42617414  0.51042756  1
  Ca2+  Ca32  1  0.82706978  0.41047409  0.83182592  1
  Ca2+  Ca33  1  0.82601308  0.92330181  0.17006528  1
  Ca2+  Ca34  1  0.82159723  0.91886742  0.51160192  1
  Ca2+  Ca35  1  0.83157374  0.92644229  0.83140415  1
  Ca2+  Ca36  1  0.42448065  0.16268984  0.15826023  1
  Ca2+  Ca37  1  0.42597645  0.16848388  0.49651809  1
  Ca2+  Ca38  1  0.42229475  0.17319232  0.82894606  1
  Ca2+  Ca39  1  0.42508967  0.67020771  0.15894829  1
  Ca2+  Ca40  1  0.42478663  0.66861034  0.49120925  1
  Ca2+  Ca41  1  0.42106521  0.67167903  0.83322208  1
  Ca2+  Ca42  1  0.91696302  0.16743059  0.16037877  1
  Ca2+  Ca43  1  0.91514083  0.16578413  0.50440933  1
  Ca2+  Ca44  1  0.91888179  0.16551558  0.81975415  1
  Ca2+  Ca45  1  0.91967150  0.66671272  0.16115992  1
  Ca2+  Ca46  1  0.90502670  0.67171915  0.49957866  1
  Ca2+  Ca47  1  0.92080015  0.67041335  0.82588190  1
  Al0+  Al48  1  -0.00115707  -0.00051471  0.00776133  1
  Al0+  Al49  1  0.00007613  0.00109858  0.32887667  1
  Al0+  Al50  1  0.00076633  -0.00335286  0.66472550  1
  Al0+  Al51  1  0.00006041  0.50000279  0.00095405  1
  Al0+  Al52  1  -0.00065916  0.50049273  0.33773308  1
  Al0+  Al53  1  0.00426621  0.50067259  0.66456241  1
  Al0+  Al54  1  0.50173414  -0.00188200  -0.00458086  1
  Al0+  Al55  1  0.49941013  0.00034349  0.33901970  1
  Al0+  Al56  1  0.49754716  -0.00086555  0.66783767  1
  Al0+  Al57  1  0.49941872  0.49986491  -0.00616362  1
  Al0+  Al58  1  0.49922871  0.49815233  0.33258567  1
  Al0+  Al59  1  0.50135448  0.50255724  0.66799554  1
  Al0+  Al60  1  0.24803963  0.24868839  0.00730099  1
  Al0+  Al61  1  0.24808040  0.24954992  0.33843867  1
  Al0+  Al62  1  0.25129859  0.25257341  0.65707266  1
  Al0+  Al63  1  0.24918362  0.74785092  -0.00728007  1
  Al0+  Al64  1  0.24766156  0.74928774  0.33667965  1
  Al0+  Al65  1  0.25110193  0.75088479  0.66964661  1
  Al0+  Al66  1  0.75038116  0.25182365  0.00489616  1
  Al0+  Al67  1  0.75145894  0.25056856  0.32668768  1
  Al0+  Al68  1  0.74966107  0.25165234  0.66444729  1
  Al0+  Al69  1  0.75134136  0.75061502  -0.00369908  1
  Al0+  Al70  1  0.75044719  0.75172840  0.33330479  1
  Al0+  Al71  1  0.75142245  0.75036359  0.67290622  1
  Al0+  Al72  1  0.32078014  0.06858368  0.01160267  1
  Al0+  Al73  1  0.06950743  0.67786975  0.98686375  1
  Al0+  Al74  1  0.81938748  0.07069106  0.67870833  1
  Al0+  Al75  1  0.92799784  0.32284924  0.65166202  1
  Al0+  Al76  1  0.42584245  0.31908961  0.98691225  1
  Al0+  Al77  1  0.81977722  0.57100074  0.34615818  1
  Al0+  Al78  1  0.57126484  0.67896575  0.32227981  1
  Al0+  Al79  1  0.57324154  0.17880848  0.98466240  1
  Al0+  Al80  1  0.32119400  0.07047333  0.34885857  1
  Al0+  Al81  1  0.57104801  0.17747071  0.65083208  1
  Al0+  Al82  1  0.42916185  0.82128113  0.98444342  1
  Al0+  Al83  1  0.68096076  0.93156642  0.34490784  1
  Al0+  Al84  1  0.57403720  0.67726643  0.98263190  1
  Al0+  Al85  1  0.57012513  0.17797924  0.31839986  1
  Al0+  Al86  1  0.82398273  0.57124627  0.68389594  1
  Al0+  Al87  1  0.67870522  0.42926436  0.68213640  1
  Al0+  Al88  1  0.42925826  0.32385700  0.64955421  1
  Al0+  Al89  1  0.07122958  0.17668035  0.65222547  1
  Al0+  Al90  1  0.17982494  0.92984878  0.68035104  1
  Al0+  Al91  1  0.82109896  0.07296058  0.01547909  1
  Al0+  Al92  1  0.92943042  0.81846514  0.65314628  1
  Al0+  Al93  1  0.67514830  0.92796181  0.68440012  1
  Al0+  Al94  1  0.32142779  0.57039125  0.34538143  1
  Al0+  Al95  1  0.17852014  0.42901443  0.01289455  1
  Si0+  Si96  1  0.67783223  0.42619324  0.34782392  1
  Si0+  Si97  1  0.67694922  0.42988291  0.01655182  1
  Si0+  Si98  1  0.82017393  0.57076768  0.01482020  1
  Si0+  Si99  1  0.93112124  0.32256403  0.31645123  1
  Si0+  Si100  1  0.17510317  0.92768791  0.34922132  1
  Si0+  Si101  1  0.42557775  0.32161166  0.31539390  1
  Si0+  Si102  1  0.07153066  0.17873434  0.31541586  1
  Si0+  Si103  1  0.17660372  0.42825094  0.35325985  1
  Si0+  Si104  1  0.67934890  0.92698881  0.01769054  1
  Si0+  Si105  1  0.57058670  0.68210868  0.65154288  1
  Si0+  Si106  1  0.17719359  0.92502125  0.01734794  1
  Si0+  Si107  1  0.42649532  0.82054240  0.65024268  1
  Si0+  Si108  1  0.07480750  0.67791764  0.64771076  1
  Si0+  Si109  1  0.92876999  0.82124985  0.31719598  1
  Si0+  Si110  1  0.92966873  0.32139198  0.98751197  1
  Si0+  Si111  1  0.18174045  0.42932495  0.68070956  1
  Si0+  Si112  1  0.92947487  0.82368682  0.98319319  1
  Si0+  Si113  1  0.82417170  0.07409347  0.34935008  1
  Si0+  Si114  1  0.42519183  0.82080620  0.31962854  1
  Si0+  Si115  1  0.32271095  0.57289744  0.01521095  1
  Si0+  Si116  1  0.07149443  0.67805830  0.31870305  1
  Si0+  Si117  1  0.32022894  0.07463208  0.68353510  1
  Si0+  Si118  1  0.32221735  0.57219744  0.68321733  1
  Si0+  Si119  1  0.06952361  0.17852103  0.98936390  1
  O2-  O120  1  0.24895022  -0.00937139  0.06110539  1
  O2-  O121  1  0.24469857  -0.00438265  0.39245115  1
  O2-  O122  1  0.25031129  0.00733779  0.72796824  1
  O2-  O123  1  0.25506358  0.50246322  0.05898492  1
  O2-  O124  1  0.24929200  0.49411946  0.39509375  1
  O2-  O125  1  0.25349102  0.49860842  0.72418515  1
  O2-  O126  1  0.74474756  -0.00050515  0.06158617  1
  O2-  O127  1  0.75317659  0.00823131  0.39198741  1
  O2-  O128  1  0.74368128  0.00468284  0.73213714  1
  O2-  O129  1  0.74487516  0.50496032  0.05847254  1
  O2-  O130  1  0.74280932  0.49868090  0.39141727  1
  O2-  O131  1  0.75460239  0.49696617  0.73404822  1
  O2-  O132  1  0.00084764  0.25039941  0.27325026  1
  O2-  O133  1  -0.00374550  0.24639379  0.60194970  1
  O2-  O134  1  -0.00436778  0.24554154  0.94649789  1
  O2-  O135  1  0.00073697  0.74976259  0.27647701  1
  O2-  O136  1  0.00229990  0.74237273  0.60335259  1
  O2-  O137  1  -0.00072419  0.75581383  0.94000821  1
  O2-  O138  1  0.49360671  0.25179191  0.27227394  1
  O2-  O139  1  0.50041917  0.25111557  0.60007060  1
  O2-  O140  1  0.49960161  0.24988892  0.93639369  1
  O2-  O141  1  0.49283802  0.75045078  0.27623221  1
  O2-  O142  1  0.50267615  0.75545308  0.60788570  1
  O2-  O143  1  0.50126523  0.74933991  0.93404195  1
  O2-  O144  1  0.06888981  0.18142734  0.09487483  1
  O2-  O145  1  0.07058984  0.17676243  0.41996989  1
  O2-  O146  1  0.07308141  0.17964474  0.76650264  1
  O2-  O147  1  0.06651349  0.67780797  0.10086396  1
  O2-  O148  1  0.07370287  0.67797220  0.42332155  1
  O2-  O149  1  0.07620579  0.67897273  0.75332645  1
  O2-  O150  1  0.57162681  0.18006636  0.09897427  1
  O2-  O151  1  0.57122894  0.17850363  0.43084566  1
  O2-  O152  1  0.56912635  0.17871929  0.76419723  1
  O2-  O153  1  0.57445784  0.67846473  0.09697241  1
  O2-  O154  1  0.57176015  0.68131019  0.43539116  1
  O2-  O155  1  0.56720128  0.68081436  0.75640498  1
  O2-  O156  1  0.17381305  0.43000092  0.24742893  1
  O2-  O157  1  0.18110065  0.43233372  0.57549657  1
  O2-  O158  1  0.17629800  0.42932337  0.89995223  1
  O2-  O159  1  0.17240103  0.92752375  0.24365443  1
  O2-  O160  1  0.18372656  0.92840693  0.56682037  1
  O2-  O161  1  0.17359244  0.92858017  0.91208671  1
  O2-  O162  1  0.68114617  0.42632091  0.24172018  1
  O2-  O163  1  0.67748138  0.43392581  0.56805793  1
  O2-  O164  1  0.68033183  0.42718699  0.91209864  1
  O2-  O165  1  0.68338183  0.92968020  0.23164951  1
  O2-  O166  1  0.67853395  0.92558100  0.57039062  1
  O2-  O167  1  0.68281620  0.92455036  0.91277166  1
  O2-  O168  1  0.42726393  0.31874249  0.10094657  1
  O2-  O169  1  0.42672037  0.32271705  0.42056293  1
  O2-  O170  1  0.42571798  0.32093063  0.76293374  1
  O2-  O171  1  0.43071551  0.81946664  0.09880598  1
  O2-  O172  1  0.42376678  0.81871598  0.42539809  1
  O2-  O173  1  0.42274921  0.81626358  0.75487360  1
  O2-  O174  1  0.93202333  0.32330951  0.09322522  1
  O2-  O175  1  0.93167920  0.32345077  0.42088134  1
  O2-  O176  1  0.93304782  0.32356843  0.76577479  1
  O2-  O177  1  0.92956273  0.82154245  0.08963974  1
  O2-  O178  1  0.92892231  0.82195366  0.42189874  1
  O2-  O179  1  0.93332614  0.81817530  0.76617168  1
  O2-  O180  1  0.32123704  0.06895092  0.23539219  1
  O2-  O181  1  0.31943014  0.07138815  0.57757450  1
  O2-  O182  1  0.31439802  0.07018960  0.89907475  1
  O2-  O183  1  0.31798965  0.57138934  0.23250173  1
  O2-  O184  1  0.32070833  0.57395095  0.57766656  1
  O2-  O185  1  0.32009262  0.57382606  0.90964614  1
  O2-  O186  1  0.82652494  0.07149720  0.24343112  1
  O2-  O187  1  0.81993963  0.06656894  0.56479543  1
  O2-  O188  1  0.82664030  0.07279793  0.90331474  1
  O2-  O189  1  0.82198709  0.56925430  0.23237209  1
  O2-  O190  1  0.81873802  0.57223425  0.56990624  1
  O2-  O191  1  0.82334853  0.56772623  0.91054435  1
  O2-  O192  1  0.04452108  0.08729129  0.26584826  1
  O2-  O193  1  0.04656757  0.07809586  0.59830398  1
  O2-  O194  1  0.04563848  0.08423374  0.94555095  1
  O2-  O195  1  0.04233142  0.58600180  0.27212666  1
  O2-  O196  1  0.05640371  0.58307095  0.60195022  1
  O2-  O197  1  0.03538560  0.58276714  0.93208476  1
  O2-  O198  1  0.53790942  0.08032720  0.26663929  1
  O2-  O199  1  0.53990696  0.07845802  0.59923456  1
  O2-  O200  1  0.55077256  0.07916880  0.93430850  1
  O2-  O201  1  0.54426160  0.58078634  0.26865792  1
  O2-  O202  1  0.54017834  0.59159629  0.60348321  1
  O2-  O203  1  0.54610404  0.57963678  0.92895341  1
  O2-  O204  1  0.16381747  0.20791929  0.26913941  1
  O2-  O205  1  0.16623222  0.21050189  0.59508460  1
  O2-  O206  1  0.15978490  0.20858404  0.94222017  1
  O2-  O207  1  0.16271278  0.70629859  0.26940817  1
  O2-  O208  1  0.16725367  0.70956414  0.60169804  1
  O2-  O209  1  0.16627554  0.70148441  0.93107450  1
  O2-  O210  1  0.66779076  0.20742234  0.26408552  1
  O2-  O211  1  0.66945758  0.20512244  0.59756218  1
  O2-  O212  1  0.67213661  0.21119618  0.93546460  1
  O2-  O213  1  0.66647525  0.71306858  0.26629652  1
  O2-  O214  1  0.66418382  0.70738307  0.60733432  1
  O2-  O215  1  0.67258124  0.70559654  0.93023398  1
  O2-  O216  1  0.08339213  0.46339757  0.07001492  1
  O2-  O217  1  0.08535868  0.45872818  0.40093429  1
  O2-  O218  1  0.09069066  0.45725459  0.72919704  1
  O2-  O219  1  0.08519402  0.95152628  0.06698975  1
  O2-  O220  1  0.08187499  0.95673075  0.39496001  1
  O2-  O221  1  0.08260959  0.95545071  0.73434712  1
  O2-  O222  1  0.58356506  0.45521949  0.06221116  1
  O2-  O223  1  0.58254530  0.44523667  0.39136626  1
  O2-  O224  1  0.58217705  0.46316775  0.73642177  1
  O2-  O225  1  0.58418941  0.94833923  0.06181674  1
  O2-  O226  1  0.58405225  0.95631419  0.40034685  1
  O2-  O227  1  0.57363851  0.94854507  0.73385168  1
  O2-  O228  1  0.20633722  0.33394283  0.07207129  1
  O2-  O229  1  0.19696844  0.33333905  0.39790361  1
  O2-  O230  1  0.20804959  0.33628404  0.72621019  1
  O2-  O231  1  0.19986655  0.82893101  0.05986887  1
  O2-  O232  1  0.19683587  0.83357149  0.39560717  1
  O2-  O233  1  0.21308514  0.83420756  0.73552176  1
  O2-  O234  1  0.70915782  0.34108254  0.06787259  1
  O2-  O235  1  0.71032846  0.33429553  0.39320714  1
  O2-  O236  1  0.70432476  0.33027204  0.73458363  1
  O2-  O237  1  0.71029975  0.83423485  0.06472850  1
  O2-  O238  1  0.71530714  0.83653917  0.39965869  1
  O2-  O239  1  0.70873527  0.83217120  0.73839311  1
  O2-  O240  1  0.45092540  0.41501158  0.26821123  1
  O2-  O241  1  0.45743515  0.42422421  0.59945049  1
  O2-  O242  1  0.44771079  0.41913210  0.93552004  1
  O2-  O243  1  0.45358782  0.91413705  0.27563488  1
  O2-  O244  1  0.44661827  0.91484753  0.60516208  1
  O2-  O245  1  0.45614622  0.91824504  0.92881731  1
  O2-  O246  1  0.96180065  0.41425940  0.26885745  1
  O2-  O247  1  0.96423326  0.41896184  0.59675610  1
  O2-  O248  1  0.96123704  0.41082649  0.93928648  1
  O2-  O249  1  0.95676769  0.91283425  0.26805547  1
  O2-  O250  1  0.96240315  0.91242513  0.59567906  1
  O2-  O251  1  0.95581986  0.91798809  0.93971891  1
  O2-  O252  1  0.32925704  0.29811934  0.27342112  1
  O2-  O253  1  0.33150877  0.29930457  0.59307938  1
  O2-  O254  1  0.32652694  0.28886452  0.93647967  1
  O2-  O255  1  0.33061660  0.79769471  0.27376361  1
  O2-  O256  1  0.33724422  0.78669792  0.60085557  1
  O2-  O257  1  0.33062084  0.79426350  0.93060466  1
  O2-  O258  1  0.83974921  0.29731060  0.26623382  1
  O2-  O259  1  0.82915944  0.30102001  0.59774942  1
  O2-  O260  1  0.83609692  0.29849457  0.94315376  1
  O2-  O261  1  0.83914055  0.79144659  0.26709555  1
  O2-  O262  1  0.83222442  0.78719194  0.59952435  1
  O2-  O263  1  0.83704771  0.79749749  0.93710393  1
  O2-  O264  1  0.41872221  0.03816406  0.06471499  1
  O2-  O265  1  0.41502793  0.03843892  0.40605630  1
  O2-  O266  1  0.41242193  0.04652415  0.72961781  1
  O2-  O267  1  0.41739446  0.54911042  0.06026327  1
  O2-  O268  1  0.41831276  0.54146126  0.40079975  1
  O2-  O269  1  0.41459799  0.54882405  0.73008836  1
  O2-  O270  1  0.91634722  0.04007980  0.07405069  1
  O2-  O271  1  0.91816649  0.04682820  0.39334570  1
  O2-  O272  1  0.91741538  0.03789942  0.73048602  1
  O2-  O273  1  0.90980148  0.53786532  0.06460273  1
  O2-  O274  1  0.91559299  0.54015258  0.40115868  1
  O2-  O275  1  0.92628264  0.54811417  0.73096525  1
  O2-  O276  1  0.28597882  0.16167595  0.07084504  1
  O2-  O277  1  0.28894998  0.16654538  0.40274436  1
  O2-  O278  1  0.29511314  0.16995461  0.72492227  1
  O2-  O279  1  0.29409000  0.66577588  0.06156464  1
  O2-  O280  1  0.28816839  0.66575908  0.40200174  1
  O2-  O281  1  0.29066605  0.66209047  0.73156974  1
  O2-  O282  1  0.79415077  0.17040095  0.07149973  1
  O2-  O283  1  0.80307588  0.17043758  0.39039812  1
  O2-  O284  1  0.79958466  0.17192469  0.72897273  1
  O2-  O285  1  0.79782008  0.66516774  0.06062128  1
  O2-  O286  1  0.79123517  0.66822161  0.39852325  1
  O2-  O287  1  0.79337584  0.66751771  0.73850793  1
