# generated using pymatgen
data_Ca2Al2SiO7
_symmetry_space_group_name_H-M   'P 1'
_cell_length_a   15.45853595
_cell_length_b   15.45935733
_cell_length_c   15.28368995
_cell_angle_alpha   89.99699926
_cell_angle_beta   89.99070086
_cell_angle_gamma   89.98067640
_symmetry_Int_Tables_number   1
_chemical_formula_structural   Ca2Al2SiO7
_chemical_formula_sum   'Ca48 Al48 Si24 O168'
_cell_volume   3652.48115267
_cell_formula_units_Z   24
loop_
 _symmetry_equiv_pos_site_id
 _symmetry_equiv_pos_as_xyz
  1  'x, y, z'
loop_
 _atom_type_symbol
 _atom_type_oxidation_number
  Ca2+  2.0
  Al0+  0.0
  Si0+  0.0
  O2-  -2.0
loop_
 _atom_site_type_symbol
 _atom_site_label
 _atom_site_symmetry_multiplicity
 _atom_site_fract_x
 _atom_site_fract_y
 _atom_site_fract_z
 _atom_site_occupancy
  Ca2+  Ca0  1  0.17113958  0.08601232  0.17120145  1
  Ca2+  Ca1  1  0.17724841  0.07925671  0.50885548  1
  Ca2+  Ca2  1  0.16604017  0.08148683  0.83586261  1
  Ca2+  Ca3  1  0.17336282  0.59247179  0.17031857  1
  Ca2+  Ca4  1  0.17670090  0.58794750  0.50279631  1
  Ca2+  Ca5  1  0.17819742  0.58382723  0.83997312  1
  Ca2+  Ca6  1  0.66571994  0.07494603  0.17694238  1
  Ca2+  Ca7  1  0.66079146  0.08217479  0.50178042  1
  Ca2+  Ca8  1  0.66610719  0.08684996  0.83474193  1
  Ca2+  Ca9  1  0.67328981  0.58467392  0.17210867  1
  Ca2+  Ca10  1  0.67389657  0.57778174  0.50794106  1
  Ca2+  Ca11  1  0.65913664  0.57875723  0.83576448  1
  Ca2+  Ca12  1  0.07389649  0.33094470  0.16043694  1
  Ca2+  Ca13  1  0.07247297  0.33947724  0.49589793  1
  Ca2+  Ca14  1  0.07396288  0.33358569  0.83218674  1
  Ca2+  Ca15  1  0.07578940  0.82323322  0.16073054  1
  Ca2+  Ca16  1  0.08138195  0.83075483  0.49337436  1
  Ca2+  Ca17  1  0.08560992  0.83155411  0.83287878  1
  Ca2+  Ca18  1  0.57782023  0.32707824  0.16396094  1
  Ca2+  Ca19  1  0.58170685  0.32472589  0.50308346  1
  Ca2+  Ca20  1  0.57405519  0.33332581  0.82312384  1
  Ca2+  Ca21  1  0.57839113  0.82846853  0.15998930  1
  Ca2+  Ca22  1  0.58402359  0.82922579  0.49647978  1
  Ca2+  Ca23  1  0.57670491  0.81987916  0.83343605  1
  Ca2+  Ca24  1  0.33565335  0.42784592  0.16892649  1
  Ca2+  Ca25  1  0.33881630  0.42639228  0.50589644  1
  Ca2+  Ca26  1  0.34440358  0.42365744  0.83866009  1
  Ca2+  Ca27  1  0.33433833  0.92057322  0.17363523  1
  Ca2+  Ca28  1  0.32818954  0.92746293  0.50748995  1
  Ca2+  Ca29  1  0.33309933  0.92093671  0.83440405  1
  Ca2+  Ca30  1  0.83762681  0.42010425  0.17371976  1
  Ca2+  Ca31  1  0.83278847  0.41750682  0.50529159  1
  Ca2+  Ca32  1  0.82716733  0.40754279  0.83506174  1
  Ca2+  Ca33  1  0.82843713  0.90833212  0.17360399  1
  Ca2+  Ca34  1  0.82682320  0.91126634  0.50051869  1
  Ca2+  Ca35  1  0.83340161  0.91613182  0.84030657  1
  Ca2+  Ca36  1  0.41860105  0.16898865  0.16306048  1
  Ca2+  Ca37  1  0.42143657  0.16166026  0.49636808  1
  Ca2+  Ca38  1  0.41839613  0.17881392  0.82305477  1
  Ca2+  Ca39  1  0.41804091  0.67022279  0.15549313  1
  Ca2+  Ca40  1  0.42028014  0.65893143  0.49936776  1
  Ca2+  Ca41  1  0.42209353  0.66058021  0.82944386  1
  Ca2+  Ca42  1  0.92046894  0.17789873  0.15958058  1
  Ca2+  Ca43  1  0.91403731  0.17960108  0.49659642  1
  Ca2+  Ca44  1  0.92181504  0.17450794  0.83133917  1
  Ca2+  Ca45  1  0.92405736  0.67091713  0.16440048  1
  Ca2+  Ca46  1  0.92488890  0.66929378  0.48584712  1
  Ca2+  Ca47  1  0.92314490  0.66993587  0.83379202  1
  Al0+  Al48  1  -0.00020012  0.00140585  -0.00326712  1
  Al0+  Al49  1  -0.00193143  0.00136950  0.33112818  1
  Al0+  Al50  1  -0.00128264  0.00001141  0.66905006  1
  Al0+  Al51  1  -0.00110872  0.50040440  -0.00778153  1
  Al0+  Al52  1  0.00131429  0.50103497  0.32864021  1
  Al0+  Al53  1  0.00133169  0.50320078  0.66354693  1
  Al0+  Al54  1  0.50085393  -0.00190934  -0.00231062  1
  Al0+  Al55  1  0.50129125  -0.00107873  0.33756328  1
  Al0+  Al56  1  0.49990803  -0.00181217  0.67016162  1
  Al0+  Al57  1  0.50116865  0.49815965  0.00213603  1
  Al0+  Al58  1  0.50101887  0.49793827  0.33701740  1
  Al0+  Al59  1  0.50344154  0.49912298  0.66450477  1
  Al0+  Al60  1  0.24967590  0.25089635  -0.00561271  1
  Al0+  Al61  1  0.25053222  0.25257827  0.33838498  1
  Al0+  Al62  1  0.24806547  0.25209186  0.66620994  1
  Al0+  Al63  1  0.24951030  0.75336783  -0.00163466  1
  Al0+  Al64  1  0.25168553  0.75086677  0.33547758  1
  Al0+  Al65  1  0.25021135  0.75055830  0.67418061  1
  Al0+  Al66  1  0.74989128  0.24878843  0.00170212  1
  Al0+  Al67  1  0.74768952  0.24820649  0.32440010  1
  Al0+  Al68  1  0.74950190  0.25022569  0.66375195  1
  Al0+  Al69  1  0.74914405  0.74856894  -0.00666198  1
  Al0+  Al70  1  0.74954261  0.74855059  0.33993116  1
  Al0+  Al71  1  0.75038541  0.74992616  0.66484400  1
  Al0+  Al72  1  0.07277713  0.67898149  0.98268779  1
  Al0+  Al73  1  0.92822845  0.82058508  0.98457583  1
  Al0+  Al74  1  0.32065564  0.57090159  0.01424376  1
  Al0+  Al75  1  0.32239740  0.07335402  0.68433699  1
  Al0+  Al76  1  0.56962534  0.17699416  0.65200482  1
  Al0+  Al77  1  0.92638316  0.82193357  0.32000672  1
  Al0+  Al78  1  0.92668520  0.32203953  0.98378754  1
  Al0+  Al79  1  0.17769952  0.93027513  0.68337373  1
  Al0+  Al80  1  0.43061917  0.31990795  0.98885100  1
  Al0+  Al81  1  0.32205110  0.57223618  0.34687786  1
  Al0+  Al82  1  0.56966771  0.67769507  0.98695156  1
  Al0+  Al83  1  0.68331493  0.42958166  0.67999584  1
  Al0+  Al84  1  0.07217573  0.17910768  0.98517597  1
  Al0+  Al85  1  0.07421079  0.68043177  0.31860137  1
  Al0+  Al86  1  0.32053952  0.07205580  0.34554518  1
  Al0+  Al87  1  0.92894182  0.32061425  0.31932194  1
  Al0+  Al88  1  0.57113883  0.67901138  0.65045634  1
  Al0+  Al89  1  0.42641308  0.32224367  0.64983441  1
  Al0+  Al90  1  0.68038750  0.92850383  0.34742098  1
  Al0+  Al91  1  0.93026254  0.32130572  0.65201626  1
  Al0+  Al92  1  0.56788560  0.17724116  0.31814561  1
  Al0+  Al93  1  0.42717891  0.82362490  0.98541213  1
  Al0+  Al94  1  0.32130051  0.56757011  0.68134646  1
  Al0+  Al95  1  0.82156163  0.56895240  0.34556849  1
  Si0+  Si96  1  0.17686096  0.92903250  0.34746213  1
  Si0+  Si97  1  0.67844940  0.42502773  0.35011334  1
  Si0+  Si98  1  0.42688166  0.32330089  0.31601685  1
  Si0+  Si99  1  0.82090073  0.57131489  0.01374276  1
  Si0+  Si100  1  0.68042432  0.92822088  0.01415986  1
  Si0+  Si101  1  0.81887064  0.07041006  0.68153762  1
  Si0+  Si102  1  0.82419859  0.57386051  0.68464714  1
  Si0+  Si103  1  0.17797284  0.42887623  0.34933234  1
  Si0+  Si104  1  0.82133990  0.07116710  0.01624493  1
  Si0+  Si105  1  0.07044152  0.17617224  0.64854062  1
  Si0+  Si106  1  0.67895374  0.92573603  0.68479032  1
  Si0+  Si107  1  0.17706890  0.93066240  0.01783131  1
  Si0+  Si108  1  0.43111372  0.82013604  0.32147084  1
  Si0+  Si109  1  0.17383722  0.42909621  0.68363218  1
  Si0+  Si110  1  0.07228638  0.68153396  0.65091067  1
  Si0+  Si111  1  0.57082958  0.67660213  0.32058539  1
  Si0+  Si112  1  0.57158113  0.17641279  0.98492296  1
  Si0+  Si113  1  0.42724644  0.82024993  0.64917311  1
  Si0+  Si114  1  0.07442802  0.17861138  0.31938191  1
  Si0+  Si115  1  0.92878724  0.82237050  0.65063116  1
  Si0+  Si116  1  0.32133653  0.07185329  0.01469582  1
  Si0+  Si117  1  0.17603353  0.42800810  0.01581487  1
  Si0+  Si118  1  0.82183863  0.07410662  0.34913363  1
  Si0+  Si119  1  0.67929009  0.42731024  0.01705245  1
  O2-  O120  1  0.25045855  0.00089719  0.05848960  1
  O2-  O121  1  0.24134269  0.00164101  0.39128743  1
  O2-  O122  1  0.24832638  0.00332385  0.73448738  1
  O2-  O123  1  0.24278775  0.49851683  0.06109448  1
  O2-  O124  1  0.24714546  0.49752212  0.39294145  1
  O2-  O125  1  0.24917151  0.49016344  0.72785816  1
  O2-  O126  1  0.75153853  -0.00148543  0.05787018  1
  O2-  O127  1  0.75716483  0.00186456  0.39407740  1
  O2-  O128  1  0.74826574  -0.00068968  0.72550671  1
  O2-  O129  1  0.75212763  0.49783520  0.05694381  1
  O2-  O130  1  0.74946913  0.49209558  0.39296479  1
  O2-  O131  1  0.75724055  0.50410922  0.72953972  1
  O2-  O132  1  0.00359746  0.24470724  0.27471087  1
  O2-  O133  1  0.00671658  0.24912824  0.60380865  1
  O2-  O134  1  0.00041600  0.25139625  0.93541301  1
  O2-  O135  1  0.00053481  0.75223630  0.27068758  1
  O2-  O136  1  0.00017792  0.75187943  0.60923639  1
  O2-  O137  1  0.00154137  0.75190250  0.93217513  1
  O2-  O138  1  0.49265465  0.25149054  0.27202872  1
  O2-  O139  1  0.49230737  0.24322013  0.60152261  1
  O2-  O140  1  0.50319882  0.24414141  0.94117816  1
  O2-  O141  1  0.49754288  0.74499000  0.27857787  1
  O2-  O142  1  0.49555986  0.75238872  0.60267059  1
  O2-  O143  1  0.49273681  0.74482146  0.93724166  1
  O2-  O144  1  0.07104810  0.17995577  0.09942218  1
  O2-  O145  1  0.07405733  0.17940818  0.42484075  1
  O2-  O146  1  0.06580734  0.17395443  0.75383229  1
  O2-  O147  1  0.07174544  0.68076751  0.09619243  1
  O2-  O148  1  0.07484047  0.68306478  0.43278037  1
  O2-  O149  1  0.07070256  0.68106468  0.75567579  1
  O2-  O150  1  0.57043728  0.17514621  0.09069163  1
  O2-  O151  1  0.56776095  0.17709595  0.43065231  1
  O2-  O152  1  0.57259485  0.18052178  0.76589929  1
  O2-  O153  1  0.57238571  0.68082646  0.10127659  1
  O2-  O154  1  0.57030073  0.67781986  0.42559354  1
  O2-  O155  1  0.57134396  0.68062918  0.76334473  1
  O2-  O156  1  0.17937013  0.42570764  0.24385821  1
  O2-  O157  1  0.16827441  0.43531136  0.57810349  1
  O2-  O158  1  0.17691616  0.42826738  0.91032049  1
  O2-  O159  1  0.17965716  0.92842430  0.24183449  1
  O2-  O160  1  0.17699755  0.93128180  0.56906717  1
  O2-  O161  1  0.17540067  0.93246774  0.91309264  1
  O2-  O162  1  0.67621944  0.42754824  0.24408625  1
  O2-  O163  1  0.68639756  0.42965955  0.56683417  1
  O2-  O164  1  0.67913762  0.42540829  0.91209307  1
  O2-  O165  1  0.67879539  0.92870256  0.23390299  1
  O2-  O166  1  0.68114490  0.92345478  0.57967955  1
  O2-  O167  1  0.68121535  0.93021970  0.90898941  1
  O2-  O168  1  0.43234231  0.31868751  0.10239574  1
  O2-  O169  1  0.42825554  0.32548841  0.42101323  1
  O2-  O170  1  0.43238532  0.32349052  0.76358221  1
  O2-  O171  1  0.43209088  0.82754098  0.09983614  1
  O2-  O172  1  0.43212876  0.82088231  0.42642834  1
  O2-  O173  1  0.42939906  0.81946337  0.75457839  1
  O2-  O174  1  0.92646089  0.32032790  0.09751730  1
  O2-  O175  1  0.92933484  0.31973355  0.43257973  1
  O2-  O176  1  0.92988219  0.31761151  0.76465895  1
  O2-  O177  1  0.92647069  0.81823000  0.09790368  1
  O2-  O178  1  0.92782002  0.82005082  0.43406903  1
  O2-  O179  1  0.92728067  0.82193677  0.75552691  1
  O2-  O180  1  0.32019887  0.06996777  0.23171065  1
  O2-  O181  1  0.32166315  0.06844902  0.57026613  1
  O2-  O182  1  0.32182432  0.07077849  0.91024047  1
  O2-  O183  1  0.32395360  0.57218354  0.23379178  1
  O2-  O184  1  0.31828037  0.56929392  0.56790096  1
  O2-  O185  1  0.32285588  0.56653552  0.90144533  1
  O2-  O186  1  0.81929766  0.07511764  0.24352561  1
  O2-  O187  1  0.81978932  0.06867256  0.57647250  1
  O2-  O188  1  0.81835764  0.07273451  0.91084625  1
  O2-  O189  1  0.81862007  0.56940849  0.23196138  1
  O2-  O190  1  0.82361714  0.57368757  0.57887281  1
  O2-  O191  1  0.81897532  0.57255211  0.90873250  1
  O2-  O192  1  0.05261788  0.08412122  0.27323500  1
  O2-  O193  1  0.03921401  0.08433040  0.60149960  1
  O2-  O194  1  0.04164246  0.08252868  0.93063587  1
  O2-  O195  1  0.04777885  0.58237078  0.26518695  1
  O2-  O196  1  0.04532972  0.59041645  0.60193907  1
  O2-  O197  1  0.04405780  0.58182488  0.92839652  1
  O2-  O198  1  0.53730577  0.07985839  0.26485420  1
  O2-  O199  1  0.54777739  0.07513157  0.60237125  1
  O2-  O200  1  0.54922337  0.08279138  0.93849231  1
  O2-  O201  1  0.54731650  0.58323763  0.27424837  1
  O2-  O202  1  0.54286395  0.58279754  0.59588751  1
  O2-  O203  1  0.54548822  0.57820155  0.93581342  1
  O2-  O204  1  0.16750210  0.20644620  0.27283729  1
  O2-  O205  1  0.16608064  0.19674167  0.60554653  1
  O2-  O206  1  0.16935529  0.20520850  0.92977563  1
  O2-  O207  1  0.17227074  0.71125672  0.26574427  1
  O2-  O208  1  0.16437007  0.71106528  0.60529565  1
  O2-  O209  1  0.17043013  0.70862911  0.93032859  1
  O2-  O210  1  0.66316133  0.20674604  0.26066579  1
  O2-  O211  1  0.66646882  0.20939428  0.59783653  1
  O2-  O212  1  0.66569619  0.20177526  0.94088514  1
  O2-  O213  1  0.66187355  0.70747466  0.27451868  1
  O2-  O214  1  0.66819072  0.71169078  0.59733197  1
  O2-  O215  1  0.66455043  0.70972734  0.92994064  1
  O2-  O216  1  0.08023643  0.45134809  0.05934767  1
  O2-  O217  1  0.08469521  0.45577746  0.39519386  1
  O2-  O218  1  0.08340831  0.46221339  0.73278008  1
  O2-  O219  1  0.08533742  0.96036162  0.06526190  1
  O2-  O220  1  0.08107651  0.94960241  0.39203395  1
  O2-  O221  1  0.07823436  0.95749766  0.73628381  1
  O2-  O222  1  0.58937666  0.45619441  0.06740658  1
  O2-  O223  1  0.58623636  0.45192079  0.39782769  1
  O2-  O224  1  0.58733336  0.46167781  0.73395120  1
  O2-  O225  1  0.58851316  0.95639630  0.06211222  1
  O2-  O226  1  0.58586100  0.96088263  0.40421564  1
  O2-  O227  1  0.58676965  0.95030226  0.73206832  1
  O2-  O228  1  0.20311747  0.33411017  0.06146184  1
  O2-  O229  1  0.20108105  0.33619544  0.39918527  1
  O2-  O230  1  0.18859117  0.33171438  0.72502667  1
  O2-  O231  1  0.20367846  0.83877630  0.06545411  1
  O2-  O232  1  0.20717795  0.83817696  0.39630237  1
  O2-  O233  1  0.20700834  0.83317359  0.73796495  1
  O2-  O234  1  0.70606672  0.33493994  0.06542158  1
  O2-  O235  1  0.70324397  0.32999085  0.39261657  1
  O2-  O236  1  0.71409365  0.33288551  0.73468443  1
  O2-  O237  1  0.70800563  0.83553380  0.06026218  1
  O2-  O238  1  0.70956131  0.83328866  0.40547337  1
  O2-  O239  1  0.71143959  0.83551875  0.73285243  1
  O2-  O240  1  0.45808861  0.41544137  0.26892622  1
  O2-  O241  1  0.46423286  0.41680518  0.59560871  1
  O2-  O242  1  0.46513179  0.41438193  0.93491369  1
  O2-  O243  1  0.46298848  0.90974133  0.27268759  1
  O2-  O244  1  0.45448090  0.91403632  0.60457463  1
  O2-  O245  1  0.46313733  0.91808121  0.92896847  1
  O2-  O246  1  0.96068226  0.41598342  0.26430743  1
  O2-  O247  1  0.95909269  0.41968934  0.59952472  1
  O2-  O248  1  0.95054083  0.41986524  0.92925380  1
  O2-  O249  1  0.94745361  0.92290603  0.26841702  1
  O2-  O250  1  0.95489403  0.91488375  0.60384417  1
  O2-  O251  1  0.95310153  0.92032268  0.93352035  1
  O2-  O252  1  0.33170086  0.30089399  0.27197582  1
  O2-  O253  1  0.32360779  0.30553101  0.60087264  1
  O2-  O254  1  0.33434523  0.29401662  0.93359240  1
  O2-  O255  1  0.33837623  0.79695458  0.27401116  1
  O2-  O256  1  0.33252412  0.79543829  0.60536982  1
  O2-  O257  1  0.32675977  0.80608533  0.93516213  1
  O2-  O258  1  0.83317781  0.29090032  0.26349066  1
  O2-  O259  1  0.83564694  0.28642037  0.59757707  1
  O2-  O260  1  0.82883170  0.28842609  0.93254994  1
  O2-  O261  1  0.82791990  0.78988156  0.26910430  1
  O2-  O262  1  0.83704382  0.79452608  0.60342817  1
  O2-  O263  1  0.83151441  0.79115594  0.92882756  1
  O2-  O264  1  0.41427283  0.04329741  0.06106530  1
  O2-  O265  1  0.41407473  0.03525651  0.40051035  1
  O2-  O266  1  0.42051364  0.04265255  0.73747745  1
  O2-  O267  1  0.41696873  0.53734981  0.06909853  1
  O2-  O268  1  0.41838167  0.53983498  0.40145721  1
  O2-  O269  1  0.41964113  0.53877193  0.73204164  1
  O2-  O270  1  0.91429292  0.04650729  0.06246575  1
  O2-  O271  1  0.91747553  0.05499739  0.39443568  1
  O2-  O272  1  0.90988509  0.04218555  0.73034215  1
  O2-  O273  1  0.91413341  0.54526696  0.05940658  1
  O2-  O274  1  0.91988715  0.54158374  0.39811861  1
  O2-  O275  1  0.91907960  0.55056060  0.72862932  1
  O2-  O276  1  0.29324130  0.16422961  0.06156398  1
  O2-  O277  1  0.29552958  0.16971932  0.40034713  1
  O2-  O278  1  0.29616763  0.17425141  0.73329510  1
  O2-  O279  1  0.29365290  0.67082566  0.06488387  1
  O2-  O280  1  0.29323238  0.66893345  0.40246297  1
  O2-  O281  1  0.28990604  0.66378613  0.73520641  1
  O2-  O282  1  0.79171619  0.16185948  0.06580254  1
  O2-  O283  1  0.79031273  0.16624069  0.39510318  1
  O2-  O284  1  0.78984230  0.16135557  0.72955093  1
  O2-  O285  1  0.78928003  0.66244743  0.06094660  1
  O2-  O286  1  0.78931055  0.66294655  0.40346880  1
  O2-  O287  1  0.79719380  0.66765966  0.72967527  1
