# generated using pymatgen
data_Ca2Al2SiO7
_symmetry_space_group_name_H-M   'P 1'
_cell_length_a   15.46997729
_cell_length_b   15.46917746
_cell_length_c   15.29221423
_cell_angle_alpha   89.97746973
_cell_angle_beta   90.00402186
_cell_angle_gamma   89.96956595
_symmetry_Int_Tables_number   1
_chemical_formula_structural   Ca2Al2SiO7
_chemical_formula_sum   'Ca48 Al48 Si24 O168'
_cell_volume   3659.54570368
_cell_formula_units_Z   24
loop_
 _symmetry_equiv_pos_site_id
 _symmetry_equiv_pos_as_xyz
  1  'x, y, z'
loop_
 _atom_type_symbol
 _atom_type_oxidation_number
  Ca2+  2.0
  Al0+  0.0
  Si0+  0.0
  O2-  -2.0
loop_
 _atom_site_type_symbol
 _atom_site_label
 _atom_site_symmetry_multiplicity
 _atom_site_fract_x
 _atom_site_fract_y
 _atom_site_fract_z
 _atom_site_occupancy
  Ca2+  Ca0  1  0.17834004  0.08044758  0.17893224  1
  Ca2+  Ca1  1  0.16749237  0.07919830  0.49482169  1
  Ca2+  Ca2  1  0.17675844  0.07915462  0.84219322  1
  Ca2+  Ca3  1  0.17141082  0.58622595  0.16699080  1
  Ca2+  Ca4  1  0.16674432  0.58219256  0.50492464  1
  Ca2+  Ca5  1  0.17037789  0.58514625  0.84352939  1
  Ca2+  Ca6  1  0.66365705  0.08027318  0.17179781  1
  Ca2+  Ca7  1  0.67280555  0.08463657  0.50717553  1
  Ca2+  Ca8  1  0.66176664  0.07590562  0.83775211  1
  Ca2+  Ca9  1  0.66516194  0.58535946  0.17681909  1
  Ca2+  Ca10  1  0.66881144  0.58891423  0.50102530  1
  Ca2+  Ca11  1  0.65904588  0.58531174  0.84019840  1
  Ca2+  Ca12  1  0.07819552  0.33033559  0.17134751  1
  Ca2+  Ca13  1  0.07469765  0.32313365  0.48932383  1
  Ca2+  Ca14  1  0.08142710  0.33248171  0.83161153  1
  Ca2+  Ca15  1  0.07615519  0.83934033  0.16553697  1
  Ca2+  Ca16  1  0.07862086  0.83288206  0.49052237  1
  Ca2+  Ca17  1  0.08840900  0.81991943  0.82985286  1
  Ca2+  Ca18  1  0.57324036  0.31986620  0.16712777  1
  Ca2+  Ca19  1  0.58138690  0.32093140  0.49210559  1
  Ca2+  Ca20  1  0.57703134  0.32196963  0.83323598  1
  Ca2+  Ca21  1  0.57676644  0.82876831  0.16028196  1
  Ca2+  Ca22  1  0.58740824  0.82659060  0.49494687  1
  Ca2+  Ca23  1  0.58361331  0.83238796  0.83328697  1
  Ca2+  Ca24  1  0.34722599  0.42147622  0.17016852  1
  Ca2+  Ca25  1  0.33718554  0.41486121  0.49982597  1
  Ca2+  Ca26  1  0.33724791  0.42449675  0.84460747  1
  Ca2+  Ca27  1  0.33506675  0.92162025  0.17324370  1
  Ca2+  Ca28  1  0.33538628  0.91752545  0.49300820  1
  Ca2+  Ca29  1  0.33707937  0.91929129  0.84302492  1
  Ca2+  Ca30  1  0.83209471  0.42433259  0.17695856  1
  Ca2+  Ca31  1  0.83750764  0.42127878  0.49772615  1
  Ca2+  Ca32  1  0.82767342  0.42011593  0.83859339  1
  Ca2+  Ca33  1  0.82511435  0.91669106  0.17482594  1
  Ca2+  Ca34  1  0.82958395  0.92577632  0.50291562  1
  Ca2+  Ca35  1  0.81902174  0.91870386  0.83371180  1
  Ca2+  Ca36  1  0.41819334  0.16696989  0.15927226  1
  Ca2+  Ca37  1  0.42781558  0.16708027  0.48861455  1
  Ca2+  Ca38  1  0.42917929  0.15679213  0.83610222  1
  Ca2+  Ca39  1  0.42274198  0.67679597  0.16036614  1
  Ca2+  Ca40  1  0.43004632  0.67436098  0.49102183  1
  Ca2+  Ca41  1  0.42355164  0.66999804  0.83363295  1
  Ca2+  Ca42  1  0.91972555  0.16136363  0.17106186  1
  Ca2+  Ca43  1  0.91595319  0.16486633  0.48546417  1
  Ca2+  Ca44  1  0.91449015  0.16538708  0.82771018  1
  Ca2+  Ca45  1  0.91828810  0.67236850  0.16673477  1
  Ca2+  Ca46  1  0.91974614  0.67354282  0.49099067  1
  Ca2+  Ca47  1  0.92808993  0.66760399  0.82987691  1
  Al0+  Al48  1  -0.00219747  0.00134598  -0.00460302  1
  Al0+  Al49  1  -0.00026183  -0.00166809  0.33158560  1
  Al0+  Al50  1  0.00195221  -0.00035062  0.67329793  1
  Al0+  Al51  1  -0.00071465  0.50007644  -0.00329593  1
  Al0+  Al52  1  0.00024291  0.49936674  0.33548128  1
  Al0+  Al53  1  0.00158127  0.49907068  0.66483594  1
  Al0+  Al54  1  0.50052568  -0.00142529  0.00162088  1
  Al0+  Al55  1  0.49989648  -0.00342644  0.33354444  1
  Al0+  Al56  1  0.49942715  0.00062842  0.66492266  1
  Al0+  Al57  1  0.49971276  0.49832138  0.00039097  1
  Al0+  Al58  1  0.50265288  0.49748175  0.33177712  1
  Al0+  Al59  1  0.49978011  0.50222864  0.66362020  1
  Al0+  Al60  1  0.24642678  0.25154752  0.00014928  1
  Al0+  Al61  1  0.24936753  0.25187723  0.33269506  1
  Al0+  Al62  1  0.24720740  0.25124552  0.66876711  1
  Al0+  Al63  1  0.24859990  0.74835872  -0.00193829  1
  Al0+  Al64  1  0.25161663  0.74763560  0.33647525  1
  Al0+  Al65  1  0.25089167  0.74843609  0.66183327  1
  Al0+  Al66  1  0.75067031  0.25212592  -0.00257720  1
  Al0+  Al67  1  0.74845751  0.25251390  0.32841304  1
  Al0+  Al68  1  0.74979311  0.25450049  0.66789683  1
  Al0+  Al69  1  0.75156644  0.75146974  -0.00022890  1
  Al0+  Al70  1  0.75472420  0.74852833  0.33155078  1
  Al0+  Al71  1  0.75238163  0.75153856  0.66826920  1
  Al0+  Al72  1  0.57051308  0.17956445  0.65254378  1
  Al0+  Al73  1  0.82220780  0.57140880  0.34768930  1
  Al0+  Al74  1  0.57134534  0.17824668  0.98473240  1
  Al0+  Al75  1  0.17890214  0.92721421  0.34749461  1
  Al0+  Al76  1  0.92773618  0.32224077  0.31810538  1
  Al0+  Al77  1  0.68047880  0.92929742  0.01548821  1
  Al0+  Al78  1  0.07025758  0.17718510  0.31869146  1
  Al0+  Al79  1  0.42758489  0.31980486  0.32036996  1
  Al0+  Al80  1  0.57271730  0.67893092  0.98611276  1
  Al0+  Al81  1  0.42734724  0.81998451  0.31810125  1
  Al0+  Al82  1  0.32318405  0.07279575  0.34902466  1
  Al0+  Al83  1  0.42593784  0.32057791  0.98487654  1
  Al0+  Al84  1  0.42850215  0.82094473  0.98485421  1
  Al0+  Al85  1  0.67782434  0.92909851  0.68163785  1
  Al0+  Al86  1  0.07165410  0.67838534  0.65130742  1
  Al0+  Al87  1  0.82198910  0.07441398  0.68132712  1
  Al0+  Al88  1  0.57220681  0.67961744  0.65243405  1
  Al0+  Al89  1  0.32104656  0.56988661  0.01485367  1
  Al0+  Al90  1  0.93124231  0.82120778  0.32038873  1
  Al0+  Al91  1  0.57307876  0.68005767  0.31942564  1
  Al0+  Al92  1  0.31927227  0.07031945  0.01277497  1
  Al0+  Al93  1  0.57150160  0.17588501  0.31950594  1
  Al0+  Al94  1  0.06841571  0.68015974  0.98787177  1
  Al0+  Al95  1  0.81767648  0.07122161  0.34351809  1
  Si0+  Si96  1  0.17756363  0.42979226  0.35029234  1
  Si0+  Si97  1  0.42712905  0.82303110  0.64869997  1
  Si0+  Si98  1  0.07323559  0.67634386  0.31777901  1
  Si0+  Si99  1  0.82243138  0.07487506  0.01717301  1
  Si0+  Si100  1  0.67902910  0.42882869  0.01587765  1
  Si0+  Si101  1  0.82300167  0.57052424  0.68245879  1
  Si0+  Si102  1  0.92703892  0.82494078  0.97993679  1
  Si0+  Si103  1  0.17991238  0.92685316  0.68235739  1
  Si0+  Si104  1  0.67775173  0.43188707  0.68280644  1
  Si0+  Si105  1  0.07088813  0.17846738  0.65333065  1
  Si0+  Si106  1  0.32315532  0.56881341  0.35015489  1
  Si0+  Si107  1  0.17464864  0.42862901  0.01853029  1
  Si0+  Si108  1  0.93019289  0.32184470  0.98331464  1
  Si0+  Si109  1  0.93077244  0.82244508  0.65020357  1
  Si0+  Si110  1  0.17563640  0.92708864  0.01450523  1
  Si0+  Si111  1  0.42669302  0.32256358  0.65147156  1
  Si0+  Si112  1  0.67828209  0.42982942  0.35192281  1
  Si0+  Si113  1  0.82172039  0.56994092  0.01335719  1
  Si0+  Si114  1  0.07002282  0.17832775  0.98330296  1
  Si0+  Si115  1  0.92922925  0.32096011  0.65244307  1
  Si0+  Si116  1  0.32099894  0.57024841  0.68141300  1
  Si0+  Si117  1  0.31890891  0.07206937  0.68111506  1
  Si0+  Si118  1  0.67840670  0.92587392  0.34911816  1
  Si0+  Si119  1  0.17872773  0.42962162  0.68307236  1
  O2-  O120  1  0.24419831  -0.00464440  0.05774428  1
  O2-  O121  1  0.25056494  -0.00019247  0.39844962  1
  O2-  O122  1  0.25136518  -0.00250468  0.72396081  1
  O2-  O123  1  0.24814364  0.49227198  0.06175837  1
  O2-  O124  1  0.25131064  0.49814897  0.39278168  1
  O2-  O125  1  0.25024431  0.49936787  0.72528073  1
  O2-  O126  1  0.75425040  0.00617178  0.06028451  1
  O2-  O127  1  0.74045397  0.00110905  0.39279177  1
  O2-  O128  1  0.74710414  0.00534113  0.73092951  1
  O2-  O129  1  0.74537021  0.50555500  0.05577951  1
  O2-  O130  1  0.74686327  0.49873852  0.39679911  1
  O2-  O131  1  0.74729408  0.50500384  0.72570787  1
  O2-  O132  1  -0.00333177  0.24772351  0.26805502  1
  O2-  O133  1  -0.00699895  0.24257543  0.61241110  1
  O2-  O134  1  -0.00204241  0.24826778  0.94025354  1
  O2-  O135  1  0.00888612  0.74880428  0.27425261  1
  O2-  O136  1  -0.00122457  0.75361348  0.60492736  1
  O2-  O137  1  -0.00200361  0.75718904  0.93772805  1
  O2-  O138  1  0.49048165  0.23955197  0.27167260  1
  O2-  O139  1  0.49346104  0.25277777  0.60770339  1
  O2-  O140  1  0.49533867  0.24681978  0.93416300  1
  O2-  O141  1  0.50187926  0.75099727  0.26873357  1
  O2-  O142  1  0.50077604  0.75784513  0.60749460  1
  O2-  O143  1  0.50100357  0.74976624  0.93391474  1
  O2-  O144  1  0.06908719  0.17713316  0.08748338  1
  O2-  O145  1  0.06850883  0.17930950  0.43317025  1
  O2-  O146  1  0.07364407  0.18291099  0.75869328  1
  O2-  O147  1  0.06479313  0.67724623  0.10033682  1
  O2-  O148  1  0.07045687  0.67544067  0.42379891  1
  O2-  O149  1  0.07069899  0.67753547  0.76454290  1
  O2-  O150  1  0.57338654  0.18048788  0.09739510  1
  O2-  O151  1  0.57405610  0.18109892  0.43360742  1
  O2-  O152  1  0.56899385  0.18042050  0.76544887  1
  O2-  O153  1  0.57327429  0.67960356  0.09891230  1
  O2-  O154  1  0.57213045  0.68107692  0.43363261  1
  O2-  O155  1  0.56760710  0.67508230  0.76486641  1
  O2-  O156  1  0.17194156  0.43331597  0.24574685  1
  O2-  O157  1  0.17774330  0.42843447  0.57834412  1
  O2-  O158  1  0.17081066  0.43158985  0.91231726  1
  O2-  O159  1  0.17815296  0.92820056  0.23398041  1
  O2-  O160  1  0.17692638  0.92774904  0.57794164  1
  O2-  O161  1  0.17527866  0.92930381  0.90803681  1
  O2-  O162  1  0.67867903  0.43197840  0.24639084  1
  O2-  O163  1  0.67925891  0.43050433  0.57822402  1
  O2-  O164  1  0.68287461  0.42755950  0.90998934  1
  O2-  O165  1  0.68233159  0.92343231  0.24367146  1
  O2-  O166  1  0.68128844  0.92752932  0.56823840  1
  O2-  O167  1  0.68264654  0.92878306  0.90221368  1
  O2-  O168  1  0.42911562  0.31985522  0.09769531  1
  O2-  O169  1  0.43209128  0.32251099  0.43461236  1
  O2-  O170  1  0.42684834  0.32484252  0.75666611  1
  O2-  O171  1  0.42770878  0.81923286  0.09758653  1
  O2-  O172  1  0.42708654  0.81582649  0.43222249  1
  O2-  O173  1  0.42216264  0.82093467  0.75407299  1
  O2-  O174  1  0.93180701  0.32576028  0.08742798  1
  O2-  O175  1  0.93185385  0.32329535  0.43222661  1
  O2-  O176  1  0.93269633  0.32496790  0.75793862  1
  O2-  O177  1  0.92760950  0.82574145  0.08533830  1
  O2-  O178  1  0.93109886  0.81944476  0.43369322  1
  O2-  O179  1  0.93297623  0.81968081  0.75597801  1
  O2-  O180  1  0.32015525  0.07328659  0.23563570  1
  O2-  O181  1  0.31593257  0.07536700  0.57673583  1
  O2-  O182  1  0.31632223  0.06878876  0.89846475  1
  O2-  O183  1  0.32183904  0.56869326  0.24533513  1
  O2-  O184  1  0.31966547  0.56747225  0.57635684  1
  O2-  O185  1  0.31817774  0.56902397  0.90090663  1
  O2-  O186  1  0.81808064  0.06787441  0.23055855  1
  O2-  O187  1  0.82402470  0.07360452  0.56795783  1
  O2-  O188  1  0.82368400  0.07510312  0.91139483  1
  O2-  O189  1  0.82321158  0.56928221  0.23433072  1
  O2-  O190  1  0.82550741  0.56720446  0.57781069  1
  O2-  O191  1  0.82476892  0.56515233  0.90769018  1
  O2-  O192  1  0.04286771  0.08019652  0.26443541  1
  O2-  O193  1  0.05118231  0.08331124  0.61038831  1
  O2-  O194  1  0.04372733  0.08704602  0.93273136  1
  O2-  O195  1  0.04305430  0.58485513  0.27174106  1
  O2-  O196  1  0.04092304  0.58119912  0.59873922  1
  O2-  O197  1  0.03455703  0.58490782  0.93084675  1
  O2-  O198  1  0.55368497  0.07419819  0.27195174  1
  O2-  O199  1  0.54183671  0.08265194  0.59918209  1
  O2-  O200  1  0.54230245  0.08008979  0.93208303  1
  O2-  O201  1  0.54538168  0.58070452  0.27007619  1
  O2-  O202  1  0.53920178  0.58407957  0.59674179  1
  O2-  O203  1  0.54474270  0.57946666  0.93510927  1
  O2-  O204  1  0.16690073  0.21011274  0.26640652  1
  O2-  O205  1  0.15952825  0.21366529  0.60455937  1
  O2-  O206  1  0.15992008  0.20840735  0.93328444  1
  O2-  O207  1  0.16882039  0.69573880  0.27531748  1
  O2-  O208  1  0.16861231  0.70597791  0.59719763  1
  O2-  O209  1  0.16446545  0.70782962  0.93110422  1
  O2-  O210  1  0.66495137  0.21296129  0.26331962  1
  O2-  O211  1  0.66727779  0.21478642  0.60154464  1
  O2-  O212  1  0.66897596  0.21176481  0.93126186  1
  O2-  O213  1  0.67261223  0.70388633  0.26864976  1
  O2-  O214  1  0.67211838  0.70564942  0.60249124  1
  O2-  O215  1  0.67255540  0.70500871  0.93363412  1
  O2-  O216  1  0.08293526  0.46096512  0.06477775  1
  O2-  O217  1  0.08829808  0.46089007  0.40178356  1
  O2-  O218  1  0.08720918  0.45846782  0.73172769  1
  O2-  O219  1  0.08071718  0.95415219  0.05724209  1
  O2-  O220  1  0.08101106  0.95725912  0.40175282  1
  O2-  O221  1  0.08969697  0.95374470  0.73366395  1
  O2-  O222  1  0.58646116  0.45099745  0.06247480  1
  O2-  O223  1  0.58572460  0.45518425  0.40085281  1
  O2-  O224  1  0.58517699  0.45906847  0.72937536  1
  O2-  O225  1  0.58372196  0.95752899  0.06874086  1
  O2-  O226  1  0.58261058  0.94136354  0.39353874  1
  O2-  O227  1  0.57736292  0.95443793  0.73280844  1
  O2-  O228  1  0.19162553  0.33264179  0.06155868  1
  O2-  O229  1  0.20162690  0.33761212  0.39902094  1
  O2-  O230  1  0.20351695  0.33744307  0.73249826  1
  O2-  O231  1  0.19684422  0.83254007  0.05858194  1
  O2-  O232  1  0.20578185  0.82807532  0.40223983  1
  O2-  O233  1  0.20832306  0.83375912  0.72794322  1
  O2-  O234  1  0.71432745  0.33976460  0.06326212  1
  O2-  O235  1  0.70625306  0.33682256  0.39774248  1
  O2-  O236  1  0.70878946  0.34239364  0.73325877  1
  O2-  O237  1  0.71459291  0.83314218  0.06912652  1
  O2-  O238  1  0.71354018  0.83544558  0.39604984  1
  O2-  O239  1  0.71121916  0.83183675  0.73651945  1
  O2-  O240  1  0.46502676  0.41443504  0.26593638  1
  O2-  O241  1  0.45267246  0.41581069  0.60494863  1
  O2-  O242  1  0.45897189  0.41743388  0.93123394  1
  O2-  O243  1  0.45027542  0.91956211  0.26767310  1
  O2-  O244  1  0.44746699  0.91801071  0.60419220  1
  O2-  O245  1  0.45751161  0.91866161  0.93128694  1
  O2-  O246  1  0.96261720  0.41894247  0.26521987  1
  O2-  O247  1  0.96509622  0.40916930  0.60343031  1
  O2-  O248  1  0.96147055  0.41115157  0.93192153  1
  O2-  O249  1  0.95999701  0.91554559  0.26255220  1
  O2-  O250  1  0.95853679  0.91675709  0.60701697  1
  O2-  O251  1  0.94993879  0.91870783  0.93251476  1
  O2-  O252  1  0.32532110  0.30814811  0.27114772  1
  O2-  O253  1  0.33098398  0.29887449  0.60809312  1
  O2-  O254  1  0.32383441  0.30112838  0.93446054  1
  O2-  O255  1  0.32948961  0.78828869  0.26649548  1
  O2-  O256  1  0.33613551  0.79215955  0.60039307  1
  O2-  O257  1  0.32948300  0.79296266  0.93179791  1
  O2-  O258  1  0.82933054  0.30065604  0.26449934  1
  O2-  O259  1  0.83501388  0.30410593  0.60683605  1
  O2-  O260  1  0.83825570  0.29701729  0.93440232  1
  O2-  O261  1  0.83845664  0.78552471  0.26316355  1
  O2-  O262  1  0.83736821  0.79708970  0.60506477  1
  O2-  O263  1  0.83604143  0.79423915  0.93255551  1
  O2-  O264  1  0.41604292  0.04191286  0.06509405  1
  O2-  O265  1  0.42102713  0.04196936  0.40346963  1
  O2-  O266  1  0.41167707  0.04628683  0.72699358  1
  O2-  O267  1  0.41776029  0.53951927  0.06881490  1
  O2-  O268  1  0.41428472  0.53792636  0.39772478  1
  O2-  O269  1  0.41285727  0.54255073  0.72884858  1
  O2-  O270  1  0.91757664  0.04920173  0.06038520  1
  O2-  O271  1  0.91420264  0.03870788  0.39686645  1
  O2-  O272  1  0.92043950  0.04495346  0.73644433  1
  O2-  O273  1  0.91066015  0.53451313  0.06122392  1
  O2-  O274  1  0.91759944  0.53775266  0.40383301  1
  O2-  O275  1  0.91310961  0.53550064  0.73056655  1
  O2-  O276  1  0.28675495  0.16769384  0.06384354  1
  O2-  O277  1  0.29410859  0.17219182  0.40135278  1
  O2-  O278  1  0.28656367  0.16235627  0.73000681  1
  O2-  O279  1  0.28538432  0.66529287  0.06798909  1
  O2-  O280  1  0.29563454  0.65929389  0.40008191  1
  O2-  O281  1  0.29250308  0.66256119  0.72716247  1
  O2-  O282  1  0.80016237  0.17029341  0.06056821  1
  O2-  O283  1  0.79298982  0.17099837  0.39501124  1
  O2-  O284  1  0.79935022  0.17583843  0.73211138  1
  O2-  O285  1  0.80322722  0.66470051  0.05736054  1
  O2-  O286  1  0.79419102  0.66784845  0.40353012  1
  O2-  O287  1  0.80301418  0.66440246  0.72829663  1
