# generated using pymatgen
data_Ca2Al2SiO7
_symmetry_space_group_name_H-M   'P 1'
_cell_length_a   15.45076176
_cell_length_b   15.45045570
_cell_length_c   15.27833033
_cell_angle_alpha   90.00333317
_cell_angle_beta   89.99618857
_cell_angle_gamma   89.99817601
_symmetry_Int_Tables_number   1
_chemical_formula_structural   Ca2Al2SiO7
_chemical_formula_sum   'Ca48 Al48 Si24 O168'
_cell_volume   3647.26301508
_cell_formula_units_Z   24
loop_
 _symmetry_equiv_pos_site_id
 _symmetry_equiv_pos_as_xyz
  1  'x, y, z'
loop_
 _atom_type_symbol
 _atom_type_oxidation_number
  Ca2+  2.0
  Al0+  0.0
  Si0+  0.0
  O2-  -2.0
loop_
 _atom_site_type_symbol
 _atom_site_label
 _atom_site_symmetry_multiplicity
 _atom_site_fract_x
 _atom_site_fract_y
 _atom_site_fract_z
 _atom_site_occupancy
  Ca2+  Ca0  1  0.17121373  0.07571644  0.17051090  1
  Ca2+  Ca1  1  0.16835679  0.07789680  0.50860537  1
  Ca2+  Ca2  1  0.15664078  0.06970825  0.83459751  1
  Ca2+  Ca3  1  0.17146516  0.59421469  0.16872343  1
  Ca2+  Ca4  1  0.16376473  0.58196412  0.50402499  1
  Ca2+  Ca5  1  0.16750906  0.58441008  0.83575152  1
  Ca2+  Ca6  1  0.67161306  0.07932732  0.17450763  1
  Ca2+  Ca7  1  0.67000648  0.08119269  0.49932818  1
  Ca2+  Ca8  1  0.67927179  0.08445278  0.83659567  1
  Ca2+  Ca9  1  0.66691598  0.56892312  0.17404522  1
  Ca2+  Ca10  1  0.67580452  0.57966244  0.50370993  1
  Ca2+  Ca11  1  0.67466770  0.57948350  0.83747236  1
  Ca2+  Ca12  1  0.06855789  0.33402881  0.16242058  1
  Ca2+  Ca13  1  0.08095581  0.32993777  0.49742255  1
  Ca2+  Ca14  1  0.08117802  0.32754340  0.82471750  1
  Ca2+  Ca15  1  0.07851912  0.82773167  0.16149213  1
  Ca2+  Ca16  1  0.08161454  0.82324758  0.49423309  1
  Ca2+  Ca17  1  0.08753502  0.82582557  0.83015195  1
  Ca2+  Ca18  1  0.59203274  0.32879697  0.16405329  1
  Ca2+  Ca19  1  0.58072189  0.32900704  0.49361558  1
  Ca2+  Ca20  1  0.57749053  0.33842606  0.83054789  1
  Ca2+  Ca21  1  0.57736568  0.83962893  0.16858736  1
  Ca2+  Ca22  1  0.57425976  0.83853431  0.49206737  1
  Ca2+  Ca23  1  0.57382146  0.83182670  0.82646984  1
  Ca2+  Ca24  1  0.33118820  0.43230897  0.17396528  1
  Ca2+  Ca25  1  0.32839263  0.42196025  0.50666286  1
  Ca2+  Ca26  1  0.32588973  0.41773069  0.83702180  1
  Ca2+  Ca27  1  0.32639832  0.91649150  0.17475930  1
  Ca2+  Ca28  1  0.33331353  0.91922450  0.50370619  1
  Ca2+  Ca29  1  0.32008820  0.90739848  0.83369414  1
  Ca2+  Ca30  1  0.82768920  0.40885928  0.17172441  1
  Ca2+  Ca31  1  0.83260225  0.41807316  0.50195987  1
  Ca2+  Ca32  1  0.83335954  0.42219230  0.83884453  1
  Ca2+  Ca33  1  0.83527745  0.91769983  0.17185483  1
  Ca2+  Ca34  1  0.82943017  0.91515860  0.50417968  1
  Ca2+  Ca35  1  0.84537730  0.92972742  0.83854569  1
  Ca2+  Ca36  1  0.42338376  0.15996629  0.16887780  1
  Ca2+  Ca37  1  0.41798351  0.17172438  0.49157577  1
  Ca2+  Ca38  1  0.41907761  0.17526963  0.82376340  1
  Ca2+  Ca39  1  0.40942482  0.66842575  0.16587844  1
  Ca2+  Ca40  1  0.41073004  0.67893619  0.49437996  1
  Ca2+  Ca41  1  0.41512630  0.66786391  0.82957454  1
  Ca2+  Ca42  1  0.90807047  0.17561015  0.16236898  1
  Ca2+  Ca43  1  0.92054694  0.16743594  0.49854439  1
  Ca2+  Ca44  1  0.91601921  0.16858027  0.83015431  1
  Ca2+  Ca45  1  0.92645744  0.67756263  0.15990863  1
  Ca2+  Ca46  1  0.92625061  0.66528336  0.49266441  1
  Ca2+  Ca47  1  0.92664079  0.66845209  0.82688198  1
  Al0+  Al48  1  0.00055518  0.00122353  0.00977018  1
  Al0+  Al49  1  0.00107356  0.00022530  0.33114914  1
  Al0+  Al50  1  -0.00006369  0.00038801  0.66911690  1
  Al0+  Al51  1  -0.00013737  0.50015957  -0.00758012  1
  Al0+  Al52  1  0.00081057  0.49853961  0.32317258  1
  Al0+  Al53  1  -0.00002734  0.49980675  0.67152860  1
  Al0+  Al54  1  0.50128767  0.00092201  -0.00502906  1
  Al0+  Al55  1  0.50046119  0.00106094  0.33250228  1
  Al0+  Al56  1  0.50070467  0.00090474  0.66496844  1
  Al0+  Al57  1  0.49990029  0.50014046  0.00758043  1
  Al0+  Al58  1  0.49870367  0.50043593  0.34443855  1
  Al0+  Al59  1  0.50034070  0.50069801  0.66108029  1
  Al0+  Al60  1  0.25073660  0.25034829  0.00188209  1
  Al0+  Al61  1  0.25090362  0.25065351  0.33442545  1
  Al0+  Al62  1  0.25002809  0.25084877  0.66235941  1
  Al0+  Al63  1  0.24942857  0.75096077  0.00443657  1
  Al0+  Al64  1  0.25085434  0.75053653  0.33082522  1
  Al0+  Al65  1  0.25026402  0.75004955  0.66136580  1
  Al0+  Al66  1  0.75014759  0.24864125  0.00041510  1
  Al0+  Al67  1  0.74890391  0.24884230  0.33270772  1
  Al0+  Al68  1  0.74852965  0.24948197  0.67061660  1
  Al0+  Al69  1  0.74888175  0.75137334  -0.00483372  1
  Al0+  Al70  1  0.74900304  0.74949313  0.33417512  1
  Al0+  Al71  1  0.74910103  0.74920217  0.67319851  1
  Al0+  Al72  1  0.32092404  0.07079708  0.34690842  1
  Al0+  Al73  1  0.18084296  0.93028300  0.01540504  1
  Al0+  Al74  1  0.82021384  0.07001131  0.67973902  1
  Al0+  Al75  1  0.67996539  0.42669916  0.34937107  1
  Al0+  Al76  1  0.92765027  0.31930938  0.98383816  1
  Al0+  Al77  1  0.92600903  0.82246873  0.31970844  1
  Al0+  Al78  1  0.42846419  0.32207629  0.65247979  1
  Al0+  Al79  1  0.81983702  0.06916048  0.01574223  1
  Al0+  Al80  1  0.17949382  0.42771764  0.67978880  1
  Al0+  Al81  1  0.31887708  0.56915161  0.01265814  1
  Al0+  Al82  1  0.06952277  0.17736126  0.65402999  1
  Al0+  Al83  1  0.92768018  0.82403358  0.98325479  1
  Al0+  Al84  1  0.43139793  0.82075202  0.31861197  1
  Al0+  Al85  1  0.43007351  0.81974905  0.65302278  1
  Al0+  Al86  1  0.82193379  0.57108795  0.68034355  1
  Al0+  Al87  1  0.18100563  0.92857220  0.67828606  1
  Al0+  Al88  1  0.93004620  0.31793056  0.32133258  1
  Al0+  Al89  1  0.31898426  0.57262004  0.35039767  1
  Al0+  Al90  1  0.56889976  0.18096498  0.31941596  1
  Al0+  Al91  1  0.06935212  0.67833987  0.65197145  1
  Al0+  Al92  1  0.07134094  0.67867428  0.31687085  1
  Al0+  Al93  1  0.68017231  0.92818514  0.34616227  1
  Al0+  Al94  1  0.68105567  0.43129163  0.01340033  1
  Al0+  Al95  1  0.07253378  0.68130443  0.98157980  1
  Si0+  Si96  1  0.82308627  0.57079186  0.34675014  1
  Si0+  Si97  1  0.42700593  0.32453015  0.31548541  1
  Si0+  Si98  1  0.42978745  0.32274759  0.98775107  1
  Si0+  Si99  1  0.32174885  0.57184006  0.68207331  1
  Si0+  Si100  1  0.67567553  0.92787934  0.68488271  1
  Si0+  Si101  1  0.82291325  0.07191807  0.35056522  1
  Si0+  Si102  1  0.57220119  0.67547785  0.31762235  1
  Si0+  Si103  1  0.57307481  0.17919601  0.64959449  1
  Si0+  Si104  1  0.57063784  0.17895015  0.98316053  1
  Si0+  Si105  1  0.67706301  0.42860788  0.68322467  1
  Si0+  Si106  1  0.32340673  0.07279244  0.68281450  1
  Si0+  Si107  1  0.17580699  0.42533836  0.01689497  1
  Si0+  Si108  1  0.92694412  0.82272401  0.65146232  1
  Si0+  Si109  1  0.92676926  0.32163851  0.65143129  1
  Si0+  Si110  1  0.82381303  0.57400316  0.01682022  1
  Si0+  Si111  1  0.67461491  0.92689528  0.01555433  1
  Si0+  Si112  1  0.17605031  0.42812255  0.34887442  1
  Si0+  Si113  1  0.42994975  0.82128124  0.98550991  1
  Si0+  Si114  1  0.32541485  0.07443125  0.01497612  1
  Si0+  Si115  1  0.07545019  0.17686408  0.31592386  1
  Si0+  Si116  1  0.17776603  0.92903951  0.35158586  1
  Si0+  Si117  1  0.57473689  0.67789206  0.64917473  1
  Si0+  Si118  1  0.07429441  0.17917450  0.98481236  1
  Si0+  Si119  1  0.56996498  0.67595298  0.98653926  1
  O2-  O120  1  0.25693544  0.00586817  0.05859850  1
  O2-  O121  1  0.24403813  0.00010981  0.39566376  1
  O2-  O122  1  0.25568100  0.00361352  0.72746213  1
  O2-  O123  1  0.24180525  0.49697075  0.06010250  1
  O2-  O124  1  0.24392367  0.49707702  0.39410825  1
  O2-  O125  1  0.25513696  0.50183086  0.72700150  1
  O2-  O126  1  0.74782516  -0.00961933  0.05941539  1
  O2-  O127  1  0.75955959  -0.00227213  0.39370736  1
  O2-  O128  1  0.74721674  -0.00627180  0.72819967  1
  O2-  O129  1  0.75702152  0.50380238  0.06186380  1
  O2-  O130  1  0.75488591  0.50227851  0.39330808  1
  O2-  O131  1  0.74647561  0.49624910  0.72703240  1
  O2-  O132  1  0.00439854  0.24345285  0.27268154  1
  O2-  O133  1  -0.00477973  0.25277660  0.60738524  1
  O2-  O134  1  0.00686167  0.24844435  0.93923409  1
  O2-  O135  1  -0.00135126  0.75150909  0.26973246  1
  O2-  O136  1  -0.00754459  0.75170007  0.60662302  1
  O2-  O137  1  -0.00228784  0.75089173  0.93169734  1
  O2-  O138  1  0.49627171  0.25706720  0.26991858  1
  O2-  O139  1  0.50261559  0.24640982  0.60659467  1
  O2-  O140  1  0.49729360  0.24897426  0.94335067  1
  O2-  O141  1  0.50442421  0.74419510  0.27128288  1
  O2-  O142  1  0.50725259  0.74781874  0.60588358  1
  O2-  O143  1  0.50182138  0.75037100  0.94426960  1
  O2-  O144  1  0.07650634  0.18241403  0.09039877  1
  O2-  O145  1  0.07526434  0.17725504  0.42169612  1
  O2-  O146  1  0.06775606  0.17742106  0.76729429  1
  O2-  O147  1  0.07332616  0.68434101  0.09483517  1
  O2-  O148  1  0.06920189  0.67725680  0.43094873  1
  O2-  O149  1  0.07134936  0.67994109  0.76470182  1
  O2-  O150  1  0.57014257  0.17670023  0.08804132  1
  O2-  O151  1  0.56840556  0.18230950  0.43254485  1
  O2-  O152  1  0.57284310  0.18008192  0.75571889  1
  O2-  O153  1  0.56891254  0.67392115  0.09124612  1
  O2-  O154  1  0.57241981  0.67733680  0.42323847  1
  O2-  O155  1  0.57317917  0.67677372  0.75543295  1
  O2-  O156  1  0.17784350  0.42628820  0.24320903  1
  O2-  O157  1  0.17925968  0.42868821  0.56668180  1
  O2-  O158  1  0.18061020  0.42057709  0.91135110  1
  O2-  O159  1  0.17969729  0.93047238  0.24575177  1
  O2-  O160  1  0.18213652  0.93001506  0.56555527  1
  O2-  O161  1  0.18312802  0.92919010  0.90184138  1
  O2-  O162  1  0.68143408  0.42670457  0.23599866  1
  O2-  O163  1  0.67829941  0.42779252  0.57781381  1
  O2-  O164  1  0.67741481  0.43463199  0.90015778  1
  O2-  O165  1  0.67844974  0.93226569  0.23297183  1
  O2-  O166  1  0.67414427  0.92863420  0.57939602  1
  O2-  O167  1  0.66724242  0.93133578  0.91021879  1
  O2-  O168  1  0.43102893  0.32300860  0.09240376  1
  O2-  O169  1  0.42742303  0.32173462  0.42116062  1
  O2-  O170  1  0.43103100  0.32204101  0.76676991  1
  O2-  O171  1  0.43155693  0.82347024  0.09035080  1
  O2-  O172  1  0.43226904  0.82099909  0.43166831  1
  O2-  O173  1  0.43032763  0.81627866  0.76703464  1
  O2-  O174  1  0.92616400  0.31637407  0.09712161  1
  O2-  O175  1  0.93128012  0.31806523  0.43469972  1
  O2-  O176  1  0.92633615  0.31975975  0.75707350  1
  O2-  O177  1  0.92761854  0.82149259  0.09663531  1
  O2-  O178  1  0.92658081  0.82131605  0.43380877  1
  O2-  O179  1  0.92938415  0.82300584  0.75692329  1
  O2-  O180  1  0.31995056  0.06782932  0.23324005  1
  O2-  O181  1  0.32385831  0.07137130  0.57728135  1
  O2-  O182  1  0.32806902  0.07650860  0.90956178  1
  O2-  O183  1  0.31947241  0.57089537  0.23690791  1
  O2-  O184  1  0.32016719  0.57145130  0.57677206  1
  O2-  O185  1  0.32247660  0.56635081  0.89937792  1
  O2-  O186  1  0.81908528  0.07422358  0.24503039  1
  O2-  O187  1  0.81805290  0.07060069  0.56671155  1
  O2-  O188  1  0.81701637  0.07103175  0.90231196  1
  O2-  O189  1  0.82034511  0.56998974  0.24128703  1
  O2-  O190  1  0.82075371  0.56936404  0.56694208  1
  O2-  O191  1  0.81992286  0.57220044  0.91092502  1
  O2-  O192  1  0.05260172  0.08270632  0.27016787  1
  O2-  O193  1  0.03732565  0.08206480  0.59794663  1
  O2-  O194  1  0.04597256  0.08513288  0.94255837  1
  O2-  O195  1  0.04616653  0.58086889  0.26128469  1
  O2-  O196  1  0.03852850  0.58048971  0.60037364  1
  O2-  O197  1  0.04928506  0.58056956  0.93068795  1
  O2-  O198  1  0.53596625  0.08622934  0.26313164  1
  O2-  O199  1  0.55040642  0.08462912  0.60474015  1
  O2-  O200  1  0.54428023  0.08790690  0.93237772  1
  O2-  O201  1  0.54438192  0.58095244  0.27427964  1
  O2-  O202  1  0.55060814  0.58472070  0.60194993  1
  O2-  O203  1  0.53719576  0.58612671  0.93749769  1
  O2-  O204  1  0.16851637  0.20380924  0.26902776  1
  O2-  O205  1  0.16591818  0.20683441  0.59939922  1
  O2-  O206  1  0.16892576  0.20197825  0.93787345  1
  O2-  O207  1  0.16891555  0.70989649  0.26476838  1
  O2-  O208  1  0.16519857  0.70984428  0.59764072  1
  O2-  O209  1  0.17172395  0.71304899  0.93052267  1
  O2-  O210  1  0.66536267  0.21049660  0.26444678  1
  O2-  O211  1  0.66575988  0.20712709  0.60290776  1
  O2-  O212  1  0.66060555  0.21009683  0.93497542  1
  O2-  O213  1  0.66598116  0.69837225  0.27113003  1
  O2-  O214  1  0.66924217  0.70245938  0.60447228  1
  O2-  O215  1  0.66173191  0.70027579  0.93672937  1
  O2-  O216  1  0.08001249  0.44872573  0.05878185  1
  O2-  O217  1  0.08158027  0.45327479  0.39333249  1
  O2-  O218  1  0.08367980  0.45625220  0.73567171  1
  O2-  O219  1  0.08689078  0.96186618  0.07313398  1
  O2-  O220  1  0.08300943  0.95259676  0.39651878  1
  O2-  O221  1  0.08515817  0.95965802  0.73353705  1
  O2-  O222  1  0.58607756  0.46216238  0.07064561  1
  O2-  O223  1  0.58389913  0.45577454  0.40473074  1
  O2-  O224  1  0.58323367  0.45678690  0.72850526  1
  O2-  O225  1  0.58270850  0.95866430  0.06312344  1
  O2-  O226  1  0.58598914  0.96540272  0.40083586  1
  O2-  O227  1  0.58326098  0.95732969  0.73278508  1
  O2-  O228  1  0.20365466  0.33317185  0.06543327  1
  O2-  O229  1  0.20187326  0.33452897  0.39539511  1
  O2-  O230  1  0.21179379  0.33130197  0.73450091  1
  O2-  O231  1  0.21498047  0.83630130  0.07149394  1
  O2-  O232  1  0.20675318  0.83605079  0.39545873  1
  O2-  O233  1  0.21546507  0.83274671  0.73269022  1
  O2-  O234  1  0.71024242  0.33340362  0.06511341  1
  O2-  O235  1  0.71211746  0.33080713  0.40366934  1
  O2-  O236  1  0.69945386  0.33468732  0.73023168  1
  O2-  O237  1  0.69261574  0.83024503  0.05810660  1
  O2-  O238  1  0.70335439  0.82987129  0.40153097  1
  O2-  O239  1  0.69507907  0.83285656  0.73066671  1
  O2-  O240  1  0.45268243  0.41993319  0.27397046  1
  O2-  O241  1  0.45866124  0.41804543  0.59679283  1
  O2-  O242  1  0.46188589  0.41294623  0.93959377  1
  O2-  O243  1  0.46433023  0.91586288  0.26341599  1
  O2-  O244  1  0.45856704  0.91820697  0.60103693  1
  O2-  O245  1  0.45708114  0.91260991  0.93559644  1
  O2-  O246  1  0.95830914  0.41263422  0.26213369  1
  O2-  O247  1  0.95318546  0.41493222  0.60654826  1
  O2-  O248  1  0.95334145  0.41718651  0.93029688  1
  O2-  O249  1  0.95312290  0.92189868  0.26727445  1
  O2-  O250  1  0.95319903  0.91564719  0.60542049  1
  O2-  O251  1  0.95917476  0.92449697  0.93634904  1
  O2-  O252  1  0.33317303  0.29931240  0.26946547  1
  O2-  O253  1  0.33329996  0.29233866  0.59628177  1
  O2-  O254  1  0.33678968  0.29738706  0.94037649  1
  O2-  O255  1  0.33507186  0.79077072  0.26437430  1
  O2-  O256  1  0.33592508  0.78782917  0.59620352  1
  O2-  O257  1  0.33896312  0.79078544  0.93926998  1
  O2-  O258  1  0.83412355  0.28562535  0.26676291  1
  O2-  O259  1  0.83221779  0.29580189  0.60697031  1
  O2-  O260  1  0.83212551  0.28481059  0.92949546  1
  O2-  O261  1  0.82699313  0.79548494  0.26673068  1
  O2-  O262  1  0.83020094  0.79998163  0.61025425  1
  O2-  O263  1  0.82623926  0.80264770  0.93115539  1
  O2-  O264  1  0.41949017  0.04708940  0.05988867  1
  O2-  O265  1  0.41642692  0.03860495  0.40112404  1
  O2-  O266  1  0.41824741  0.04946164  0.72863763  1
  O2-  O267  1  0.41327010  0.53683679  0.07053235  1
  O2-  O268  1  0.41471122  0.54371532  0.40691305  1
  O2-  O269  1  0.41773663  0.54864677  0.72538896  1
  O2-  O270  1  0.91646538  0.04619603  0.07253151  1
  O2-  O271  1  0.91956379  0.05305979  0.39324864  1
  O2-  O272  1  0.91616059  0.04088635  0.73578222  1
  O2-  O273  1  0.91909739  0.55001049  0.05900614  1
  O2-  O274  1  0.91711140  0.54246755  0.39044953  1
  O2-  O275  1  0.91584226  0.53921146  0.73792573  1
  O2-  O276  1  0.30135878  0.16784061  0.06315179  1
  O2-  O277  1  0.29506265  0.16967187  0.39973860  1
  O2-  O278  1  0.29826422  0.16689164  0.72727162  1
  O2-  O279  1  0.29147272  0.66610085  0.06736871  1
  O2-  O280  1  0.28885771  0.67008013  0.40260996  1
  O2-  O281  1  0.29464112  0.66489404  0.72794152  1
  O2-  O282  1  0.78244556  0.16370016  0.06940102  1
  O2-  O283  1  0.79033326  0.16234090  0.39841617  1
  O2-  O284  1  0.78739437  0.16580449  0.73596979  1
  O2-  O285  1  0.79592977  0.66826600  0.05991919  1
  O2-  O286  1  0.79757457  0.66348635  0.39481591  1
  O2-  O287  1  0.79093168  0.66650871  0.73803558  1
