# generated using pymatgen
data_Ca2Al2SiO7
_symmetry_space_group_name_H-M   'P 1'
_cell_length_a   15.46149849
_cell_length_b   15.46157950
_cell_length_c   15.28746221
_cell_angle_alpha   89.98806082
_cell_angle_beta   90.01143952
_cell_angle_gamma   89.99180777
_symmetry_Int_Tables_number   1
_chemical_formula_structural   Ca2Al2SiO7
_chemical_formula_sum   'Ca48 Al48 Si24 O168'
_cell_volume   3654.60811528
_cell_formula_units_Z   24
loop_
 _symmetry_equiv_pos_site_id
 _symmetry_equiv_pos_as_xyz
  1  'x, y, z'
loop_
 _atom_type_symbol
 _atom_type_oxidation_number
  Ca2+  2.0
  Al0+  0.0
  Si0+  0.0
  O2-  -2.0
loop_
 _atom_site_type_symbol
 _atom_site_label
 _atom_site_symmetry_multiplicity
 _atom_site_fract_x
 _atom_site_fract_y
 _atom_site_fract_z
 _atom_site_occupancy
  Ca2+  Ca0  1  0.17144372  0.08044788  0.17397043  1
  Ca2+  Ca1  1  0.17061912  0.07724341  0.50540239  1
  Ca2+  Ca2  1  0.15665762  0.07720815  0.83509282  1
  Ca2+  Ca3  1  0.17284080  0.58182234  0.17275332  1
  Ca2+  Ca4  1  0.17592012  0.59326295  0.50302158  1
  Ca2+  Ca5  1  0.17241055  0.58877033  0.84146223  1
  Ca2+  Ca6  1  0.66284524  0.07673799  0.17285123  1
  Ca2+  Ca7  1  0.66718308  0.07249932  0.50103837  1
  Ca2+  Ca8  1  0.66837737  0.08349429  0.84188401  1
  Ca2+  Ca9  1  0.66044965  0.58605971  0.16897901  1
  Ca2+  Ca10  1  0.67113360  0.58412492  0.50898434  1
  Ca2+  Ca11  1  0.67116000  0.57681800  0.83826329  1
  Ca2+  Ca12  1  0.09210063  0.33142026  0.15992705  1
  Ca2+  Ca13  1  0.09400672  0.32894942  0.49567829  1
  Ca2+  Ca14  1  0.09651741  0.32260794  0.83192911  1
  Ca2+  Ca15  1  0.08780325  0.81819933  0.16579437  1
  Ca2+  Ca16  1  0.07693781  0.82462321  0.49913446  1
  Ca2+  Ca17  1  0.08187772  0.82286323  0.82393271  1
  Ca2+  Ca18  1  0.57493815  0.33201750  0.15917007  1
  Ca2+  Ca19  1  0.57582682  0.33714174  0.49372035  1
  Ca2+  Ca20  1  0.59056132  0.33459621  0.83046546  1
  Ca2+  Ca21  1  0.57535395  0.82378564  0.16534417  1
  Ca2+  Ca22  1  0.57844848  0.82543923  0.48698056  1
  Ca2+  Ca23  1  0.57441161  0.82721805  0.83576950  1
  Ca2+  Ca24  1  0.32522276  0.42553417  0.17268078  1
  Ca2+  Ca25  1  0.33196315  0.42764886  0.49770745  1
  Ca2+  Ca26  1  0.32706731  0.43204088  0.84040089  1
  Ca2+  Ca27  1  0.34541919  0.92218888  0.17308369  1
  Ca2+  Ca28  1  0.32988651  0.91717479  0.50148300  1
  Ca2+  Ca29  1  0.32630063  0.91345033  0.83692023  1
  Ca2+  Ca30  1  0.82526728  0.41640227  0.16705541  1
  Ca2+  Ca31  1  0.82472413  0.42707786  0.50883436  1
  Ca2+  Ca32  1  0.82617353  0.42042703  0.83544509  1
  Ca2+  Ca33  1  0.82756258  0.91391334  0.17603845  1
  Ca2+  Ca34  1  0.83123418  0.90399691  0.50152959  1
  Ca2+  Ca35  1  0.83792965  0.91538916  0.83471784  1
  Ca2+  Ca36  1  0.41395141  0.17443746  0.16429043  1
  Ca2+  Ca37  1  0.41221019  0.17472694  0.49005702  1
  Ca2+  Ca38  1  0.42330276  0.17068893  0.83274174  1
  Ca2+  Ca39  1  0.41973454  0.66787650  0.16173069  1
  Ca2+  Ca40  1  0.42007526  0.66555329  0.48945973  1
  Ca2+  Ca41  1  0.41389829  0.66255599  0.83444871  1
  Ca2+  Ca42  1  0.92384692  0.17045604  0.15974862  1
  Ca2+  Ca43  1  0.92348058  0.16885073  0.50025000  1
  Ca2+  Ca44  1  0.92717138  0.17072960  0.82927453  1
  Ca2+  Ca45  1  0.92718061  0.66891904  0.16621842  1
  Ca2+  Ca46  1  0.92505760  0.66865566  0.49390058  1
  Ca2+  Ca47  1  0.92787800  0.66643866  0.82410023  1
  Al0+  Al48  1  -0.00040049  0.00221004  -0.00018464  1
  Al0+  Al49  1  -0.00097366  0.00206809  0.33141376  1
  Al0+  Al50  1  -0.00009078  0.00059187  0.66188398  1
  Al0+  Al51  1  -0.00248173  0.49965922  -0.00054477  1
  Al0+  Al52  1  -0.00214143  0.49620272  0.33326992  1
  Al0+  Al53  1  0.00098315  0.49706552  0.66636820  1
  Al0+  Al54  1  0.49993242  0.00063879  -0.00846713  1
  Al0+  Al55  1  0.50300150  0.00022170  0.34231092  1
  Al0+  Al56  1  0.50103556  0.00075869  0.66742041  1
  Al0+  Al57  1  0.50031861  0.50069935  0.00302659  1
  Al0+  Al58  1  0.49703996  0.49703894  0.32776713  1
  Al0+  Al59  1  0.49798247  0.49887058  0.67395851  1
  Al0+  Al60  1  0.25153747  0.24877279  -0.00411598  1
  Al0+  Al61  1  0.25166087  0.24915650  0.33539816  1
  Al0+  Al62  1  0.25445294  0.25023188  0.66261832  1
  Al0+  Al63  1  0.24829607  0.75260977  -0.00251102  1
  Al0+  Al64  1  0.24996717  0.75231432  0.33060205  1
  Al0+  Al65  1  0.24989875  0.75368536  0.67124723  1
  Al0+  Al66  1  0.75117577  0.24981946  0.00121788  1
  Al0+  Al67  1  0.75231008  0.24867162  0.33535739  1
  Al0+  Al68  1  0.75083510  0.24639571  0.66724752  1
  Al0+  Al69  1  0.74779098  0.75137165  -0.00259987  1
  Al0+  Al70  1  0.75027962  0.74936951  0.33025862  1
  Al0+  Al71  1  0.74836338  0.74916115  0.67189378  1
  Al0+  Al72  1  0.42862073  0.82395158  0.32166794  1
  Al0+  Al73  1  0.32027324  0.57276158  0.34783182  1
  Al0+  Al74  1  0.31828502  0.57249552  0.68053382  1
  Al0+  Al75  1  0.07231810  0.18009496  0.98696892  1
  Al0+  Al76  1  0.07219455  0.18084951  0.65084860  1
  Al0+  Al77  1  0.57132217  0.18088920  0.98762869  1
  Al0+  Al78  1  0.57034261  0.67659506  0.32041014  1
  Al0+  Al79  1  0.57121231  0.67685564  0.98212281  1
  Al0+  Al80  1  0.07189044  0.67685737  0.31843702  1
  Al0+  Al81  1  0.92708937  0.82002656  0.65240392  1
  Al0+  Al82  1  0.06922894  0.67811739  0.98611362  1
  Al0+  Al83  1  0.82364247  0.57230786  0.68207314  1
  Al0+  Al84  1  0.68182314  0.92819219  0.34705677  1
  Al0+  Al85  1  0.67875976  0.42837279  0.68025723  1
  Al0+  Al86  1  0.42842996  0.82197274  0.98352472  1
  Al0+  Al87  1  0.17918885  0.93295105  0.68009371  1
  Al0+  Al88  1  0.42801254  0.31933824  0.31855946  1
  Al0+  Al89  1  0.31939562  0.57439934  0.01706225  1
  Al0+  Al90  1  0.07336154  0.67629926  0.65181720  1
  Al0+  Al91  1  0.68019759  0.42850091  0.01568919  1
  Al0+  Al92  1  0.17713478  0.42873530  0.34857908  1
  Al0+  Al93  1  0.92866165  0.82174413  0.31771026  1
  Al0+  Al94  1  0.32153311  0.06962836  0.34612856  1
  Al0+  Al95  1  0.17805782  0.42733820  0.01304269  1
  Si0+  Si96  1  0.57410045  0.17896650  0.31957108  1
  Si0+  Si97  1  0.92584717  0.32036965  0.64867262  1
  Si0+  Si98  1  0.42941140  0.82351035  0.65122590  1
  Si0+  Si99  1  0.32249472  0.06921055  0.01296295  1
  Si0+  Si100  1  0.67738687  0.92799105  0.68464034  1
  Si0+  Si101  1  0.92778664  0.82281381  0.98451173  1
  Si0+  Si102  1  0.67767948  0.93087048  0.01456216  1
  Si0+  Si103  1  0.82039153  0.06942224  0.68278409  1
  Si0+  Si104  1  0.82370791  0.07333918  0.35224785  1
  Si0+  Si105  1  0.17486266  0.92839685  0.34979215  1
  Si0+  Si106  1  0.81942972  0.56962650  0.34661201  1
  Si0+  Si107  1  0.32379224  0.07408018  0.68535405  1
  Si0+  Si108  1  0.43283005  0.32063827  0.65090929  1
  Si0+  Si109  1  0.42840663  0.32216664  0.98128170  1
  Si0+  Si110  1  0.07109512  0.18111152  0.31828086  1
  Si0+  Si111  1  0.92619669  0.32002575  0.31764694  1
  Si0+  Si112  1  0.92694174  0.32141771  0.98295367  1
  Si0+  Si113  1  0.67810894  0.42672919  0.34625564  1
  Si0+  Si114  1  0.17666531  0.93146823  0.01553665  1
  Si0+  Si115  1  0.82092687  0.57430541  0.01848184  1
  Si0+  Si116  1  0.82159266  0.07035684  0.01591270  1
  Si0+  Si117  1  0.56742339  0.67851806  0.65438004  1
  Si0+  Si118  1  0.57368524  0.17705847  0.64960941  1
  Si0+  Si119  1  0.17920431  0.42493338  0.68210004  1
  O2-  O120  1  0.25089368  -0.00018187  0.05653699  1
  O2-  O121  1  0.24821213  -0.00633961  0.39236058  1
  O2-  O122  1  0.25350264  0.00773635  0.72956489  1
  O2-  O123  1  0.24599770  0.50190986  0.06425269  1
  O2-  O124  1  0.24368347  0.50554718  0.39897300  1
  O2-  O125  1  0.23749903  0.50255940  0.72536841  1
  O2-  O126  1  0.75078124  -0.00038647  0.05774998  1
  O2-  O127  1  0.75872866  0.00082862  0.39554770  1
  O2-  O128  1  0.75032804  -0.00213484  0.72616851  1
  O2-  O129  1  0.75075903  0.50679181  0.06344674  1
  O2-  O130  1  0.74434878  0.50180029  0.38837192  1
  O2-  O131  1  0.75219389  0.49844261  0.73048757  1
  O2-  O132  1  0.00089968  0.25259714  0.27593852  1
  O2-  O133  1  0.00111857  0.25897137  0.60366946  1
  O2-  O134  1  0.00241714  0.25926707  0.93983410  1
  O2-  O135  1  0.00252305  0.75220326  0.26813571  1
  O2-  O136  1  -0.00452982  0.74388558  0.60388971  1
  O2-  O137  1  -0.00697646  0.75198712  0.94011422  1
  O2-  O138  1  0.50535365  0.24589036  0.27400123  1
  O2-  O139  1  0.50422649  0.24921442  0.60821629  1
  O2-  O140  1  0.50224383  0.25838301  0.93679237  1
  O2-  O141  1  0.49527898  0.74685463  0.27219627  1
  O2-  O142  1  0.49856211  0.75040344  0.61027471  1
  O2-  O143  1  0.49494846  0.74503867  0.93263181  1
  O2-  O144  1  0.06938307  0.17680677  0.10013453  1
  O2-  O145  1  0.06981223  0.18113022  0.42338598  1
  O2-  O146  1  0.06911766  0.18099294  0.76402965  1
  O2-  O147  1  0.06828647  0.67941022  0.09900500  1
  O2-  O148  1  0.06964677  0.67731558  0.43186467  1
  O2-  O149  1  0.07351536  0.68081401  0.76552689  1
  O2-  O150  1  0.56837738  0.17877700  0.10051425  1
  O2-  O151  1  0.57576239  0.18219108  0.42549484  1
  O2-  O152  1  0.57321051  0.17569427  0.75480594  1
  O2-  O153  1  0.57414879  0.68189968  0.09526352  1
  O2-  O154  1  0.57249494  0.67740002  0.43497868  1
  O2-  O155  1  0.56622272  0.67988225  0.75904331  1
  O2-  O156  1  0.17954716  0.42539287  0.23538311  1
  O2-  O157  1  0.18564151  0.41919264  0.57711785  1
  O2-  O158  1  0.18269345  0.42403334  0.89934176  1
  O2-  O159  1  0.17052578  0.93326253  0.24410934  1
  O2-  O160  1  0.18232442  0.93440127  0.56712867  1
  O2-  O161  1  0.17406145  0.93499772  0.91040606  1
  O2-  O162  1  0.68276920  0.42225639  0.24159518  1
  O2-  O163  1  0.67754568  0.43018540  0.56600229  1
  O2-  O164  1  0.68589510  0.42516975  0.90287989  1
  O2-  O165  1  0.68187096  0.93273432  0.23381460  1
  O2-  O166  1  0.67580988  0.92985929  0.57976581  1
  O2-  O167  1  0.67932664  0.93409041  0.90907609  1
  O2-  O168  1  0.42686856  0.31658162  0.08672557  1
  O2-  O169  1  0.43102336  0.31920262  0.43226340  1
  O2-  O170  1  0.43323999  0.31809108  0.75582571  1
  O2-  O171  1  0.43440487  0.82913745  0.09625263  1
  O2-  O172  1  0.43281884  0.82460828  0.43582918  1
  O2-  O173  1  0.43211661  0.82685839  0.75602720  1
  O2-  O174  1  0.92274823  0.31619009  0.08869293  1
  O2-  O175  1  0.92064173  0.31654626  0.42224580  1
  O2-  O176  1  0.92050248  0.31463594  0.75391764  1
  O2-  O177  1  0.92884428  0.82496378  0.08980780  1
  O2-  O178  1  0.92807564  0.81819555  0.43095694  1
  O2-  O179  1  0.93018375  0.82281451  0.76629418  1
  O2-  O180  1  0.31930612  0.07150661  0.23248987  1
  O2-  O181  1  0.32517446  0.07363006  0.57979370  1
  O2-  O182  1  0.32295621  0.06884929  0.90786217  1
  O2-  O183  1  0.32189727  0.56991407  0.23499642  1
  O2-  O184  1  0.32374719  0.57068270  0.56781384  1
  O2-  O185  1  0.31706859  0.57209221  0.90287898  1
  O2-  O186  1  0.82214940  0.07767942  0.24659666  1
  O2-  O187  1  0.81770700  0.07299159  0.57803365  1
  O2-  O188  1  0.82254379  0.06959915  0.91055519  1
  O2-  O189  1  0.82036600  0.56696222  0.24162834  1
  O2-  O190  1  0.81836532  0.57225417  0.56780902  1
  O2-  O191  1  0.82071114  0.57272978  0.91302826  1
  O2-  O192  1  0.04264659  0.09001470  0.26997615  1
  O2-  O193  1  0.03656121  0.08696626  0.59563375  1
  O2-  O194  1  0.03436453  0.08588100  0.93178979  1
  O2-  O195  1  0.03869071  0.57855792  0.26746457  1
  O2-  O196  1  0.05343115  0.57429397  0.60250061  1
  O2-  O197  1  0.04058927  0.58064124  0.93261361  1
  O2-  O198  1  0.54980321  0.08421516  0.27730633  1
  O2-  O199  1  0.54444178  0.08525128  0.60247245  1
  O2-  O200  1  0.53834564  0.08754604  0.92837281  1
  O2-  O201  1  0.54632015  0.57799623  0.26679019  1
  O2-  O202  1  0.53960639  0.58598480  0.60860670  1
  O2-  O203  1  0.54830812  0.57593991  0.93197088  1
  O2-  O204  1  0.16289022  0.20777640  0.27133382  1
  O2-  O205  1  0.17104759  0.20758869  0.59858886  1
  O2-  O206  1  0.16933837  0.20469171  0.93031596  1
  O2-  O207  1  0.16964737  0.70598618  0.26485426  1
  O2-  O208  1  0.17005083  0.71418145  0.60068744  1
  O2-  O209  1  0.16404961  0.71276189  0.93216911  1
  O2-  O210  1  0.66801866  0.20348621  0.27321006  1
  O2-  O211  1  0.66640530  0.20063842  0.60246038  1
  O2-  O212  1  0.66992233  0.20686406  0.93412418  1
  O2-  O213  1  0.66737136  0.70676983  0.26633898  1
  O2-  O214  1  0.66049438  0.70567891  0.60941437  1
  O2-  O215  1  0.66829436  0.71100261  0.92819870  1
  O2-  O216  1  0.07541374  0.44639116  0.06158365  1
  O2-  O217  1  0.07432567  0.44441870  0.39847974  1
  O2-  O218  1  0.08084614  0.43486787  0.72230636  1
  O2-  O219  1  0.08684797  0.96388259  0.06446325  1
  O2-  O220  1  0.08340982  0.96058446  0.39710875  1
  O2-  O221  1  0.08249731  0.96598868  0.73322951  1
  O2-  O222  1  0.58160291  0.45266858  0.06779417  1
  O2-  O223  1  0.58409000  0.44892587  0.39045415  1
  O2-  O224  1  0.58218890  0.45623474  0.73592355  1
  O2-  O225  1  0.58701908  0.96426232  0.05984377  1
  O2-  O226  1  0.58916074  0.96206202  0.40738803  1
  O2-  O227  1  0.58691897  0.96056582  0.73253911  1
  O2-  O228  1  0.20975392  0.32790014  0.06433772  1
  O2-  O229  1  0.21266325  0.33215864  0.40181144  1
  O2-  O230  1  0.21568297  0.33465797  0.72993013  1
  O2-  O231  1  0.20135515  0.83900045  0.06114893  1
  O2-  O232  1  0.19675192  0.83415818  0.39477458  1
  O2-  O233  1  0.21102951  0.83863528  0.73746951  1
  O2-  O234  1  0.71504914  0.33253749  0.07026785  1
  O2-  O235  1  0.71028782  0.33674939  0.39584275  1
  O2-  O236  1  0.70644826  0.32774166  0.73031855  1
  O2-  O237  1  0.70328163  0.83832363  0.06070194  1
  O2-  O238  1  0.71147507  0.83103844  0.40128240  1
  O2-  O239  1  0.70164285  0.83662079  0.73383708  1
  O2-  O240  1  0.45763333  0.41332665  0.26115418  1
  O2-  O241  1  0.46193009  0.41235213  0.60404187  1
  O2-  O242  1  0.44991287  0.41736260  0.93874605  1
  O2-  O243  1  0.46414241  0.92174430  0.27061895  1
  O2-  O244  1  0.45952528  0.91528878  0.60411026  1
  O2-  O245  1  0.46279194  0.91699051  0.92545173  1
  O2-  O246  1  0.94749332  0.41226066  0.26923218  1
  O2-  O247  1  0.94321067  0.41632106  0.60533325  1
  O2-  O248  1  0.94240085  0.41728749  0.93936850  1
  O2-  O249  1  0.95004594  0.92371191  0.26775633  1
  O2-  O250  1  0.95611073  0.91781117  0.59849589  1
  O2-  O251  1  0.95550551  0.91637665  0.93870557  1
  O2-  O252  1  0.33394222  0.28260341  0.26376465  1
  O2-  O253  1  0.34272158  0.29145645  0.60123598  1
  O2-  O254  1  0.33874154  0.28918257  0.93169599  1
  O2-  O255  1  0.32752624  0.80869327  0.27026166  1
  O2-  O256  1  0.33612955  0.79951485  0.60691395  1
  O2-  O257  1  0.32794877  0.80040689  0.93210413  1
  O2-  O258  1  0.83691928  0.28650800  0.26711018  1
  O2-  O259  1  0.83551423  0.28575839  0.59971912  1
  O2-  O260  1  0.83791859  0.28576189  0.93388203  1
  O2-  O261  1  0.83194686  0.79110213  0.26313284  1
  O2-  O262  1  0.82492394  0.79655796  0.60414060  1
  O2-  O263  1  0.83256438  0.80281963  0.93958960  1
  O2-  O264  1  0.41429125  0.04029364  0.05978917  1
  O2-  O265  1  0.41808695  0.04511586  0.40369140  1
  O2-  O266  1  0.41776396  0.04684120  0.73074281  1
  O2-  O267  1  0.41914170  0.54687860  0.06646291  1
  O2-  O268  1  0.41826967  0.53705254  0.39981025  1
  O2-  O269  1  0.41148995  0.53490402  0.73715635  1
  O2-  O270  1  0.91285126  0.04267924  0.06514098  1
  O2-  O271  1  0.91878232  0.05255785  0.39723316  1
  O2-  O272  1  0.91252666  0.04245259  0.72944208  1
  O2-  O273  1  0.91348700  0.54620394  0.06525281  1
  O2-  O274  1  0.90851965  0.53680689  0.39611331  1
  O2-  O275  1  0.92263443  0.54352265  0.73429751  1
  O2-  O276  1  0.29556813  0.16165980  0.05904470  1
  O2-  O277  1  0.28731488  0.16385773  0.40257692  1
  O2-  O278  1  0.30097201  0.16878176  0.72997280  1
  O2-  O279  1  0.29247508  0.67462558  0.06656733  1
  O2-  O280  1  0.29781436  0.67415496  0.39858488  1
  O2-  O281  1  0.29450913  0.67054683  0.73447860  1
  O2-  O282  1  0.79436218  0.16157793  0.06413782  1
  O2-  O283  1  0.79373552  0.16472912  0.40165892  1
  O2-  O284  1  0.79113391  0.15971771  0.73286928  1
  O2-  O285  1  0.79611352  0.66921495  0.06256114  1
  O2-  O286  1  0.79452966  0.66191803  0.39348510  1
  O2-  O287  1  0.79321956  0.66906997  0.73746631  1
