# generated using pymatgen
data_Ca2Al2SiO7
_symmetry_space_group_name_H-M   'P 1'
_cell_length_a   15.46989452
_cell_length_b   15.46755055
_cell_length_c   15.29250886
_cell_angle_alpha   90.00939830
_cell_angle_beta   90.00464852
_cell_angle_gamma   90.01747693
_symmetry_Int_Tables_number   1
_chemical_formula_structural   Ca2Al2SiO7
_chemical_formula_sum   'Ca48 Al48 Si24 O168'
_cell_volume   3659.21232472
_cell_formula_units_Z   24
loop_
 _symmetry_equiv_pos_site_id
 _symmetry_equiv_pos_as_xyz
  1  'x, y, z'
loop_
 _atom_type_symbol
 _atom_type_oxidation_number
  Ca2+  2.0
  Al0+  0.0
  Si0+  0.0
  O2-  -2.0
loop_
 _atom_site_type_symbol
 _atom_site_label
 _atom_site_symmetry_multiplicity
 _atom_site_fract_x
 _atom_site_fract_y
 _atom_site_fract_z
 _atom_site_occupancy
  Ca2+  Ca0  1  0.17768228  0.07451996  0.17513178  1
  Ca2+  Ca1  1  0.17982468  0.07000243  0.50279784  1
  Ca2+  Ca2  1  0.18062544  0.08060235  0.83691428  1
  Ca2+  Ca3  1  0.17139820  0.57468135  0.17705636  1
  Ca2+  Ca4  1  0.17649843  0.58528341  0.50458594  1
  Ca2+  Ca5  1  0.17042319  0.58015794  0.82837682  1
  Ca2+  Ca6  1  0.66417817  0.06776198  0.16998565  1
  Ca2+  Ca7  1  0.65812432  0.07773979  0.50216463  1
  Ca2+  Ca8  1  0.66275009  0.07880525  0.83806862  1
  Ca2+  Ca9  1  0.66649627  0.59058657  0.17393031  1
  Ca2+  Ca10  1  0.67259299  0.59344697  0.49825887  1
  Ca2+  Ca11  1  0.66640446  0.57874025  0.84283143  1
  Ca2+  Ca12  1  0.08908089  0.33696021  0.16289490  1
  Ca2+  Ca13  1  0.08414710  0.34260498  0.49609835  1
  Ca2+  Ca14  1  0.08106843  0.34068762  0.82602279  1
  Ca2+  Ca15  1  0.09386655  0.82477457  0.16978402  1
  Ca2+  Ca16  1  0.09363851  0.82435758  0.49535038  1
  Ca2+  Ca17  1  0.08584857  0.82839720  0.82242214  1
  Ca2+  Ca18  1  0.57398370  0.33638808  0.16506103  1
  Ca2+  Ca19  1  0.57379640  0.32317880  0.49406693  1
  Ca2+  Ca20  1  0.58491310  0.32585987  0.82535677  1
  Ca2+  Ca21  1  0.57809089  0.82725870  0.16319315  1
  Ca2+  Ca22  1  0.56913125  0.83093263  0.49084961  1
  Ca2+  Ca23  1  0.57413211  0.83345394  0.83412102  1
  Ca2+  Ca24  1  0.32583671  0.42118360  0.17857331  1
  Ca2+  Ca25  1  0.32831507  0.42755402  0.50185133  1
  Ca2+  Ca26  1  0.32422174  0.42217487  0.83702868  1
  Ca2+  Ca27  1  0.34197557  0.92474983  0.17363611  1
  Ca2+  Ca28  1  0.33227205  0.91560341  0.50780249  1
  Ca2+  Ca29  1  0.34119568  0.92182098  0.83140487  1
  Ca2+  Ca30  1  0.82088017  0.42299373  0.17084637  1
  Ca2+  Ca31  1  0.83535939  0.42125477  0.50172511  1
  Ca2+  Ca32  1  0.82809382  0.41479174  0.83673474  1
  Ca2+  Ca33  1  0.81886965  0.90681305  0.17161016  1
  Ca2+  Ca34  1  0.82278035  0.91159933  0.50013698  1
  Ca2+  Ca35  1  0.82528296  0.91840923  0.84083637  1
  Ca2+  Ca36  1  0.40350332  0.17061446  0.16764149  1
  Ca2+  Ca37  1  0.40889989  0.16822668  0.49738162  1
  Ca2+  Ca38  1  0.41879204  0.16201309  0.82830988  1
  Ca2+  Ca39  1  0.41747006  0.67847450  0.16289702  1
  Ca2+  Ca40  1  0.41254826  0.67358557  0.49041093  1
  Ca2+  Ca41  1  0.41472126  0.67681835  0.82771500  1
  Ca2+  Ca42  1  0.92123287  0.16741585  0.16376253  1
  Ca2+  Ca43  1  0.92010598  0.17496756  0.49708271  1
  Ca2+  Ca44  1  0.92117174  0.17537875  0.82292363  1
  Ca2+  Ca45  1  0.92121887  0.66043301  0.17060760  1
  Ca2+  Ca46  1  0.93092989  0.66073171  0.49326275  1
  Ca2+  Ca47  1  0.92508964  0.66734190  0.82689624  1
  Al0+  Al48  1  0.00254547  0.00143134  -0.00213776  1
  Al0+  Al49  1  -0.00092792  0.00187358  0.33522541  1
  Al0+  Al50  1  -0.00302597  0.00107406  0.66842548  1
  Al0+  Al51  1  -0.00115541  0.49954521  0.00205969  1
  Al0+  Al52  1  -0.00471032  0.49994042  0.33224286  1
  Al0+  Al53  1  -0.00188246  0.50160421  0.66281782  1
  Al0+  Al54  1  0.50126846  0.00125934  0.00532185  1
  Al0+  Al55  1  0.50296620  0.00163906  0.33797929  1
  Al0+  Al56  1  0.50080551  -0.00182754  0.66263585  1
  Al0+  Al57  1  0.49914929  0.49962062  -0.00053051  1
  Al0+  Al58  1  0.50033578  0.49592179  0.33016520  1
  Al0+  Al59  1  0.50207344  0.49943343  0.67038817  1
  Al0+  Al60  1  0.24920637  0.24905678  0.00446136  1
  Al0+  Al61  1  0.24762002  0.24775091  0.33677093  1
  Al0+  Al62  1  0.24919865  0.24883085  0.67320416  1
  Al0+  Al63  1  0.24922114  0.75085845  -0.00762575  1
  Al0+  Al64  1  0.24939140  0.74857534  0.32579892  1
  Al0+  Al65  1  0.24988608  0.74948017  0.66793530  1
  Al0+  Al66  1  0.75112386  0.25224487  0.00510890  1
  Al0+  Al67  1  0.75056427  0.25013612  0.33052843  1
  Al0+  Al68  1  0.75084761  0.24929126  0.65647215  1
  Al0+  Al69  1  0.75215096  0.74976706  -0.00137232  1
  Al0+  Al70  1  0.75087352  0.75021551  0.34100573  1
  Al0+  Al71  1  0.75057220  0.75002394  0.67076313  1
  Al0+  Al72  1  0.57290419  0.67768109  0.98418433  1
  Al0+  Al73  1  0.32287765  0.06947028  0.68313425  1
  Al0+  Al74  1  0.17741288  0.42874477  0.34780905  1
  Al0+  Al75  1  0.93125927  0.32057375  0.65179774  1
  Al0+  Al76  1  0.32208803  0.06965590  0.34941314  1
  Al0+  Al77  1  0.68155432  0.92944645  0.01310922  1
  Al0+  Al78  1  0.56935905  0.17909608  0.65390143  1
  Al0+  Al79  1  0.57270672  0.67874561  0.32078989  1
  Al0+  Al80  1  0.17740578  0.43050798  0.68061605  1
  Al0+  Al81  1  0.06861943  0.68211385  0.65283721  1
  Al0+  Al82  1  0.42964314  0.82348476  0.98294056  1
  Al0+  Al83  1  0.43177176  0.81722070  0.65268015  1
  Al0+  Al84  1  0.42769809  0.82232425  0.31820024  1
  Al0+  Al85  1  0.68038919  0.92982891  0.34928395  1
  Al0+  Al86  1  0.17756720  0.92767565  0.68221298  1
  Al0+  Al87  1  0.67661496  0.42825827  0.01312905  1
  Al0+  Al88  1  0.32091590  0.06869291  0.01505034  1
  Al0+  Al89  1  0.81745164  0.56996166  0.34798170  1
  Al0+  Al90  1  0.42733245  0.31740241  0.32064225  1
  Al0+  Al91  1  0.17960257  0.43172926  0.01363783  1
  Al0+  Al92  1  0.17819330  0.92711114  0.34619895  1
  Al0+  Al93  1  0.07082951  0.67834910  0.31855920  1
  Al0+  Al94  1  0.32323387  0.57100676  0.34487848  1
  Al0+  Al95  1  0.32449117  0.57235813  0.68246038  1
  Si0+  Si96  1  0.68106216  0.42640554  0.67914461  1
  Si0+  Si97  1  0.68025693  0.92943235  0.68328037  1
  Si0+  Si98  1  0.92734587  0.32201946  0.31377535  1
  Si0+  Si99  1  0.17516910  0.92686215  0.01602267  1
  Si0+  Si100  1  0.42618184  0.32037384  0.98498891  1
  Si0+  Si101  1  0.57539086  0.67480788  0.65137744  1
  Si0+  Si102  1  0.06853581  0.17941122  0.31743075  1
  Si0+  Si103  1  0.92942031  0.82253840  0.98549907  1
  Si0+  Si104  1  0.82253568  0.07481302  0.35115238  1
  Si0+  Si105  1  0.81942837  0.07380003  0.68118084  1
  Si0+  Si106  1  0.32179767  0.57472428  0.01597918  1
  Si0+  Si107  1  0.42599964  0.32382319  0.65260238  1
  Si0+  Si108  1  0.67701979  0.42462007  0.35197681  1
  Si0+  Si109  1  0.92844274  0.82314422  0.31817284  1
  Si0+  Si110  1  0.57482613  0.17828730  0.31344015  1
  Si0+  Si111  1  0.07340050  0.17610119  0.64945827  1
  Si0+  Si112  1  0.82121474  0.57109136  0.01580834  1
  Si0+  Si113  1  0.92457263  0.82471510  0.65050474  1
  Si0+  Si114  1  0.81999463  0.57052015  0.68279710  1
  Si0+  Si115  1  0.06926124  0.67767354  0.98385203  1
  Si0+  Si116  1  0.92937558  0.32016278  0.98526754  1
  Si0+  Si117  1  0.57220041  0.18215726  0.98761835  1
  Si0+  Si118  1  0.82511085  0.07298778  0.01551115  1
  Si0+  Si119  1  0.07203030  0.17964594  0.98374924  1
  O2-  O120  1  0.24879017  -0.00973657  0.05875282  1
  O2-  O121  1  0.25789022  -0.01032899  0.39712466  1
  O2-  O122  1  0.24876593  -0.00029278  0.73373769  1
  O2-  O123  1  0.25409936  0.50525210  0.06028294  1
  O2-  O124  1  0.24816448  0.50223295  0.39568949  1
  O2-  O125  1  0.25342430  0.49771383  0.73119174  1
  O2-  O126  1  0.75938573  0.00215278  0.05953413  1
  O2-  O127  1  0.75360554  0.00712945  0.39561116  1
  O2-  O128  1  0.75179681  0.00075205  0.72513193  1
  O2-  O129  1  0.74538119  0.50942290  0.05812468  1
  O2-  O130  1  0.74076739  0.49781946  0.39597851  1
  O2-  O131  1  0.74678096  0.50146471  0.72384230  1
  O2-  O132  1  0.00001416  0.25247365  0.27251930  1
  O2-  O133  1  0.00990119  0.25003442  0.60504032  1
  O2-  O134  1  0.00024552  0.25018483  0.94170850  1
  O2-  O135  1  -0.00038144  0.75798702  0.27236861  1
  O2-  O136  1  -0.00225376  0.76162282  0.60718435  1
  O2-  O137  1  0.00213030  0.75368033  0.94304089  1
  O2-  O138  1  0.50209646  0.24314636  0.27061877  1
  O2-  O139  1  0.49217140  0.25184789  0.60946567  1
  O2-  O140  1  0.50210270  0.25337868  0.94370883  1
  O2-  O141  1  0.49870317  0.74771736  0.26979941  1
  O2-  O142  1  0.50288137  0.73837584  0.60791093  1
  O2-  O143  1  0.49917383  0.74758545  0.93383914  1
  O2-  O144  1  0.06940963  0.17867455  0.08886047  1
  O2-  O145  1  0.06437183  0.17933310  0.42197849  1
  O2-  O146  1  0.06796130  0.17490983  0.75551532  1
  O2-  O147  1  0.06746408  0.67568637  0.08866409  1
  O2-  O148  1  0.06798691  0.67583496  0.43113584  1
  O2-  O149  1  0.06324980  0.68079210  0.76683712  1
  O2-  O150  1  0.57445412  0.18355656  0.09214582  1
  O2-  O151  1  0.58039921  0.18250719  0.41881252  1
  O2-  O152  1  0.57346801  0.18105221  0.76778624  1
  O2-  O153  1  0.57516227  0.68115354  0.09715585  1
  O2-  O154  1  0.57431050  0.68343671  0.43451550  1
  O2-  O155  1  0.58025119  0.67712792  0.75676635  1
  O2-  O156  1  0.17921177  0.42950225  0.23362988  1
  O2-  O157  1  0.17656789  0.43395430  0.56788012  1
  O2-  O158  1  0.17732896  0.43275532  0.90085027  1
  O2-  O159  1  0.17317080  0.93313612  0.23242674  1
  O2-  O160  1  0.17821306  0.92810517  0.56914960  1
  O2-  O161  1  0.16775561  0.93125625  0.91108527  1
  O2-  O162  1  0.68146253  0.42076867  0.24632182  1
  O2-  O163  1  0.68325147  0.42488673  0.57468481  1
  O2-  O164  1  0.68385548  0.42207723  0.89974225  1
  O2-  O165  1  0.68367471  0.92968554  0.23595797  1
  O2-  O166  1  0.68293079  0.92898885  0.57860988  1
  O2-  O167  1  0.68333377  0.93371110  0.89962600  1
  O2-  O168  1  0.42472100  0.31788014  0.08990387  1
  O2-  O169  1  0.42935026  0.31571607  0.43377705  1
  O2-  O170  1  0.43032369  0.32515847  0.75866269  1
  O2-  O171  1  0.43114757  0.82472208  0.09598979  1
  O2-  O172  1  0.42899688  0.82200857  0.43186277  1
  O2-  O173  1  0.43681516  0.82070192  0.76572756  1
  O2-  O174  1  0.92903460  0.31882951  0.09018157  1
  O2-  O175  1  0.92495132  0.32044721  0.41864911  1
  O2-  O176  1  0.92778794  0.31811293  0.76558081  1
  O2-  O177  1  0.92732552  0.82242207  0.09013988  1
  O2-  O178  1  0.92743607  0.82205259  0.42359876  1
  O2-  O179  1  0.92039366  0.82133362  0.75660855  1
  O2-  O180  1  0.31677380  0.07157138  0.23556733  1
  O2-  O181  1  0.32270873  0.06778537  0.57039849  1
  O2-  O182  1  0.32054223  0.07145642  0.90227457  1
  O2-  O183  1  0.32126270  0.56901482  0.23083234  1
  O2-  O184  1  0.32516057  0.57195832  0.56933260  1
  O2-  O185  1  0.31945718  0.57308157  0.91032379  1
  O2-  O186  1  0.82266555  0.07603961  0.24526738  1
  O2-  O187  1  0.81871045  0.07478110  0.57655921  1
  O2-  O188  1  0.82443300  0.07428920  0.90972508  1
  O2-  O189  1  0.81815545  0.56738225  0.23455764  1
  O2-  O190  1  0.81967371  0.57099983  0.57816343  1
  O2-  O191  1  0.82532021  0.56747759  0.90994863  1
  O2-  O192  1  0.03665972  0.08947327  0.26729488  1
  O2-  O193  1  0.03962082  0.08528291  0.60253685  1
  O2-  O194  1  0.04475208  0.08823520  0.93467218  1
  O2-  O195  1  0.03091598  0.58426885  0.26330913  1
  O2-  O196  1  0.03088764  0.58873641  0.59855529  1
  O2-  O197  1  0.03390128  0.58798812  0.93635582  1
  O2-  O198  1  0.55387399  0.08266456  0.27119692  1
  O2-  O199  1  0.54230105  0.08282335  0.59883567  1
  O2-  O200  1  0.54417714  0.09031827  0.94089446  1
  O2-  O201  1  0.55489867  0.57630261  0.27193427  1
  O2-  O202  1  0.55854734  0.57816140  0.60853139  1
  O2-  O203  1  0.54968673  0.57618770  0.93328584  1
  O2-  O204  1  0.16014880  0.20578896  0.26970038  1
  O2-  O205  1  0.16947462  0.19555728  0.60766995  1
  O2-  O206  1  0.16293939  0.20948388  0.93660482  1
  O2-  O207  1  0.16561862  0.70421770  0.25876690  1
  O2-  O208  1  0.16633494  0.70844071  0.60076788  1
  O2-  O209  1  0.16128946  0.70079435  0.93524958  1
  O2-  O210  1  0.66727004  0.20680196  0.26541722  1
  O2-  O211  1  0.66342578  0.21136765  0.59600411  1
  O2-  O212  1  0.66526760  0.20919281  0.94034245  1
  O2-  O213  1  0.67179109  0.71101674  0.26985074  1
  O2-  O214  1  0.66843466  0.70581091  0.60624358  1
  O2-  O215  1  0.67289019  0.70559557  0.93149095  1
  O2-  O216  1  0.08175476  0.46039465  0.06689393  1
  O2-  O217  1  0.07591714  0.45262766  0.39452083  1
  O2-  O218  1  0.07882785  0.46334598  0.73308519  1
  O2-  O219  1  0.08341545  0.95672456  0.06426564  1
  O2-  O220  1  0.08143681  0.96177793  0.39963712  1
  O2-  O221  1  0.07572414  0.95296363  0.73247507  1
  O2-  O222  1  0.57735972  0.44979334  0.06520175  1
  O2-  O223  1  0.58157133  0.44209633  0.39521588  1
  O2-  O224  1  0.58868669  0.44749039  0.72833116  1
  O2-  O225  1  0.58833645  0.96414452  0.06903840  1
  O2-  O226  1  0.58607383  0.96164163  0.40588521  1
  O2-  O227  1  0.58991673  0.96028571  0.72994685  1
  O2-  O228  1  0.20786321  0.33415036  0.06621764  1
  O2-  O229  1  0.20375915  0.33046004  0.39995825  1
  O2-  O230  1  0.19806506  0.32983675  0.73332580  1
  O2-  O231  1  0.19565822  0.82985858  0.05618123  1
  O2-  O232  1  0.19599264  0.82430946  0.39128424  1
  O2-  O233  1  0.20535995  0.83008013  0.73590903  1
  O2-  O234  1  0.71494646  0.33597274  0.07128176  1
  O2-  O235  1  0.71065661  0.33324185  0.39813480  1
  O2-  O236  1  0.71535559  0.33597871  0.72624014  1
  O2-  O237  1  0.71475829  0.83314668  0.06591372  1
  O2-  O238  1  0.71513997  0.83670805  0.40649512  1
  O2-  O239  1  0.70931810  0.83833515  0.73220885  1
  O2-  O240  1  0.45872332  0.41228251  0.26289936  1
  O2-  O241  1  0.45618357  0.41581808  0.60590125  1
  O2-  O242  1  0.44865376  0.41373754  0.93883083  1
  O2-  O243  1  0.46121867  0.92169537  0.26941131  1
  O2-  O244  1  0.46694499  0.91170141  0.59792139  1
  O2-  O245  1  0.46498701  0.92174376  0.93226508  1
  O2-  O246  1  0.95169845  0.41350854  0.26505210  1
  O2-  O247  1  0.95628334  0.41787704  0.59760732  1
  O2-  O248  1  0.95627907  0.41250148  0.93808287  1
  O2-  O249  1  0.94689185  0.91905942  0.27319648  1
  O2-  O250  1  0.94042722  0.92136236  0.60758474  1
  O2-  O251  1  0.95366311  0.91596061  0.93793275  1
  O2-  O252  1  0.33044667  0.28532757  0.26637287  1
  O2-  O253  1  0.33107078  0.30010335  0.60951443  1
  O2-  O254  1  0.33609103  0.28742322  0.93712294  1
  O2-  O255  1  0.32984860  0.79821046  0.26202534  1
  O2-  O256  1  0.33329923  0.79092604  0.60224137  1
  O2-  O257  1  0.32938725  0.79926492  0.92986510  1
  O2-  O258  1  0.83677516  0.29057985  0.26493182  1
  O2-  O259  1  0.83818606  0.28526544  0.59381165  1
  O2-  O260  1  0.83761297  0.29112539  0.93765404  1
  O2-  O261  1  0.83674090  0.79048290  0.27226712  1
  O2-  O262  1  0.83259179  0.79321736  0.60410430  1
  O2-  O263  1  0.83953729  0.79369341  0.93445749  1
  O2-  O264  1  0.41819784  0.04424251  0.06982932  1
  O2-  O265  1  0.42467299  0.05639930  0.39755025  1
  O2-  O266  1  0.42194453  0.03799895  0.73467857  1
  O2-  O267  1  0.41636842  0.55133907  0.05937704  1
  O2-  O268  1  0.42088551  0.54016029  0.39779360  1
  O2-  O269  1  0.42398138  0.54662129  0.73645031  1
  O2-  O270  1  0.91983899  0.05008662  0.06046649  1
  O2-  O271  1  0.91532359  0.05017888  0.39824408  1
  O2-  O272  1  0.91138410  0.05003183  0.73065742  1
  O2-  O273  1  0.91081642  0.53743027  0.06495861  1
  O2-  O274  1  0.91170295  0.53395743  0.40245236  1
  O2-  O275  1  0.90969170  0.53932754  0.73149666  1
  O2-  O276  1  0.28454485  0.16347008  0.06926588  1
  O2-  O277  1  0.28360425  0.16375063  0.40362902  1
  O2-  O278  1  0.29795254  0.16882411  0.73699890  1
  O2-  O279  1  0.29439123  0.66916477  0.05876396  1
  O2-  O280  1  0.29532681  0.67034233  0.39438032  1
  O2-  O281  1  0.29024313  0.66771091  0.73732821  1
  O2-  O282  1  0.79846189  0.16537199  0.06320121  1
  O2-  O283  1  0.79727644  0.16906241  0.39611287  1
  O2-  O284  1  0.78866057  0.16498642  0.72871514  1
  O2-  O285  1  0.80464921  0.66709776  0.05941946  1
  O2-  O286  1  0.79213851  0.66563288  0.40588004  1
  O2-  O287  1  0.79531126  0.66289892  0.73207491  1
