# generated using pymatgen
data_Ca2Al2SiO7
_symmetry_space_group_name_H-M   'P 1'
_cell_length_a   15.45854196
_cell_length_b   15.45806772
_cell_length_c   15.28389033
_cell_angle_alpha   90.00094849
_cell_angle_beta   90.00815433
_cell_angle_gamma   90.00791551
_symmetry_Int_Tables_number   1
_chemical_formula_structural   Ca2Al2SiO7
_chemical_formula_sum   'Ca48 Al48 Si24 O168'
_cell_volume   3652.22595624
_cell_formula_units_Z   24
loop_
 _symmetry_equiv_pos_site_id
 _symmetry_equiv_pos_as_xyz
  1  'x, y, z'
loop_
 _atom_type_symbol
 _atom_type_oxidation_number
  Ca2+  2.0
  Al0+  0.0
  Si0+  0.0
  O2-  -2.0
loop_
 _atom_site_type_symbol
 _atom_site_label
 _atom_site_symmetry_multiplicity
 _atom_site_fract_x
 _atom_site_fract_y
 _atom_site_fract_z
 _atom_site_occupancy
  Ca2+  Ca0  1  0.16575049  0.06957523  0.17180026  1
  Ca2+  Ca1  1  0.16459289  0.07083549  0.50523179  1
  Ca2+  Ca2  1  0.16402808  0.06930576  0.83656946  1
  Ca2+  Ca3  1  0.17095832  0.58624457  0.17227205  1
  Ca2+  Ca4  1  0.17983864  0.58195784  0.50936069  1
  Ca2+  Ca5  1  0.16545791  0.58621105  0.83296966  1
  Ca2+  Ca6  1  0.67128953  0.08577731  0.17556758  1
  Ca2+  Ca7  1  0.67187174  0.07581355  0.50241713  1
  Ca2+  Ca8  1  0.67387847  0.08069027  0.83649633  1
  Ca2+  Ca9  1  0.67142480  0.57710126  0.17464534  1
  Ca2+  Ca10  1  0.65690763  0.58050950  0.50286309  1
  Ca2+  Ca11  1  0.67371914  0.58533502  0.83668587  1
  Ca2+  Ca12  1  0.06884304  0.33282258  0.16132217  1
  Ca2+  Ca13  1  0.07854214  0.33437678  0.49545063  1
  Ca2+  Ca14  1  0.07817527  0.33530570  0.82684391  1
  Ca2+  Ca15  1  0.08651207  0.83080556  0.16099960  1
  Ca2+  Ca16  1  0.08406759  0.83609918  0.50006367  1
  Ca2+  Ca17  1  0.08174557  0.82714867  0.82487272  1
  Ca2+  Ca18  1  0.59350953  0.32195976  0.16692947  1
  Ca2+  Ca19  1  0.58036763  0.33047484  0.49241613  1
  Ca2+  Ca20  1  0.57968638  0.32586663  0.82879110  1
  Ca2+  Ca21  1  0.57987451  0.83691785  0.16956928  1
  Ca2+  Ca22  1  0.58455628  0.82593076  0.49120908  1
  Ca2+  Ca23  1  0.58569910  0.82697217  0.82186793  1
  Ca2+  Ca24  1  0.33144758  0.42492272  0.17465386  1
  Ca2+  Ca25  1  0.33400567  0.42623205  0.51088110  1
  Ca2+  Ca26  1  0.33128057  0.41820963  0.82827168  1
  Ca2+  Ca27  1  0.32380211  0.90837720  0.17327049  1
  Ca2+  Ca28  1  0.32551729  0.90825281  0.50120669  1
  Ca2+  Ca29  1  0.31997858  0.90798118  0.83504922  1
  Ca2+  Ca30  1  0.83438964  0.41836054  0.17127787  1
  Ca2+  Ca31  1  0.82802062  0.41432114  0.49746124  1
  Ca2+  Ca32  1  0.83642681  0.42416031  0.84140834  1
  Ca2+  Ca33  1  0.82718335  0.93161236  0.17659111  1
  Ca2+  Ca34  1  0.82599007  0.92391186  0.50904333  1
  Ca2+  Ca35  1  0.83427479  0.92325130  0.83346239  1
  Ca2+  Ca36  1  0.43272191  0.16029808  0.16316175  1
  Ca2+  Ca37  1  0.42001785  0.17386793  0.49349042  1
  Ca2+  Ca38  1  0.42150566  0.17152500  0.82740275  1
  Ca2+  Ca39  1  0.41963819  0.66770123  0.17330697  1
  Ca2+  Ca40  1  0.42317055  0.66576236  0.49335041  1
  Ca2+  Ca41  1  0.42405581  0.66440124  0.82423685  1
  Ca2+  Ca42  1  0.90283770  0.17624856  0.16437673  1
  Ca2+  Ca43  1  0.91103514  0.16709071  0.49452323  1
  Ca2+  Ca44  1  0.90861487  0.16841473  0.83244595  1
  Ca2+  Ca45  1  0.92283001  0.66766142  0.15617950  1
  Ca2+  Ca46  1  0.92204545  0.67533909  0.50107001  1
  Ca2+  Ca47  1  0.92624015  0.67080856  0.82469935  1
  Al0+  Al48  1  -0.00126756  0.00121857  0.01026322  1
  Al0+  Al49  1  0.00107191  0.00024313  0.33968799  1
  Al0+  Al50  1  -0.00035538  0.00202414  0.67169171  1
  Al0+  Al51  1  0.00084002  0.50021816  -0.00355356  1
  Al0+  Al52  1  -0.00002944  0.49984668  0.32980754  1
  Al0+  Al53  1  0.00043145  0.49984079  0.66311435  1
  Al0+  Al54  1  0.49858411  -0.00041736  -0.00838043  1
  Al0+  Al55  1  0.49837038  -0.00047417  0.32878364  1
  Al0+  Al56  1  0.50136461  -0.00027776  0.66982071  1
  Al0+  Al57  1  0.49881370  0.49989240  0.00061167  1
  Al0+  Al58  1  0.50096326  0.50089189  0.33495979  1
  Al0+  Al59  1  0.49919030  0.49827268  0.66578809  1
  Al0+  Al60  1  0.25002800  0.24987271  0.00204363  1
  Al0+  Al61  1  0.24773385  0.24876038  0.32974038  1
  Al0+  Al62  1  0.24882779  0.25139987  0.66553801  1
  Al0+  Al63  1  0.25040133  0.74814866  0.00015034  1
  Al0+  Al64  1  0.25086545  0.74825935  0.33831748  1
  Al0+  Al65  1  0.25216754  0.74818883  0.67217813  1
  Al0+  Al66  1  0.74810424  0.25024100  -0.00819366  1
  Al0+  Al67  1  0.75011160  0.25343048  0.33460974  1
  Al0+  Al68  1  0.74959485  0.25013753  0.66976372  1
  Al0+  Al69  1  0.74989894  0.75028515  0.00477928  1
  Al0+  Al70  1  0.75281643  0.74967107  0.32989374  1
  Al0+  Al71  1  0.75091139  0.74945461  0.66139502  1
  Al0+  Al72  1  0.81927202  0.07264362  0.34907575  1
  Al0+  Al73  1  0.42804934  0.81949319  0.31882016  1
  Al0+  Al74  1  0.67679199  0.92725782  0.34746088  1
  Al0+  Al75  1  0.93030083  0.31934250  0.98424790  1
  Al0+  Al76  1  0.07316665  0.67859185  0.64937584  1
  Al0+  Al77  1  0.18075925  0.92938991  0.68141068  1
  Al0+  Al78  1  0.18068012  0.92909098  0.34852588  1
  Al0+  Al79  1  0.17700122  0.42851529  0.68165149  1
  Al0+  Al80  1  0.57425628  0.67720053  0.31590472  1
  Al0+  Al81  1  0.31982244  0.56819558  0.34710158  1
  Al0+  Al82  1  0.82259434  0.57128266  0.01210766  1
  Al0+  Al83  1  0.32237614  0.56991401  0.68444796  1
  Al0+  Al84  1  0.68130104  0.43182895  0.34617981  1
  Al0+  Al85  1  0.07109076  0.68072877  0.98636490  1
  Al0+  Al86  1  0.42881103  0.31853135  0.65279068  1
  Al0+  Al87  1  0.56910032  0.18040753  0.32188843  1
  Al0+  Al88  1  0.81762594  0.07163949  0.01559328  1
  Al0+  Al89  1  0.93071385  0.32003151  0.31998533  1
  Al0+  Al90  1  0.18073826  0.92870578  0.01465936  1
  Al0+  Al91  1  0.82039260  0.07223138  0.68413350  1
  Al0+  Al92  1  0.93056847  0.82364038  0.65171595  1
  Al0+  Al93  1  0.57164815  0.67921672  0.65407147  1
  Al0+  Al94  1  0.57008614  0.17901517  0.98349447  1
  Al0+  Al95  1  0.67843436  0.92612934  0.68179349  1
  Si0+  Si96  1  0.07362019  0.17685991  0.98397157  1
  Si0+  Si97  1  0.92696271  0.82431345  0.98635152  1
  Si0+  Si98  1  0.67873077  0.42900193  0.68228440  1
  Si0+  Si99  1  0.32269641  0.07403024  0.34857050  1
  Si0+  Si100  1  0.82145618  0.57007363  0.67913008  1
  Si0+  Si101  1  0.57160276  0.67816629  0.98581510  1
  Si0+  Si102  1  0.07046033  0.17960778  0.65278445  1
  Si0+  Si103  1  0.32265379  0.07425586  0.68226608  1
  Si0+  Si104  1  0.67455802  0.92694167  0.01665402  1
  Si0+  Si105  1  0.06993608  0.68102239  0.31911049  1
  Si0+  Si106  1  0.32175327  0.56989048  0.01684556  1
  Si0+  Si107  1  0.07271736  0.17494000  0.31564657  1
  Si0+  Si108  1  0.42592247  0.32322692  0.31619551  1
  Si0+  Si109  1  0.17625393  0.42666105  0.34745852  1
  Si0+  Si110  1  0.92738062  0.32184261  0.65073435  1
  Si0+  Si111  1  0.82604136  0.57334804  0.35041817  1
  Si0+  Si112  1  0.42871882  0.81881303  0.98388078  1
  Si0+  Si113  1  0.42546400  0.32405100  0.98332492  1
  Si0+  Si114  1  0.32321107  0.07297444  0.01610140  1
  Si0+  Si115  1  0.57303894  0.17784326  0.64848399  1
  Si0+  Si116  1  0.42843282  0.82333553  0.65198374  1
  Si0+  Si117  1  0.92964513  0.82373144  0.31716980  1
  Si0+  Si118  1  0.67745495  0.42986121  0.01479094  1
  Si0+  Si119  1  0.17827532  0.42779787  0.01582961  1
  O2-  O120  1  0.25458031  0.00483363  0.06110910  1
  O2-  O121  1  0.25433030  0.00578966  0.39354531  1
  O2-  O122  1  0.25788400  0.00237279  0.72767048  1
  O2-  O123  1  0.25064487  0.49793833  0.05754700  1
  O2-  O124  1  0.24972700  0.48855163  0.39207162  1
  O2-  O125  1  0.24632705  0.50164402  0.73443350  1
  O2-  O126  1  0.74272863  -0.00390019  0.06036739  1
  O2-  O127  1  0.74971507  -0.00204365  0.39770801  1
  O2-  O128  1  0.74919275  -0.00131162  0.73292146  1
  O2-  O129  1  0.74671868  0.49783500  0.05877466  1
  O2-  O130  1  0.75171964  0.51051970  0.39403985  1
  O2-  O131  1  0.75049697  0.49957330  0.72323253  1
  O2-  O132  1  0.00425263  0.24430763  0.27244484  1
  O2-  O133  1  -0.00161519  0.25003347  0.61054422  1
  O2-  O134  1  0.00517220  0.24455426  0.93753378  1
  O2-  O135  1  -0.00081972  0.75096943  0.27473685  1
  O2-  O136  1  0.00503215  0.75441094  0.59977845  1
  O2-  O137  1  -0.00506091  0.75500180  0.94185027  1
  O2-  O138  1  0.49242038  0.25288543  0.27194276  1
  O2-  O139  1  0.50149949  0.24318298  0.60456140  1
  O2-  O140  1  0.49255239  0.25329446  0.94041089  1
  O2-  O141  1  0.50421261  0.75218383  0.26666188  1
  O2-  O142  1  0.49969565  0.75723162  0.60931341  1
  O2-  O143  1  0.50399140  0.75178670  0.94282626  1
  O2-  O144  1  0.07579207  0.18033585  0.08933817  1
  O2-  O145  1  0.07540219  0.17606507  0.42129890  1
  O2-  O146  1  0.07137609  0.18047107  0.75791981  1
  O2-  O147  1  0.07232902  0.68170329  0.10021609  1
  O2-  O148  1  0.06867285  0.68039641  0.42366883  1
  O2-  O149  1  0.06886869  0.67859383  0.76325444  1
  O2-  O150  1  0.57046954  0.18068387  0.09677544  1
  O2-  O151  1  0.56684506  0.18357125  0.43472403  1
  O2-  O152  1  0.57245118  0.18124486  0.75435955  1
  O2-  O153  1  0.56974880  0.67537470  0.09026212  1
  O2-  O154  1  0.56994472  0.67554759  0.42918756  1
  O2-  O155  1  0.57132596  0.67839370  0.76829681  1
  O2-  O156  1  0.17532203  0.42989110  0.24143329  1
  O2-  O157  1  0.17821015  0.42762923  0.56796529  1
  O2-  O158  1  0.17847896  0.42632496  0.91123590  1
  O2-  O159  1  0.18119127  0.92831930  0.23513253  1
  O2-  O160  1  0.18171507  0.93162169  0.56843112  1
  O2-  O161  1  0.18211310  0.92841189  0.90168943  1
  O2-  O162  1  0.68466782  0.43004510  0.23276534  1
  O2-  O163  1  0.67980394  0.42721974  0.57723920  1
  O2-  O164  1  0.67538635  0.43300881  0.90889593  1
  O2-  O165  1  0.67913082  0.93056212  0.23327054  1
  O2-  O166  1  0.67761319  0.92729972  0.56866889  1
  O2-  O167  1  0.67524883  0.92461402  0.91130175  1
  O2-  O168  1  0.42447133  0.32684599  0.08867935  1
  O2-  O169  1  0.42575517  0.32185987  0.42177143  1
  O2-  O170  1  0.43157548  0.31697147  0.76642324  1
  O2-  O171  1  0.42694211  0.81788499  0.08868158  1
  O2-  O172  1  0.42491663  0.81600567  0.43195805  1
  O2-  O173  1  0.42881304  0.82135163  0.75830875  1
  O2-  O174  1  0.93051706  0.31990634  0.09730816  1
  O2-  O175  1  0.93298524  0.32128340  0.43328808  1
  O2-  O176  1  0.92724014  0.32317233  0.75582157  1
  O2-  O177  1  0.92848332  0.82226174  0.09222748  1
  O2-  O178  1  0.93092054  0.82360680  0.42197777  1
  O2-  O179  1  0.93100261  0.82068940  0.76594062  1
  O2-  O180  1  0.32034611  0.07524518  0.24286551  1
  O2-  O181  1  0.32014727  0.07596657  0.57675121  1
  O2-  O182  1  0.32176432  0.07339295  0.91054513  1
  O2-  O183  1  0.31592729  0.56842375  0.23299681  1
  O2-  O184  1  0.32359995  0.56714169  0.57113126  1
  O2-  O185  1  0.32494536  0.56980473  0.91237679  1
  O2-  O186  1  0.81681029  0.07330417  0.23517517  1
  O2-  O187  1  0.81791842  0.07546235  0.57101254  1
  O2-  O188  1  0.81739403  0.07015057  0.90287671  1
  O2-  O189  1  0.82977056  0.56959123  0.24463518  1
  O2-  O190  1  0.82214702  0.56736141  0.57409218  1
  O2-  O191  1  0.82032750  0.57063021  0.89859125  1
  O2-  O192  1  0.04696198  0.08105287  0.27046680  1
  O2-  O193  1  0.04277276  0.08830607  0.60500851  1
  O2-  O194  1  0.04687741  0.08190453  0.94151514  1
  O2-  O195  1  0.04343606  0.58888605  0.27048950  1
  O2-  O196  1  0.04140887  0.58112149  0.59601387  1
  O2-  O197  1  0.04238400  0.58404159  0.93239109  1
  O2-  O198  1  0.54037997  0.08482156  0.26436178  1
  O2-  O199  1  0.55103350  0.08206736  0.60624971  1
  O2-  O200  1  0.54009320  0.08293376  0.92723689  1
  O2-  O201  1  0.54095383  0.57957174  0.26233822  1
  O2-  O202  1  0.53852953  0.58296824  0.60144833  1
  O2-  O203  1  0.54094871  0.58692522  0.93790159  1
  O2-  O204  1  0.16627305  0.19849317  0.26683319  1
  O2-  O205  1  0.16117138  0.20726922  0.60313875  1
  O2-  O206  1  0.16809393  0.20117545  0.93806629  1
  O2-  O207  1  0.16163576  0.70969444  0.27244155  1
  O2-  O208  1  0.17441607  0.70401156  0.60197828  1
  O2-  O209  1  0.16796147  0.71081982  0.93253818  1
  O2-  O210  1  0.66405241  0.21674915  0.26773972  1
  O2-  O211  1  0.66540644  0.20892745  0.60378170  1
  O2-  O212  1  0.66283793  0.21363412  0.92535439  1
  O2-  O213  1  0.67508486  0.69945800  0.26405611  1
  O2-  O214  1  0.66832840  0.70336272  0.59823089  1
  O2-  O215  1  0.66511286  0.70338577  0.93989833  1
  O2-  O216  1  0.08758292  0.45816689  0.06332194  1
  O2-  O217  1  0.08450638  0.45692661  0.39414890  1
  O2-  O218  1  0.07720705  0.45509932  0.73352848  1
  O2-  O219  1  0.08484077  0.95769083  0.07093395  1
  O2-  O220  1  0.08537374  0.96008647  0.40414029  1
  O2-  O221  1  0.08596681  0.96331147  0.73628901  1
  O2-  O222  1  0.58395221  0.45500638  0.06199729  1
  O2-  O223  1  0.58363011  0.45745324  0.40034812  1
  O2-  O224  1  0.58797713  0.45697404  0.73051097  1
  O2-  O225  1  0.57900753  0.95260151  0.05863605  1
  O2-  O226  1  0.57672135  0.95412272  0.39691359  1
  O2-  O227  1  0.57929661  0.95251442  0.73619777  1
  O2-  O228  1  0.20427487  0.33573231  0.06476910  1
  O2-  O229  1  0.19378757  0.32954903  0.38961316  1
  O2-  O230  1  0.20682632  0.33044400  0.73561213  1
  O2-  O231  1  0.21509350  0.83239871  0.06790692  1
  O2-  O232  1  0.21246964  0.83375597  0.40294654  1
  O2-  O233  1  0.21051294  0.83319475  0.73657303  1
  O2-  O234  1  0.70428922  0.33566577  0.05732494  1
  O2-  O235  1  0.71560540  0.33857281  0.40374597  1
  O2-  O236  1  0.70685377  0.33810155  0.73130861  1
  O2-  O237  1  0.69785305  0.83322178  0.06392936  1
  O2-  O238  1  0.70456245  0.82681159  0.39601680  1
  O2-  O239  1  0.70817480  0.82690985  0.73344271  1
  O2-  O240  1  0.45348891  0.41599633  0.27052527  1
  O2-  O241  1  0.46230611  0.41369282  0.59900182  1
  O2-  O242  1  0.45407116  0.41670477  0.93597319  1
  O2-  O243  1  0.44896577  0.91926696  0.26394271  1
  O2-  O244  1  0.44796701  0.91920115  0.60777041  1
  O2-  O245  1  0.44906454  0.91173382  0.93537989  1
  O2-  O246  1  0.96281957  0.41597796  0.26329233  1
  O2-  O247  1  0.95482318  0.41234984  0.60129755  1
  O2-  O248  1  0.96268662  0.41541909  0.93017738  1
  O2-  O249  1  0.96050564  0.91537768  0.27090755  1
  O2-  O250  1  0.95740356  0.92355464  0.60125308  1
  O2-  O251  1  0.95352293  0.91869844  0.94312016  1
  O2-  O252  1  0.33060365  0.30127947  0.27041871  1
  O2-  O253  1  0.33148153  0.29114858  0.59819727  1
  O2-  O254  1  0.33115752  0.29920654  0.93758563  1
  O2-  O255  1  0.33119938  0.78310308  0.26463136  1
  O2-  O256  1  0.33527859  0.79557635  0.60738390  1
  O2-  O257  1  0.33939473  0.78498010  0.93549688  1
  O2-  O258  1  0.83405863  0.29130976  0.26556911  1
  O2-  O259  1  0.83482147  0.29362665  0.60474359  1
  O2-  O260  1  0.83371023  0.29205162  0.92877901  1
  O2-  O261  1  0.83836743  0.79859088  0.26771723  1
  O2-  O262  1  0.83461497  0.79079996  0.59671723  1
  O2-  O263  1  0.83208200  0.80001813  0.94184154  1
  O2-  O264  1  0.41731547  0.04494960  0.05976408  1
  O2-  O265  1  0.41615686  0.05018422  0.39411192  1
  O2-  O266  1  0.41771873  0.05356894  0.72776126  1
  O2-  O267  1  0.41319791  0.54143794  0.06565533  1
  O2-  O268  1  0.41729810  0.54167614  0.39973770  1
  O2-  O269  1  0.41903007  0.53468049  0.73850928  1
  O2-  O270  1  0.91456606  0.04576576  0.07182164  1
  O2-  O271  1  0.91903792  0.04732289  0.40012764  1
  O2-  O272  1  0.91919343  0.04725890  0.73774000  1
  O2-  O273  1  0.91895056  0.53905083  0.06609928  1
  O2-  O274  1  0.91693195  0.54038161  0.39807243  1
  O2-  O275  1  0.91243249  0.54050859  0.72707811  1
  O2-  O276  1  0.30110532  0.16727625  0.06309488  1
  O2-  O277  1  0.29712360  0.16853972  0.39436062  1
  O2-  O278  1  0.29336155  0.16597371  0.72998621  1
  O2-  O279  1  0.29166944  0.66056257  0.06442377  1
  O2-  O280  1  0.28518110  0.66155571  0.40281914  1
  O2-  O281  1  0.29911075  0.66868605  0.73867451  1
  O2-  O282  1  0.78433666  0.17014475  0.06460209  1
  O2-  O283  1  0.79027703  0.17060897  0.40113915  1
  O2-  O284  1  0.78975744  0.17064997  0.73781162  1
  O2-  O285  1  0.79437326  0.66774470  0.06809700  1
  O2-  O286  1  0.80815010  0.66957434  0.39256128  1
  O2-  O287  1  0.79424693  0.66155805  0.72635106  1
