# generated using pymatgen
data_Ca2Al2SiO7
_symmetry_space_group_name_H-M   'P 1'
_cell_length_a   15.45924099
_cell_length_b   15.45993225
_cell_length_c   15.28538458
_cell_angle_alpha   90.00075313
_cell_angle_beta   89.99675237
_cell_angle_gamma   89.98869774
_symmetry_Int_Tables_number   1
_chemical_formula_structural   Ca2Al2SiO7
_chemical_formula_sum   'Ca48 Al48 Si24 O168'
_cell_volume   3653.18877530
_cell_formula_units_Z   24
loop_
 _symmetry_equiv_pos_site_id
 _symmetry_equiv_pos_as_xyz
  1  'x, y, z'
loop_
 _atom_type_symbol
 _atom_type_oxidation_number
  Ca2+  2.0
  Al0+  0.0
  Si0+  0.0
  O2-  -2.0
loop_
 _atom_site_type_symbol
 _atom_site_label
 _atom_site_symmetry_multiplicity
 _atom_site_fract_x
 _atom_site_fract_y
 _atom_site_fract_z
 _atom_site_occupancy
  Ca2+  Ca0  1  0.17699477  0.09046261  0.16785929  1
  Ca2+  Ca1  1  0.17930828  0.08646324  0.50939530  1
  Ca2+  Ca2  1  0.17299028  0.08566792  0.84140392  1
  Ca2+  Ca3  1  0.16944419  0.57780728  0.17391077  1
  Ca2+  Ca4  1  0.16762637  0.58004315  0.50036107  1
  Ca2+  Ca5  1  0.16254804  0.58546753  0.83681415  1
  Ca2+  Ca6  1  0.66166604  0.08064376  0.16876681  1
  Ca2+  Ca7  1  0.66156269  0.08732174  0.50589004  1
  Ca2+  Ca8  1  0.66306152  0.07953716  0.83666375  1
  Ca2+  Ca9  1  0.67171849  0.57416184  0.16545681  1
  Ca2+  Ca10  1  0.67306733  0.57552827  0.51514964  1
  Ca2+  Ca11  1  0.67584046  0.57693712  0.83943851  1
  Ca2+  Ca12  1  0.07712050  0.33505996  0.15855903  1
  Ca2+  Ca13  1  0.07458632  0.33585083  0.49828353  1
  Ca2+  Ca14  1  0.07319884  0.32338012  0.82968197  1
  Ca2+  Ca15  1  0.08876167  0.82652631  0.15743849  1
  Ca2+  Ca16  1  0.08528398  0.82692015  0.50046745  1
  Ca2+  Ca17  1  0.09051661  0.82364921  0.83154461  1
  Ca2+  Ca18  1  0.57624131  0.32995178  0.15966569  1
  Ca2+  Ca19  1  0.58978030  0.32247361  0.49823460  1
  Ca2+  Ca20  1  0.58135968  0.33540282  0.82942266  1
  Ca2+  Ca21  1  0.57688689  0.83459422  0.16327179  1
  Ca2+  Ca22  1  0.57207820  0.82807649  0.49904164  1
  Ca2+  Ca23  1  0.58111579  0.82964167  0.82460496  1
  Ca2+  Ca24  1  0.32719648  0.41960350  0.17440760  1
  Ca2+  Ca25  1  0.32698178  0.41865633  0.50136584  1
  Ca2+  Ca26  1  0.33468595  0.41704195  0.84062135  1
  Ca2+  Ca27  1  0.32959794  0.92672100  0.16979592  1
  Ca2+  Ca28  1  0.34257056  0.92346111  0.50388758  1
  Ca2+  Ca29  1  0.33291384  0.92800051  0.83846176  1
  Ca2+  Ca30  1  0.83857942  0.41554912  0.16620688  1
  Ca2+  Ca31  1  0.83150294  0.41580830  0.51084541  1
  Ca2+  Ca32  1  0.82785387  0.41750934  0.83624626  1
  Ca2+  Ca33  1  0.82562200  0.91640211  0.16676426  1
  Ca2+  Ca34  1  0.83035874  0.92129624  0.50545438  1
  Ca2+  Ca35  1  0.82433442  0.91655542  0.84189623  1
  Ca2+  Ca36  1  0.41570050  0.16683287  0.16256927  1
  Ca2+  Ca37  1  0.42530655  0.15841966  0.49735581  1
  Ca2+  Ca38  1  0.41648750  0.16855370  0.83001894  1
  Ca2+  Ca39  1  0.40874869  0.67212871  0.16435097  1
  Ca2+  Ca40  1  0.41416516  0.67625269  0.49529320  1
  Ca2+  Ca41  1  0.42620562  0.67628802  0.82168188  1
  Ca2+  Ca42  1  0.92580688  0.17986684  0.15684743  1
  Ca2+  Ca43  1  0.91859437  0.18091091  0.49545764  1
  Ca2+  Ca44  1  0.92472646  0.17375141  0.82631213  1
  Ca2+  Ca45  1  0.92387070  0.66379867  0.15651013  1
  Ca2+  Ca46  1  0.92044706  0.65854438  0.50358230  1
  Ca2+  Ca47  1  0.92269550  0.65762819  0.83052513  1
  Al0+  Al48  1  -0.00023738  -0.00277563  0.00088411  1
  Al0+  Al49  1  -0.00150859  0.00014103  0.33320562  1
  Al0+  Al50  1  0.00216790  -0.00129603  0.66368950  1
  Al0+  Al51  1  0.00019339  0.50052117  -0.00490655  1
  Al0+  Al52  1  -0.00090480  0.50056071  0.33315771  1
  Al0+  Al53  1  0.00055627  0.50057900  0.66291236  1
  Al0+  Al54  1  0.49895899  0.00029644  0.00799968  1
  Al0+  Al55  1  0.49973322  -0.00341578  0.32807061  1
  Al0+  Al56  1  0.49876712  0.00141662  0.66550938  1
  Al0+  Al57  1  0.50185144  0.50084739  0.00089835  1
  Al0+  Al58  1  0.50225268  0.49984482  0.33860226  1
  Al0+  Al59  1  0.49923137  0.49986429  0.66612140  1
  Al0+  Al60  1  0.25179780  0.25203403  -0.00301539  1
  Al0+  Al61  1  0.25062463  0.24949043  0.34499141  1
  Al0+  Al62  1  0.25028629  0.25064025  0.66863047  1
  Al0+  Al63  1  0.25073283  0.75285969  -0.00255133  1
  Al0+  Al64  1  0.24971167  0.75095263  0.33216585  1
  Al0+  Al65  1  0.24862959  0.75097773  0.65791574  1
  Al0+  Al66  1  0.74785615  0.24916328  0.00050228  1
  Al0+  Al67  1  0.75133283  0.24875100  0.32276480  1
  Al0+  Al68  1  0.74900100  0.24956958  0.66501976  1
  Al0+  Al69  1  0.75040946  0.74899976  0.01015312  1
  Al0+  Al70  1  0.74886243  0.74958697  0.33464735  1
  Al0+  Al71  1  0.75100661  0.74947480  0.66610636  1
  Al0+  Al72  1  0.57346162  0.67699060  0.65269577  1
  Al0+  Al73  1  0.67720189  0.42622723  0.68168058  1
  Al0+  Al74  1  0.17823802  0.92738336  0.01405827  1
  Al0+  Al75  1  0.67717934  0.42664434  0.01724264  1
  Al0+  Al76  1  0.43011895  0.82109578  0.65241027  1
  Al0+  Al77  1  0.07009728  0.67933183  0.65066694  1
  Al0+  Al78  1  0.56847936  0.18132458  0.65577919  1
  Al0+  Al79  1  0.07178305  0.68081572  0.98720423  1
  Al0+  Al80  1  0.07245534  0.17705109  0.98650596  1
  Al0+  Al81  1  0.43021436  0.32284264  0.98842707  1
  Al0+  Al82  1  0.17701279  0.42928173  0.34912815  1
  Al0+  Al83  1  0.67891577  0.92910589  0.01419908  1
  Al0+  Al84  1  0.93143453  0.32146411  0.31724097  1
  Al0+  Al85  1  0.56958913  0.17897917  0.31760017  1
  Al0+  Al86  1  0.92996458  0.31881577  0.65157683  1
  Al0+  Al87  1  0.07395020  0.17654548  0.65033618  1
  Al0+  Al88  1  0.32211947  0.57297072  0.34867009  1
  Al0+  Al89  1  0.32126762  0.06900543  0.34935745  1
  Al0+  Al90  1  0.92688263  0.32132662  0.98249614  1
  Al0+  Al91  1  0.32114382  0.07049775  0.68215079  1
  Al0+  Al92  1  0.82223334  0.57125650  0.68254727  1
  Al0+  Al93  1  0.31907221  0.07344696  0.01641383  1
  Al0+  Al94  1  0.82267835  0.56796998  0.01691900  1
  Al0+  Al95  1  0.42921402  0.81802716  0.31576339  1
  Si0+  Si96  1  0.07397373  0.17722639  0.31841635  1
  Si0+  Si97  1  0.67937530  0.92868420  0.35052894  1
  Si0+  Si98  1  0.57223837  0.68018532  0.98706663  1
  Si0+  Si99  1  0.32255819  0.57299403  0.01135022  1
  Si0+  Si100  1  0.92604715  0.82364606  0.64986720  1
  Si0+  Si101  1  0.82319431  0.07249703  0.01669286  1
  Si0+  Si102  1  0.06786839  0.68166815  0.31774512  1
  Si0+  Si103  1  0.67986754  0.93053229  0.67908979  1
  Si0+  Si104  1  0.68076309  0.42620902  0.34787107  1
  Si0+  Si105  1  0.81985911  0.57129176  0.34910176  1
  Si0+  Si106  1  0.17688549  0.92653217  0.68273419  1
  Si0+  Si107  1  0.81994883  0.07108205  0.34769312  1
  Si0+  Si108  1  0.92495522  0.82101423  0.98503473  1
  Si0+  Si109  1  0.82280177  0.07083751  0.67953426  1
  Si0+  Si110  1  0.17531917  0.92784153  0.35109477  1
  Si0+  Si111  1  0.42705344  0.32336284  0.31975344  1
  Si0+  Si112  1  0.31993799  0.57330491  0.68163150  1
  Si0+  Si113  1  0.18068509  0.43125709  0.01136800  1
  Si0+  Si114  1  0.42571206  0.32482858  0.64920842  1
  Si0+  Si115  1  0.57414047  0.67602425  0.31509583  1
  Si0+  Si116  1  0.43051024  0.82172154  0.98476200  1
  Si0+  Si117  1  0.92587235  0.82338542  0.31786551  1
  Si0+  Si118  1  0.56985509  0.17603987  0.98417415  1
  Si0+  Si119  1  0.17966906  0.43067399  0.68398058  1
  O2-  O120  1  0.24378371  0.00405110  0.06571560  1
  O2-  O121  1  0.24268452  -0.00258998  0.39550103  1
  O2-  O122  1  0.24245911  -0.00157226  0.72602349  1
  O2-  O123  1  0.25165267  0.50232421  0.05390750  1
  O2-  O124  1  0.25178415  0.49941505  0.39890614  1
  O2-  O125  1  0.25182982  0.50104843  0.72647029  1
  O2-  O126  1  0.75330209  0.00436433  0.06124933  1
  O2-  O127  1  0.74929800  0.00067069  0.39272177  1
  O2-  O128  1  0.75370628  -0.00206939  0.72204739  1
  O2-  O129  1  0.75401332  0.49336993  0.06833563  1
  O2-  O130  1  0.74894777  0.50006320  0.39003732  1
  O2-  O131  1  0.74745670  0.50101431  0.73022404  1
  O2-  O132  1  0.00964870  0.24921635  0.27305901  1
  O2-  O133  1  0.00123980  0.24701415  0.59957760  1
  O2-  O134  1  -0.00395246  0.24438753  0.93636594  1
  O2-  O135  1  -0.00178460  0.75405504  0.27567605  1
  O2-  O136  1  -0.00613133  0.75372997  0.60569023  1
  O2-  O137  1  -0.00359145  0.75547196  0.94096033  1
  O2-  O138  1  0.49351246  0.25345570  0.27386050  1
  O2-  O139  1  0.49645203  0.25723771  0.60664120  1
  O2-  O140  1  0.50490317  0.24840539  0.94108676  1
  O2-  O141  1  0.50095790  0.73946066  0.26947255  1
  O2-  O142  1  0.49868801  0.74558360  0.60203019  1
  O2-  O143  1  0.50280157  0.75197683  0.94341428  1
  O2-  O144  1  0.07347350  0.18276397  0.10062307  1
  O2-  O145  1  0.06875419  0.17479145  0.42358296  1
  O2-  O146  1  0.07153418  0.17731697  0.76378523  1
  O2-  O147  1  0.07253373  0.68080451  0.10076594  1
  O2-  O148  1  0.06595231  0.68175869  0.42283467  1
  O2-  O149  1  0.07225769  0.68135172  0.76352313  1
  O2-  O150  1  0.56674608  0.17487571  0.08994632  1
  O2-  O151  1  0.57151848  0.17980524  0.43084454  1
  O2-  O152  1  0.56718966  0.17740580  0.76844096  1
  O2-  O153  1  0.56938057  0.68060576  0.09234730  1
  O2-  O154  1  0.57822704  0.68031045  0.42018060  1
  O2-  O155  1  0.57273767  0.68170018  0.76691252  1
  O2-  O156  1  0.17646722  0.43215931  0.23477898  1
  O2-  O157  1  0.18029888  0.43240217  0.57880833  1
  O2-  O158  1  0.18232026  0.43287941  0.90620407  1
  O2-  O159  1  0.17494086  0.92682518  0.24574498  1
  O2-  O160  1  0.17668243  0.92574243  0.57690696  1
  O2-  O161  1  0.18562460  0.92172371  0.90098532  1
  O2-  O162  1  0.68055620  0.42755948  0.24305622  1
  O2-  O163  1  0.68144099  0.42451638  0.56720781  1
  O2-  O164  1  0.67348869  0.43205837  0.90443608  1
  O2-  O165  1  0.68189528  0.92752641  0.24544705  1
  O2-  O166  1  0.68083181  0.93250091  0.57368873  1
  O2-  O167  1  0.67879613  0.92893926  0.90053202  1
  O2-  O168  1  0.42894140  0.32404177  0.10170017  1
  O2-  O169  1  0.42979740  0.32424845  0.42520262  1
  O2-  O170  1  0.42488930  0.32486729  0.75492261  1
  O2-  O171  1  0.43002152  0.81912390  0.08990978  1
  O2-  O172  1  0.43308716  0.81933893  0.42853046  1
  O2-  O173  1  0.43300223  0.82125618  0.76649200  1
  O2-  O174  1  0.93282485  0.32195947  0.09657193  1
  O2-  O175  1  0.92838061  0.32043330  0.42996663  1
  O2-  O176  1  0.93028380  0.31680004  0.76455007  1
  O2-  O177  1  0.92342362  0.81822399  0.09107303  1
  O2-  O178  1  0.92444704  0.82393726  0.42284378  1
  O2-  O179  1  0.92387985  0.82756641  0.75487204  1
  O2-  O180  1  0.32036635  0.06938551  0.23651214  1
  O2-  O181  1  0.32395695  0.06633730  0.56892491  1
  O2-  O182  1  0.32256928  0.07075125  0.90300729  1
  O2-  O183  1  0.31800575  0.57307221  0.23427431  1
  O2-  O184  1  0.31774884  0.57250142  0.57668007  1
  O2-  O185  1  0.32291058  0.57294411  0.90611201  1
  O2-  O186  1  0.81984983  0.06734508  0.24287784  1
  O2-  O187  1  0.82077334  0.06927908  0.57394441  1
  O2-  O188  1  0.82208485  0.06989082  0.91079351  1
  O2-  O189  1  0.82072247  0.57289344  0.24433063  1
  O2-  O190  1  0.82133553  0.56957547  0.56799146  1
  O2-  O191  1  0.82049265  0.57147566  0.90412374  1
  O2-  O192  1  0.04487740  0.08444439  0.27165841  1
  O2-  O193  1  0.05023077  0.07646494  0.59856994  1
  O2-  O194  1  0.04983424  0.07545412  0.93701293  1
  O2-  O195  1  0.03804792  0.59062942  0.27047225  1
  O2-  O196  1  0.03926934  0.58423998  0.59431524  1
  O2-  O197  1  0.04212712  0.58539646  0.93142876  1
  O2-  O198  1  0.54096110  0.08159644  0.26466486  1
  O2-  O199  1  0.53720841  0.08582578  0.59915822  1
  O2-  O200  1  0.54095024  0.08271309  0.93888476  1
  O2-  O201  1  0.55437185  0.57953810  0.27280228  1
  O2-  O202  1  0.54810748  0.57769829  0.60073842  1
  O2-  O203  1  0.54361725  0.58956806  0.93911407  1
  O2-  O204  1  0.17044927  0.19983127  0.27790444  1
  O2-  O205  1  0.17204656  0.20813698  0.59920187  1
  O2-  O206  1  0.16869691  0.21000685  0.93271036  1
  O2-  O207  1  0.16029480  0.70755140  0.27122374  1
  O2-  O208  1  0.16419853  0.71129295  0.59247469  1
  O2-  O209  1  0.16795968  0.71192290  0.93127851  1
  O2-  O210  1  0.66525619  0.20809762  0.26128165  1
  O2-  O211  1  0.66540039  0.20755615  0.59918290  1
  O2-  O212  1  0.66567865  0.19419633  0.94071970  1
  O2-  O213  1  0.66587934  0.70815933  0.26755828  1
  O2-  O214  1  0.67066256  0.70770894  0.59844673  1
  O2-  O215  1  0.66487168  0.70899579  0.94294022  1
  O2-  O216  1  0.08948810  0.46011640  0.05867292  1
  O2-  O217  1  0.08047397  0.46446370  0.40279016  1
  O2-  O218  1  0.08862066  0.46176592  0.72978798  1
  O2-  O219  1  0.07573510  0.94266762  0.06433188  1
  O2-  O220  1  0.07979432  0.94959128  0.39617740  1
  O2-  O221  1  0.08145535  0.94602487  0.72809290  1
  O2-  O222  1  0.58122688  0.46303518  0.07275441  1
  O2-  O223  1  0.58833338  0.44880356  0.39623361  1
  O2-  O224  1  0.57633861  0.45079788  0.73193419  1
  O2-  O225  1  0.58415039  0.95983471  0.07172349  1
  O2-  O226  1  0.58717688  0.95615326  0.39570774  1
  O2-  O227  1  0.58994515  0.96171671  0.72750016  1
  O2-  O228  1  0.20893115  0.34074048  0.05999685  1
  O2-  O229  1  0.20148685  0.33166729  0.40527504  1
  O2-  O230  1  0.20642685  0.33880371  0.73114968  1
  O2-  O231  1  0.21375961  0.83128512  0.06987071  1
  O2-  O232  1  0.20197407  0.83419869  0.39621648  1
  O2-  O233  1  0.20562659  0.83277041  0.72685486  1
  O2-  O234  1  0.69667452  0.32496226  0.06729314  1
  O2-  O235  1  0.71266252  0.33396925  0.39193805  1
  O2-  O236  1  0.70675982  0.32809594  0.73488824  1
  O2-  O237  1  0.70996131  0.83496876  0.07339958  1
  O2-  O238  1  0.70909969  0.83742774  0.39842217  1
  O2-  O239  1  0.70534457  0.83823557  0.72632752  1
  O2-  O240  1  0.45356209  0.41732922  0.27398132  1
  O2-  O241  1  0.44690231  0.41909251  0.60302494  1
  O2-  O242  1  0.45981088  0.41982274  0.93315990  1
  O2-  O243  1  0.46506697  0.91168809  0.25993545  1
  O2-  O244  1  0.46510795  0.91651295  0.59808454  1
  O2-  O245  1  0.45929488  0.91436424  0.94058269  1
  O2-  O246  1  0.96009773  0.41948896  0.26451696  1
  O2-  O247  1  0.96001002  0.41660957  0.59850502  1
  O2-  O248  1  0.95943312  0.41784441  0.92988012  1
  O2-  O249  1  0.95020511  0.91591926  0.27006521  1
  O2-  O250  1  0.95309696  0.91555652  0.60006740  1
  O2-  O251  1  0.94396747  0.91600528  0.93988017  1
  O2-  O252  1  0.33110033  0.29953753  0.27765754  1
  O2-  O253  1  0.33280339  0.29792053  0.60352982  1
  O2-  O254  1  0.33495855  0.29433837  0.93124053  1
  O2-  O255  1  0.33098263  0.79027155  0.26252605  1
  O2-  O256  1  0.33227616  0.79583905  0.59738587  1
  O2-  O257  1  0.34043950  0.79259579  0.93596071  1
  O2-  O258  1  0.83770625  0.28693328  0.26050305  1
  O2-  O259  1  0.83212740  0.28867864  0.59814162  1
  O2-  O260  1  0.82589349  0.29623283  0.93416594  1
  O2-  O261  1  0.83410371  0.79387967  0.27096469  1
  O2-  O262  1  0.83311969  0.79930173  0.60131528  1
  O2-  O263  1  0.83136664  0.79296353  0.93982125  1
  O2-  O264  1  0.41523926  0.04074256  0.07140748  1
  O2-  O265  1  0.41821781  0.03206126  0.39959167  1
  O2-  O266  1  0.41659929  0.03590857  0.73660624  1
  O2-  O267  1  0.41347406  0.54706899  0.06074882  1
  O2-  O268  1  0.42222644  0.54936558  0.40081922  1
  O2-  O269  1  0.41296405  0.54876128  0.72833600  1
  O2-  O270  1  0.91572599  0.04605365  0.06455531  1
  O2-  O271  1  0.91140124  0.04309159  0.39636372  1
  O2-  O272  1  0.91531502  0.04430434  0.72573513  1
  O2-  O273  1  0.92297184  0.54167608  0.06858600  1
  O2-  O274  1  0.91188588  0.54404978  0.39576831  1
  O2-  O275  1  0.92153097  0.54230176  0.73269294  1
  O2-  O276  1  0.29303585  0.17335306  0.06858341  1
  O2-  O277  1  0.29775508  0.16606398  0.40582131  1
  O2-  O278  1  0.29442065  0.16915289  0.73425895  1
  O2-  O279  1  0.29345486  0.66428727  0.05876627  1
  O2-  O280  1  0.28955441  0.67060028  0.40107188  1
  O2-  O281  1  0.29019231  0.66578149  0.72673203  1
  O2-  O282  1  0.79791336  0.16562800  0.06335081  1
  O2-  O283  1  0.79074310  0.16344670  0.39283868  1
  O2-  O284  1  0.79193249  0.16047261  0.72781800  1
  O2-  O285  1  0.79253252  0.66502533  0.07302402  1
  O2-  O286  1  0.79308152  0.66373477  0.39651964  1
  O2-  O287  1  0.79802573  0.67208904  0.73326996  1
