# generated using pymatgen
data_Ca2Al2SiO7
_symmetry_space_group_name_H-M   'P 1'
_cell_length_a   15.46751682
_cell_length_b   15.46656811
_cell_length_c   15.29110465
_cell_angle_alpha   90.00940767
_cell_angle_beta   89.99908993
_cell_angle_gamma   90.01632222
_symmetry_Int_Tables_number   1
_chemical_formula_structural   Ca2Al2SiO7
_chemical_formula_sum   'Ca48 Al48 Si24 O168'
_cell_volume   3658.08162945
_cell_formula_units_Z   24
loop_
 _symmetry_equiv_pos_site_id
 _symmetry_equiv_pos_as_xyz
  1  'x, y, z'
loop_
 _atom_type_symbol
 _atom_type_oxidation_number
  Ca2+  2.0
  Al0+  0.0
  Si0+  0.0
  O2-  -2.0
loop_
 _atom_site_type_symbol
 _atom_site_label
 _atom_site_symmetry_multiplicity
 _atom_site_fract_x
 _atom_site_fract_y
 _atom_site_fract_z
 _atom_site_occupancy
  Ca2+  Ca0  1  0.16777171  0.08808268  0.16344827  1
  Ca2+  Ca1  1  0.15588482  0.08053183  0.50601888  1
  Ca2+  Ca2  1  0.16145766  0.07753711  0.83939788  1
  Ca2+  Ca3  1  0.17719273  0.56954547  0.16916353  1
  Ca2+  Ca4  1  0.17696442  0.57112481  0.50705111  1
  Ca2+  Ca5  1  0.17374201  0.56975925  0.83863187  1
  Ca2+  Ca6  1  0.66003744  0.07814521  0.17065826  1
  Ca2+  Ca7  1  0.67422265  0.08988973  0.50636208  1
  Ca2+  Ca8  1  0.67606610  0.08159356  0.84077858  1
  Ca2+  Ca9  1  0.66738811  0.57929896  0.16378263  1
  Ca2+  Ca10  1  0.66472170  0.58443836  0.50155489  1
  Ca2+  Ca11  1  0.67745534  0.57661360  0.84280253  1
  Ca2+  Ca12  1  0.08758866  0.32897046  0.15638243  1
  Ca2+  Ca13  1  0.08881889  0.32762937  0.49807411  1
  Ca2+  Ca14  1  0.08428200  0.32631287  0.82726587  1
  Ca2+  Ca15  1  0.08614292  0.83025327  0.15864228  1
  Ca2+  Ca16  1  0.07844750  0.83902574  0.50241600  1
  Ca2+  Ca17  1  0.08430938  0.83550016  0.82616213  1
  Ca2+  Ca18  1  0.57842813  0.33014485  0.15864628  1
  Ca2+  Ca19  1  0.57525986  0.32920408  0.49729324  1
  Ca2+  Ca20  1  0.57047250  0.34521753  0.83337476  1
  Ca2+  Ca21  1  0.57693716  0.82715446  0.15694885  1
  Ca2+  Ca22  1  0.57968591  0.82334476  0.49230480  1
  Ca2+  Ca23  1  0.57811817  0.83659399  0.83622194  1
  Ca2+  Ca24  1  0.32589338  0.41569574  0.16905150  1
  Ca2+  Ca25  1  0.32685450  0.42086316  0.50732219  1
  Ca2+  Ca26  1  0.32711248  0.41727536  0.84015944  1
  Ca2+  Ca27  1  0.33322479  0.91992434  0.16054596  1
  Ca2+  Ca28  1  0.32553049  0.92227195  0.50775142  1
  Ca2+  Ca29  1  0.32306986  0.92298800  0.84484784  1
  Ca2+  Ca30  1  0.83387606  0.41527573  0.16219502  1
  Ca2+  Ca31  1  0.83093078  0.41164356  0.50642123  1
  Ca2+  Ca32  1  0.83185025  0.41407242  0.84428803  1
  Ca2+  Ca33  1  0.82517512  0.91684892  0.16592721  1
  Ca2+  Ca34  1  0.83339618  0.92488413  0.51134752  1
  Ca2+  Ca35  1  0.83351565  0.92259726  0.83551916  1
  Ca2+  Ca36  1  0.41770245  0.17134767  0.15622850  1
  Ca2+  Ca37  1  0.41605583  0.17628969  0.49731084  1
  Ca2+  Ca38  1  0.40902310  0.17891564  0.83468665  1
  Ca2+  Ca39  1  0.41432528  0.66495809  0.15923482  1
  Ca2+  Ca40  1  0.41508040  0.66250822  0.49411334  1
  Ca2+  Ca41  1  0.40634935  0.66801269  0.83232230  1
  Ca2+  Ca42  1  0.93098612  0.17489868  0.15812699  1
  Ca2+  Ca43  1  0.92607999  0.16884779  0.50230593  1
  Ca2+  Ca44  1  0.92447635  0.17574750  0.82786714  1
  Ca2+  Ca45  1  0.91709727  0.66605691  0.15893649  1
  Ca2+  Ca46  1  0.91740078  0.67510476  0.49872520  1
  Ca2+  Ca47  1  0.91654220  0.67090017  0.82932542  1
  Al0+  Al48  1  -0.00108651  -0.00122571  0.00212393  1
  Al0+  Al49  1  -0.00294893  0.00284220  0.32780781  1
  Al0+  Al50  1  -0.00320018  0.00018745  0.66780537  1
  Al0+  Al51  1  0.00064564  0.50183740  0.00405069  1
  Al0+  Al52  1  -0.00172622  0.50227193  0.33887037  1
  Al0+  Al53  1  0.00035180  0.50130268  0.66484247  1
  Al0+  Al54  1  0.50011230  -0.00280853  0.00207171  1
  Al0+  Al55  1  0.49880759  -0.00233510  0.33419597  1
  Al0+  Al56  1  0.50058215  -0.00312233  0.66433432  1
  Al0+  Al57  1  0.50468666  0.50048054  0.00198470  1
  Al0+  Al58  1  0.50222556  0.50099112  0.33167290  1
  Al0+  Al59  1  0.50184160  0.50088827  0.66421332  1
  Al0+  Al60  1  0.25214097  0.24724838  -0.00172636  1
  Al0+  Al61  1  0.24948410  0.24815591  0.33352683  1
  Al0+  Al62  1  0.25204180  0.24908609  0.65903949  1
  Al0+  Al63  1  0.24983482  0.75068681  0.00187921  1
  Al0+  Al64  1  0.24702227  0.75165363  0.33737273  1
  Al0+  Al65  1  0.24990348  0.75075170  0.66978149  1
  Al0+  Al66  1  0.75218041  0.24913238  0.00311866  1
  Al0+  Al67  1  0.75014255  0.24970551  0.33021694  1
  Al0+  Al68  1  0.75126435  0.24969148  0.67001581  1
  Al0+  Al69  1  0.75010316  0.75092938  0.00621983  1
  Al0+  Al70  1  0.74699782  0.75040558  0.32980873  1
  Al0+  Al71  1  0.74914828  0.75018050  0.66168288  1
  Al0+  Al72  1  0.07056814  0.17960192  0.65159122  1
  Al0+  Al73  1  0.42867429  0.81907534  0.98503610  1
  Al0+  Al74  1  0.81901836  0.07135818  0.68121377  1
  Al0+  Al75  1  0.32381571  0.57011081  0.68251020  1
  Al0+  Al76  1  0.82257780  0.57157728  0.01453847  1
  Al0+  Al77  1  0.17896212  0.93212119  0.67876562  1
  Al0+  Al78  1  0.57180388  0.17828146  0.32114639  1
  Al0+  Al79  1  0.07230657  0.17840850  0.98337682  1
  Al0+  Al80  1  0.32094528  0.07078735  0.01399779  1
  Al0+  Al81  1  0.92724867  0.32412956  0.65156495  1
  Al0+  Al82  1  0.67977402  0.42648952  0.01568566  1
  Al0+  Al83  1  0.92889564  0.81969896  0.65391571  1
  Al0+  Al84  1  0.17806256  0.42648105  0.34991978  1
  Al0+  Al85  1  0.67928852  0.93070924  0.01382277  1
  Al0+  Al86  1  0.07028235  0.17997900  0.31735244  1
  Al0+  Al87  1  0.17645093  0.92897068  0.01586945  1
  Al0+  Al88  1  0.17889640  0.42588163  0.68238234  1
  Al0+  Al89  1  0.43047340  0.32143984  0.65220861  1
  Al0+  Al90  1  0.32204280  0.57131566  0.34828829  1
  Al0+  Al91  1  0.56994444  0.67859835  0.31654428  1
  Al0+  Al92  1  0.18029015  0.42659114  0.01302776  1
  Al0+  Al93  1  0.93005886  0.32334003  0.98589981  1
  Al0+  Al94  1  0.43161513  0.32183310  0.98770802  1
  Al0+  Al95  1  0.32245457  0.57146513  0.01374042  1
  Si0+  Si96  1  0.42488138  0.82130466  0.31669112  1
  Si0+  Si97  1  0.06935518  0.67999811  0.31895592  1
  Si0+  Si98  1  0.81910325  0.06988079  0.34862448  1
  Si0+  Si99  1  0.17528741  0.93074660  0.34880499  1
  Si0+  Si100  1  0.82067457  0.57373633  0.67790046  1
  Si0+  Si101  1  0.92837627  0.82167756  0.31698353  1
  Si0+  Si102  1  0.67736386  0.92510064  0.68201184  1
  Si0+  Si103  1  0.32636180  0.07158758  0.68153099  1
  Si0+  Si104  1  0.07141485  0.68027734  0.98547431  1
  Si0+  Si105  1  0.68103814  0.42831524  0.34953848  1
  Si0+  Si106  1  0.42695534  0.82114165  0.65077860  1
  Si0+  Si107  1  0.68093518  0.42957519  0.67961512  1
  Si0+  Si108  1  0.57276254  0.17570709  0.65333358  1
  Si0+  Si109  1  0.57403795  0.67921444  0.98128637  1
  Si0+  Si110  1  0.92718838  0.82021640  0.98559645  1
  Si0+  Si111  1  0.82244962  0.07198280  0.02002612  1
  Si0+  Si112  1  0.57312039  0.17552614  0.98428093  1
  Si0+  Si113  1  0.32199970  0.06937681  0.34912429  1
  Si0+  Si114  1  0.57085942  0.68059634  0.65191016  1
  Si0+  Si115  1  0.07402518  0.67856572  0.64871575  1
  Si0+  Si116  1  0.81983952  0.57414292  0.35099548  1
  Si0+  Si117  1  0.42962029  0.32029195  0.31669697  1
  Si0+  Si118  1  0.92747069  0.32467641  0.31694614  1
  Si0+  Si119  1  0.67811398  0.92816321  0.35026390  1
  O2-  O120  1  0.24667817  0.00200767  0.06627955  1
  O2-  O121  1  0.24707226  0.00140749  0.39044982  1
  O2-  O122  1  0.25383164  0.00648998  0.72396079  1
  O2-  O123  1  0.25546946  0.49533977  0.06354447  1
  O2-  O124  1  0.25229866  0.49755883  0.39830568  1
  O2-  O125  1  0.25291465  0.49679794  0.73075237  1
  O2-  O126  1  0.74975872  0.00723002  0.06443185  1
  O2-  O127  1  0.74627588  0.00105644  0.39315451  1
  O2-  O128  1  0.74129675  -0.00202483  0.72531041  1
  O2-  O129  1  0.75343375  0.49731833  0.06529488  1
  O2-  O130  1  0.75139806  0.50026290  0.39278948  1
  O2-  O131  1  0.75722333  0.49624299  0.71937863  1
  O2-  O132  1  0.00205953  0.26213573  0.27425197  1
  O2-  O133  1  0.00301904  0.25642540  0.60107618  1
  O2-  O134  1  0.00305622  0.25368952  0.93486206  1
  O2-  O135  1  -0.00138118  0.75074696  0.27458939  1
  O2-  O136  1  0.00415598  0.74714841  0.60436926  1
  O2-  O137  1  -0.00022015  0.75150852  0.94356170  1
  O2-  O138  1  0.49669679  0.25009620  0.27263835  1
  O2-  O139  1  0.50267117  0.24219221  0.60795678  1
  O2-  O140  1  0.50793314  0.24732751  0.94030555  1
  O2-  O141  1  0.49016969  0.74912587  0.27322010  1
  O2-  O142  1  0.49678963  0.74857394  0.60946420  1
  O2-  O143  1  0.50091880  0.74243847  0.93608708  1
  O2-  O144  1  0.06937407  0.17867274  0.09743124  1
  O2-  O145  1  0.06497905  0.17304255  0.42989618  1
  O2-  O146  1  0.06782775  0.17648942  0.76420312  1
  O2-  O147  1  0.06956330  0.68248106  0.09112097  1
  O2-  O148  1  0.06668587  0.68298633  0.42397122  1
  O2-  O149  1  0.07252233  0.67953517  0.75414531  1
  O2-  O150  1  0.56981480  0.17528505  0.09033553  1
  O2-  O151  1  0.57242027  0.18177873  0.43454073  1
  O2-  O152  1  0.57321410  0.17408280  0.75826588  1
  O2-  O153  1  0.57570689  0.68302633  0.08686582  1
  O2-  O154  1  0.57432263  0.68285981  0.43026967  1
  O2-  O155  1  0.57669790  0.68273205  0.75604832  1
  O2-  O156  1  0.17854489  0.42750024  0.23665466  1
  O2-  O157  1  0.18054139  0.42843569  0.56857825  1
  O2-  O158  1  0.17911306  0.42814242  0.89981071  1
  O2-  O159  1  0.17452965  0.92843569  0.24450581  1
  O2-  O160  1  0.18030485  0.93256667  0.56464603  1
  O2-  O161  1  0.17664332  0.92850165  0.90233230  1
  O2-  O162  1  0.68253462  0.42741745  0.24529017  1
  O2-  O163  1  0.67942073  0.43126125  0.57388117  1
  O2-  O164  1  0.67915607  0.43059267  0.90152489  1
  O2-  O165  1  0.67977502  0.92778151  0.24552785  1
  O2-  O166  1  0.67851758  0.92319426  0.57599823  1
  O2-  O167  1  0.68242904  0.93075864  0.90054399  1
  O2-  O168  1  0.43267012  0.31955823  0.10096592  1
  O2-  O169  1  0.43232984  0.31924858  0.42269819  1
  O2-  O170  1  0.43303323  0.32391515  0.76479899  1
  O2-  O171  1  0.43129063  0.81882294  0.09834804  1
  O2-  O172  1  0.42782387  0.82364006  0.42284993  1
  O2-  O173  1  0.42843557  0.82420661  0.75516510  1
  O2-  O174  1  0.93050692  0.32059181  0.09999703  1
  O2-  O175  1  0.92251653  0.32122667  0.42233199  1
  O2-  O176  1  0.92268851  0.32168946  0.76406447  1
  O2-  O177  1  0.92615677  0.81870283  0.09127030  1
  O2-  O178  1  0.92832094  0.82221522  0.42222936  1
  O2-  O179  1  0.92610833  0.81627426  0.76660758  1
  O2-  O180  1  0.32534251  0.06771929  0.24481752  1
  O2-  O181  1  0.33108005  0.06688543  0.57536626  1
  O2-  O182  1  0.32307924  0.06851669  0.90049359  1
  O2-  O183  1  0.31989412  0.57141015  0.23538316  1
  O2-  O184  1  0.32399096  0.56960739  0.56864884  1
  O2-  O185  1  0.31767886  0.57140624  0.90048276  1
  O2-  O186  1  0.81835769  0.06597925  0.24407757  1
  O2-  O187  1  0.81724746  0.06948150  0.56719267  1
  O2-  O188  1  0.82201431  0.06933127  0.91445416  1
  O2-  O189  1  0.82026963  0.57677358  0.24671168  1
  O2-  O190  1  0.81466383  0.57820176  0.57261146  1
  O2-  O191  1  0.81934613  0.57687277  0.90061606  1
  O2-  O192  1  0.03302269  0.08595639  0.26140456  1
  O2-  O193  1  0.03335357  0.08309414  0.59820216  1
  O2-  O194  1  0.03917645  0.07905410  0.93458184  1
  O2-  O195  1  0.04022203  0.58817412  0.27281452  1
  O2-  O196  1  0.04742029  0.58630564  0.60085252  1
  O2-  O197  1  0.04266791  0.58931730  0.93796053  1
  O2-  O198  1  0.54405084  0.07899685  0.27101059  1
  O2-  O199  1  0.55199012  0.08072653  0.60566068  1
  O2-  O200  1  0.54745509  0.08229976  0.93842862  1
  O2-  O201  1  0.54729954  0.57996886  0.26361059  1
  O2-  O202  1  0.54686763  0.58875895  0.60229362  1
  O2-  O203  1  0.55695841  0.58329962  0.93791553  1
  O2-  O204  1  0.17033843  0.20245159  0.26681332  1
  O2-  O205  1  0.17071089  0.19921062  0.59715793  1
  O2-  O206  1  0.17239290  0.19947855  0.93236371  1
  O2-  O207  1  0.16076406  0.70981359  0.27236728  1
  O2-  O208  1  0.16647828  0.70751796  0.60182529  1
  O2-  O209  1  0.16163012  0.70952308  0.93724432  1
  O2-  O210  1  0.66773029  0.20784921  0.26549289  1
  O2-  O211  1  0.66496987  0.20537735  0.60642844  1
  O2-  O212  1  0.66919851  0.19686430  0.94240772  1
  O2-  O213  1  0.66488437  0.71433202  0.26203835  1
  O2-  O214  1  0.65970077  0.71213218  0.59924489  1
  O2-  O215  1  0.66607113  0.71269480  0.93590653  1
  O2-  O216  1  0.08404842  0.45913854  0.06744680  1
  O2-  O217  1  0.07921689  0.45704869  0.40200093  1
  O2-  O218  1  0.07918889  0.45639323  0.73178860  1
  O2-  O219  1  0.07690483  0.95206633  0.06946997  1
  O2-  O220  1  0.08253696  0.96070833  0.39429070  1
  O2-  O221  1  0.08158195  0.95882814  0.73161050  1
  O2-  O222  1  0.58414337  0.45798439  0.07185167  1
  O2-  O223  1  0.58931838  0.45654639  0.39708525  1
  O2-  O224  1  0.59199539  0.46403443  0.72732781  1
  O2-  O225  1  0.58329060  0.95721212  0.07030048  1
  O2-  O226  1  0.58477876  0.95106047  0.39738187  1
  O2-  O227  1  0.58185206  0.94557720  0.72588014  1
  O2-  O228  1  0.20767612  0.32814212  0.06488478  1
  O2-  O229  1  0.20584817  0.32685346  0.40129604  1
  O2-  O230  1  0.20741034  0.32553307  0.72972351  1
  O2-  O231  1  0.20821445  0.83218570  0.06982727  1
  O2-  O232  1  0.20080596  0.83922049  0.39827103  1
  O2-  O233  1  0.20800180  0.83522850  0.73176683  1
  O2-  O234  1  0.70493268  0.32758388  0.06974793  1
  O2-  O235  1  0.70981100  0.33651185  0.39759054  1
  O2-  O236  1  0.70230019  0.33723545  0.72720403  1
  O2-  O237  1  0.71366378  0.83688420  0.07118110  1
  O2-  O238  1  0.70948127  0.83701434  0.39733869  1
  O2-  O239  1  0.70815312  0.83359962  0.72851182  1
  O2-  O240  1  0.45751671  0.41335036  0.27253233  1
  O2-  O241  1  0.46786563  0.41570015  0.59636104  1
  O2-  O242  1  0.46449846  0.41813857  0.93349449  1
  O2-  O243  1  0.45547496  0.91317215  0.27045889  1
  O2-  O244  1  0.45644883  0.91142874  0.59953328  1
  O2-  O245  1  0.46404092  0.91448488  0.93099524  1
  O2-  O246  1  0.94474026  0.42233422  0.27627794  1
  O2-  O247  1  0.94627095  0.42576785  0.59991077  1
  O2-  O248  1  0.95058381  0.42531132  0.93730510  1
  O2-  O249  1  0.95508624  0.91274166  0.26853772  1
  O2-  O250  1  0.95895226  0.91538060  0.59797088  1
  O2-  O251  1  0.95221075  0.91272503  0.93932936  1
  O2-  O252  1  0.33572446  0.29435487  0.27286448  1
  O2-  O253  1  0.33643052  0.29125681  0.59317560  1
  O2-  O254  1  0.33694292  0.28861019  0.93222000  1
  O2-  O255  1  0.32882440  0.80144024  0.27386421  1
  O2-  O256  1  0.33513406  0.79495942  0.60224910  1
  O2-  O257  1  0.33102721  0.79118757  0.93157235  1
  O2-  O258  1  0.83651144  0.29275795  0.26908462  1
  O2-  O259  1  0.82910964  0.29039977  0.59804770  1
  O2-  O260  1  0.83039009  0.29334233  0.93528395  1
  O2-  O261  1  0.83634737  0.79303423  0.27061645  1
  O2-  O262  1  0.83363185  0.78748600  0.59571395  1
  O2-  O263  1  0.83601940  0.79058325  0.93842922  1
  O2-  O264  1  0.41777419  0.03823840  0.06850493  1
  O2-  O265  1  0.41186975  0.03787929  0.39956146  1
  O2-  O266  1  0.41863430  0.04250598  0.72818299  1
  O2-  O267  1  0.42434459  0.55199998  0.06167470  1
  O2-  O268  1  0.42349378  0.54710133  0.39821103  1
  O2-  O269  1  0.42488484  0.54676177  0.73199140  1
  O2-  O270  1  0.91276808  0.03933233  0.06785114  1
  O2-  O271  1  0.90983874  0.03784040  0.39583028  1
  O2-  O272  1  0.91177701  0.03443608  0.73627178  1
  O2-  O273  1  0.92042549  0.54825586  0.07062083  1
  O2-  O274  1  0.91204149  0.55173229  0.40000776  1
  O2-  O275  1  0.91550011  0.55722483  0.72213925  1
  O2-  O276  1  0.29616371  0.16855628  0.06910608  1
  O2-  O277  1  0.29802358  0.16224128  0.39577498  1
  O2-  O278  1  0.30536322  0.16754588  0.72181422  1
  O2-  O279  1  0.28997246  0.66786832  0.06758921  1
  O2-  O280  1  0.29182892  0.67056746  0.40106011  1
  O2-  O281  1  0.29484535  0.66942122  0.73234509  1
  O2-  O282  1  0.80173693  0.16598249  0.06610994  1
  O2-  O283  1  0.79201159  0.16255640  0.39478971  1
  O2-  O284  1  0.78896779  0.16663518  0.73756707  1
  O2-  O285  1  0.79064833  0.66783368  0.07090276  1
  O2-  O286  1  0.78739694  0.66552684  0.39801046  1
  O2-  O287  1  0.78520536  0.66246149  0.72679791  1
