# generated using pymatgen
data_Ca2Al2SiO7
_symmetry_space_group_name_H-M   'P 1'
_cell_length_a   15.45980158
_cell_length_b   15.45996250
_cell_length_c   15.28555742
_cell_angle_alpha   90.00673414
_cell_angle_beta   89.99034030
_cell_angle_gamma   90.00515976
_symmetry_Int_Tables_number   1
_chemical_formula_structural   Ca2Al2SiO7
_chemical_formula_sum   'Ca48 Al48 Si24 O168'
_cell_volume   3653.36969229
_cell_formula_units_Z   24
loop_
 _symmetry_equiv_pos_site_id
 _symmetry_equiv_pos_as_xyz
  1  'x, y, z'
loop_
 _atom_type_symbol
 _atom_type_oxidation_number
  Ca2+  2.0
  Al0+  0.0
  Si0+  0.0
  O2-  -2.0
loop_
 _atom_site_type_symbol
 _atom_site_label
 _atom_site_symmetry_multiplicity
 _atom_site_fract_x
 _atom_site_fract_y
 _atom_site_fract_z
 _atom_site_occupancy
  Ca2+  Ca0  1  0.16899892  0.07522786  0.17248813  1
  Ca2+  Ca1  1  0.16898351  0.08089608  0.50084040  1
  Ca2+  Ca2  1  0.15808017  0.07980797  0.83950456  1
  Ca2+  Ca3  1  0.16667684  0.57309014  0.17187839  1
  Ca2+  Ca4  1  0.17094347  0.57905236  0.50295766  1
  Ca2+  Ca5  1  0.17207184  0.58449818  0.83473818  1
  Ca2+  Ca6  1  0.67826097  0.09338077  0.16640903  1
  Ca2+  Ca7  1  0.67755279  0.07834802  0.51009195  1
  Ca2+  Ca8  1  0.67537818  0.09047343  0.83444468  1
  Ca2+  Ca9  1  0.66879544  0.57793716  0.16232948  1
  Ca2+  Ca10  1  0.67100989  0.57625535  0.51308313  1
  Ca2+  Ca11  1  0.67995347  0.57161075  0.83781541  1
  Ca2+  Ca12  1  0.08042440  0.32471555  0.15521096  1
  Ca2+  Ca13  1  0.07905450  0.33118548  0.49942182  1
  Ca2+  Ca14  1  0.07083526  0.32068051  0.82725813  1
  Ca2+  Ca15  1  0.08209529  0.84127442  0.16500045  1
  Ca2+  Ca16  1  0.07216342  0.83552217  0.49597492  1
  Ca2+  Ca17  1  0.07606414  0.83396294  0.82842122  1
  Ca2+  Ca18  1  0.57632750  0.32803197  0.15315870  1
  Ca2+  Ca19  1  0.59168158  0.32683578  0.50280420  1
  Ca2+  Ca20  1  0.59222241  0.32704220  0.83176760  1
  Ca2+  Ca21  1  0.56916083  0.83769471  0.16113869  1
  Ca2+  Ca22  1  0.58150218  0.83436099  0.49421433  1
  Ca2+  Ca23  1  0.57931622  0.83849089  0.82784855  1
  Ca2+  Ca24  1  0.32653106  0.40935561  0.17270940  1
  Ca2+  Ca25  1  0.32563444  0.42053566  0.50636164  1
  Ca2+  Ca26  1  0.33736857  0.42008733  0.83675894  1
  Ca2+  Ca27  1  0.32544350  0.91763885  0.17319171  1
  Ca2+  Ca28  1  0.33081271  0.91671376  0.49848034  1
  Ca2+  Ca29  1  0.32525032  0.91858073  0.84282482  1
  Ca2+  Ca30  1  0.83232968  0.41445808  0.16371367  1
  Ca2+  Ca31  1  0.82951345  0.42291894  0.51390426  1
  Ca2+  Ca32  1  0.83032462  0.41326480  0.83985836  1
  Ca2+  Ca33  1  0.83699316  0.93143159  0.17307110  1
  Ca2+  Ca34  1  0.83498215  0.92273911  0.50869196  1
  Ca2+  Ca35  1  0.83214207  0.92653541  0.83401944  1
  Ca2+  Ca36  1  0.42219111  0.16700796  0.15618561  1
  Ca2+  Ca37  1  0.42497428  0.15921465  0.49658487  1
  Ca2+  Ca38  1  0.42996877  0.17274706  0.83074500  1
  Ca2+  Ca39  1  0.41256040  0.67991828  0.16152908  1
  Ca2+  Ca40  1  0.41674520  0.67038991  0.49548223  1
  Ca2+  Ca41  1  0.41520345  0.67126707  0.82900392  1
  Ca2+  Ca42  1  0.91974698  0.16785346  0.15658978  1
  Ca2+  Ca43  1  0.91532549  0.16528932  0.50233473  1
  Ca2+  Ca44  1  0.91917417  0.16742353  0.82790763  1
  Ca2+  Ca45  1  0.91593460  0.67260087  0.16296104  1
  Ca2+  Ca46  1  0.90552120  0.67998941  0.49837970  1
  Ca2+  Ca47  1  0.90723191  0.67061689  0.82674831  1
  Al0+  Al48  1  -0.00088120  -0.00225863  0.00501034  1
  Al0+  Al49  1  0.00083751  0.00117243  0.33731926  1
  Al0+  Al50  1  0.00089596  -0.00167262  0.66194057  1
  Al0+  Al51  1  0.00244509  0.50184584  0.00086555  1
  Al0+  Al52  1  -0.00151488  0.50040044  0.33792135  1
  Al0+  Al53  1  0.00328306  0.50063462  0.66675490  1
  Al0+  Al54  1  0.49895618  0.00022640  -0.00969697  1
  Al0+  Al55  1  0.50163298  -0.00057982  0.32925772  1
  Al0+  Al56  1  0.49749202  0.00113647  0.66462213  1
  Al0+  Al57  1  0.50071690  0.50407804  0.00225867  1
  Al0+  Al58  1  0.50110058  0.49810858  0.33260920  1
  Al0+  Al59  1  0.49882187  0.50178846  0.67387296  1
  Al0+  Al60  1  0.25121115  0.24929518  -0.00920701  1
  Al0+  Al61  1  0.24989424  0.24969934  0.34320041  1
  Al0+  Al62  1  0.25037024  0.24967602  0.66360841  1
  Al0+  Al63  1  0.24840510  0.75102023  0.00047114  1
  Al0+  Al64  1  0.24931912  0.74815776  0.33300123  1
  Al0+  Al65  1  0.24863149  0.75020992  0.66863788  1
  Al0+  Al66  1  0.74949782  0.25139729  0.00363169  1
  Al0+  Al67  1  0.75097993  0.25060291  0.33691178  1
  Al0+  Al68  1  0.75024582  0.24877759  0.66343897  1
  Al0+  Al69  1  0.74870974  0.75003090  0.00569911  1
  Al0+  Al70  1  0.75013493  0.74955007  0.32439180  1
  Al0+  Al71  1  0.74599611  0.74966133  0.66873866  1
  Al0+  Al72  1  0.92992768  0.82286931  0.31772024  1
  Al0+  Al73  1  0.07207044  0.17694760  0.64816920  1
  Al0+  Al74  1  0.07064938  0.17511926  0.98697213  1
  Al0+  Al75  1  0.42725785  0.32485395  0.98566433  1
  Al0+  Al76  1  0.31904914  0.57113650  0.68052925  1
  Al0+  Al77  1  0.42918574  0.81978327  0.31947211  1
  Al0+  Al78  1  0.57217814  0.17998666  0.98448371  1
  Al0+  Al79  1  0.92702336  0.81739711  0.65526763  1
  Al0+  Al80  1  0.32367303  0.07082568  0.34757232  1
  Al0+  Al81  1  0.17702461  0.42804299  0.34717417  1
  Al0+  Al82  1  0.81928445  0.07022813  0.01359485  1
  Al0+  Al83  1  0.67546471  0.92828567  0.68020631  1
  Al0+  Al84  1  0.82463231  0.57253349  0.01808873  1
  Al0+  Al85  1  0.17942855  0.92686492  0.35084559  1
  Al0+  Al86  1  0.42782618  0.81996210  0.98401418  1
  Al0+  Al87  1  0.57037971  0.17929238  0.65041661  1
  Al0+  Al88  1  0.68012561  0.42775718  0.68189604  1
  Al0+  Al89  1  0.67933569  0.42907666  0.01754683  1
  Al0+  Al90  1  0.82358071  0.57218372  0.67972910  1
  Al0+  Al91  1  0.92861303  0.32186423  0.65063848  1
  Al0+  Al92  1  0.82243658  0.06877537  0.68219316  1
  Al0+  Al93  1  0.82095003  0.07183961  0.34856540  1
  Al0+  Al94  1  0.93022494  0.32242855  0.98728974  1
  Al0+  Al95  1  0.17900777  0.92933968  0.01341680  1
  Si0+  Si96  1  0.42904391  0.32449865  0.64859325  1
  Si0+  Si97  1  0.32176044  0.07238762  0.68300288  1
  Si0+  Si98  1  0.17845240  0.42584836  0.68632591  1
  Si0+  Si99  1  0.67912800  0.92686091  0.34629446  1
  Si0+  Si100  1  0.57286656  0.67979471  0.98117575  1
  Si0+  Si101  1  0.42612544  0.82117158  0.65063263  1
  Si0+  Si102  1  0.92894221  0.32208488  0.31864452  1
  Si0+  Si103  1  0.07501343  0.67874179  0.64974533  1
  Si0+  Si104  1  0.32215881  0.07241897  0.01285847  1
  Si0+  Si105  1  0.57217083  0.17998573  0.31824098  1
  Si0+  Si106  1  0.42875178  0.32055822  0.32136227  1
  Si0+  Si107  1  0.81983598  0.57206723  0.34856038  1
  Si0+  Si108  1  0.07122949  0.67911368  0.98556993  1
  Si0+  Si109  1  0.32277613  0.57002128  0.34834610  1
  Si0+  Si110  1  0.07242698  0.18103791  0.31892171  1
  Si0+  Si111  1  0.07076539  0.67640329  0.31659286  1
  Si0+  Si112  1  0.18217575  0.42839787  0.01244302  1
  Si0+  Si113  1  0.67512148  0.92793567  0.01705813  1
  Si0+  Si114  1  0.57234048  0.67459542  0.31466736  1
  Si0+  Si115  1  0.56773994  0.67974677  0.65275649  1
  Si0+  Si116  1  0.92803408  0.81982562  0.98649917  1
  Si0+  Si117  1  0.32070817  0.57292401  0.01603769  1
  Si0+  Si118  1  0.18058858  0.93012245  0.68178159  1
  Si0+  Si119  1  0.67859299  0.42990881  0.34913451  1
  O2-  O120  1  0.25264384  0.00575544  0.05861905  1
  O2-  O121  1  0.25339395  -0.00224527  0.39964588  1
  O2-  O122  1  0.24789781  0.00408453  0.72463555  1
  O2-  O123  1  0.25670476  0.49519786  0.05746663  1
  O2-  O124  1  0.25360122  0.50220845  0.39239601  1
  O2-  O125  1  0.24701896  0.49543222  0.72966053  1
  O2-  O126  1  0.74257540  -0.00270486  0.06173256  1
  O2-  O127  1  0.74923231  -0.00745706  0.39170127  1
  O2-  O128  1  0.74752880  -0.00097736  0.73125768  1
  O2-  O129  1  0.75409219  0.49877753  0.06820421  1
  O2-  O130  1  0.74741809  0.50293561  0.39041117  1
  O2-  O131  1  0.75933498  0.49345536  0.72948226  1
  O2-  O132  1  0.00084850  0.25174053  0.27680571  1
  O2-  O133  1  0.00025616  0.24986176  0.59864642  1
  O2-  O134  1  -0.00191311  0.24660590  0.93792857  1
  O2-  O135  1  0.00633726  0.74862135  0.27140861  1
  O2-  O136  1  -0.00164418  0.73902056  0.60730541  1
  O2-  O137  1  -0.00454655  0.74523297  0.94441569  1
  O2-  O138  1  0.49730431  0.24813980  0.27780356  1
  O2-  O139  1  0.49675488  0.25586355  0.60264039  1
  O2-  O140  1  0.50241440  0.25604614  0.93652640  1
  O2-  O141  1  0.50332459  0.74410644  0.27216458  1
  O2-  O142  1  0.49936146  0.75258965  0.60846409  1
  O2-  O143  1  0.50493819  0.74883198  0.93600285  1
  O2-  O144  1  0.07283309  0.17762128  0.10134440  1
  O2-  O145  1  0.07283990  0.18265048  0.42361853  1
  O2-  O146  1  0.07161956  0.17646985  0.76160950  1
  O2-  O147  1  0.07389180  0.67873996  0.09078565  1
  O2-  O148  1  0.06947770  0.67401724  0.42188219  1
  O2-  O149  1  0.08222436  0.68451350  0.75514531  1
  O2-  O150  1  0.56899071  0.17978175  0.09921072  1
  O2-  O151  1  0.57272551  0.18104287  0.42316202  1
  O2-  O152  1  0.56782985  0.17858044  0.76275663  1
  O2-  O153  1  0.56988651  0.68049113  0.08729672  1
  O2-  O154  1  0.57225070  0.67279256  0.42041809  1
  O2-  O155  1  0.56497365  0.68050311  0.75737701  1
  O2-  O156  1  0.17901792  0.42824976  0.23344177  1
  O2-  O157  1  0.18036456  0.42758820  0.58024105  1
  O2-  O158  1  0.18229993  0.43281231  0.90796896  1
  O2-  O159  1  0.18060126  0.92962263  0.23720283  1
  O2-  O160  1  0.18347182  0.92692981  0.57688948  1
  O2-  O161  1  0.17942464  0.92659231  0.90003343  1
  O2-  O162  1  0.67757601  0.42912999  0.24441389  1
  O2-  O163  1  0.67717894  0.43320800  0.56714523  1
  O2-  O164  1  0.67930964  0.43089070  0.90475063  1
  O2-  O165  1  0.67779910  0.92893606  0.24074058  1
  O2-  O166  1  0.67550425  0.92793463  0.56600765  1
  O2-  O167  1  0.67750966  0.92554426  0.91186888  1
  O2-  O168  1  0.42461441  0.32041849  0.10027923  1
  O2-  O169  1  0.43226761  0.32465708  0.42600734  1
  O2-  O170  1  0.42863115  0.32314920  0.75384569  1
  O2-  O171  1  0.42694814  0.81776550  0.09735036  1
  O2-  O172  1  0.43150525  0.81703472  0.43287214  1
  O2-  O173  1  0.42362031  0.81866404  0.75553906  1
  O2-  O174  1  0.93503393  0.32215455  0.10196439  1
  O2-  O175  1  0.92851106  0.32334493  0.42323061  1
  O2-  O176  1  0.93074388  0.32190645  0.76380233  1
  O2-  O177  1  0.93153627  0.82036658  0.09178064  1
  O2-  O178  1  0.92773428  0.81877852  0.43068757  1
  O2-  O179  1  0.93081697  0.81829196  0.76865937  1
  O2-  O180  1  0.32266877  0.07296608  0.23388765  1
  O2-  O181  1  0.32392813  0.06828841  0.57781207  1
  O2-  O182  1  0.32124394  0.06935688  0.90725839  1
  O2-  O183  1  0.32281981  0.56882860  0.24265052  1
  O2-  O184  1  0.31746480  0.57140080  0.56695167  1
  O2-  O185  1  0.31631700  0.57633112  0.91113951  1
  O2-  O186  1  0.81905979  0.07464677  0.23524800  1
  O2-  O187  1  0.82114016  0.06574880  0.56824011  1
  O2-  O188  1  0.82238518  0.06711526  0.90125222  1
  O2-  O189  1  0.82177759  0.57029933  0.24368787  1
  O2-  O190  1  0.81595918  0.57478948  0.56543290  1
  O2-  O191  1  0.82240069  0.57509602  0.90524796  1
  O2-  O192  1  0.04539850  0.08843504  0.27346469  1
  O2-  O193  1  0.04526689  0.07846326  0.59469595  1
  O2-  O194  1  0.04120174  0.07632416  0.93561560  1
  O2-  O195  1  0.04013813  0.58389551  0.26938908  1
  O2-  O196  1  0.06127455  0.58169111  0.60742309  1
  O2-  O197  1  0.05026467  0.58654336  0.93716718  1
  O2-  O198  1  0.54919927  0.08757941  0.27031057  1
  O2-  O199  1  0.53521621  0.08351392  0.59536294  1
  O2-  O200  1  0.54321460  0.08339156  0.92911929  1
  O2-  O201  1  0.54524614  0.58126618  0.26779564  1
  O2-  O202  1  0.53626485  0.58893546  0.60441342  1
  O2-  O203  1  0.54574102  0.58695069  0.93579856  1
  O2-  O204  1  0.16519155  0.20996970  0.27358281  1
  O2-  O205  1  0.17173760  0.20568738  0.59605259  1
  O2-  O206  1  0.16808969  0.20195207  0.93210550  1
  O2-  O207  1  0.16644070  0.69560012  0.27154045  1
  O2-  O208  1  0.16441400  0.71339031  0.59930933  1
  O2-  O209  1  0.16027414  0.71222129  0.93593400  1
  O2-  O210  1  0.66276660  0.21368062  0.27156293  1
  O2-  O211  1  0.66630483  0.20816616  0.59433189  1
  O2-  O212  1  0.67085643  0.20791167  0.93373600  1
  O2-  O213  1  0.66497761  0.69878178  0.26630271  1
  O2-  O214  1  0.65901635  0.70510368  0.60308285  1
  O2-  O215  1  0.66760462  0.70457383  0.93794019  1
  O2-  O216  1  0.09291929  0.46026149  0.06252756  1
  O2-  O217  1  0.08227334  0.46153196  0.40320785  1
  O2-  O218  1  0.08560761  0.45200728  0.73225377  1
  O2-  O219  1  0.08362700  0.95793440  0.07020930  1
  O2-  O220  1  0.08224355  0.95757571  0.40359750  1
  O2-  O221  1  0.08784280  0.95504268  0.72771362  1
  O2-  O222  1  0.58103754  0.46255042  0.07133745  1
  O2-  O223  1  0.58602082  0.45539833  0.39674595  1
  O2-  O224  1  0.58374640  0.46120382  0.73490618  1
  O2-  O225  1  0.57938753  0.95325919  0.05944995  1
  O2-  O226  1  0.58587920  0.95280935  0.39238901  1
  O2-  O227  1  0.57548691  0.95492191  0.73099934  1
  O2-  O228  1  0.20727825  0.33481197  0.05844180  1
  O2-  O229  1  0.20830563  0.33478654  0.40580082  1
  O2-  O230  1  0.20573519  0.33222649  0.73056402  1
  O2-  O231  1  0.21166919  0.83353653  0.06859531  1
  O2-  O232  1  0.20531997  0.82655518  0.40148121  1
  O2-  O233  1  0.21134699  0.83983237  0.73055493  1
  O2-  O234  1  0.70445409  0.33114125  0.07316329  1
  O2-  O235  1  0.70898141  0.33944192  0.39718597  1
  O2-  O236  1  0.70272056  0.32732501  0.73040545  1
  O2-  O237  1  0.69895231  0.83485312  0.06525997  1
  O2-  O238  1  0.70083060  0.83044967  0.38893236  1
  O2-  O239  1  0.69986727  0.82973764  0.73371313  1
  O2-  O240  1  0.45661357  0.41175463  0.27147179  1
  O2-  O241  1  0.45333304  0.41978670  0.60474082  1
  O2-  O242  1  0.44945192  0.42696964  0.93821231  1
  O2-  O243  1  0.46038080  0.91567817  0.26365213  1
  O2-  O244  1  0.45052093  0.91345251  0.60333688  1
  O2-  O245  1  0.45395072  0.91620865  0.92807621  1
  O2-  O246  1  0.95533646  0.41516218  0.27282703  1
  O2-  O247  1  0.95818633  0.42198833  0.59846745  1
  O2-  O248  1  0.96142897  0.42037785  0.93549566  1
  O2-  O249  1  0.96131715  0.92043677  0.26561689  1
  O2-  O250  1  0.96290892  0.91084625  0.59907110  1
  O2-  O251  1  0.96038115  0.90946850  0.93895414  1
  O2-  O252  1  0.33468451  0.29523718  0.27727387  1
  O2-  O253  1  0.33492466  0.29948260  0.60299373  1
  O2-  O254  1  0.33165010  0.29660370  0.92753483  1
  O2-  O255  1  0.33221788  0.78805967  0.26583473  1
  O2-  O256  1  0.33588874  0.78843504  0.60270356  1
  O2-  O257  1  0.33198032  0.78466716  0.93096409  1
  O2-  O258  1  0.83681597  0.29272369  0.27205133  1
  O2-  O259  1  0.83032443  0.29557497  0.59623936  1
  O2-  O260  1  0.82978576  0.29897786  0.93987407  1
  O2-  O261  1  0.83419238  0.79177671  0.26147253  1
  O2-  O262  1  0.82938957  0.78920435  0.60057716  1
  O2-  O263  1  0.83415162  0.79558589  0.94233710  1
  O2-  O264  1  0.41589489  0.04479053  0.05769290  1
  O2-  O265  1  0.42328297  0.04190319  0.39898545  1
  O2-  O266  1  0.41140596  0.04115740  0.73136312  1
  O2-  O267  1  0.41469480  0.55566823  0.06264340  1
  O2-  O268  1  0.41643757  0.54375383  0.39473068  1
  O2-  O269  1  0.41448367  0.54401665  0.73769263  1
  O2-  O270  1  0.91387451  0.03579284  0.07030589  1
  O2-  O271  1  0.91796201  0.04432093  0.40138112  1
  O2-  O272  1  0.92086736  0.03674401  0.73269458  1
  O2-  O273  1  0.92489993  0.54772086  0.07030300  1
  O2-  O274  1  0.91061149  0.54491477  0.39741440  1
  O2-  O275  1  0.92709683  0.55787258  0.72676432  1
  O2-  O276  1  0.30002034  0.16781244  0.05699777  1
  O2-  O277  1  0.29622540  0.16744479  0.40477003  1
  O2-  O278  1  0.29855886  0.16636654  0.72725596  1
  O2-  O279  1  0.28403095  0.66088377  0.06560228  1
  O2-  O280  1  0.29758098  0.66311810  0.39493726  1
  O2-  O281  1  0.28554499  0.66683063  0.73579460  1
  O2-  O282  1  0.79082699  0.16658208  0.06965994  1
  O2-  O283  1  0.78702417  0.16724493  0.40313483  1
  O2-  O284  1  0.79491952  0.16839337  0.73069043  1
  O2-  O285  1  0.79195259  0.66997474  0.07306158  1
  O2-  O286  1  0.79158612  0.66550403  0.39232351  1
  O2-  O287  1  0.78644234  0.66658389  0.73427460  1
