# generated using pymatgen
data_Ca2Al2SiO7
_symmetry_space_group_name_H-M   'P 1'
_cell_length_a   15.45306363
_cell_length_b   15.45364653
_cell_length_c   15.28006790
_cell_angle_alpha   90.01336043
_cell_angle_beta   89.99402023
_cell_angle_gamma   89.99571492
_symmetry_Int_Tables_number   1
_chemical_formula_structural   Ca2Al2SiO7
_chemical_formula_sum   'Ca48 Al48 Si24 O168'
_cell_volume   3648.97456285
_cell_formula_units_Z   24
loop_
 _symmetry_equiv_pos_site_id
 _symmetry_equiv_pos_as_xyz
  1  'x, y, z'
loop_
 _atom_type_symbol
 _atom_type_oxidation_number
  Ca2+  2.0
  Al0+  0.0
  Si0+  0.0
  O2-  -2.0
loop_
 _atom_site_type_symbol
 _atom_site_label
 _atom_site_symmetry_multiplicity
 _atom_site_fract_x
 _atom_site_fract_y
 _atom_site_fract_z
 _atom_site_occupancy
  Ca2+  Ca0  1  0.18003221  0.08692313  0.17081403  1
  Ca2+  Ca1  1  0.17139968  0.07823472  0.50452681  1
  Ca2+  Ca2  1  0.17157934  0.08036775  0.83758113  1
  Ca2+  Ca3  1  0.16362243  0.57708823  0.16528452  1
  Ca2+  Ca4  1  0.17414011  0.58162657  0.51321146  1
  Ca2+  Ca5  1  0.16645238  0.57768276  0.83176663  1
  Ca2+  Ca6  1  0.66066092  0.07243878  0.16795805  1
  Ca2+  Ca7  1  0.66442906  0.07969831  0.50200692  1
  Ca2+  Ca8  1  0.66222657  0.08094042  0.84017237  1
  Ca2+  Ca9  1  0.66993072  0.58403701  0.16168266  1
  Ca2+  Ca10  1  0.66983333  0.57439368  0.50821758  1
  Ca2+  Ca11  1  0.66942159  0.56981535  0.84266166  1
  Ca2+  Ca12  1  0.07415672  0.33711348  0.15991088  1
  Ca2+  Ca13  1  0.07328689  0.34365876  0.49872204  1
  Ca2+  Ca14  1  0.07502885  0.34523342  0.83074833  1
  Ca2+  Ca15  1  0.06942505  0.83396365  0.16022075  1
  Ca2+  Ca16  1  0.07903333  0.83302425  0.49936943  1
  Ca2+  Ca17  1  0.07332523  0.83055574  0.82106894  1
  Ca2+  Ca18  1  0.57769408  0.32710540  0.15711770  1
  Ca2+  Ca19  1  0.57352802  0.33272982  0.50047955  1
  Ca2+  Ca20  1  0.58758562  0.32443300  0.82389183  1
  Ca2+  Ca21  1  0.58515414  0.83398787  0.15984123  1
  Ca2+  Ca22  1  0.57807796  0.83226574  0.49166018  1
  Ca2+  Ca23  1  0.58776541  0.82660600  0.83565256  1
  Ca2+  Ca24  1  0.32704687  0.41077195  0.17097364  1
  Ca2+  Ca25  1  0.33144644  0.41919838  0.51242557  1
  Ca2+  Ca26  1  0.32528771  0.41472716  0.83349956  1
  Ca2+  Ca27  1  0.34176933  0.92982357  0.17321466  1
  Ca2+  Ca28  1  0.33211165  0.92085302  0.50524340  1
  Ca2+  Ca29  1  0.32514176  0.92124840  0.83801496  1
  Ca2+  Ca30  1  0.83158541  0.41595172  0.16573937  1
  Ca2+  Ca31  1  0.83001266  0.41149962  0.50832667  1
  Ca2+  Ca32  1  0.82763820  0.41732056  0.84255945  1
  Ca2+  Ca33  1  0.82319408  0.90735959  0.17006310  1
  Ca2+  Ca34  1  0.83245873  0.91169100  0.50252878  1
  Ca2+  Ca35  1  0.83174972  0.91518849  0.84086627  1
  Ca2+  Ca36  1  0.41719720  0.16575929  0.16157588  1
  Ca2+  Ca37  1  0.41589033  0.17559549  0.49738179  1
  Ca2+  Ca38  1  0.42623398  0.16978086  0.82948627  1
  Ca2+  Ca39  1  0.42429965  0.67674698  0.16178517  1
  Ca2+  Ca40  1  0.41467409  0.66994575  0.49588492  1
  Ca2+  Ca41  1  0.42193670  0.65890265  0.83030517  1
  Ca2+  Ca42  1  0.91407792  0.17837330  0.16193969  1
  Ca2+  Ca43  1  0.91871784  0.17807979  0.49829246  1
  Ca2+  Ca44  1  0.91309433  0.18089679  0.82897713  1
  Ca2+  Ca45  1  0.90888842  0.67496016  0.15956890  1
  Ca2+  Ca46  1  0.92484069  0.67374576  0.49947426  1
  Ca2+  Ca47  1  0.91671653  0.67370511  0.82962984  1
  Al0+  Al48  1  -0.00000431  0.00162898  -0.00288494  1
  Al0+  Al49  1  0.00009783  0.00028441  0.32834271  1
  Al0+  Al50  1  -0.00184392  0.00207325  0.66682308  1
  Al0+  Al51  1  0.00022815  0.50250557  0.00492216  1
  Al0+  Al52  1  -0.00086348  0.50030047  0.32992773  1
  Al0+  Al53  1  0.00030866  0.50409575  0.66076011  1
  Al0+  Al54  1  0.49911556  0.00085673  0.00208503  1
  Al0+  Al55  1  0.50013258  -0.00035619  0.34119915  1
  Al0+  Al56  1  0.50196217  -0.00062635  0.66414082  1
  Al0+  Al57  1  0.49849742  0.50092692  0.00134126  1
  Al0+  Al58  1  0.49990565  0.49850369  0.32852562  1
  Al0+  Al59  1  0.50191258  0.49863299  0.67067224  1
  Al0+  Al60  1  0.24939857  0.24987591  0.00795690  1
  Al0+  Al61  1  0.25003910  0.25000321  0.33696264  1
  Al0+  Al62  1  0.25027328  0.24980913  0.66891720  1
  Al0+  Al63  1  0.24829182  0.75029703  0.00202384  1
  Al0+  Al64  1  0.25101249  0.74924519  0.32592785  1
  Al0+  Al65  1  0.25077079  0.75070380  0.67339172  1
  Al0+  Al66  1  0.74896931  0.24914999  -0.00314537  1
  Al0+  Al67  1  0.74977235  0.24845855  0.32975966  1
  Al0+  Al68  1  0.75048500  0.24640128  0.66051459  1
  Al0+  Al69  1  0.74823425  0.74929691  -0.00229276  1
  Al0+  Al70  1  0.75149894  0.74744747  0.33781606  1
  Al0+  Al71  1  0.74872809  0.75008526  0.66231503  1
  Al0+  Al72  1  0.42869371  0.32125301  0.65383544  1
  Al0+  Al73  1  0.31919560  0.06833090  0.01316300  1
  Al0+  Al74  1  0.32075506  0.07130766  0.35086062  1
  Al0+  Al75  1  0.68148261  0.92812801  0.34882319  1
  Al0+  Al76  1  0.68202930  0.42692398  0.67857147  1
  Al0+  Al77  1  0.18039007  0.43137013  0.01546927  1
  Al0+  Al78  1  0.07312915  0.68090478  0.65188376  1
  Al0+  Al79  1  0.57196071  0.17642866  0.64870792  1
  Al0+  Al80  1  0.92933383  0.82031227  0.31838426  1
  Al0+  Al81  1  0.92729381  0.82351990  0.65037499  1
  Al0+  Al82  1  0.42820736  0.32113740  0.31881039  1
  Al0+  Al83  1  0.17817734  0.93025842  0.67946444  1
  Al0+  Al84  1  0.68166964  0.93042025  0.01153918  1
  Al0+  Al85  1  0.81974047  0.57032542  0.01424150  1
  Al0+  Al86  1  0.42988722  0.82167123  0.32077890  1
  Al0+  Al87  1  0.56890968  0.17917522  0.98749316  1
  Al0+  Al88  1  0.67713438  0.42513273  0.01584396  1
  Al0+  Al89  1  0.32312006  0.57199927  0.68197778  1
  Al0+  Al90  1  0.93047665  0.32134808  0.98622508  1
  Al0+  Al91  1  0.92867655  0.82102564  0.98554081  1
  Al0+  Al92  1  0.92848872  0.32093908  0.31784470  1
  Al0+  Al93  1  0.17658834  0.42821107  0.68047584  1
  Al0+  Al94  1  0.93101055  0.32208597  0.65435770  1
  Al0+  Al95  1  0.56934426  0.67916340  0.98574091  1
  Si0+  Si96  1  0.32382373  0.07166152  0.68414385  1
  Si0+  Si97  1  0.07341481  0.67866577  0.98242432  1
  Si0+  Si98  1  0.57291133  0.67705719  0.31752107  1
  Si0+  Si99  1  0.42966219  0.82070590  0.65403855  1
  Si0+  Si100  1  0.17521291  0.92674534  0.01800054  1
  Si0+  Si101  1  0.57066273  0.17790102  0.31609268  1
  Si0+  Si102  1  0.82016379  0.07010773  0.68140302  1
  Si0+  Si103  1  0.07287882  0.67770855  0.31414781  1
  Si0+  Si104  1  0.82149839  0.56946991  0.35100045  1
  Si0+  Si105  1  0.17692837  0.92673146  0.34789665  1
  Si0+  Si106  1  0.42736029  0.82304896  0.98305144  1
  Si0+  Si107  1  0.57063163  0.67795827  0.65163392  1
  Si0+  Si108  1  0.82349557  0.07347200  0.35006724  1
  Si0+  Si109  1  0.67828180  0.92748762  0.68212865  1
  Si0+  Si110  1  0.07265491  0.17804911  0.31687846  1
  Si0+  Si111  1  0.67862801  0.42728068  0.34784726  1
  Si0+  Si112  1  0.82118139  0.57356336  0.68143633  1
  Si0+  Si113  1  0.07305479  0.17715201  0.65123641  1
  Si0+  Si114  1  0.32171244  0.57118728  0.34595958  1
  Si0+  Si115  1  0.32364361  0.57482246  0.02047414  1
  Si0+  Si116  1  0.17855862  0.43073836  0.34907446  1
  Si0+  Si117  1  0.42531804  0.32237137  0.98425489  1
  Si0+  Si118  1  0.07457858  0.17949588  0.98363902  1
  Si0+  Si119  1  0.82433471  0.07333808  0.01617311  1
  O2-  O120  1  0.24549740  -0.00675928  0.06251194  1
  O2-  O121  1  0.24621256  -0.00590054  0.39376820  1
  O2-  O122  1  0.25229227  0.00525911  0.72724130  1
  O2-  O123  1  0.25666292  0.50411494  0.06433762  1
  O2-  O124  1  0.25106353  0.50082469  0.38971071  1
  O2-  O125  1  0.25087381  0.49866636  0.72963917  1
  O2-  O126  1  0.75786651  0.00254695  0.06040766  1
  O2-  O127  1  0.75772898  0.00200285  0.39510297  1
  O2-  O128  1  0.75056567  -0.00281516  0.72304439  1
  O2-  O129  1  0.75004547  0.49639886  0.06638168  1
  O2-  O130  1  0.75140058  0.49640090  0.39134106  1
  O2-  O131  1  0.75800341  0.50006291  0.72520716  1
  O2-  O132  1  0.00305653  0.24567397  0.27239844  1
  O2-  O133  1  0.01097861  0.25241287  0.60739986  1
  O2-  O134  1  0.00475564  0.24640410  0.93893643  1
  O2-  O135  1  0.00510907  0.74750585  0.27058122  1
  O2-  O136  1  0.00208951  0.75385164  0.60149507  1
  O2-  O137  1  0.00774383  0.75088410  0.93977562  1
  O2-  O138  1  0.50228372  0.24650267  0.27159702  1
  O2-  O139  1  0.49858522  0.24828394  0.60131080  1
  O2-  O140  1  0.49970628  0.25942544  0.94124819  1
  O2-  O141  1  0.50653712  0.74882764  0.27458247  1
  O2-  O142  1  0.49857219  0.74816228  0.61024362  1
  O2-  O143  1  0.49102418  0.75027369  0.93799232  1
  O2-  O144  1  0.07463807  0.18066865  0.08951416  1
  O2-  O145  1  0.07183667  0.17799096  0.42255647  1
  O2-  O146  1  0.06904438  0.17274617  0.75652709  1
  O2-  O147  1  0.07414066  0.68027891  0.08850103  1
  O2-  O148  1  0.07391775  0.67698417  0.41937113  1
  O2-  O149  1  0.07073993  0.68161981  0.76532199  1
  O2-  O150  1  0.56520978  0.17609044  0.10075098  1
  O2-  O151  1  0.57143817  0.18035276  0.42150505  1
  O2-  O152  1  0.57072310  0.17426991  0.76235633  1
  O2-  O153  1  0.56893274  0.68329549  0.09920644  1
  O2-  O154  1  0.57056417  0.67522084  0.42357181  1
  O2-  O155  1  0.57271661  0.67979128  0.75647044  1
  O2-  O156  1  0.17825234  0.43166795  0.24380098  1
  O2-  O157  1  0.17723842  0.43134017  0.56623539  1
  O2-  O158  1  0.18000094  0.43212075  0.90288851  1
  O2-  O159  1  0.17655659  0.92906671  0.24237292  1
  O2-  O160  1  0.18110005  0.93162725  0.56587846  1
  O2-  O161  1  0.17579408  0.92783727  0.91236139  1
  O2-  O162  1  0.67858963  0.42847261  0.24308225  1
  O2-  O163  1  0.68156089  0.43069285  0.56450310  1
  O2-  O164  1  0.67971812  0.42485232  0.90217980  1
  O2-  O165  1  0.68111361  0.92825028  0.23569547  1
  O2-  O166  1  0.67749162  0.92662682  0.57699372  1
  O2-  O167  1  0.68141143  0.93154262  0.89817328  1
  O2-  O168  1  0.42439376  0.31840079  0.09039651  1
  O2-  O169  1  0.42905753  0.32403572  0.43147980  1
  O2-  O170  1  0.42908052  0.31893542  0.76728280  1
  O2-  O171  1  0.43035058  0.82363253  0.08895649  1
  O2-  O172  1  0.42867731  0.81756601  0.43433422  1
  O2-  O173  1  0.43294837  0.82349989  0.75896907  1
  O2-  O174  1  0.93208712  0.31932993  0.09968024  1
  O2-  O175  1  0.92956128  0.32142274  0.43112459  1
  O2-  O176  1  0.92895847  0.32030975  0.76717668  1
  O2-  O177  1  0.92846417  0.81863675  0.09903221  1
  O2-  O178  1  0.93069580  0.81820821  0.43111786  1
  O2-  O179  1  0.92549742  0.82171738  0.76389683  1
  O2-  O180  1  0.32036238  0.07079142  0.23759173  1
  O2-  O181  1  0.32355915  0.06946740  0.57840660  1
  O2-  O182  1  0.31754693  0.06615420  0.90005500  1
  O2-  O183  1  0.32069770  0.57062374  0.24107171  1
  O2-  O184  1  0.32308418  0.57324445  0.56738187  1
  O2-  O185  1  0.32314926  0.57605671  0.91534470  1
  O2-  O186  1  0.82127599  0.07587442  0.24466263  1
  O2-  O187  1  0.82048430  0.07065944  0.57615946  1
  O2-  O188  1  0.82399730  0.07305945  0.91038375  1
  O2-  O189  1  0.82094955  0.57184770  0.24618034  1
  O2-  O190  1  0.81714970  0.57456075  0.57519078  1
  O2-  O191  1  0.81880020  0.56980475  0.90058374  1
  O2-  O192  1  0.05070366  0.08446514  0.26877199  1
  O2-  O193  1  0.03995931  0.08775097  0.60068429  1
  O2-  O194  1  0.05198108  0.08490286  0.93800830  1
  O2-  O195  1  0.04413709  0.58511903  0.26758130  1
  O2-  O196  1  0.04399688  0.58504874  0.59363846  1
  O2-  O197  1  0.04434262  0.58615411  0.93781153  1
  O2-  O198  1  0.54344642  0.08337068  0.27379918  1
  O2-  O199  1  0.54372670  0.07764039  0.59532603  1
  O2-  O200  1  0.53371488  0.08410720  0.93236562  1
  O2-  O201  1  0.54504616  0.58551128  0.26894209  1
  O2-  O202  1  0.54423818  0.58620516  0.60387832  1
  O2-  O203  1  0.54099546  0.58119423  0.93220992  1
  O2-  O204  1  0.16561434  0.20645504  0.27143156  1
  O2-  O205  1  0.16928527  0.19439974  0.60763642  1
  O2-  O206  1  0.16798261  0.20618619  0.93830962  1
  O2-  O207  1  0.16644031  0.69994436  0.26591513  1
  O2-  O208  1  0.17287789  0.70949270  0.60089262  1
  O2-  O209  1  0.16883083  0.69996130  0.93773305  1
  O2-  O210  1  0.66447474  0.20143811  0.26955410  1
  O2-  O211  1  0.66937158  0.20362702  0.59370141  1
  O2-  O212  1  0.66682613  0.20319272  0.93295033  1
  O2-  O213  1  0.66745006  0.70128350  0.27418700  1
  O2-  O214  1  0.66052795  0.70736898  0.60085383  1
  O2-  O215  1  0.66291195  0.71373330  0.92928456  1
  O2-  O216  1  0.08572325  0.46499646  0.07224185  1
  O2-  O217  1  0.08624902  0.46057637  0.39465450  1
  O2-  O218  1  0.07835806  0.46132677  0.73176093  1
  O2-  O219  1  0.08172941  0.95465260  0.06357496  1
  O2-  O220  1  0.08324353  0.95371300  0.39397406  1
  O2-  O221  1  0.08115673  0.96111494  0.73290067  1
  O2-  O222  1  0.57793330  0.45438593  0.06739403  1
  O2-  O223  1  0.58677076  0.45807919  0.39434950  1
  O2-  O224  1  0.58729663  0.45869528  0.73391713  1
  O2-  O225  1  0.58537686  0.96200504  0.06613122  1
  O2-  O226  1  0.58604777  0.95932473  0.40503695  1
  O2-  O227  1  0.58676888  0.95586000  0.72978410  1
  O2-  O228  1  0.20893231  0.33502729  0.07201262  1
  O2-  O229  1  0.20325478  0.33836057  0.39571302  1
  O2-  O230  1  0.20020805  0.32832168  0.73340823  1
  O2-  O231  1  0.19686110  0.83195393  0.06357200  1
  O2-  O232  1  0.20242669  0.83138284  0.39046521  1
  O2-  O233  1  0.20999165  0.83634586  0.73709540  1
  O2-  O234  1  0.70535937  0.32640288  0.06853012  1
  O2-  O235  1  0.70532058  0.33437050  0.39358486  1
  O2-  O236  1  0.71106456  0.32839098  0.72855419  1
  O2-  O237  1  0.71082438  0.83402867  0.06597402  1
  O2-  O238  1  0.71028740  0.83071078  0.40360531  1
  O2-  O239  1  0.70486134  0.83447331  0.72809942  1
  O2-  O240  1  0.45770515  0.41718115  0.26253076  1
  O2-  O241  1  0.45999831  0.41945185  0.60057476  1
  O2-  O242  1  0.44177748  0.41937374  0.94329831  1
  O2-  O243  1  0.46129495  0.91914520  0.26965469  1
  O2-  O244  1  0.45965338  0.91064344  0.60387416  1
  O2-  O245  1  0.45708407  0.91435063  0.93598558  1
  O2-  O246  1  0.96004110  0.41734444  0.26418150  1
  O2-  O247  1  0.95545533  0.41934097  0.59819468  1
  O2-  O248  1  0.96210826  0.41927205  0.93627541  1
  O2-  O249  1  0.95526242  0.91831610  0.26423993  1
  O2-  O250  1  0.95379107  0.92297660  0.59874975  1
  O2-  O251  1  0.95489086  0.92008978  0.93343910  1
  O2-  O252  1  0.33035688  0.29033395  0.26729967  1
  O2-  O253  1  0.32887238  0.29509369  0.60098836  1
  O2-  O254  1  0.33326138  0.29000885  0.93955541  1
  O2-  O255  1  0.33507152  0.79127986  0.26259327  1
  O2-  O256  1  0.33731970  0.79520699  0.60768124  1
  O2-  O257  1  0.33068922  0.80178098  0.94117017  1
  O2-  O258  1  0.83199928  0.28985607  0.26387194  1
  O2-  O259  1  0.83819141  0.28388269  0.59740536  1
  O2-  O260  1  0.83427962  0.28976279  0.93248730  1
  O2-  O261  1  0.83251474  0.78485503  0.26741612  1
  O2-  O262  1  0.82950281  0.79227475  0.59657122  1
  O2-  O263  1  0.83361425  0.78755249  0.93151792  1
  O2-  O264  1  0.41418417  0.03610808  0.06964101  1
  O2-  O265  1  0.41597660  0.04047758  0.40657123  1
  O2-  O266  1  0.41670677  0.04103139  0.72890362  1
  O2-  O267  1  0.41773217  0.55273259  0.06672711  1
  O2-  O268  1  0.41474898  0.54498151  0.39222402  1
  O2-  O269  1  0.42085180  0.54333108  0.73588347  1
  O2-  O270  1  0.91948814  0.05220238  0.06168371  1
  O2-  O271  1  0.91913496  0.05078957  0.39366699  1
  O2-  O272  1  0.91164499  0.04567086  0.73083789  1
  O2-  O273  1  0.91822453  0.54727761  0.06970300  1
  O2-  O274  1  0.91442541  0.54195610  0.39671677  1
  O2-  O275  1  0.91725251  0.55493646  0.72307621  1
  O2-  O276  1  0.28852823  0.16344276  0.07065170  1
  O2-  O277  1  0.28735585  0.16712809  0.40568581  1
  O2-  O278  1  0.30095292  0.16544109  0.73014192  1
  O2-  O279  1  0.29570329  0.66846610  0.06723304  1
  O2-  O280  1  0.29421437  0.66409832  0.39225502  1
  O2-  O281  1  0.29701167  0.66950772  0.73786287  1
  O2-  O282  1  0.79592041  0.16558192  0.06268896  1
  O2-  O283  1  0.79432746  0.16610679  0.39774834  1
  O2-  O284  1  0.78984541  0.16068541  0.72952285  1
  O2-  O285  1  0.78447672  0.66666412  0.06833126  1
  O2-  O286  1  0.79246620  0.65924394  0.40165553  1
  O2-  O287  1  0.78993931  0.66571321  0.72743875  1
