# generated using pymatgen
data_Ca2Al2SiO7
_symmetry_space_group_name_H-M   'P 1'
_cell_length_a   15.46056925
_cell_length_b   15.46146826
_cell_length_c   15.28659452
_cell_angle_alpha   89.99887310
_cell_angle_beta   90.00377108
_cell_angle_gamma   90.00762683
_symmetry_Int_Tables_number   1
_chemical_formula_structural   Ca2Al2SiO7
_chemical_formula_sum   'Ca48 Al48 Si24 O168'
_cell_volume   3654.15491132
_cell_formula_units_Z   24
loop_
 _symmetry_equiv_pos_site_id
 _symmetry_equiv_pos_as_xyz
  1  'x, y, z'
loop_
 _atom_type_symbol
 _atom_type_oxidation_number
  Ca2+  2.0
  Al0+  0.0
  Si0+  0.0
  O2-  -2.0
loop_
 _atom_site_type_symbol
 _atom_site_label
 _atom_site_symmetry_multiplicity
 _atom_site_fract_x
 _atom_site_fract_y
 _atom_site_fract_z
 _atom_site_occupancy
  Ca2+  Ca0  1  0.16574278  0.07640944  0.17300403  1
  Ca2+  Ca1  1  0.17259798  0.07518781  0.50179767  1
  Ca2+  Ca2  1  0.16027635  0.07231153  0.83935307  1
  Ca2+  Ca3  1  0.17375949  0.57241394  0.17046783  1
  Ca2+  Ca4  1  0.17977250  0.58038461  0.51017664  1
  Ca2+  Ca5  1  0.16473054  0.57402490  0.83439179  1
  Ca2+  Ca6  1  0.66889816  0.09525869  0.17392293  1
  Ca2+  Ca7  1  0.67147187  0.09139035  0.49942061  1
  Ca2+  Ca8  1  0.66439078  0.08335968  0.83866801  1
  Ca2+  Ca9  1  0.67101218  0.57620392  0.17413912  1
  Ca2+  Ca10  1  0.66188709  0.57522734  0.50807305  1
  Ca2+  Ca11  1  0.67353410  0.58146382  0.83181592  1
  Ca2+  Ca12  1  0.08020476  0.32563781  0.15173159  1
  Ca2+  Ca13  1  0.08243307  0.33814201  0.49937957  1
  Ca2+  Ca14  1  0.08507704  0.33755975  0.83094020  1
  Ca2+  Ca15  1  0.08807408  0.83566384  0.16351414  1
  Ca2+  Ca16  1  0.08680460  0.83314340  0.50203662  1
  Ca2+  Ca17  1  0.08119262  0.82738528  0.82114600  1
  Ca2+  Ca18  1  0.57375270  0.32800691  0.16587052  1
  Ca2+  Ca19  1  0.57454508  0.33946140  0.49208374  1
  Ca2+  Ca20  1  0.57271644  0.33792053  0.82896287  1
  Ca2+  Ca21  1  0.58247918  0.82681687  0.16539961  1
  Ca2+  Ca22  1  0.58443567  0.81648770  0.49579385  1
  Ca2+  Ca23  1  0.57949287  0.82523222  0.82401797  1
  Ca2+  Ca24  1  0.33436123  0.41187002  0.16986963  1
  Ca2+  Ca25  1  0.33712876  0.42185421  0.50689475  1
  Ca2+  Ca26  1  0.32980468  0.41608854  0.83130193  1
  Ca2+  Ca27  1  0.32307988  0.92665676  0.17593640  1
  Ca2+  Ca28  1  0.32736525  0.92135078  0.50241912  1
  Ca2+  Ca29  1  0.31940707  0.91339516  0.83874885  1
  Ca2+  Ca30  1  0.82957647  0.41621431  0.16974717  1
  Ca2+  Ca31  1  0.81593600  0.42084066  0.50854745  1
  Ca2+  Ca32  1  0.83509457  0.42889471  0.83852109  1
  Ca2+  Ca33  1  0.82935970  0.92759759  0.17385943  1
  Ca2+  Ca34  1  0.83620300  0.92070004  0.50276753  1
  Ca2+  Ca35  1  0.83504138  0.91418305  0.83433939  1
  Ca2+  Ca36  1  0.41923277  0.17376395  0.16071529  1
  Ca2+  Ca37  1  0.41890322  0.17942490  0.48977705  1
  Ca2+  Ca38  1  0.41617482  0.17991002  0.83004195  1
  Ca2+  Ca39  1  0.42007407  0.65988440  0.17091767  1
  Ca2+  Ca40  1  0.42400436  0.65399384  0.49548079  1
  Ca2+  Ca41  1  0.42149193  0.66171029  0.82388619  1
  Ca2+  Ca42  1  0.91960454  0.17260382  0.15939571  1
  Ca2+  Ca43  1  0.91756024  0.16603151  0.49417076  1
  Ca2+  Ca44  1  0.92273437  0.17487742  0.83569613  1
  Ca2+  Ca45  1  0.91750450  0.66739964  0.16020157  1
  Ca2+  Ca46  1  0.92083743  0.66601449  0.50352672  1
  Ca2+  Ca47  1  0.91921960  0.66786239  0.82111448  1
  Al0+  Al48  1  -0.00326541  -0.00038616  0.00133799  1
  Al0+  Al49  1  -0.00268532  -0.00055357  0.34017594  1
  Al0+  Al50  1  0.00005322  0.00112474  0.66683157  1
  Al0+  Al51  1  0.00170081  0.50198316  0.00676419  1
  Al0+  Al52  1  -0.00045712  0.50246077  0.33106888  1
  Al0+  Al53  1  -0.00033794  0.50033970  0.66537712  1
  Al0+  Al54  1  0.49888376  -0.00342397  -0.00334853  1
  Al0+  Al55  1  0.50096950  -0.00230603  0.33506442  1
  Al0+  Al56  1  0.50183972  0.00177761  0.66669461  1
  Al0+  Al57  1  0.50260367  0.50048793  -0.00340963  1
  Al0+  Al58  1  0.50068426  0.49896069  0.32837747  1
  Al0+  Al59  1  0.49971847  0.49874536  0.66815599  1
  Al0+  Al60  1  0.25115155  0.24779861  -0.00554105  1
  Al0+  Al61  1  0.24728000  0.24786845  0.33269182  1
  Al0+  Al62  1  0.25101919  0.24984101  0.66395087  1
  Al0+  Al63  1  0.25009150  0.74968369  0.00577666  1
  Al0+  Al64  1  0.24928208  0.74729846  0.33871588  1
  Al0+  Al65  1  0.25057215  0.75181688  0.67025357  1
  Al0+  Al66  1  0.75059341  0.25077068  -0.00824897  1
  Al0+  Al67  1  0.75004016  0.25200460  0.33959287  1
  Al0+  Al68  1  0.75046930  0.24954109  0.67333821  1
  Al0+  Al69  1  0.75064363  0.75003236  0.00498694  1
  Al0+  Al70  1  0.75242172  0.75129204  0.32736619  1
  Al0+  Al71  1  0.74964862  0.75244862  0.66063443  1
  Al0+  Al72  1  0.07101617  0.17661568  0.98544591  1
  Al0+  Al73  1  0.56852855  0.68021894  0.65396451  1
  Al0+  Al74  1  0.32352475  0.07313189  0.34795333  1
  Al0+  Al75  1  0.18010382  0.93142835  0.68185449  1
  Al0+  Al76  1  0.81728114  0.07109153  0.34645565  1
  Al0+  Al77  1  0.92928752  0.82280892  0.65015066  1
  Al0+  Al78  1  0.68167718  0.43174609  0.34511977  1
  Al0+  Al79  1  0.42858952  0.32271151  0.98185884  1
  Al0+  Al80  1  0.67755206  0.42774742  0.68434172  1
  Al0+  Al81  1  0.57113678  0.17662348  0.98398803  1
  Al0+  Al82  1  0.17819450  0.92856374  0.35044812  1
  Al0+  Al83  1  0.82128253  0.57155353  0.01507487  1
  Al0+  Al84  1  0.43005917  0.31911112  0.65066135  1
  Al0+  Al85  1  0.18155963  0.42757178  0.01364734  1
  Al0+  Al86  1  0.93054239  0.32458457  0.98465873  1
  Al0+  Al87  1  0.57262135  0.17818587  0.32140106  1
  Al0+  Al88  1  0.81962473  0.57273886  0.67913806  1
  Al0+  Al89  1  0.42661213  0.32034902  0.31745878  1
  Al0+  Al90  1  0.17836040  0.42763389  0.68012274  1
  Al0+  Al91  1  0.32200098  0.57159395  0.68169951  1
  Al0+  Al92  1  0.07285512  0.67718047  0.65120039  1
  Al0+  Al93  1  0.31999861  0.56638126  0.34544771  1
  Al0+  Al94  1  0.17677979  0.92929851  0.01454137  1
  Al0+  Al95  1  0.57161638  0.67858852  0.31777566  1
  Si0+  Si96  1  0.32381255  0.07237657  0.68435754  1
  Si0+  Si97  1  0.32305319  0.06951897  0.01475023  1
  Si0+  Si98  1  0.67738875  0.92808777  0.01476098  1
  Si0+  Si99  1  0.82230770  0.07162672  0.68495873  1
  Si0+  Si100  1  0.06983614  0.17919810  0.65029857  1
  Si0+  Si101  1  0.67957999  0.93009441  0.68076072  1
  Si0+  Si102  1  0.07213216  0.68086247  0.98736931  1
  Si0+  Si103  1  0.07217007  0.67913969  0.31594578  1
  Si0+  Si104  1  0.57287821  0.68103124  0.98486037  1
  Si0+  Si105  1  0.57440384  0.17667290  0.64914804  1
  Si0+  Si106  1  0.42715144  0.82528438  0.65043838  1
  Si0+  Si107  1  0.67839101  0.42765167  0.01754803  1
  Si0+  Si108  1  0.06809437  0.17767247  0.32012476  1
  Si0+  Si109  1  0.32458243  0.57212606  0.01742725  1
  Si0+  Si110  1  0.92774984  0.32137107  0.65101361  1
  Si0+  Si111  1  0.17437682  0.42611245  0.34765766  1
  Si0+  Si112  1  0.82412456  0.57561129  0.35055919  1
  Si0+  Si113  1  0.67773760  0.92396569  0.35023762  1
  Si0+  Si114  1  0.92804665  0.82004545  0.98699983  1
  Si0+  Si115  1  0.42585942  0.82109242  0.31694025  1
  Si0+  Si116  1  0.93087182  0.82238083  0.31550727  1
  Si0+  Si117  1  0.42790909  0.81892966  0.98589734  1
  Si0+  Si118  1  0.92926294  0.32181939  0.32099245  1
  Si0+  Si119  1  0.81798575  0.07124963  0.01389714  1
  O2-  O120  1  0.24917193  0.00643910  0.05987535  1
  O2-  O121  1  0.25283164  -0.00075831  0.39778355  1
  O2-  O122  1  0.25677892  0.00288483  0.73023245  1
  O2-  O123  1  0.26012336  0.49857210  0.06019351  1
  O2-  O124  1  0.24712707  0.48990525  0.39107845  1
  O2-  O125  1  0.24670910  0.50275022  0.73086713  1
  O2-  O126  1  0.74211598  0.00515070  0.05619816  1
  O2-  O127  1  0.74033494  -0.00128981  0.39361585  1
  O2-  O128  1  0.74958748  0.00119660  0.72512644  1
  O2-  O129  1  0.74913524  0.49467943  0.06187728  1
  O2-  O130  1  0.75346421  0.50915639  0.39280438  1
  O2-  O131  1  0.75144119  0.49924555  0.73235868  1
  O2-  O132  1  0.00305905  0.25417149  0.27814713  1
  O2-  O133  1  0.00044569  0.25214305  0.60776190  1
  O2-  O134  1  0.00579352  0.25504358  0.93483700  1
  O2-  O135  1  0.00152159  0.75108348  0.27320892  1
  O2-  O136  1  0.00124782  0.75043647  0.60071534  1
  O2-  O137  1  0.00061240  0.75139361  0.94527735  1
  O2-  O138  1  0.49507947  0.24289459  0.27015325  1
  O2-  O139  1  0.50685484  0.24556677  0.60556466  1
  O2-  O140  1  0.50157202  0.25001211  0.93341433  1
  O2-  O141  1  0.49685153  0.75448203  0.27160640  1
  O2-  O142  1  0.49148282  0.75263063  0.60648833  1
  O2-  O143  1  0.49787343  0.74754670  0.94259674  1
  O2-  O144  1  0.06519665  0.17450116  0.09960134  1
  O2-  O145  1  0.06552105  0.17683493  0.42542175  1
  O2-  O146  1  0.06671006  0.17654282  0.75513333  1
  O2-  O147  1  0.07191553  0.68312184  0.09290759  1
  O2-  O148  1  0.07061770  0.67644527  0.42028236  1
  O2-  O149  1  0.07056193  0.67904522  0.76555944  1
  O2-  O150  1  0.57031131  0.17592672  0.09746540  1
  O2-  O151  1  0.57500525  0.18408415  0.43458980  1
  O2-  O152  1  0.57226369  0.17306726  0.75458284  1
  O2-  O153  1  0.57371795  0.68360581  0.09000300  1
  O2-  O154  1  0.57183764  0.67946424  0.43057455  1
  O2-  O155  1  0.57014666  0.68505544  0.76769933  1
  O2-  O156  1  0.17041222  0.42883004  0.24200770  1
  O2-  O157  1  0.17961838  0.42679891  0.56624497  1
  O2-  O158  1  0.17806955  0.43301427  0.90139440  1
  O2-  O159  1  0.17691104  0.93157144  0.23634661  1
  O2-  O160  1  0.17988235  0.93474246  0.56917666  1
  O2-  O161  1  0.17741141  0.92710099  0.90173911  1
  O2-  O162  1  0.68574015  0.43111598  0.23182040  1
  O2-  O163  1  0.67839424  0.42805140  0.57045040  1
  O2-  O164  1  0.67747070  0.43181936  0.91233690  1
  O2-  O165  1  0.68273235  0.91974489  0.24439721  1
  O2-  O166  1  0.67925077  0.93110832  0.57601733  1
  O2-  O167  1  0.68057920  0.92407362  0.90964636  1
  O2-  O168  1  0.42989933  0.32239886  0.09544626  1
  O2-  O169  1  0.42862875  0.32262407  0.43079857  1
  O2-  O170  1  0.42918536  0.31729014  0.76355335  1
  O2-  O171  1  0.42992734  0.82007145  0.09083544  1
  O2-  O172  1  0.42621915  0.82022014  0.42229170  1
  O2-  O173  1  0.43156384  0.82759944  0.75657697  1
  O2-  O174  1  0.92906963  0.31988539  0.09907125  1
  O2-  O175  1  0.93039052  0.32056563  0.42623328  1
  O2-  O176  1  0.92754071  0.31951494  0.75582788  1
  O2-  O177  1  0.92693747  0.82007580  0.09227064  1
  O2-  O178  1  0.92936393  0.82307024  0.41992853  1
  O2-  O179  1  0.92982502  0.82380231  0.76451619  1
  O2-  O180  1  0.31953200  0.07238236  0.23396956  1
  O2-  O181  1  0.32257519  0.07072445  0.57886413  1
  O2-  O182  1  0.32511255  0.06306409  0.90934310  1
  O2-  O183  1  0.31700105  0.56751205  0.23193167  1
  O2-  O184  1  0.32321102  0.56794740  0.56809546  1
  O2-  O185  1  0.32264263  0.57756782  0.91251831  1
  O2-  O186  1  0.81947131  0.06976550  0.23307763  1
  O2-  O187  1  0.82233871  0.07304062  0.57977853  1
  O2-  O188  1  0.82047104  0.06643469  0.90888065  1
  O2-  O189  1  0.82519161  0.57403461  0.24457484  1
  O2-  O190  1  0.81778976  0.57039683  0.56546702  1
  O2-  O191  1  0.81858522  0.57706429  0.90261114  1
  O2-  O192  1  0.03383779  0.08737006  0.27354724  1
  O2-  O193  1  0.03723161  0.08973662  0.60136076  1
  O2-  O194  1  0.03253410  0.08099827  0.93148683  1
  O2-  O195  1  0.04246550  0.58806104  0.26609249  1
  O2-  O196  1  0.04384725  0.57954817  0.59614310  1
  O2-  O197  1  0.04431090  0.58900706  0.94213259  1
  O2-  O198  1  0.55767553  0.07410253  0.27378767  1
  O2-  O199  1  0.55107748  0.08235476  0.60262158  1
  O2-  O200  1  0.54468517  0.07611620  0.93202485  1
  O2-  O201  1  0.53934882  0.58456078  0.26037246  1
  O2-  O202  1  0.53931626  0.58336925  0.60114101  1
  O2-  O203  1  0.55052931  0.58820536  0.93823777  1
  O2-  O204  1  0.16087675  0.19846604  0.27218162  1
  O2-  O205  1  0.16216138  0.20401253  0.60299103  1
  O2-  O206  1  0.17156741  0.19334375  0.93410240  1
  O2-  O207  1  0.16401149  0.70667216  0.26846035  1
  O2-  O208  1  0.17201738  0.70773537  0.60045813  1
  O2-  O209  1  0.16415680  0.70876561  0.94094834  1
  O2-  O210  1  0.67020873  0.21324334  0.26866425  1
  O2-  O211  1  0.67071186  0.19999090  0.60769980  1
  O2-  O212  1  0.67079447  0.19953069  0.93118893  1
  O2-  O213  1  0.66844212  0.71052022  0.26294317  1
  O2-  O214  1  0.66257093  0.71474791  0.59771373  1
  O2-  O215  1  0.66304473  0.71556398  0.93847973  1
  O2-  O216  1  0.08721689  0.46177664  0.07123644  1
  O2-  O217  1  0.08205550  0.45672734  0.39449424  1
  O2-  O218  1  0.07845755  0.45254546  0.73143640  1
  O2-  O219  1  0.07872462  0.95762425  0.06773740  1
  O2-  O220  1  0.08096075  0.95932406  0.40343794  1
  O2-  O221  1  0.08334515  0.96485381  0.73470468  1
  O2-  O222  1  0.58568549  0.45699908  0.06374486  1
  O2-  O223  1  0.58468815  0.46237517  0.39649476  1
  O2-  O224  1  0.58158765  0.46013265  0.73765025  1
  O2-  O225  1  0.58304966  0.94781039  0.06046828  1
  O2-  O226  1  0.58175792  0.93846003  0.39399799  1
  O2-  O227  1  0.58777361  0.95655810  0.73037907  1
  O2-  O228  1  0.20617412  0.32735432  0.06421749  1
  O2-  O229  1  0.19112997  0.32997280  0.39074553  1
  O2-  O230  1  0.20768833  0.32892132  0.73218160  1
  O2-  O231  1  0.21034921  0.83395902  0.07007135  1
  O2-  O232  1  0.20432869  0.82946251  0.40150369  1
  O2-  O233  1  0.20749975  0.83451538  0.73673457  1
  O2-  O234  1  0.70402254  0.33232398  0.05958056  1
  O2-  O235  1  0.71520905  0.33878832  0.40359240  1
  O2-  O236  1  0.70428484  0.32888913  0.73715490  1
  O2-  O237  1  0.71177027  0.84032094  0.06628308  1
  O2-  O238  1  0.71284421  0.83359017  0.39753562  1
  O2-  O239  1  0.70825626  0.83926897  0.72938180  1
  O2-  O240  1  0.46049687  0.41561967  0.26170290  1
  O2-  O241  1  0.46119173  0.41613889  0.59905208  1
  O2-  O242  1  0.45824349  0.42185644  0.92991124  1
  O2-  O243  1  0.45001576  0.91501393  0.27011520  1
  O2-  O244  1  0.45758209  0.91745401  0.60356486  1
  O2-  O245  1  0.45553514  0.90879791  0.93510061  1
  O2-  O246  1  0.95186634  0.41523895  0.27342667  1
  O2-  O247  1  0.95261042  0.41271515  0.60200474  1
  O2-  O248  1  0.95761671  0.42493559  0.93568991  1
  O2-  O249  1  0.95891421  0.91490196  0.26865151  1
  O2-  O250  1  0.95845307  0.92182209  0.59781953  1
  O2-  O251  1  0.95181559  0.91252380  0.93986992  1
  O2-  O252  1  0.32551738  0.29553364  0.26657025  1
  O2-  O253  1  0.33365929  0.28777514  0.59597739  1
  O2-  O254  1  0.33080050  0.29414309  0.92809458  1
  O2-  O255  1  0.33285996  0.79195177  0.27087630  1
  O2-  O256  1  0.33170727  0.80624962  0.60747190  1
  O2-  O257  1  0.33534799  0.79118834  0.93963539  1
  O2-  O258  1  0.83933332  0.28963407  0.27362763  1
  O2-  O259  1  0.83619364  0.28890820  0.60520876  1
  O2-  O260  1  0.83444571  0.29370445  0.92920569  1
  O2-  O261  1  0.83970427  0.79610445  0.26515080  1
  O2-  O262  1  0.83090184  0.79812844  0.59558898  1
  O2-  O263  1  0.83621327  0.79129639  0.93966942  1
  O2-  O264  1  0.41425124  0.03693405  0.06256957  1
  O2-  O265  1  0.42267817  0.04660450  0.40063832  1
  O2-  O266  1  0.41879909  0.04935583  0.72913572  1
  O2-  O267  1  0.42087277  0.55098472  0.06043153  1
  O2-  O268  1  0.41806632  0.53878668  0.39638111  1
  O2-  O269  1  0.41808672  0.53999080  0.73656863  1
  O2-  O270  1  0.90677296  0.03818780  0.06433376  1
  O2-  O271  1  0.91102760  0.03691584  0.40391471  1
  O2-  O272  1  0.91269340  0.04132726  0.73286113  1
  O2-  O273  1  0.91800028  0.54542381  0.07144571  1
  O2-  O274  1  0.91783906  0.54883043  0.39531186  1
  O2-  O275  1  0.91870961  0.54567129  0.73091993  1
  O2-  O276  1  0.30403968  0.16552117  0.05681379  1
  O2-  O277  1  0.29035777  0.16971622  0.40232394  1
  O2-  O278  1  0.29507752  0.16502733  0.72907355  1
  O2-  O279  1  0.29436381  0.66324901  0.06688450  1
  O2-  O280  1  0.28977197  0.66205293  0.40051281  1
  O2-  O281  1  0.30147690  0.67254687  0.73301730  1
  O2-  O282  1  0.79560505  0.16540787  0.05904186  1
  O2-  O283  1  0.79066402  0.16659646  0.40457397  1
  O2-  O284  1  0.79626286  0.16244383  0.73470483  1
  O2-  O285  1  0.78780148  0.66712910  0.07181308  1
  O2-  O286  1  0.80206310  0.67128869  0.39220434  1
  O2-  O287  1  0.79102845  0.67253565  0.72989824  1
