# generated using pymatgen
data_Ca2Al2SiO7
_symmetry_space_group_name_H-M   'P 1'
_cell_length_a   15.45842727
_cell_length_b   15.45906544
_cell_length_c   15.28376219
_cell_angle_alpha   90.01768181
_cell_angle_beta   90.00696694
_cell_angle_gamma   90.00077972
_symmetry_Int_Tables_number   1
_chemical_formula_structural   Ca2Al2SiO7
_chemical_formula_sum   'Ca48 Al48 Si24 O168'
_cell_volume   3652.40383317
_cell_formula_units_Z   24
loop_
 _symmetry_equiv_pos_site_id
 _symmetry_equiv_pos_as_xyz
  1  'x, y, z'
loop_
 _atom_type_symbol
 _atom_type_oxidation_number
  Ca2+  2.0
  Al0+  0.0
  Si0+  0.0
  O2-  -2.0
loop_
 _atom_site_type_symbol
 _atom_site_label
 _atom_site_symmetry_multiplicity
 _atom_site_fract_x
 _atom_site_fract_y
 _atom_site_fract_z
 _atom_site_occupancy
  Ca2+  Ca0  1  0.16599793  0.07469414  0.16870615  1
  Ca2+  Ca1  1  0.17618051  0.07599665  0.51243499  1
  Ca2+  Ca2  1  0.17008700  0.06942605  0.83362529  1
  Ca2+  Ca3  1  0.15634177  0.57682683  0.17113738  1
  Ca2+  Ca4  1  0.15893246  0.57551865  0.50063615  1
  Ca2+  Ca5  1  0.15933997  0.57545357  0.83832300  1
  Ca2+  Ca6  1  0.67061823  0.07205824  0.17249615  1
  Ca2+  Ca7  1  0.66875041  0.07952265  0.50073879  1
  Ca2+  Ca8  1  0.66534582  0.07806758  0.83726141  1
  Ca2+  Ca9  1  0.68019049  0.58797478  0.17416381  1
  Ca2+  Ca10  1  0.66749085  0.58482999  0.50527303  1
  Ca2+  Ca11  1  0.67118947  0.58286921  0.83543319  1
  Ca2+  Ca12  1  0.07421684  0.34008476  0.16215992  1
  Ca2+  Ca13  1  0.07525080  0.34020148  0.49480981  1
  Ca2+  Ca14  1  0.07507358  0.34094848  0.82988251  1
  Ca2+  Ca15  1  0.08588871  0.81897515  0.15858078  1
  Ca2+  Ca16  1  0.07937312  0.83223579  0.49539508  1
  Ca2+  Ca17  1  0.08403710  0.83085164  0.82726740  1
  Ca2+  Ca18  1  0.58220100  0.33103314  0.16347135  1
  Ca2+  Ca19  1  0.59092118  0.32821691  0.50077830  1
  Ca2+  Ca20  1  0.58622884  0.32649779  0.82070525  1
  Ca2+  Ca21  1  0.57837313  0.83921046  0.16411530  1
  Ca2+  Ca22  1  0.57486125  0.82648911  0.49280710  1
  Ca2+  Ca23  1  0.57534638  0.83194672  0.82517533  1
  Ca2+  Ca24  1  0.31818823  0.41880408  0.17379426  1
  Ca2+  Ca25  1  0.31964323  0.41765355  0.50871973  1
  Ca2+  Ca26  1  0.32113104  0.41874217  0.83808822  1
  Ca2+  Ca27  1  0.33262632  0.90667511  0.16545724  1
  Ca2+  Ca28  1  0.33246753  0.91428658  0.50776293  1
  Ca2+  Ca29  1  0.33123093  0.91321047  0.83440579  1
  Ca2+  Ca30  1  0.84282899  0.42558339  0.17010158  1
  Ca2+  Ca31  1  0.83521970  0.42263202  0.50405429  1
  Ca2+  Ca32  1  0.83358603  0.41927647  0.83688876  1
  Ca2+  Ca33  1  0.82005109  0.91902244  0.17664967  1
  Ca2+  Ca34  1  0.83130198  0.91793411  0.50389299  1
  Ca2+  Ca35  1  0.82669743  0.91192766  0.83978048  1
  Ca2+  Ca36  1  0.41712908  0.16751805  0.16440150  1
  Ca2+  Ca37  1  0.42098508  0.16049919  0.50226888  1
  Ca2+  Ca38  1  0.42218848  0.16409482  0.82522415  1
  Ca2+  Ca39  1  0.42392970  0.67684126  0.16355286  1
  Ca2+  Ca40  1  0.42579977  0.67350206  0.49379313  1
  Ca2+  Ca41  1  0.42147963  0.67797550  0.82510040  1
  Ca2+  Ca42  1  0.90862553  0.17803122  0.16542162  1
  Ca2+  Ca43  1  0.91192039  0.17921559  0.49397057  1
  Ca2+  Ca44  1  0.91641106  0.18003514  0.82611305  1
  Ca2+  Ca45  1  0.92331225  0.65687501  0.16395810  1
  Ca2+  Ca46  1  0.91904753  0.67044822  0.49585162  1
  Ca2+  Ca47  1  0.91960101  0.66924879  0.83342059  1
  Al0+  Al48  1  0.00123308  0.00177003  0.00573074  1
  Al0+  Al49  1  0.00022370  0.00223590  0.33664023  1
  Al0+  Al50  1  0.00047088  0.00184626  0.66702727  1
  Al0+  Al51  1  -0.00109916  0.49977288  -0.00258885  1
  Al0+  Al52  1  -0.00247303  0.49965475  0.33573906  1
  Al0+  Al53  1  -0.00158630  0.50143680  0.66756041  1
  Al0+  Al54  1  0.50001688  0.00077423  0.00047122  1
  Al0+  Al55  1  0.49931791  0.00073278  0.33233539  1
  Al0+  Al56  1  0.50141615  0.00094772  0.66193294  1
  Al0+  Al57  1  0.49923786  0.49970449  -0.00026651  1
  Al0+  Al58  1  0.49905313  0.50027149  0.32760372  1
  Al0+  Al59  1  0.50015161  0.49808273  0.66857569  1
  Al0+  Al60  1  0.24931836  0.24894864  0.00362652  1
  Al0+  Al61  1  0.24799294  0.24869346  0.33713762  1
  Al0+  Al62  1  0.24992252  0.24871198  0.67715463  1
  Al0+  Al63  1  0.25169977  0.74899868  -0.00583740  1
  Al0+  Al64  1  0.25081113  0.74795609  0.32623459  1
  Al0+  Al65  1  0.24995110  0.74753092  0.66527806  1
  Al0+  Al66  1  0.74926769  0.25058869  -0.00432283  1
  Al0+  Al67  1  0.74937216  0.25009315  0.32937964  1
  Al0+  Al68  1  0.75016048  0.25155681  0.66178267  1
  Al0+  Al69  1  0.75050800  0.74902142  0.00954839  1
  Al0+  Al70  1  0.74963240  0.74977751  0.34020249  1
  Al0+  Al71  1  0.75258084  0.75065660  0.66094294  1
  Al0+  Al72  1  0.82151093  0.07292544  0.34928486  1
  Al0+  Al73  1  0.17884545  0.42999378  0.34800002  1
  Al0+  Al74  1  0.32410079  0.06905026  0.68276424  1
  Al0+  Al75  1  0.93027831  0.82384880  0.65464133  1
  Al0+  Al76  1  0.92978533  0.31921850  0.31873586  1
  Al0+  Al77  1  0.82007088  0.56992452  0.34912946  1
  Al0+  Al78  1  0.93077256  0.31914721  0.98461816  1
  Al0+  Al79  1  0.57228272  0.67647840  0.65275721  1
  Al0+  Al80  1  0.43028619  0.82211823  0.31579287  1
  Al0+  Al81  1  0.57118279  0.17956610  0.65189097  1
  Al0+  Al82  1  0.17732664  0.43060102  0.68205645  1
  Al0+  Al83  1  0.67935251  0.93025713  0.01202640  1
  Al0+  Al84  1  0.67990028  0.42912933  0.67880885  1
  Al0+  Al85  1  0.06787790  0.68072527  0.32050410  1
  Al0+  Al86  1  0.81898407  0.56851052  0.01317523  1
  Al0+  Al87  1  0.17770863  0.92597197  0.68033218  1
  Al0+  Al88  1  0.42827342  0.82051859  0.65068167  1
  Al0+  Al89  1  0.57403106  0.67703475  0.31605070  1
  Al0+  Al90  1  0.17991548  0.43057559  0.01493239  1
  Al0+  Al91  1  0.93100305  0.32145126  0.65141908  1
  Al0+  Al92  1  0.06967079  0.67977569  0.98525501  1
  Al0+  Al93  1  0.17888210  0.92659938  0.01467946  1
  Al0+  Al94  1  0.43188670  0.82076845  0.98315105  1
  Al0+  Al95  1  0.67758077  0.92963722  0.35201266  1
  Si0+  Si96  1  0.18048669  0.92628840  0.34615544  1
  Si0+  Si97  1  0.42651282  0.32182993  0.98569738  1
  Si0+  Si98  1  0.68192296  0.92948259  0.68073476  1
  Si0+  Si99  1  0.82124563  0.57409326  0.68478066  1
  Si0+  Si100  1  0.31990937  0.07181883  0.34807583  1
  Si0+  Si101  1  0.82213895  0.07518945  0.01475348  1
  Si0+  Si102  1  0.92708382  0.82430710  0.98822009  1
  Si0+  Si103  1  0.57548783  0.67694148  0.98366369  1
  Si0+  Si104  1  0.07484693  0.17516809  0.98206639  1
  Si0+  Si105  1  0.67455900  0.42760340  0.34787193  1
  Si0+  Si106  1  0.32366592  0.57108826  0.68360440  1
  Si0+  Si107  1  0.32436238  0.57262672  0.01748038  1
  Si0+  Si108  1  0.56933522  0.18062545  0.31639765  1
  Si0+  Si109  1  0.42553436  0.32114697  0.65169406  1
  Si0+  Si110  1  0.32196638  0.07047586  0.01846623  1
  Si0+  Si111  1  0.82107595  0.07342395  0.68167286  1
  Si0+  Si112  1  0.42479884  0.32082807  0.31917080  1
  Si0+  Si113  1  0.67579180  0.42546889  0.01609717  1
  Si0+  Si114  1  0.92791022  0.82578263  0.31709444  1
  Si0+  Si115  1  0.07324090  0.17867752  0.65114269  1
  Si0+  Si116  1  0.07466207  0.17672065  0.31654264  1
  Si0+  Si117  1  0.07129918  0.67793563  0.65034056  1
  Si0+  Si118  1  0.32279985  0.57172632  0.34927495  1
  Si0+  Si119  1  0.56876522  0.18142104  0.98530859  1
  O2-  O120  1  0.25325432  0.00184936  0.06254159  1
  O2-  O121  1  0.25042904  -0.00143062  0.38800464  1
  O2-  O122  1  0.25355322  -0.00551020  0.73061192  1
  O2-  O123  1  0.25505418  0.50447191  0.06227744  1
  O2-  O124  1  0.25506794  0.50279317  0.39503005  1
  O2-  O125  1  0.25277460  0.50460427  0.72852488  1
  O2-  O126  1  0.75867862  0.00115133  0.05756608  1
  O2-  O127  1  0.75351049  -0.00154189  0.40135743  1
  O2-  O128  1  0.75361366  -0.00064010  0.72495417  1
  O2-  O129  1  0.74213086  0.49544982  0.06024259  1
  O2-  O130  1  0.73999195  0.49881767  0.39217513  1
  O2-  O131  1  0.75090774  0.50595268  0.72734324  1
  O2-  O132  1  0.00374395  0.24317948  0.27229927  1
  O2-  O133  1  0.00806231  0.24925048  0.60478068  1
  O2-  O134  1  0.00464340  0.24292836  0.93850625  1
  O2-  O135  1  -0.00435506  0.75707740  0.27177129  1
  O2-  O136  1  0.00827229  0.75257508  0.60797041  1
  O2-  O137  1  -0.00116722  0.76000993  0.94192150  1
  O2-  O138  1  0.49846575  0.25271904  0.27537643  1
  O2-  O139  1  0.49509498  0.25397193  0.60592872  1
  O2-  O140  1  0.50078302  0.25492027  0.94279406  1
  O2-  O141  1  0.50549305  0.75270827  0.26634975  1
  O2-  O142  1  0.49955560  0.74728996  0.60251031  1
  O2-  O143  1  0.50712207  0.74538845  0.93878078  1
  O2-  O144  1  0.07649537  0.17510280  0.08774386  1
  O2-  O145  1  0.07856284  0.17800872  0.42181257  1
  O2-  O146  1  0.06895533  0.17758852  0.75679113  1
  O2-  O147  1  0.06695492  0.67788186  0.09841461  1
  O2-  O148  1  0.06772602  0.68277221  0.43365802  1
  O2-  O149  1  0.06810027  0.67565605  0.75604506  1
  O2-  O150  1  0.56771409  0.18239002  0.09072147  1
  O2-  O151  1  0.56921477  0.18083575  0.42124270  1
  O2-  O152  1  0.57191926  0.18030329  0.76555010  1
  O2-  O153  1  0.57424291  0.67651617  0.08885941  1
  O2-  O154  1  0.56869863  0.67437475  0.42933192  1
  O2-  O155  1  0.57310899  0.68013712  0.76699219  1
  O2-  O156  1  0.17985714  0.42994920  0.23479584  1
  O2-  O157  1  0.17735044  0.43215367  0.56876050  1
  O2-  O158  1  0.18126616  0.43187859  0.90182459  1
  O2-  O159  1  0.18143142  0.92769744  0.24088687  1
  O2-  O160  1  0.17686814  0.92948720  0.56620540  1
  O2-  O161  1  0.17883488  0.92834798  0.90211370  1
  O2-  O162  1  0.67470553  0.42539992  0.24194754  1
  O2-  O163  1  0.68314185  0.42727551  0.56586736  1
  O2-  O164  1  0.67608054  0.42307779  0.91064525  1
  O2-  O165  1  0.67671692  0.93450366  0.23783192  1
  O2-  O166  1  0.68292161  0.93133892  0.57621248  1
  O2-  O167  1  0.67938186  0.93216749  0.89836710  1
  O2-  O168  1  0.42708675  0.31922812  0.09121854  1
  O2-  O169  1  0.42258082  0.31866022  0.42380137  1
  O2-  O170  1  0.42742733  0.31967939  0.75766898  1
  O2-  O171  1  0.43390306  0.82113959  0.09597687  1
  O2-  O172  1  0.42822476  0.82141908  0.42895415  1
  O2-  O173  1  0.43167890  0.82078424  0.76458983  1
  O2-  O174  1  0.93074999  0.31796293  0.09771716  1
  O2-  O175  1  0.93083321  0.31946707  0.43173884  1
  O2-  O176  1  0.93081501  0.32043330  0.76477977  1
  O2-  O177  1  0.92693916  0.82321860  0.09356944  1
  O2-  O178  1  0.93253861  0.82678433  0.42288991  1
  O2-  O179  1  0.92659133  0.82143066  0.76813168  1
  O2-  O180  1  0.31865972  0.07638695  0.24287414  1
  O2-  O181  1  0.32152402  0.07051087  0.56863497  1
  O2-  O182  1  0.32413085  0.07156884  0.91349105  1
  O2-  O183  1  0.32224734  0.56867444  0.24358322  1
  O2-  O184  1  0.32415195  0.56819933  0.57801227  1
  O2-  O185  1  0.32681042  0.56849994  0.91192708  1
  O2-  O186  1  0.81677350  0.07337344  0.23518295  1
  O2-  O187  1  0.81872912  0.07375304  0.57695781  1
  O2-  O188  1  0.81876017  0.07782444  0.90894611  1
  O2-  O189  1  0.82329806  0.56487647  0.23586974  1
  O2-  O190  1  0.82340542  0.57275067  0.57936993  1
  O2-  O191  1  0.81772579  0.56882647  0.90000508  1
  O2-  O192  1  0.05099207  0.08203786  0.27083382  1
  O2-  O193  1  0.04720782  0.08612921  0.60354822  1
  O2-  O194  1  0.05006037  0.08072077  0.93687138  1
  O2-  O195  1  0.03392304  0.58449443  0.26786049  1
  O2-  O196  1  0.03822055  0.58748323  0.60237911  1
  O2-  O197  1  0.03316325  0.58594473  0.92980519  1
  O2-  O198  1  0.53816591  0.09066672  0.26761582  1
  O2-  O199  1  0.54109894  0.08486608  0.59480533  1
  O2-  O200  1  0.53822485  0.09094143  0.93751443  1
  O2-  O201  1  0.54456554  0.57894518  0.26090090  1
  O2-  O202  1  0.54593000  0.57648374  0.60182203  1
  O2-  O203  1  0.55073746  0.58172337  0.93898322  1
  O2-  O204  1  0.16742030  0.20361758  0.26854538  1
  O2-  O205  1  0.16926817  0.20148185  0.60925579  1
  O2-  O206  1  0.16862092  0.20185710  0.93705459  1
  O2-  O207  1  0.16478000  0.70686601  0.26456453  1
  O2-  O208  1  0.16705551  0.69384781  0.60576589  1
  O2-  O209  1  0.16749277  0.70432821  0.93128670  1
  O2-  O210  1  0.65968599  0.20853788  0.26627464  1
  O2-  O211  1  0.66538183  0.21305119  0.59542515  1
  O2-  O212  1  0.66080867  0.20568844  0.93663720  1
  O2-  O213  1  0.67535743  0.70260366  0.26820470  1
  O2-  O214  1  0.67018703  0.70499937  0.60001411  1
  O2-  O215  1  0.66994883  0.70278101  0.94005477  1
  O2-  O216  1  0.08325361  0.46318657  0.06640111  1
  O2-  O217  1  0.08404895  0.46393381  0.40208217  1
  O2-  O218  1  0.08142139  0.46452635  0.73595980  1
  O2-  O219  1  0.08252900  0.95652447  0.07110352  1
  O2-  O220  1  0.08801760  0.95243144  0.39277587  1
  O2-  O221  1  0.08059536  0.95914954  0.73500462  1
  O2-  O222  1  0.58021223  0.44640897  0.06091524  1
  O2-  O223  1  0.57863738  0.44734718  0.39204852  1
  O2-  O224  1  0.58139989  0.45203423  0.73402450  1
  O2-  O225  1  0.58569075  0.96830583  0.06731921  1
  O2-  O226  1  0.58005944  0.96482583  0.40285543  1
  O2-  O227  1  0.59034901  0.95988059  0.72657080  1
  O2-  O228  1  0.20986456  0.33305130  0.06834413  1
  O2-  O229  1  0.20879557  0.33272307  0.40136782  1
  O2-  O230  1  0.20598457  0.33430934  0.73741136  1
  O2-  O231  1  0.21194919  0.82949091  0.06624283  1
  O2-  O232  1  0.20889719  0.83448406  0.39236301  1
  O2-  O233  1  0.20107759  0.82546135  0.73113205  1
  O2-  O234  1  0.70225331  0.33176683  0.06216008  1
  O2-  O235  1  0.70261782  0.33415784  0.39237181  1
  O2-  O236  1  0.71335939  0.33287529  0.73331628  1
  O2-  O237  1  0.70562703  0.83443956  0.06895051  1
  O2-  O238  1  0.70123278  0.83040577  0.40369917  1
  O2-  O239  1  0.71020276  0.83740397  0.72740522  1
  O2-  O240  1  0.44916764  0.41216891  0.26922659  1
  O2-  O241  1  0.44855250  0.41497535  0.60616503  1
  O2-  O242  1  0.44936186  0.41511100  0.93895467  1
  O2-  O243  1  0.45542614  0.92247530  0.26354157  1
  O2-  O244  1  0.45736393  0.91855152  0.59862772  1
  O2-  O245  1  0.46280616  0.91884447  0.93182299  1
  O2-  O246  1  0.96434029  0.41468514  0.26574099  1
  O2-  O247  1  0.95995932  0.41931231  0.59947061  1
  O2-  O248  1  0.96307013  0.41434606  0.92988058  1
  O2-  O249  1  0.95133617  0.92048171  0.27188333  1
  O2-  O250  1  0.95653026  0.92154840  0.59995134  1
  O2-  O251  1  0.94657992  0.92068958  0.94468540  1
  O2-  O252  1  0.33497511  0.28771513  0.26985888  1
  O2-  O253  1  0.33162796  0.29348106  0.60722435  1
  O2-  O254  1  0.33583942  0.29065135  0.93836903  1
  O2-  O255  1  0.33343590  0.78977609  0.26124817  1
  O2-  O256  1  0.32876779  0.79357669  0.59889319  1
  O2-  O257  1  0.33578326  0.78996052  0.92896305  1
  O2-  O258  1  0.83280673  0.28993556  0.26315921  1
  O2-  O259  1  0.83620220  0.28789885  0.59697229  1
  O2-  O260  1  0.83279121  0.29005470  0.93080518  1
  O2-  O261  1  0.83249835  0.80099885  0.27627198  1
  O2-  O262  1  0.83660099  0.79130410  0.59642693  1
  O2-  O263  1  0.83416591  0.79387406  0.94249930  1
  O2-  O264  1  0.41517244  0.04507982  0.06596338  1
  O2-  O265  1  0.41262071  0.04652986  0.39392216  1
  O2-  O266  1  0.42429380  0.04370491  0.73417998  1
  O2-  O267  1  0.41790857  0.54655781  0.06482039  1
  O2-  O268  1  0.41672090  0.54553295  0.39411493  1
  O2-  O269  1  0.41559065  0.54417540  0.73265508  1
  O2-  O270  1  0.91759759  0.05899079  0.06001637  1
  O2-  O271  1  0.92237175  0.05199930  0.40126774  1
  O2-  O272  1  0.91421862  0.05087299  0.72836579  1
  O2-  O273  1  0.91415837  0.53301919  0.06660998  1
  O2-  O274  1  0.91343446  0.53381008  0.40553948  1
  O2-  O275  1  0.91347518  0.54556368  0.73175061  1
  O2-  O276  1  0.29642192  0.16398293  0.06599778  1
  O2-  O277  1  0.29150367  0.16171618  0.39878604  1
  O2-  O278  1  0.29607456  0.16619741  0.73916932  1
  O2-  O279  1  0.29940668  0.66670894  0.06090749  1
  O2-  O280  1  0.29558341  0.66539747  0.39373205  1
  O2-  O281  1  0.29979251  0.66526711  0.72887589  1
  O2-  O282  1  0.78840265  0.16602664  0.06245627  1
  O2-  O283  1  0.78729029  0.17070979  0.40058495  1
  O2-  O284  1  0.78835370  0.16353417  0.72935756  1
  O2-  O285  1  0.79341061  0.66439081  0.07136745  1
  O2-  O286  1  0.79715121  0.66782836  0.40364947  1
  O2-  O287  1  0.79643646  0.66825812  0.73034199  1
