# generated using pymatgen
data_Ca2Al2SiO7
_symmetry_space_group_name_H-M   'P 1'
_cell_length_a   15.46322413
_cell_length_b   15.46187110
_cell_length_c   15.28749924
_cell_angle_alpha   89.99303665
_cell_angle_beta   90.01168210
_cell_angle_gamma   90.00686901
_symmetry_Int_Tables_number   1
_chemical_formula_structural   Ca2Al2SiO7
_chemical_formula_sum   'Ca48 Al48 Si24 O168'
_cell_volume   3655.09384586
_cell_formula_units_Z   24
loop_
 _symmetry_equiv_pos_site_id
 _symmetry_equiv_pos_as_xyz
  1  'x, y, z'
loop_
 _atom_type_symbol
 _atom_type_oxidation_number
  Ca2+  2.0
  Al0+  0.0
  Si0+  0.0
  O2-  -2.0
loop_
 _atom_site_type_symbol
 _atom_site_label
 _atom_site_symmetry_multiplicity
 _atom_site_fract_x
 _atom_site_fract_y
 _atom_site_fract_z
 _atom_site_occupancy
  Ca2+  Ca0  1  0.16556682  0.08089979  0.17826567  1
  Ca2+  Ca1  1  0.15706821  0.07279358  0.49853073  1
  Ca2+  Ca2  1  0.16086617  0.07804067  0.83748099  1
  Ca2+  Ca3  1  0.16109410  0.58750825  0.17247035  1
  Ca2+  Ca4  1  0.16881180  0.58848223  0.50842727  1
  Ca2+  Ca5  1  0.16910654  0.59449143  0.83286740  1
  Ca2+  Ca6  1  0.67790258  0.07490205  0.17645570  1
  Ca2+  Ca7  1  0.66674108  0.07704098  0.50049733  1
  Ca2+  Ca8  1  0.67498223  0.07030838  0.84210116  1
  Ca2+  Ca9  1  0.67240083  0.58073490  0.17004883  1
  Ca2+  Ca10  1  0.68317169  0.58011270  0.51021723  1
  Ca2+  Ca11  1  0.66556483  0.57738445  0.83687909  1
  Ca2+  Ca12  1  0.07321622  0.32177358  0.16625848  1
  Ca2+  Ca13  1  0.06930295  0.33062774  0.49170104  1
  Ca2+  Ca14  1  0.07468428  0.32529468  0.82713841  1
  Ca2+  Ca15  1  0.07935209  0.82732655  0.15952505  1
  Ca2+  Ca16  1  0.09034206  0.82547895  0.49617403  1
  Ca2+  Ca17  1  0.07474447  0.82923416  0.82900643  1
  Ca2+  Ca18  1  0.58914093  0.32687396  0.16532236  1
  Ca2+  Ca19  1  0.58452996  0.32974877  0.49579061  1
  Ca2+  Ca20  1  0.59031718  0.33717637  0.82824270  1
  Ca2+  Ca21  1  0.59021049  0.83192527  0.16035703  1
  Ca2+  Ca22  1  0.59155505  0.83201601  0.49760916  1
  Ca2+  Ca23  1  0.59267956  0.82379248  0.82827432  1
  Ca2+  Ca24  1  0.32872640  0.41973284  0.16962736  1
  Ca2+  Ca25  1  0.32857338  0.42293021  0.50669160  1
  Ca2+  Ca26  1  0.33378387  0.42590281  0.83468962  1
  Ca2+  Ca27  1  0.32387061  0.92229953  0.17773283  1
  Ca2+  Ca28  1  0.32182702  0.92105378  0.49966100  1
  Ca2+  Ca29  1  0.32523941  0.91214393  0.83173846  1
  Ca2+  Ca30  1  0.83489715  0.42226459  0.17141970  1
  Ca2+  Ca31  1  0.83783018  0.42240691  0.50609274  1
  Ca2+  Ca32  1  0.82890535  0.42039465  0.83170388  1
  Ca2+  Ca33  1  0.83034039  0.92087361  0.16903133  1
  Ca2+  Ca34  1  0.82561581  0.92236519  0.50124555  1
  Ca2+  Ca35  1  0.82728265  0.91490912  0.84144620  1
  Ca2+  Ca36  1  0.42349953  0.15843449  0.16896467  1
  Ca2+  Ca37  1  0.42273084  0.16185229  0.49115311  1
  Ca2+  Ca38  1  0.42069328  0.17041770  0.82957473  1
  Ca2+  Ca39  1  0.42536569  0.67292723  0.15939893  1
  Ca2+  Ca40  1  0.42332616  0.66420735  0.50132487  1
  Ca2+  Ca41  1  0.42901783  0.66416061  0.82643580  1
  Ca2+  Ca42  1  0.92149345  0.15658380  0.16420560  1
  Ca2+  Ca43  1  0.91277966  0.17902891  0.49069489  1
  Ca2+  Ca44  1  0.91389214  0.16859333  0.83201450  1
  Ca2+  Ca45  1  0.92201046  0.67293061  0.16279953  1
  Ca2+  Ca46  1  0.92382363  0.66055132  0.49368503  1
  Ca2+  Ca47  1  0.92194989  0.66843240  0.82789946  1
  Al0+  Al48  1  0.00077593  -0.00138501  -0.00536565  1
  Al0+  Al49  1  -0.00301005  -0.00118064  0.34033400  1
  Al0+  Al50  1  0.00023908  -0.00080087  0.67076718  1
  Al0+  Al51  1  0.00197222  0.49766747  -0.00352213  1
  Al0+  Al52  1  0.00107435  0.49945507  0.32767706  1
  Al0+  Al53  1  0.00085742  0.49820427  0.66450146  1
  Al0+  Al54  1  0.49838880  0.00055407  -0.00026371  1
  Al0+  Al55  1  0.49736727  -0.00081821  0.33569652  1
  Al0+  Al56  1  0.49886202  -0.00037596  0.67166577  1
  Al0+  Al57  1  0.49867751  0.50023276  0.00285429  1
  Al0+  Al58  1  0.49949850  0.50063670  0.33168930  1
  Al0+  Al59  1  0.49864015  0.50049896  0.66721426  1
  Al0+  Al60  1  0.24986779  0.25194838  -0.00461839  1
  Al0+  Al61  1  0.24995210  0.25282769  0.33444006  1
  Al0+  Al62  1  0.25123093  0.24938524  0.66557169  1
  Al0+  Al63  1  0.25274528  0.75066240  -0.00131480  1
  Al0+  Al64  1  0.25280277  0.74999435  0.33199051  1
  Al0+  Al65  1  0.25122484  0.75203164  0.67190048  1
  Al0+  Al66  1  0.75028135  0.25032429  0.00681151  1
  Al0+  Al67  1  0.74617531  0.25115453  0.32689325  1
  Al0+  Al68  1  0.74987864  0.25006680  0.66508097  1
  Al0+  Al69  1  0.75043521  0.74779063  -0.00402507  1
  Al0+  Al70  1  0.75194070  0.74665016  0.34000453  1
  Al0+  Al71  1  0.75205942  0.74989905  0.66791046  1
  Al0+  Al72  1  0.92904995  0.31866298  0.65344791  1
  Al0+  Al73  1  0.06931309  0.17735981  0.32084769  1
  Al0+  Al74  1  0.67791355  0.92610340  0.01467908  1
  Al0+  Al75  1  0.07281862  0.68125205  0.32049826  1
  Al0+  Al76  1  0.67853841  0.92929763  0.68155212  1
  Al0+  Al77  1  0.67839801  0.92771943  0.34842764  1
  Al0+  Al78  1  0.07060274  0.68188852  0.65281800  1
  Al0+  Al79  1  0.17885148  0.93044673  0.68290563  1
  Al0+  Al80  1  0.82088184  0.07399926  0.34975631  1
  Al0+  Al81  1  0.31965467  0.07357364  0.34752247  1
  Al0+  Al82  1  0.92925720  0.82012055  0.98507673  1
  Al0+  Al83  1  0.07323946  0.67724353  0.98371980  1
  Al0+  Al84  1  0.17660761  0.92736666  0.34655794  1
  Al0+  Al85  1  0.82229820  0.56771682  0.34561548  1
  Al0+  Al86  1  0.56840721  0.17791751  0.31929963  1
  Al0+  Al87  1  0.31962249  0.57066230  0.68060916  1
  Al0+  Al88  1  0.82514455  0.57110568  0.68275136  1
  Al0+  Al89  1  0.57206802  0.67880800  0.65112650  1
  Al0+  Al90  1  0.56994592  0.67878633  0.98737658  1
  Al0+  Al91  1  0.82261986  0.06974452  0.01500727  1
  Al0+  Al92  1  0.67949352  0.42894439  0.67935617  1
  Al0+  Al93  1  0.67772580  0.43044898  0.01587003  1
  Al0+  Al94  1  0.07141102  0.17914633  0.98580710  1
  Al0+  Al95  1  0.92627348  0.32193320  0.31609878  1
  Si0+  Si96  1  0.42738553  0.32541311  0.31565695  1
  Si0+  Si97  1  0.57238926  0.67889104  0.31927581  1
  Si0+  Si98  1  0.92726069  0.82414337  0.64732403  1
  Si0+  Si99  1  0.32253252  0.07349246  0.68561776  1
  Si0+  Si100  1  0.92559958  0.82078513  0.31925695  1
  Si0+  Si101  1  0.57137647  0.17948462  0.98487916  1
  Si0+  Si102  1  0.07367186  0.17632233  0.64945345  1
  Si0+  Si103  1  0.17974633  0.43087749  0.34765067  1
  Si0+  Si104  1  0.42924615  0.32118469  0.98425935  1
  Si0+  Si105  1  0.56894110  0.17849102  0.65371919  1
  Si0+  Si106  1  0.17923246  0.42738327  0.01521866  1
  Si0+  Si107  1  0.17837025  0.42593950  0.68365419  1
  Si0+  Si108  1  0.32034983  0.07496020  0.01417225  1
  Si0+  Si109  1  0.67509692  0.42909065  0.34914288  1
  Si0+  Si110  1  0.42781992  0.32173935  0.65143489  1
  Si0+  Si111  1  0.92609400  0.32192568  0.98186312  1
  Si0+  Si112  1  0.31968520  0.57080812  0.01668218  1
  Si0+  Si113  1  0.32253850  0.57168729  0.34769352  1
  Si0+  Si114  1  0.82064407  0.07275462  0.68289003  1
  Si0+  Si115  1  0.82493446  0.57064828  0.01634044  1
  Si0+  Si116  1  0.42977399  0.81959726  0.31892733  1
  Si0+  Si117  1  0.18156442  0.92986406  0.01435606  1
  Si0+  Si118  1  0.42884066  0.82282893  0.64887623  1
  Si0+  Si119  1  0.42827181  0.82417920  0.98227206  1
  O2-  O120  1  0.25040515  0.00320151  0.05616410  1
  O2-  O121  1  0.24293466  0.00595658  0.39592947  1
  O2-  O122  1  0.25073963  0.00856400  0.72997190  1
  O2-  O123  1  0.24419904  0.50441181  0.05860235  1
  O2-  O124  1  0.25023911  0.50260362  0.38976720  1
  O2-  O125  1  0.24415499  0.49714028  0.72884841  1
  O2-  O126  1  0.74927790  -0.00157080  0.06405864  1
  O2-  O127  1  0.74783397  0.00213372  0.39854493  1
  O2-  O128  1  0.75570932  0.00113654  0.72761849  1
  O2-  O129  1  0.75461401  0.50334840  0.06100700  1
  O2-  O130  1  0.74833154  0.49219855  0.39240616  1
  O2-  O131  1  0.74839601  0.50268699  0.73109191  1
  O2-  O132  1  -0.00735066  0.24300626  0.26802317  1
  O2-  O133  1  0.00456778  0.24449402  0.60687673  1
  O2-  O134  1  -0.00637501  0.25078552  0.93948849  1
  O2-  O135  1  0.00020928  0.75787574  0.27508596  1
  O2-  O136  1  -0.00492133  0.75397100  0.60359064  1
  O2-  O137  1  -0.00068584  0.74627434  0.93398798  1
  O2-  O138  1  0.49361084  0.25405588  0.27232077  1
  O2-  O139  1  0.49826080  0.25005699  0.61078227  1
  O2-  O140  1  0.50215451  0.25234620  0.94147457  1
  O2-  O141  1  0.50480043  0.75288419  0.27652160  1
  O2-  O142  1  0.50053436  0.75737853  0.60401011  1
  O2-  O143  1  0.50109854  0.75915279  0.94008364  1
  O2-  O144  1  0.07582761  0.18085309  0.09838325  1
  O2-  O145  1  0.07121577  0.18314414  0.43420908  1
  O2-  O146  1  0.07505588  0.17876646  0.75542864  1
  O2-  O147  1  0.07429498  0.68052894  0.09749298  1
  O2-  O148  1  0.07505148  0.68030144  0.43344739  1
  O2-  O149  1  0.07071997  0.68507975  0.76559985  1
  O2-  O150  1  0.56674913  0.17862650  0.08955018  1
  O2-  O151  1  0.56591446  0.17962898  0.43293887  1
  O2-  O152  1  0.56649531  0.17960192  0.75910698  1
  O2-  O153  1  0.56561971  0.67751322  0.10106980  1
  O2-  O154  1  0.56917530  0.67642040  0.42404392  1
  O2-  O155  1  0.56803599  0.67737499  0.76431040  1
  O2-  O156  1  0.18255192  0.43120741  0.24220814  1
  O2-  O157  1  0.18239818  0.42428901  0.57794346  1
  O2-  O158  1  0.18408883  0.42354081  0.91049635  1
  O2-  O159  1  0.18150235  0.92405891  0.23262532  1
  O2-  O160  1  0.18143111  0.92996550  0.57013984  1
  O2-  O161  1  0.18485656  0.92978389  0.90925420  1
  O2-  O162  1  0.67013782  0.43493712  0.24359705  1
  O2-  O163  1  0.67968782  0.42737524  0.56594562  1
  O2-  O164  1  0.67604558  0.43169675  0.90301996  1
  O2-  O165  1  0.67944929  0.92638840  0.23506225  1
  O2-  O166  1  0.67659281  0.93381841  0.56877524  1
  O2-  O167  1  0.67717305  0.92948107  0.90105011  1
  O2-  O168  1  0.42607555  0.32086748  0.08904418  1
  O2-  O169  1  0.42949609  0.33112586  0.42109782  1
  O2-  O170  1  0.42555840  0.32069374  0.75676938  1
  O2-  O171  1  0.42343687  0.82173859  0.08798091  1
  O2-  O172  1  0.42606667  0.81560828  0.42361392  1
  O2-  O173  1  0.42869096  0.82158155  0.75469853  1
  O2-  O174  1  0.92910890  0.32573239  0.08696370  1
  O2-  O175  1  0.93095065  0.32448969  0.42974102  1
  O2-  O176  1  0.92939628  0.31560301  0.76687225  1
  O2-  O177  1  0.93247779  0.82078936  0.09909639  1
  O2-  O178  1  0.92293344  0.81644871  0.42457841  1
  O2-  O179  1  0.92959114  0.82597861  0.75289690  1
  O2-  O180  1  0.32061354  0.06908176  0.23332037  1
  O2-  O181  1  0.32561198  0.07372237  0.58068502  1
  O2-  O182  1  0.32062967  0.07612922  0.90899355  1
  O2-  O183  1  0.32456704  0.57019593  0.24233401  1
  O2-  O184  1  0.31953358  0.56775634  0.56706464  1
  O2-  O185  1  0.32199678  0.56811958  0.91187185  1
  O2-  O186  1  0.82102378  0.06996644  0.23642513  1
  O2-  O187  1  0.81762263  0.07454657  0.57763693  1
  O2-  O188  1  0.81852709  0.07146683  0.90102465  1
  O2-  O189  1  0.81935112  0.57014515  0.23226090  1
  O2-  O190  1  0.82604724  0.56766448  0.56894932  1
  O2-  O191  1  0.82593411  0.56814205  0.91108931  1
  O2-  O192  1  0.04719260  0.07533100  0.27166289  1
  O2-  O193  1  0.04865303  0.08153934  0.60694561  1
  O2-  O194  1  0.04414345  0.08275497  0.93052594  1
  O2-  O195  1  0.04228569  0.58542486  0.26534711  1
  O2-  O196  1  0.04691834  0.58193662  0.60191907  1
  O2-  O197  1  0.05192055  0.57609448  0.93327515  1
  O2-  O198  1  0.53394750  0.08206989  0.26508952  1
  O2-  O199  1  0.53814597  0.08733615  0.60690001  1
  O2-  O200  1  0.54032466  0.08884022  0.93604422  1
  O2-  O201  1  0.53966717  0.58893639  0.27029975  1
  O2-  O202  1  0.53431173  0.58385358  0.59758367  1
  O2-  O203  1  0.53051656  0.58434679  0.93408407  1
  O2-  O204  1  0.16796224  0.21053020  0.26889817  1
  O2-  O205  1  0.16844241  0.20043633  0.60501230  1
  O2-  O206  1  0.16644022  0.21399193  0.92931741  1
  O2-  O207  1  0.17102367  0.70788197  0.26607169  1
  O2-  O208  1  0.16912196  0.71391075  0.60210161  1
  O2-  O209  1  0.17265423  0.70759485  0.93360634  1
  O2-  O210  1  0.66255343  0.20823979  0.26103545  1
  O2-  O211  1  0.66008651  0.20545419  0.60579392  1
  O2-  O212  1  0.66396160  0.20682247  0.93969592  1
  O2-  O213  1  0.66539062  0.70362054  0.27350601  1
  O2-  O214  1  0.67040987  0.70660677  0.59930383  1
  O2-  O215  1  0.66765180  0.70075238  0.93309663  1
  O2-  O216  1  0.08569460  0.44915034  0.06148985  1
  O2-  O217  1  0.08851151  0.45914361  0.39426443  1
  O2-  O218  1  0.08445679  0.44790969  0.72857684  1
  O2-  O219  1  0.08881671  0.95517471  0.05882356  1
  O2-  O220  1  0.07803336  0.94739063  0.40192047  1
  O2-  O221  1  0.08228588  0.95929871  0.73853511  1
  O2-  O222  1  0.58075814  0.46101975  0.07019319  1
  O2-  O223  1  0.58245075  0.45805932  0.39640699  1
  O2-  O224  1  0.57937564  0.45359698  0.73103692  1
  O2-  O225  1  0.57694725  0.95337101  0.06423961  1
  O2-  O226  1  0.57869975  0.95335764  0.39964518  1
  O2-  O227  1  0.58208021  0.96023001  0.73635847  1
  O2-  O228  1  0.21552059  0.33892534  0.06425576  1
  O2-  O229  1  0.20837836  0.34105943  0.39787291  1
  O2-  O230  1  0.20804099  0.33324913  0.73058545  1
  O2-  O231  1  0.21269514  0.83875110  0.06174648  1
  O2-  O232  1  0.21636649  0.83215875  0.40020019  1
  O2-  O233  1  0.21489742  0.83702457  0.73917000  1
  O2-  O234  1  0.70551163  0.33342492  0.06988219  1
  O2-  O235  1  0.69240880  0.33240808  0.38991884  1
  O2-  O236  1  0.70831210  0.33041489  0.73328200  1
  O2-  O237  1  0.70431765  0.82593941  0.06481918  1
  O2-  O238  1  0.70832283  0.83009401  0.40221750  1
  O2-  O239  1  0.70740908  0.83175786  0.73316223  1
  O2-  O240  1  0.45538347  0.41762342  0.26587278  1
  O2-  O241  1  0.45461732  0.41271864  0.60269289  1
  O2-  O242  1  0.45575556  0.41363670  0.93766246  1
  O2-  O243  1  0.45151993  0.91259913  0.27178193  1
  O2-  O244  1  0.45064734  0.91863655  0.60560350  1
  O2-  O245  1  0.44635087  0.91964154  0.93653188  1
  O2-  O246  1  0.96510888  0.41568234  0.25984598  1
  O2-  O247  1  0.96161445  0.41400814  0.59839515  1
  O2-  O248  1  0.95553315  0.41345558  0.93374830  1
  O2-  O249  1  0.94488979  0.91682808  0.27690037  1
  O2-  O250  1  0.95453159  0.91848231  0.60314341  1
  O2-  O251  1  0.96006231  0.91614509  0.92845477  1
  O2-  O252  1  0.33276754  0.30363455  0.27028664  1
  O2-  O253  1  0.33612235  0.29489911  0.60238672  1
  O2-  O254  1  0.33960139  0.29180414  0.93313026  1
  O2-  O255  1  0.34167272  0.78656955  0.26651634  1
  O2-  O256  1  0.33656280  0.79274707  0.60338500  1
  O2-  O257  1  0.33747427  0.79259803  0.93375699  1
  O2-  O258  1  0.82471613  0.30555761  0.26625372  1
  O2-  O259  1  0.83282593  0.28836072  0.59792917  1
  O2-  O260  1  0.83130416  0.29688691  0.93806556  1
  O2-  O261  1  0.83512158  0.78724657  0.27081741  1
  O2-  O262  1  0.83297981  0.80128469  0.60260126  1
  O2-  O263  1  0.83091470  0.79387876  0.93130247  1
  O2-  O264  1  0.41253156  0.04756170  0.06091730  1
  O2-  O265  1  0.41448192  0.03854881  0.40317374  1
  O2-  O266  1  0.41386145  0.04516818  0.73543026  1
  O2-  O267  1  0.40821476  0.53739686  0.06707678  1
  O2-  O268  1  0.41344963  0.54153020  0.39593946  1
  O2-  O269  1  0.41397016  0.53552938  0.73625578  1
  O2-  O270  1  0.92210346  0.03985760  0.06505579  1
  O2-  O271  1  0.91812432  0.04821544  0.40585359  1
  O2-  O272  1  0.91594981  0.05189014  0.72738480  1
  O2-  O273  1  0.91879227  0.54308491  0.06204823  1
  O2-  O274  1  0.91985708  0.53722159  0.39764287  1
  O2-  O275  1  0.92193857  0.53778942  0.73610761  1
  O2-  O276  1  0.29375317  0.16731669  0.06046587  1
  O2-  O277  1  0.30211113  0.17544483  0.39803612  1
  O2-  O278  1  0.30068090  0.16902718  0.73067528  1
  O2-  O279  1  0.29726518  0.66459737  0.06324346  1
  O2-  O280  1  0.29724125  0.66333376  0.39505879  1
  O2-  O281  1  0.29218666  0.66671738  0.73637491  1
  O2-  O282  1  0.79664675  0.16840903  0.06792765  1
  O2-  O283  1  0.78947370  0.17390065  0.39822522  1
  O2-  O284  1  0.79090686  0.16434317  0.73035300  1
  O2-  O285  1  0.79936888  0.66451635  0.06087644  1
  O2-  O286  1  0.79098474  0.66156165  0.40357591  1
  O2-  O287  1  0.80169187  0.67129837  0.73244091  1
