# generated using pymatgen
data_Ca2Al2SiO7
_symmetry_space_group_name_H-M   'P 1'
_cell_length_a   15.46123474
_cell_length_b   15.46009391
_cell_length_c   15.28446458
_cell_angle_alpha   90.00628454
_cell_angle_beta   90.00744106
_cell_angle_gamma   90.00689184
_symmetry_Int_Tables_number   1
_chemical_formula_structural   Ca2Al2SiO7
_chemical_formula_sum   'Ca48 Al48 Si24 O168'
_cell_volume   3653.47821586
_cell_formula_units_Z   24
loop_
 _symmetry_equiv_pos_site_id
 _symmetry_equiv_pos_as_xyz
  1  'x, y, z'
loop_
 _atom_type_symbol
 _atom_type_oxidation_number
  Ca2+  2.0
  Al0+  0.0
  Si0+  0.0
  O2-  -2.0
loop_
 _atom_site_type_symbol
 _atom_site_label
 _atom_site_symmetry_multiplicity
 _atom_site_fract_x
 _atom_site_fract_y
 _atom_site_fract_z
 _atom_site_occupancy
  Ca2+  Ca0  1  0.16233765  0.07698430  0.17130531  1
  Ca2+  Ca1  1  0.16207074  0.07928136  0.49877320  1
  Ca2+  Ca2  1  0.17346016  0.07534463  0.84840686  1
  Ca2+  Ca3  1  0.15826870  0.57485736  0.17282970  1
  Ca2+  Ca4  1  0.15968057  0.57263860  0.49761106  1
  Ca2+  Ca5  1  0.15895934  0.57274167  0.83945251  1
  Ca2+  Ca6  1  0.65804591  0.07833994  0.17096735  1
  Ca2+  Ca7  1  0.67020310  0.08391325  0.49951722  1
  Ca2+  Ca8  1  0.67261919  0.07923942  0.84058464  1
  Ca2+  Ca9  1  0.68104257  0.57908667  0.17667923  1
  Ca2+  Ca10  1  0.67630818  0.57852247  0.50027592  1
  Ca2+  Ca11  1  0.67971355  0.58909460  0.83855058  1
  Ca2+  Ca12  1  0.08545519  0.32896893  0.16432481  1
  Ca2+  Ca13  1  0.08068724  0.33034183  0.48734090  1
  Ca2+  Ca14  1  0.09031259  0.33041556  0.83449662  1
  Ca2+  Ca15  1  0.09081329  0.82270324  0.16223225  1
  Ca2+  Ca16  1  0.07525022  0.82836246  0.48922392  1
  Ca2+  Ca17  1  0.08181875  0.82730895  0.82942515  1
  Ca2+  Ca18  1  0.58581827  0.32562396  0.16423159  1
  Ca2+  Ca19  1  0.57963450  0.32968360  0.48355770  1
  Ca2+  Ca20  1  0.58418529  0.32637248  0.83202249  1
  Ca2+  Ca21  1  0.57921461  0.84433781  0.16472309  1
  Ca2+  Ca22  1  0.57264121  0.83845583  0.49217559  1
  Ca2+  Ca23  1  0.57887642  0.83791809  0.83003964  1
  Ca2+  Ca24  1  0.32416954  0.41199241  0.17278952  1
  Ca2+  Ca25  1  0.32154825  0.40688390  0.50033510  1
  Ca2+  Ca26  1  0.32129110  0.41734051  0.83879435  1
  Ca2+  Ca27  1  0.32499379  0.92216884  0.17144328  1
  Ca2+  Ca28  1  0.32927194  0.90994579  0.49782921  1
  Ca2+  Ca29  1  0.32952932  0.91994663  0.84281868  1
  Ca2+  Ca30  1  0.83590892  0.42489875  0.17586812  1
  Ca2+  Ca31  1  0.83992984  0.42636132  0.49762495  1
  Ca2+  Ca32  1  0.83713763  0.43080602  0.83817162  1
  Ca2+  Ca33  1  0.81952489  0.91657317  0.17303667  1
  Ca2+  Ca34  1  0.83047156  0.92163976  0.50576264  1
  Ca2+  Ca35  1  0.83252760  0.91914581  0.83682256  1
  Ca2+  Ca36  1  0.42336658  0.16750070  0.16559276  1
  Ca2+  Ca37  1  0.42511294  0.17324017  0.48784151  1
  Ca2+  Ca38  1  0.42047715  0.15977223  0.83642589  1
  Ca2+  Ca39  1  0.41526101  0.67376800  0.16653490  1
  Ca2+  Ca40  1  0.41486635  0.67769945  0.49300516  1
  Ca2+  Ca41  1  0.41966423  0.67511935  0.82642986  1
  Ca2+  Ca42  1  0.92637708  0.17320443  0.16551502  1
  Ca2+  Ca43  1  0.91954092  0.17374167  0.48929925  1
  Ca2+  Ca44  1  0.92444596  0.16157590  0.82940003  1
  Ca2+  Ca45  1  0.92447900  0.65908653  0.16390001  1
  Ca2+  Ca46  1  0.91662294  0.66588543  0.49623640  1
  Ca2+  Ca47  1  0.91667990  0.66948297  0.83143182  1
  Al0+  Al48  1  -0.00136032  0.00044609  0.00035232  1
  Al0+  Al49  1  -0.00126603  -0.00155479  0.33338767  1
  Al0+  Al50  1  0.00019599  -0.00197340  0.66680510  1
  Al0+  Al51  1  0.00065427  0.50117528  0.00204267  1
  Al0+  Al52  1  0.00118054  0.50079857  0.33525879  1
  Al0+  Al53  1  -0.00093127  0.49773898  0.67565678  1
  Al0+  Al54  1  0.49982787  0.00206100  0.00093632  1
  Al0+  Al55  1  0.49806090  0.00048137  0.33121745  1
  Al0+  Al56  1  0.49916203  0.00028931  0.66116470  1
  Al0+  Al57  1  0.50011661  0.50093210  -0.00393541  1
  Al0+  Al58  1  0.49957836  0.50303125  0.33267039  1
  Al0+  Al59  1  0.49858325  0.49858730  0.66693935  1
  Al0+  Al60  1  0.25091040  0.25069746  0.00231496  1
  Al0+  Al61  1  0.25228047  0.24774496  0.33110369  1
  Al0+  Al62  1  0.25102562  0.24753619  0.67160748  1
  Al0+  Al63  1  0.24986491  0.74862158  -0.00454838  1
  Al0+  Al64  1  0.24920702  0.75089728  0.32974644  1
  Al0+  Al65  1  0.25037771  0.74704164  0.66228394  1
  Al0+  Al66  1  0.74971769  0.25153507  -0.00794396  1
  Al0+  Al67  1  0.75085149  0.25033311  0.32702333  1
  Al0+  Al68  1  0.75211660  0.24868037  0.67087707  1
  Al0+  Al69  1  0.75023046  0.75074627  0.00860664  1
  Al0+  Al70  1  0.74844639  0.75165413  0.34382929  1
  Al0+  Al71  1  0.74933802  0.74942611  0.66632231  1
  Al0+  Al72  1  0.82238409  0.07110888  0.68031465  1
  Al0+  Al73  1  0.67638774  0.93126714  0.34958432  1
  Al0+  Al74  1  0.18033998  0.42838540  0.68138951  1
  Al0+  Al75  1  0.57221837  0.18014604  0.31822119  1
  Al0+  Al76  1  0.57039800  0.17905015  0.98308467  1
  Al0+  Al77  1  0.17790073  0.92766100  0.34791728  1
  Al0+  Al78  1  0.18205880  0.42774768  0.34614323  1
  Al0+  Al79  1  0.42913271  0.82078921  0.65227036  1
  Al0+  Al80  1  0.32158812  0.07095963  0.01642990  1
  Al0+  Al81  1  0.92919185  0.82118440  0.65316992  1
  Al0+  Al82  1  0.67777426  0.42741303  0.34584491  1
  Al0+  Al83  1  0.42819743  0.32500423  0.31841971  1
  Al0+  Al84  1  0.82292168  0.57083279  0.35047400  1
  Al0+  Al85  1  0.93030482  0.32263769  0.31888232  1
  Al0+  Al86  1  0.07116119  0.17851423  0.98521601  1
  Al0+  Al87  1  0.68085071  0.93173212  0.01237010  1
  Al0+  Al88  1  0.06821573  0.68111251  0.32115117  1
  Al0+  Al89  1  0.07046074  0.67927611  0.98467694  1
  Al0+  Al90  1  0.18106322  0.43119813  0.01576232  1
  Al0+  Al91  1  0.42938319  0.82052753  0.31653873  1
  Al0+  Al92  1  0.81856136  0.57083791  0.68301766  1
  Al0+  Al93  1  0.81986317  0.57043090  0.01521678  1
  Al0+  Al94  1  0.07209493  0.17621622  0.31932559  1
  Al0+  Al95  1  0.17693533  0.92690962  0.01412748  1
  Si0+  Si96  1  0.57379496  0.67945566  0.31657218  1
  Si0+  Si97  1  0.67651776  0.93042418  0.68212842  1
  Si0+  Si98  1  0.82303815  0.07576226  0.01688177  1
  Si0+  Si99  1  0.67510076  0.42657456  0.68405826  1
  Si0+  Si100  1  0.07273657  0.17862385  0.65331625  1
  Si0+  Si101  1  0.32542635  0.57316335  0.01550670  1
  Si0+  Si102  1  0.43068045  0.82033324  0.98492812  1
  Si0+  Si103  1  0.82244481  0.07182522  0.34817207  1
  Si0+  Si104  1  0.42790372  0.31967834  0.65323046  1
  Si0+  Si105  1  0.92934911  0.32254584  0.98051648  1
  Si0+  Si106  1  0.57249223  0.67611565  0.64966386  1
  Si0+  Si107  1  0.93011208  0.32051817  0.65359971  1
  Si0+  Si108  1  0.92420402  0.82279757  0.31706022  1
  Si0+  Si109  1  0.42788431  0.32398279  0.98048439  1
  Si0+  Si110  1  0.32070372  0.07017388  0.35207569  1
  Si0+  Si111  1  0.32196780  0.57436356  0.34939478  1
  Si0+  Si112  1  0.57320655  0.67899827  0.98625820  1
  Si0+  Si113  1  0.92493781  0.82145217  0.98564186  1
  Si0+  Si114  1  0.67645068  0.42733674  0.01430868  1
  Si0+  Si115  1  0.32110494  0.06908574  0.68091019  1
  Si0+  Si116  1  0.32319391  0.57319435  0.68339841  1
  Si0+  Si117  1  0.07009404  0.67519198  0.65007483  1
  Si0+  Si118  1  0.57212491  0.18042573  0.65161274  1
  Si0+  Si119  1  0.17928097  0.92659624  0.67998689  1
  O2-  O120  1  0.24482912  0.00279982  0.06417754  1
  O2-  O121  1  0.24958293  0.00418045  0.39725918  1
  O2-  O122  1  0.25190540  -0.00410504  0.72218903  1
  O2-  O123  1  0.25716866  0.50530709  0.06019624  1
  O2-  O124  1  0.25903795  0.50020996  0.39395503  1
  O2-  O125  1  0.25419059  0.50489094  0.72733886  1
  O2-  O126  1  0.75384237  0.00745200  0.06011958  1
  O2-  O127  1  0.75265785  0.00493661  0.39433748  1
  O2-  O128  1  0.74776587  -0.00418336  0.72699018  1
  O2-  O129  1  0.74551226  0.49446028  0.05860380  1
  O2-  O130  1  0.75046313  0.49732732  0.39846286  1
  O2-  O131  1  0.74115671  0.49766535  0.72884078  1
  O2-  O132  1  0.00348726  0.25143423  0.26975552  1
  O2-  O133  1  0.00086377  0.24887758  0.61179975  1
  O2-  O134  1  -0.00452982  0.25123771  0.93532340  1
  O2-  O135  1  -0.00745491  0.75425597  0.27315821  1
  O2-  O136  1  0.00344878  0.74593863  0.60649737  1
  O2-  O137  1  -0.00198204  0.75759829  0.94010682  1
  O2-  O138  1  0.50457493  0.25717403  0.26961480  1
  O2-  O139  1  0.50449005  0.25509201  0.61077961  1
  O2-  O140  1  0.49666662  0.25495169  0.93569617  1
  O2-  O141  1  0.50637075  0.74819797  0.26994784  1
  O2-  O142  1  0.50306793  0.74465804  0.60637697  1
  O2-  O143  1  0.50136404  0.74873504  0.94239478  1
  O2-  O144  1  0.06929690  0.17929334  0.09743219  1
  O2-  O145  1  0.06923270  0.17703125  0.43417858  1
  O2-  O146  1  0.07352018  0.17921939  0.75844413  1
  O2-  O147  1  0.06981384  0.67804015  0.09726848  1
  O2-  O148  1  0.06759555  0.68146181  0.43485389  1
  O2-  O149  1  0.06994851  0.67685147  0.75591522  1
  O2-  O150  1  0.56973176  0.17971133  0.09514879  1
  O2-  O151  1  0.56963063  0.17934161  0.43297092  1
  O2-  O152  1  0.56967687  0.17845829  0.75675140  1
  O2-  O153  1  0.57183717  0.67797383  0.09061759  1
  O2-  O154  1  0.57122345  0.68046444  0.42248238  1
  O2-  O155  1  0.57177479  0.67759882  0.75591753  1
  O2-  O156  1  0.18148025  0.43004695  0.23353068  1
  O2-  O157  1  0.18077032  0.42637082  0.56861194  1
  O2-  O158  1  0.18233559  0.43217364  0.90189432  1
  O2-  O159  1  0.18051646  0.92650798  0.23543332  1
  O2-  O160  1  0.17888388  0.92832941  0.57510955  1
  O2-  O161  1  0.18112100  0.92585465  0.89918767  1
  O2-  O162  1  0.67893572  0.43066748  0.23220390  1
  O2-  O163  1  0.67398334  0.42572711  0.57908069  1
  O2-  O164  1  0.67654322  0.42946570  0.90804839  1
  O2-  O165  1  0.67736879  0.93211656  0.23636126  1
  O2-  O166  1  0.67464007  0.93430500  0.57696758  1
  O2-  O167  1  0.68119714  0.93097967  0.89860225  1
  O2-  O168  1  0.43034143  0.32798048  0.08518974  1
  O2-  O169  1  0.42715759  0.31944094  0.43324112  1
  O2-  O170  1  0.42705003  0.31720687  0.75824121  1
  O2-  O171  1  0.43101652  0.81931966  0.08948555  1
  O2-  O172  1  0.42962893  0.81846700  0.43009075  1
  O2-  O173  1  0.43107855  0.82154352  0.76596393  1
  O2-  O174  1  0.92920998  0.32212641  0.08558397  1
  O2-  O175  1  0.93188767  0.32109067  0.43360695  1
  O2-  O176  1  0.93055639  0.32060283  0.75864981  1
  O2-  O177  1  0.92100818  0.81829463  0.09068007  1
  O2-  O178  1  0.92652529  0.82380160  0.42317952  1
  O2-  O179  1  0.93162165  0.82202888  0.76655183  1
  O2-  O180  1  0.32229447  0.06799291  0.24697544  1
  O2-  O181  1  0.32056424  0.07250617  0.57636188  1
  O2-  O182  1  0.32252669  0.06521787  0.90133913  1
  O2-  O183  1  0.31936690  0.57710605  0.24389433  1
  O2-  O184  1  0.32513089  0.57423835  0.57837378  1
  O2-  O185  1  0.32742350  0.57210172  0.90944656  1
  O2-  O186  1  0.82391793  0.06878371  0.24281704  1
  O2-  O187  1  0.82028526  0.07346318  0.56759749  1
  O2-  O188  1  0.82236813  0.07299534  0.91057205  1
  O2-  O189  1  0.82195502  0.57070859  0.23701757  1
  O2-  O190  1  0.82032943  0.56805552  0.57075018  1
  O2-  O191  1  0.81753184  0.57186510  0.90149621  1
  O2-  O192  1  0.04062764  0.07872126  0.26635790  1
  O2-  O193  1  0.04640422  0.08602263  0.60739498  1
  O2-  O194  1  0.04149613  0.08069952  0.93019705  1
  O2-  O195  1  0.03859857  0.58477161  0.26747859  1
  O2-  O196  1  0.04081675  0.58116756  0.60726565  1
  O2-  O197  1  0.03545069  0.58385594  0.93005209  1
  O2-  O198  1  0.53650637  0.08419934  0.26560433  1
  O2-  O199  1  0.54117923  0.09031964  0.60308622  1
  O2-  O200  1  0.53658680  0.08316560  0.92769248  1
  O2-  O201  1  0.54885210  0.58661722  0.26928886  1
  O2-  O202  1  0.54758527  0.58144238  0.60518844  1
  O2-  O203  1  0.54770774  0.58774943  0.93511567  1
  O2-  O204  1  0.17160835  0.19939398  0.26888702  1
  O2-  O205  1  0.16496984  0.20663483  0.60683273  1
  O2-  O206  1  0.16889437  0.20987941  0.93206970  1
  O2-  O207  1  0.16373172  0.71196682  0.26604185  1
  O2-  O208  1  0.16522231  0.69609194  0.60550731  1
  O2-  O209  1  0.16811798  0.70558517  0.92829905  1
  O2-  O210  1  0.67106428  0.20048092  0.26363690  1
  O2-  O211  1  0.66595616  0.20472019  0.60709168  1
  O2-  O212  1  0.66695017  0.20877074  0.92606484  1
  O2-  O213  1  0.66850568  0.70560333  0.27393878  1
  O2-  O214  1  0.66559842  0.70099775  0.60356038  1
  O2-  O215  1  0.66415324  0.71084479  0.93899189  1
  O2-  O216  1  0.08489622  0.46300459  0.06772787  1
  O2-  O217  1  0.08711529  0.46170271  0.40144330  1
  O2-  O218  1  0.08485253  0.45745142  0.73823233  1
  O2-  O219  1  0.07636817  0.94961033  0.06408961  1
  O2-  O220  1  0.08005787  0.95600408  0.40181153  1
  O2-  O221  1  0.08861766  0.95514393  0.72845829  1
  O2-  O222  1  0.58228743  0.45271580  0.05804721  1
  O2-  O223  1  0.57908515  0.45713067  0.39968384  1
  O2-  O224  1  0.57990804  0.44810506  0.73015261  1
  O2-  O225  1  0.58444364  0.96239356  0.06516266  1
  O2-  O226  1  0.57977293  0.96345837  0.40272667  1
  O2-  O227  1  0.58357071  0.95996199  0.72853913  1
  O2-  O228  1  0.21060673  0.33434785  0.06778088  1
  O2-  O229  1  0.21133386  0.33014431  0.40037587  1
  O2-  O230  1  0.21463186  0.33262532  0.73655838  1
  O2-  O231  1  0.21002177  0.82866314  0.06394131  1
  O2-  O232  1  0.21306069  0.83252079  0.40256591  1
  O2-  O233  1  0.20552338  0.83300494  0.72504323  1
  O2-  O234  1  0.70054678  0.33217829  0.05654246  1
  O2-  O235  1  0.70279351  0.32697036  0.39663550  1
  O2-  O236  1  0.70386826  0.33401354  0.73106250  1
  O2-  O237  1  0.70932696  0.83662414  0.06973532  1
  O2-  O238  1  0.70381766  0.83544233  0.40638955  1
  O2-  O239  1  0.69716519  0.83459429  0.72524811  1
  O2-  O240  1  0.44731655  0.42637023  0.26820036  1
  O2-  O241  1  0.44706066  0.41439841  0.60804126  1
  O2-  O242  1  0.45368810  0.41735938  0.93126871  1
  O2-  O243  1  0.45937626  0.91687988  0.26350095  1
  O2-  O244  1  0.45956290  0.91675482  0.59647568  1
  O2-  O245  1  0.46073129  0.91126394  0.93709295  1
  O2-  O246  1  0.95913110  0.42042751  0.26687298  1
  O2-  O247  1  0.95924743  0.41248976  0.60769272  1
  O2-  O248  1  0.96005179  0.41498734  0.93453824  1
  O2-  O249  1  0.94799053  0.91609623  0.27094550  1
  O2-  O250  1  0.96055149  0.91727817  0.59765749  1
  O2-  O251  1  0.94421911  0.91732143  0.94111727  1
  O2-  O252  1  0.33305312  0.29044804  0.26403257  1
  O2-  O253  1  0.33813826  0.28504175  0.60563649  1
  O2-  O254  1  0.33474510  0.29686592  0.93428676  1
  O2-  O255  1  0.33445814  0.78715775  0.26219434  1
  O2-  O256  1  0.33252510  0.78990168  0.59751022  1
  O2-  O257  1  0.34004604  0.79233484  0.93484262  1
  O2-  O258  1  0.83326889  0.29537317  0.26353805  1
  O2-  O259  1  0.83755296  0.29334943  0.60738258  1
  O2-  O260  1  0.83465981  0.30227678  0.93311040  1
  O2-  O261  1  0.82888806  0.79796874  0.27495302  1
  O2-  O262  1  0.83081905  0.79356337  0.60114320  1
  O2-  O263  1  0.83310128  0.79017839  0.93746356  1
  O2-  O264  1  0.41771468  0.03822802  0.06927741  1
  O2-  O265  1  0.41265686  0.04070232  0.39962221  1
  O2-  O266  1  0.41387614  0.04145455  0.72730791  1
  O2-  O267  1  0.41986040  0.54962346  0.06113506  1
  O2-  O268  1  0.41784469  0.55762661  0.39425833  1
  O2-  O269  1  0.41704979  0.54826531  0.73078224  1
  O2-  O270  1  0.91626516  0.05156258  0.06276744  1
  O2-  O271  1  0.91440704  0.04489951  0.39738261  1
  O2-  O272  1  0.91883044  0.03896072  0.73503584  1
  O2-  O273  1  0.91576665  0.53835442  0.06739747  1
  O2-  O274  1  0.91985453  0.54051401  0.40549504  1
  O2-  O275  1  0.91348274  0.53748198  0.73902753  1
  O2-  O276  1  0.30164498  0.17183581  0.06491666  1
  O2-  O277  1  0.29809849  0.16426330  0.39866783  1
  O2-  O278  1  0.29280941  0.15887538  0.73212296  1
  O2-  O279  1  0.30059142  0.66737389  0.05919623  1
  O2-  O280  1  0.28931051  0.66498640  0.39771714  1
  O2-  O281  1  0.29797173  0.66709522  0.73035877  1
  O2-  O282  1  0.79741563  0.17093403  0.05798873  1
  O2-  O283  1  0.79813014  0.16635227  0.39278707  1
  O2-  O284  1  0.79273041  0.16668934  0.73766186  1
  O2-  O285  1  0.78828427  0.66485152  0.07111151  1
  O2-  O286  1  0.79350543  0.66824136  0.40526496  1
  O2-  O287  1  0.78822089  0.66840008  0.73687456  1
