# generated using pymatgen
data_Ca2Al2SiO7
_symmetry_space_group_name_H-M   'P 1'
_cell_length_a   15.45300580
_cell_length_b   15.45273346
_cell_length_c   15.27975543
_cell_angle_alpha   89.99968329
_cell_angle_beta   90.00401300
_cell_angle_gamma   89.99664031
_symmetry_Int_Tables_number   1
_chemical_formula_structural   Ca2Al2SiO7
_chemical_formula_sum   'Ca48 Al48 Si24 O168'
_cell_volume   3648.67081255
_cell_formula_units_Z   24
loop_
 _symmetry_equiv_pos_site_id
 _symmetry_equiv_pos_as_xyz
  1  'x, y, z'
loop_
 _atom_type_symbol
 _atom_type_oxidation_number
  Ca2+  2.0
  Al0+  0.0
  Si0+  0.0
  O2-  -2.0
loop_
 _atom_site_type_symbol
 _atom_site_label
 _atom_site_symmetry_multiplicity
 _atom_site_fract_x
 _atom_site_fract_y
 _atom_site_fract_z
 _atom_site_occupancy
  Ca2+  Ca0  1  0.17583729  0.08660936  0.16669422  1
  Ca2+  Ca1  1  0.16324368  0.07752451  0.51057608  1
  Ca2+  Ca2  1  0.16728080  0.08150336  0.83630279  1
  Ca2+  Ca3  1  0.15735259  0.58089817  0.16799299  1
  Ca2+  Ca4  1  0.17205903  0.58019075  0.50979180  1
  Ca2+  Ca5  1  0.16630693  0.57348074  0.83663069  1
  Ca2+  Ca6  1  0.66857730  0.07164428  0.17572154  1
  Ca2+  Ca7  1  0.67510032  0.09003282  0.50289132  1
  Ca2+  Ca8  1  0.67167966  0.08427313  0.83689045  1
  Ca2+  Ca9  1  0.67535327  0.58368336  0.17670537  1
  Ca2+  Ca10  1  0.66956445  0.58143373  0.50691564  1
  Ca2+  Ca11  1  0.66317402  0.57864251  0.83175419  1
  Ca2+  Ca12  1  0.07145784  0.33701219  0.15885462  1
  Ca2+  Ca13  1  0.07536124  0.33344812  0.49993096  1
  Ca2+  Ca14  1  0.07661007  0.33343733  0.82687794  1
  Ca2+  Ca15  1  0.07527184  0.82038795  0.15819300  1
  Ca2+  Ca16  1  0.08384875  0.82913755  0.49470909  1
  Ca2+  Ca17  1  0.08284169  0.83339098  0.83029799  1
  Ca2+  Ca18  1  0.57828010  0.32425781  0.16243802  1
  Ca2+  Ca19  1  0.59443875  0.32325299  0.50042017  1
  Ca2+  Ca20  1  0.57827802  0.33091305  0.82385827  1
  Ca2+  Ca21  1  0.58873006  0.83220867  0.16108257  1
  Ca2+  Ca22  1  0.58734853  0.82282480  0.49472596  1
  Ca2+  Ca23  1  0.57976013  0.83204168  0.83115684  1
  Ca2+  Ca24  1  0.32650594  0.41187547  0.16510362  1
  Ca2+  Ca25  1  0.32599319  0.42435513  0.51209032  1
  Ca2+  Ca26  1  0.32341000  0.41595939  0.83985946  1
  Ca2+  Ca27  1  0.33931679  0.91889921  0.16372195  1
  Ca2+  Ca28  1  0.32493578  0.91608529  0.50589286  1
  Ca2+  Ca29  1  0.33064956  0.92069767  0.83939021  1
  Ca2+  Ca30  1  0.83987640  0.42039930  0.17269935  1
  Ca2+  Ca31  1  0.83434427  0.41808061  0.50380762  1
  Ca2+  Ca32  1  0.83005146  0.40837673  0.83403151  1
  Ca2+  Ca33  1  0.82434205  0.91642432  0.17389549  1
  Ca2+  Ca34  1  0.82928133  0.92933825  0.50376940  1
  Ca2+  Ca35  1  0.82983212  0.92269129  0.84010636  1
  Ca2+  Ca36  1  0.42105031  0.16657691  0.15923869  1
  Ca2+  Ca37  1  0.43104132  0.16540474  0.49642884  1
  Ca2+  Ca38  1  0.41905799  0.16873508  0.83102583  1
  Ca2+  Ca39  1  0.42599623  0.67458365  0.16147042  1
  Ca2+  Ca40  1  0.42785473  0.65895501  0.49921364  1
  Ca2+  Ca41  1  0.41765047  0.67022445  0.82718797  1
  Ca2+  Ca42  1  0.90940905  0.17663317  0.16545149  1
  Ca2+  Ca43  1  0.90980957  0.17571306  0.49945164  1
  Ca2+  Ca44  1  0.91932023  0.17504549  0.82194631  1
  Ca2+  Ca45  1  0.92363459  0.66593251  0.16048925  1
  Ca2+  Ca46  1  0.92258621  0.66435929  0.49091229  1
  Ca2+  Ca47  1  0.92061996  0.67338189  0.83631197  1
  Al0+  Al48  1  0.00025165  0.00022650  0.00118986  1
  Al0+  Al49  1  0.00090382  0.00144898  0.33522802  1
  Al0+  Al50  1  -0.00104416  0.00077079  0.67253906  1
  Al0+  Al51  1  -0.00031579  0.49886656  -0.00601219  1
  Al0+  Al52  1  -0.00027834  0.49867047  0.33154758  1
  Al0+  Al53  1  -0.00028988  0.50287380  0.66712265  1
  Al0+  Al54  1  0.50176254  -0.00204578  0.00341585  1
  Al0+  Al55  1  0.49895623  -0.00084241  0.33530083  1
  Al0+  Al56  1  0.49925718  -0.00089922  0.66029246  1
  Al0+  Al57  1  0.49875578  0.49788248  -0.00103409  1
  Al0+  Al58  1  0.49838244  0.50038241  0.32731128  1
  Al0+  Al59  1  0.50111844  0.50223856  0.67053969  1
  Al0+  Al60  1  0.25052108  0.25066822  0.00654509  1
  Al0+  Al61  1  0.24900158  0.24971318  0.33649060  1
  Al0+  Al62  1  0.24909258  0.24969671  0.66520803  1
  Al0+  Al63  1  0.25275079  0.74839136  -0.00645097  1
  Al0+  Al64  1  0.25071715  0.74866800  0.32834197  1
  Al0+  Al65  1  0.24951741  0.75195650  0.67474028  1
  Al0+  Al66  1  0.74940098  0.24988577  -0.00173173  1
  Al0+  Al67  1  0.74847532  0.24983690  0.32490646  1
  Al0+  Al68  1  0.74978295  0.25163868  0.66885595  1
  Al0+  Al69  1  0.75198386  0.74845948  -0.00091418  1
  Al0+  Al70  1  0.75074740  0.74923549  0.33874761  1
  Al0+  Al71  1  0.74963329  0.75096971  0.66331493  1
  Al0+  Al72  1  0.92771405  0.82264266  0.98577939  1
  Al0+  Al73  1  0.57028877  0.67935600  0.65316473  1
  Al0+  Al74  1  0.57000197  0.17930594  0.65422239  1
  Al0+  Al75  1  0.57280308  0.67885527  0.31943860  1
  Al0+  Al76  1  0.17821907  0.93039316  0.68076764  1
  Al0+  Al77  1  0.17884308  0.43144298  0.01559823  1
  Al0+  Al78  1  0.82062544  0.07336217  0.34829121  1
  Al0+  Al79  1  0.82205037  0.56908288  0.34598865  1
  Al0+  Al80  1  0.68203954  0.43046174  0.67932339  1
  Al0+  Al81  1  0.07144485  0.67851018  0.98210008  1
  Al0+  Al82  1  0.32227405  0.57129574  0.68304291  1
  Al0+  Al83  1  0.07129643  0.67934728  0.32133940  1
  Al0+  Al84  1  0.56993941  0.17882010  0.31791449  1
  Al0+  Al85  1  0.32003258  0.06935994  0.01307404  1
  Al0+  Al86  1  0.68174897  0.92892570  0.01221149  1
  Al0+  Al87  1  0.92847036  0.31933168  0.98460420  1
  Al0+  Al88  1  0.17757390  0.42793719  0.68188395  1
  Al0+  Al89  1  0.81826678  0.07144394  0.68193185  1
  Al0+  Al90  1  0.67698010  0.92747237  0.35143252  1
  Al0+  Al91  1  0.07177141  0.17740206  0.65240892  1
  Al0+  Al92  1  0.92905081  0.32259656  0.65057277  1
  Al0+  Al93  1  0.43194423  0.82166359  0.98592515  1
  Al0+  Al94  1  0.42798043  0.32018562  0.98631376  1
  Al0+  Al95  1  0.93092308  0.31867986  0.31894383  1
  Si0+  Si96  1  0.92905136  0.82420929  0.31925119  1
  Si0+  Si97  1  0.57030577  0.17781320  0.98337678  1
  Si0+  Si98  1  0.32457140  0.07178625  0.68137216  1
  Si0+  Si99  1  0.67546795  0.42910156  0.34683106  1
  Si0+  Si100  1  0.32400464  0.57318550  0.01958737  1
  Si0+  Si101  1  0.17722721  0.92501013  0.01841003  1
  Si0+  Si102  1  0.92819022  0.82236622  0.65075705  1
  Si0+  Si103  1  0.07486108  0.17563846  0.31528489  1
  Si0+  Si104  1  0.42618609  0.82171623  0.64898011  1
  Si0+  Si105  1  0.07358141  0.17824461  0.98608329  1
  Si0+  Si106  1  0.57369993  0.67646936  0.98346494  1
  Si0+  Si107  1  0.42453150  0.32160795  0.31688543  1
  Si0+  Si108  1  0.82327126  0.57596891  0.68474042  1
  Si0+  Si109  1  0.32080228  0.07229996  0.35014244  1
  Si0+  Si110  1  0.32117817  0.57171312  0.34643593  1
  Si0+  Si111  1  0.67719677  0.92653494  0.68303151  1
  Si0+  Si112  1  0.42732623  0.32328547  0.65089745  1
  Si0+  Si113  1  0.81900421  0.56797484  0.01351480  1
  Si0+  Si114  1  0.07090779  0.68189822  0.65202023  1
  Si0+  Si115  1  0.42736789  0.82103122  0.31699580  1
  Si0+  Si116  1  0.82318644  0.07410319  0.01717822  1
  Si0+  Si117  1  0.67621536  0.42696912  0.01600897  1
  Si0+  Si118  1  0.17852969  0.42966026  0.34849481  1
  Si0+  Si119  1  0.18083403  0.92800405  0.34531578  1
  O2-  O120  1  0.24553533  -0.00546592  0.06253066  1
  O2-  O121  1  0.24855514  0.00134749  0.38984313  1
  O2-  O122  1  0.25248655  0.00666921  0.72519177  1
  O2-  O123  1  0.25226543  0.50751483  0.06435874  1
  O2-  O124  1  0.25136169  0.49973842  0.38895813  1
  O2-  O125  1  0.25210362  0.49728356  0.73217357  1
  O2-  O126  1  0.75837652  0.00126033  0.05994884  1
  O2-  O127  1  0.74803964  0.00186992  0.39933180  1
  O2-  O128  1  0.74222550  -0.00243520  0.72815651  1
  O2-  O129  1  0.74759104  0.49775845  0.05736428  1
  O2-  O130  1  0.74322481  0.49832131  0.39158892  1
  O2-  O131  1  0.75676507  0.50457901  0.72796553  1
  O2-  O132  1  0.00427451  0.24228057  0.27187006  1
  O2-  O133  1  0.00199893  0.25083395  0.60104007  1
  O2-  O134  1  0.00078003  0.24142523  0.94113549  1
  O2-  O135  1  -0.00432606  0.75324247  0.27540560  1
  O2-  O136  1  -0.00105258  0.75089027  0.60804079  1
  O2-  O137  1  0.00467523  0.75672823  0.93385650  1
  O2-  O138  1  0.49301436  0.25246377  0.27314126  1
  O2-  O139  1  0.49497935  0.25387290  0.60599848  1
  O2-  O140  1  0.50384968  0.24797090  0.93859903  1
  O2-  O141  1  0.50177736  0.75761248  0.27397667  1
  O2-  O142  1  0.49492709  0.75318101  0.60514727  1
  O2-  O143  1  0.50397519  0.74432023  0.93997917  1
  O2-  O144  1  0.07397431  0.18062741  0.09208309  1
  O2-  O145  1  0.07952614  0.17619288  0.42030488  1
  O2-  O146  1  0.07011227  0.17638281  0.76614440  1
  O2-  O147  1  0.06678052  0.67777736  0.09627389  1
  O2-  O148  1  0.07358328  0.68183093  0.43482831  1
  O2-  O149  1  0.06953384  0.68323670  0.75666680  1
  O2-  O150  1  0.56914089  0.17895927  0.08917193  1
  O2-  O151  1  0.56976943  0.18204401  0.43121007  1
  O2-  O152  1  0.56752540  0.17915395  0.76730893  1
  O2-  O153  1  0.57449432  0.67681060  0.08938969  1
  O2-  O154  1  0.56870272  0.67537798  0.43230087  1
  O2-  O155  1  0.57096042  0.68218534  0.76631102  1
  O2-  O156  1  0.17858145  0.42960123  0.24334875  1
  O2-  O157  1  0.17834682  0.43248700  0.56733254  1
  O2-  O158  1  0.17987077  0.43086746  0.90315303  1
  O2-  O159  1  0.18301774  0.92761450  0.24055215  1
  O2-  O160  1  0.18079333  0.92735531  0.56666698  1
  O2-  O161  1  0.17775294  0.92766586  0.91296533  1
  O2-  O162  1  0.67517115  0.43124193  0.24076254  1
  O2-  O163  1  0.68269561  0.43127448  0.56596084  1
  O2-  O164  1  0.67563655  0.42718004  0.91101511  1
  O2-  O165  1  0.67870916  0.92759905  0.23736220  1
  O2-  O166  1  0.68034471  0.92460961  0.57775947  1
  O2-  O167  1  0.68085089  0.93158334  0.89898480  1
  O2-  O168  1  0.43026723  0.31813156  0.09985629  1
  O2-  O169  1  0.42134290  0.32159110  0.42222956  1
  O2-  O170  1  0.42849317  0.32098457  0.75655028  1
  O2-  O171  1  0.43463201  0.82046167  0.09939834  1
  O2-  O172  1  0.42099695  0.81732693  0.42226746  1
  O2-  O173  1  0.42823452  0.82381242  0.75445151  1
  O2-  O174  1  0.92893591  0.32074376  0.09806430  1
  O2-  O175  1  0.93285461  0.32130659  0.43145060  1
  O2-  O176  1  0.92910774  0.31972656  0.76416351  1
  O2-  O177  1  0.92640706  0.81811386  0.09967692  1
  O2-  O178  1  0.93380190  0.82539655  0.42516431  1
  O2-  O179  1  0.92741337  0.82057064  0.75571487  1
  O2-  O180  1  0.32086217  0.07359668  0.24500158  1
  O2-  O181  1  0.32603332  0.06804187  0.57536950  1
  O2-  O182  1  0.31929299  0.06860257  0.90008064  1
  O2-  O183  1  0.32152374  0.57258708  0.24162396  1
  O2-  O184  1  0.32026184  0.57090766  0.56814420  1
  O2-  O185  1  0.32628999  0.57049271  0.91448389  1
  O2-  O186  1  0.81965441  0.07138078  0.23451978  1
  O2-  O187  1  0.81769809  0.07099436  0.56889710  1
  O2-  O188  1  0.82027134  0.07595229  0.91165038  1
  O2-  O189  1  0.82293012  0.56702913  0.23234558  1
  O2-  O190  1  0.82295057  0.57736430  0.57892670  1
  O2-  O191  1  0.81663758  0.56908165  0.90853577  1
  O2-  O192  1  0.05328778  0.08072159  0.26958520  1
  O2-  O193  1  0.04253298  0.07791255  0.60106805  1
  O2-  O194  1  0.05532671  0.08175668  0.94308457  1
  O2-  O195  1  0.03942492  0.58368537  0.26703929  1
  O2-  O196  1  0.04504226  0.58999702  0.60391880  1
  O2-  O197  1  0.03546186  0.58381141  0.92764937  1
  O2-  O198  1  0.53781660  0.08117072  0.26651243  1
  O2-  O199  1  0.54087833  0.08322017  0.59714217  1
  O2-  O200  1  0.54318257  0.08480118  0.93861416  1
  O2-  O201  1  0.53940841  0.58401124  0.26239904  1
  O2-  O202  1  0.53997799  0.58256667  0.59853337  1
  O2-  O203  1  0.54780582  0.58235824  0.93897862  1
  O2-  O204  1  0.16827713  0.20436949  0.26912851  1
  O2-  O205  1  0.17185359  0.20075118  0.59846737  1
  O2-  O206  1  0.16592782  0.20735755  0.94084673  1
  O2-  O207  1  0.16646152  0.70982781  0.26415349  1
  O2-  O208  1  0.16338430  0.71172625  0.60661648  1
  O2-  O209  1  0.17217611  0.69928581  0.93197626  1
  O2-  O210  1  0.66349348  0.21006270  0.25923711  1
  O2-  O211  1  0.66508528  0.21419042  0.60051682  1
  O2-  O212  1  0.66417876  0.20316001  0.93825396  1
  O2-  O213  1  0.67152833  0.70616027  0.26756606  1
  O2-  O214  1  0.66702302  0.70965024  0.59815355  1
  O2-  O215  1  0.66648575  0.70205548  0.93694533  1
  O2-  O216  1  0.08096036  0.46350991  0.06774090  1
  O2-  O217  1  0.08832807  0.45965752  0.39618449  1
  O2-  O218  1  0.08013852  0.46073180  0.73418419  1
  O2-  O219  1  0.08291304  0.94886681  0.06480672  1
  O2-  O220  1  0.08851488  0.95202772  0.39363927  1
  O2-  O221  1  0.08272806  0.95844244  0.73762123  1
  O2-  O222  1  0.58423094  0.45353805  0.06405699  1
  O2-  O223  1  0.58057204  0.45242021  0.39173258  1
  O2-  O224  1  0.58617658  0.46165386  0.73497773  1
  O2-  O225  1  0.58685575  0.96019773  0.06906690  1
  O2-  O226  1  0.57612343  0.95120655  0.40194094  1
  O2-  O227  1  0.58066011  0.94912047  0.72409946  1
  O2-  O228  1  0.21120011  0.33633788  0.07237925  1
  O2-  O229  1  0.20498342  0.33724020  0.39607118  1
  O2-  O230  1  0.20246500  0.32764682  0.73261583  1
  O2-  O231  1  0.20542928  0.83079179  0.06174407  1
  O2-  O232  1  0.21206108  0.83682453  0.39338802  1
  O2-  O233  1  0.20988387  0.83651163  0.73874726  1
  O2-  O234  1  0.70376453  0.33451538  0.06275943  1
  O2-  O235  1  0.70305592  0.33512882  0.38955200  1
  O2-  O236  1  0.71048372  0.33530923  0.73712999  1
  O2-  O237  1  0.71079438  0.83076710  0.06559954  1
  O2-  O238  1  0.70658164  0.82984245  0.40495376  1
  O2-  O239  1  0.70581987  0.83406139  0.72990726  1
  O2-  O240  1  0.44911272  0.41461192  0.26883401  1
  O2-  O241  1  0.45387278  0.41719736  0.60667667  1
  O2-  O242  1  0.45657810  0.41720536  0.93240225  1
  O2-  O243  1  0.44663555  0.91703869  0.27375160  1
  O2-  O244  1  0.44962137  0.91459832  0.59990758  1
  O2-  O245  1  0.46492391  0.91706600  0.93123299  1
  O2-  O246  1  0.96520143  0.41388900  0.26367789  1
  O2-  O247  1  0.95527652  0.42325547  0.59991267  1
  O2-  O248  1  0.95959057  0.41432018  0.92971990  1
  O2-  O249  1  0.95637912  0.91661134  0.27144386  1
  O2-  O250  1  0.95790848  0.91373729  0.60483209  1
  O2-  O251  1  0.95047002  0.92368449  0.93516510  1
  O2-  O252  1  0.33106985  0.29411895  0.27036758  1
  O2-  O253  1  0.33344241  0.30038865  0.60409098  1
  O2-  O254  1  0.33148415  0.28735185  0.93452646  1
  O2-  O255  1  0.33752863  0.78987813  0.26573415  1
  O2-  O256  1  0.33156303  0.79551253  0.60493304  1
  O2-  O257  1  0.33495736  0.79537444  0.93103456  1
  O2-  O258  1  0.83420956  0.29205099  0.26258524  1
  O2-  O259  1  0.83068972  0.29238252  0.59900156  1
  O2-  O260  1  0.83017855  0.29149865  0.93211729  1
  O2-  O261  1  0.83440641  0.79951850  0.27661475  1
  O2-  O262  1  0.83699544  0.79514830  0.60197235  1
  O2-  O263  1  0.83252393  0.78782644  0.92965390  1
  O2-  O264  1  0.41566195  0.03682426  0.06887369  1
  O2-  O265  1  0.41147298  0.04350332  0.39858970  1
  O2-  O266  1  0.41682419  0.04222904  0.72845083  1
  O2-  O267  1  0.41697507  0.54381959  0.06657536  1
  O2-  O268  1  0.41328448  0.54315374  0.39366456  1
  O2-  O269  1  0.42109526  0.54766430  0.73633555  1
  O2-  O270  1  0.91911986  0.05510037  0.06164802  1
  O2-  O271  1  0.92095486  0.04742329  0.40002378  1
  O2-  O272  1  0.91336548  0.03926147  0.73712536  1
  O2-  O273  1  0.91074557  0.53823133  0.05952113  1
  O2-  O274  1  0.91737421  0.53541312  0.40159993  1
  O2-  O275  1  0.91761866  0.55436417  0.72991956  1
  O2-  O276  1  0.28919348  0.16401921  0.07179976  1
  O2-  O277  1  0.29420912  0.16399805  0.39860753  1
  O2-  O278  1  0.30389358  0.16718986  0.72481220  1
  O2-  O279  1  0.30232670  0.66905689  0.06299318  1
  O2-  O280  1  0.29230115  0.66309354  0.39424294  1
  O2-  O281  1  0.29290396  0.66879414  0.73644618  1
  O2-  O282  1  0.79231984  0.16634662  0.06401351  1
  O2-  O283  1  0.78880387  0.17252236  0.39827238  1
  O2-  O284  1  0.78699813  0.16704460  0.73670220  1
  O2-  O285  1  0.79284035  0.65969874  0.06238458  1
  O2-  O286  1  0.79773151  0.66630185  0.40116558  1
  O2-  O287  1  0.79325700  0.66848313  0.73099306  1
