# generated using pymatgen
data_Ca2Al2SiO7
_symmetry_space_group_name_H-M   'P 1'
_cell_length_a   15.45975756
_cell_length_b   15.45964814
_cell_length_c   15.28473007
_cell_angle_alpha   89.99660689
_cell_angle_beta   89.98811239
_cell_angle_gamma   90.00177989
_symmetry_Int_Tables_number   1
_chemical_formula_structural   Ca2Al2SiO7
_chemical_formula_sum   'Ca48 Al48 Si24 O168'
_cell_volume   3653.08727144
_cell_formula_units_Z   24
loop_
 _symmetry_equiv_pos_site_id
 _symmetry_equiv_pos_as_xyz
  1  'x, y, z'
loop_
 _atom_type_symbol
 _atom_type_oxidation_number
  Ca2+  2.0
  Al0+  0.0
  Si0+  0.0
  O2-  -2.0
loop_
 _atom_site_type_symbol
 _atom_site_label
 _atom_site_symmetry_multiplicity
 _atom_site_fract_x
 _atom_site_fract_y
 _atom_site_fract_z
 _atom_site_occupancy
  Ca2+  Ca0  1  0.16587171  0.07753489  0.17693876  1
  Ca2+  Ca1  1  0.17335917  0.08479268  0.50107596  1
  Ca2+  Ca2  1  0.16720699  0.09334665  0.83385757  1
  Ca2+  Ca3  1  0.17447793  0.58185077  0.17917270  1
  Ca2+  Ca4  1  0.17037741  0.57943817  0.49659604  1
  Ca2+  Ca5  1  0.17594895  0.58435645  0.83831976  1
  Ca2+  Ca6  1  0.67165759  0.07823768  0.17456750  1
  Ca2+  Ca7  1  0.67110565  0.08295220  0.49990127  1
  Ca2+  Ca8  1  0.66794641  0.07090877  0.83801769  1
  Ca2+  Ca9  1  0.67793953  0.58718831  0.17293222  1
  Ca2+  Ca10  1  0.67128966  0.58639432  0.49670968  1
  Ca2+  Ca11  1  0.67486435  0.57741408  0.84204226  1
  Ca2+  Ca12  1  0.07674382  0.33348099  0.16385057  1
  Ca2+  Ca13  1  0.07859166  0.33170828  0.49452451  1
  Ca2+  Ca14  1  0.07545276  0.32682752  0.82984575  1
  Ca2+  Ca15  1  0.07501769  0.83403315  0.16748089  1
  Ca2+  Ca16  1  0.08187232  0.82768369  0.48801035  1
  Ca2+  Ca17  1  0.07476482  0.83328250  0.83314785  1
  Ca2+  Ca18  1  0.57922455  0.32828728  0.17194641  1
  Ca2+  Ca19  1  0.57311530  0.32661797  0.48574151  1
  Ca2+  Ca20  1  0.58224679  0.33127979  0.82970172  1
  Ca2+  Ca21  1  0.57872511  0.82916531  0.16196217  1
  Ca2+  Ca22  1  0.58295346  0.82939385  0.49339592  1
  Ca2+  Ca23  1  0.58083378  0.83819144  0.83302634  1
  Ca2+  Ca24  1  0.32623453  0.42312975  0.17824916  1
  Ca2+  Ca25  1  0.33237390  0.42242443  0.49884907  1
  Ca2+  Ca26  1  0.33371423  0.43012970  0.83987987  1
  Ca2+  Ca27  1  0.32676377  0.91887481  0.17494138  1
  Ca2+  Ca28  1  0.32800335  0.92540814  0.49935685  1
  Ca2+  Ca29  1  0.33279124  0.92234254  0.83860364  1
  Ca2+  Ca30  1  0.84237480  0.42411813  0.17398019  1
  Ca2+  Ca31  1  0.84403011  0.42080945  0.49833082  1
  Ca2+  Ca32  1  0.83992728  0.41767641  0.83955999  1
  Ca2+  Ca33  1  0.83341573  0.91686751  0.17425415  1
  Ca2+  Ca34  1  0.83230272  0.92234551  0.49930961  1
  Ca2+  Ca35  1  0.82181183  0.91112821  0.84180651  1
  Ca2+  Ca36  1  0.41489072  0.16738088  0.16972841  1
  Ca2+  Ca37  1  0.41909073  0.16450245  0.48892571  1
  Ca2+  Ca38  1  0.41614769  0.16613173  0.82697992  1
  Ca2+  Ca39  1  0.41870210  0.66538839  0.16205506  1
  Ca2+  Ca40  1  0.42131121  0.66084958  0.49002864  1
  Ca2+  Ca41  1  0.40930745  0.67224131  0.83154812  1
  Ca2+  Ca42  1  0.91909786  0.17540300  0.16105187  1
  Ca2+  Ca43  1  0.91658174  0.17644405  0.49109680  1
  Ca2+  Ca44  1  0.92764189  0.17508351  0.82679512  1
  Ca2+  Ca45  1  0.91805614  0.67106200  0.16592063  1
  Ca2+  Ca46  1  0.92214400  0.67383792  0.48434087  1
  Ca2+  Ca47  1  0.90977439  0.66993035  0.83578853  1
  Al0+  Al48  1  0.00018057  -0.00074401  -0.01041749  1
  Al0+  Al49  1  -0.00252452  -0.00007779  0.34000865  1
  Al0+  Al50  1  0.00018510  0.00052917  0.66324401  1
  Al0+  Al51  1  0.00168671  0.49995981  -0.00131231  1
  Al0+  Al52  1  0.00187380  0.50159084  0.33479628  1
  Al0+  Al53  1  0.00128033  0.50160447  0.66611212  1
  Al0+  Al54  1  0.49992635  -0.00186201  0.00063606  1
  Al0+  Al55  1  0.50096488  -0.00164252  0.33229537  1
  Al0+  Al56  1  0.49871207  -0.00100050  0.67325258  1
  Al0+  Al57  1  0.50222226  0.49921933  0.00324327  1
  Al0+  Al58  1  0.50199009  0.49882093  0.32636955  1
  Al0+  Al59  1  0.50173263  0.50162663  0.67242624  1
  Al0+  Al60  1  0.25223742  0.25160296  -0.00393823  1
  Al0+  Al61  1  0.24976318  0.25097716  0.33665336  1
  Al0+  Al62  1  0.24920664  0.25163999  0.66828324  1
  Al0+  Al63  1  0.25149168  0.75268282  -0.00089029  1
  Al0+  Al64  1  0.25008911  0.75018701  0.33832677  1
  Al0+  Al65  1  0.24976409  0.75268391  0.66966139  1
  Al0+  Al66  1  0.74846077  0.24867961  -0.00532922  1
  Al0+  Al67  1  0.74884382  0.24927835  0.32858778  1
  Al0+  Al68  1  0.74939827  0.25039933  0.66443714  1
  Al0+  Al69  1  0.74844739  0.74754107  0.00383297  1
  Al0+  Al70  1  0.74843710  0.74926584  0.33076876  1
  Al0+  Al71  1  0.74805173  0.74888555  0.67066831  1
  Al0+  Al72  1  0.07294300  0.67936582  0.31890125  1
  Al0+  Al73  1  0.07301296  0.17884206  0.64719203  1
  Al0+  Al74  1  0.68097144  0.92909203  0.68051207  1
  Al0+  Al75  1  0.92723156  0.81897689  0.98583087  1
  Al0+  Al76  1  0.92815367  0.32190534  0.64864566  1
  Al0+  Al77  1  0.67870905  0.92910725  0.01631964  1
  Al0+  Al78  1  0.57063643  0.67809737  0.31928925  1
  Al0+  Al79  1  0.07296331  0.17808021  0.98582647  1
  Al0+  Al80  1  0.32430783  0.57089075  0.34736741  1
  Al0+  Al81  1  0.31870152  0.07098998  0.68156920  1
  Al0+  Al82  1  0.32081840  0.57312855  0.01511796  1
  Al0+  Al83  1  0.93000481  0.32131137  0.31919671  1
  Al0+  Al84  1  0.57113748  0.17584614  0.31790263  1
  Al0+  Al85  1  0.82162228  0.56780481  0.01464543  1
  Al0+  Al86  1  0.82021559  0.07308349  0.34534729  1
  Al0+  Al87  1  0.17655136  0.92837919  0.34793136  1
  Al0+  Al88  1  0.32249052  0.57117013  0.68152151  1
  Al0+  Al89  1  0.17739548  0.42845353  0.34875532  1
  Al0+  Al90  1  0.82038283  0.57094707  0.34710032  1
  Al0+  Al91  1  0.92830416  0.82296681  0.31979191  1
  Al0+  Al92  1  0.42612620  0.32046935  0.31829747  1
  Al0+  Al93  1  0.32187953  0.07069175  0.34604507  1
  Al0+  Al94  1  0.92824121  0.32260898  0.98495491  1
  Al0+  Al95  1  0.42920872  0.82040711  0.98549318  1
  Si0+  Si96  1  0.42894319  0.82181622  0.65154715  1
  Si0+  Si97  1  0.18070434  0.42796719  0.01567809  1
  Si0+  Si98  1  0.32079296  0.07233882  0.01420696  1
  Si0+  Si99  1  0.07247785  0.68159620  0.65260775  1
  Si0+  Si100  1  0.07324491  0.67883105  0.98303603  1
  Si0+  Si101  1  0.67840682  0.42856266  0.68044746  1
  Si0+  Si102  1  0.67827872  0.92722185  0.34928473  1
  Si0+  Si103  1  0.17736735  0.93059076  0.01291464  1
  Si0+  Si104  1  0.17726784  0.43001515  0.68613413  1
  Si0+  Si105  1  0.67752211  0.42357486  0.01841561  1
  Si0+  Si106  1  0.67921079  0.42738686  0.34927656  1
  Si0+  Si107  1  0.82240672  0.07089880  0.01360657  1
  Si0+  Si108  1  0.57133789  0.67698666  0.98138213  1
  Si0+  Si109  1  0.82137688  0.57020232  0.68124919  1
  Si0+  Si110  1  0.43138092  0.32368059  0.65453953  1
  Si0+  Si111  1  0.17615677  0.92767596  0.68609138  1
  Si0+  Si112  1  0.42785711  0.82161643  0.31859257  1
  Si0+  Si113  1  0.82242176  0.07381890  0.68412175  1
  Si0+  Si114  1  0.43062924  0.32157096  0.98315523  1
  Si0+  Si115  1  0.56961835  0.17717890  0.98276238  1
  Si0+  Si116  1  0.56854872  0.17726458  0.65322422  1
  Si0+  Si117  1  0.92542808  0.81862738  0.65265176  1
  Si0+  Si118  1  0.57047850  0.67902900  0.65299653  1
  Si0+  Si119  1  0.07178048  0.17731640  0.31881384  1
  O2-  O120  1  0.24535263  0.00537979  0.05380125  1
  O2-  O121  1  0.24825510  0.00137689  0.39724541  1
  O2-  O122  1  0.24111797  0.00018297  0.73043845  1
  O2-  O123  1  0.24591257  0.49934221  0.06035270  1
  O2-  O124  1  0.25237911  0.49906454  0.39761762  1
  O2-  O125  1  0.24755470  0.49778781  0.73009807  1
  O2-  O126  1  0.75634058  0.00122003  0.06049342  1
  O2-  O127  1  0.74566127  -0.00241051  0.39248944  1
  O2-  O128  1  0.75695339  0.00198599  0.72885567  1
  O2-  O129  1  0.75045740  0.48877220  0.05994837  1
  O2-  O130  1  0.74817268  0.49454750  0.39602999  1
  O2-  O131  1  0.75493589  0.49405717  0.72207868  1
  O2-  O132  1  0.00450226  0.24642745  0.27316298  1
  O2-  O133  1  -0.00214380  0.24816059  0.59845898  1
  O2-  O134  1  -0.00063622  0.24923885  0.93633072  1
  O2-  O135  1  0.00109982  0.75188728  0.26983175  1
  O2-  O136  1  0.00036117  0.75195101  0.61127818  1
  O2-  O137  1  0.00106346  0.74363256  0.93725683  1
  O2-  O138  1  0.49559731  0.24497083  0.26879343  1
  O2-  O139  1  0.49857754  0.24940326  0.61180618  1
  O2-  O140  1  0.50067704  0.25005858  0.93939618  1
  O2-  O141  1  0.49245069  0.74939740  0.27402260  1
  O2-  O142  1  0.49764618  0.74803505  0.61050026  1
  O2-  O143  1  0.50104523  0.74351301  0.93593896  1
  O2-  O144  1  0.07371860  0.17722489  0.09919285  1
  O2-  O145  1  0.06991998  0.17846248  0.42425234  1
  O2-  O146  1  0.07174843  0.18258342  0.76102638  1
  O2-  O147  1  0.07478408  0.68091236  0.08773519  1
  O2-  O148  1  0.07036231  0.68045959  0.43346515  1
  O2-  O149  1  0.07238320  0.68233601  0.75809316  1
  O2-  O150  1  0.56874294  0.17670258  0.08708868  1
  O2-  O151  1  0.57076940  0.17763824  0.43241064  1
  O2-  O152  1  0.56767927  0.17884897  0.75889521  1
  O2-  O153  1  0.57067224  0.67825602  0.08652806  1
  O2-  O154  1  0.57186104  0.68099159  0.43351922  1
  O2-  O155  1  0.57223568  0.67886667  0.75797047  1
  O2-  O156  1  0.17793092  0.42928658  0.23476703  1
  O2-  O157  1  0.17651900  0.43199832  0.58111660  1
  O2-  O158  1  0.18427986  0.42831510  0.90960894  1
  O2-  O159  1  0.17706790  0.93010423  0.23355927  1
  O2-  O160  1  0.17988781  0.92281462  0.58132740  1
  O2-  O161  1  0.17936128  0.92865506  0.90757386  1
  O2-  O162  1  0.68024280  0.42824931  0.24374660  1
  O2-  O163  1  0.67169863  0.43138537  0.57634010  1
  O2-  O164  1  0.67406484  0.42589237  0.91187841  1
  O2-  O165  1  0.67801665  0.92766106  0.24378742  1
  O2-  O166  1  0.68137246  0.92834752  0.56781325  1
  O2-  O167  1  0.67841792  0.93158812  0.90254954  1
  O2-  O168  1  0.42919524  0.32017488  0.08738993  1
  O2-  O169  1  0.43059598  0.32222282  0.43270819  1
  O2-  O170  1  0.43637024  0.32417425  0.76024380  1
  O2-  O171  1  0.42966994  0.82124455  0.09799624  1
  O2-  O172  1  0.43189648  0.82375036  0.42466201  1
  O2-  O173  1  0.43010660  0.82182314  0.75687991  1
  O2-  O174  1  0.92922790  0.32203892  0.09813072  1
  O2-  O175  1  0.93024299  0.31986750  0.43221108  1
  O2-  O176  1  0.92869033  0.32220712  0.76234904  1
  O2-  O177  1  0.92954440  0.82140149  0.09781095  1
  O2-  O178  1  0.92706200  0.82027858  0.43428452  1
  O2-  O179  1  0.92367988  0.81465468  0.75809278  1
  O2-  O180  1  0.32078623  0.06767618  0.23187034  1
  O2-  O181  1  0.32333265  0.06734760  0.56948234  1
  O2-  O182  1  0.32227300  0.07129892  0.90870271  1
  O2-  O183  1  0.32280767  0.57002426  0.23375087  1
  O2-  O184  1  0.32652552  0.56818738  0.56958101  1
  O2-  O185  1  0.31922217  0.57121962  0.90117108  1
  O2-  O186  1  0.81983836  0.07254546  0.23214261  1
  O2-  O187  1  0.81855137  0.07476163  0.57874883  1
  O2-  O188  1  0.81787376  0.06981425  0.90765494  1
  O2-  O189  1  0.81892972  0.57086208  0.23431649  1
  O2-  O190  1  0.81937064  0.57425455  0.57667819  1
  O2-  O191  1  0.81749780  0.56800609  0.90026522  1
  O2-  O192  1  0.04435391  0.08367235  0.27484093  1
  O2-  O193  1  0.05096051  0.07688766  0.59861200  1
  O2-  O194  1  0.04753984  0.08094567  0.92771324  1
  O2-  O195  1  0.04405720  0.58213906  0.26582006  1
  O2-  O196  1  0.04624060  0.58913638  0.60698355  1
  O2-  O197  1  0.05174022  0.58428630  0.93660689  1
  O2-  O198  1  0.54610753  0.07688807  0.26465086  1
  O2-  O199  1  0.53905191  0.08554335  0.60755862  1
  O2-  O200  1  0.53819284  0.08676579  0.93439461  1
  O2-  O201  1  0.54672729  0.58177614  0.26255382  1
  O2-  O202  1  0.54419015  0.58636378  0.60667631  1
  O2-  O203  1  0.54920227  0.58126318  0.93682752  1
  O2-  O204  1  0.16649064  0.19942565  0.27447534  1
  O2-  O205  1  0.17236435  0.20937666  0.59722738  1
  O2-  O206  1  0.17117023  0.20908537  0.93121528  1
  O2-  O207  1  0.17225686  0.70685225  0.26781831  1
  O2-  O208  1  0.16399850  0.71068148  0.60554750  1
  O2-  O209  1  0.16464505  0.71011136  0.93463093  1
  O2-  O210  1  0.66617206  0.20861031  0.26132362  1
  O2-  O211  1  0.66124208  0.20276503  0.60727507  1
  O2-  O212  1  0.66110492  0.20267335  0.93271945  1
  O2-  O213  1  0.66447134  0.71250001  0.26308584  1
  O2-  O214  1  0.66181003  0.70877206  0.60525945  1
  O2-  O215  1  0.66408015  0.70471898  0.93468366  1
  O2-  O216  1  0.08547591  0.44936452  0.05850179  1
  O2-  O217  1  0.08223261  0.46120651  0.40541261  1
  O2-  O218  1  0.08475089  0.45944287  0.73369315  1
  O2-  O219  1  0.08390150  0.95551041  0.05786050  1
  O2-  O220  1  0.07928636  0.95414325  0.40383896  1
  O2-  O221  1  0.07970424  0.94843582  0.72926548  1
  O2-  O222  1  0.58558993  0.45199776  0.06565018  1
  O2-  O223  1  0.58598268  0.45505959  0.39486280  1
  O2-  O224  1  0.59110633  0.46157978  0.73482776  1
  O2-  O225  1  0.58269825  0.96255921  0.06920772  1
  O2-  O226  1  0.58488848  0.95152459  0.39632397  1
  O2-  O227  1  0.58541538  0.96142802  0.73639505  1
  O2-  O228  1  0.21071328  0.33554679  0.06140333  1
  O2-  O229  1  0.20372016  0.33049677  0.40323569  1
  O2-  O230  1  0.20248647  0.33646258  0.73186122  1
  O2-  O231  1  0.20894571  0.84072911  0.06075360  1
  O2-  O232  1  0.20685345  0.83205850  0.40416092  1
  O2-  O233  1  0.20593983  0.83639077  0.73558657  1
  O2-  O234  1  0.69713361  0.32740407  0.06070448  1
  O2-  O235  1  0.70149687  0.33301272  0.39451537  1
  O2-  O236  1  0.70039255  0.33475557  0.72787163  1
  O2-  O237  1  0.70495797  0.83099780  0.06740165  1
  O2-  O238  1  0.70489859  0.83466229  0.39657923  1
  O2-  O239  1  0.71021859  0.83226991  0.73681846  1
  O2-  O240  1  0.46027181  0.41520347  0.26180882  1
  O2-  O241  1  0.46430208  0.41407907  0.60788989  1
  O2-  O242  1  0.46129058  0.41321960  0.93567085  1
  O2-  O243  1  0.45692974  0.91263785  0.26961857  1
  O2-  O244  1  0.46103956  0.91254177  0.60520603  1
  O2-  O245  1  0.46294661  0.91631755  0.93005684  1
  O2-  O246  1  0.96158830  0.41800302  0.26741104  1
  O2-  O247  1  0.95766404  0.42230570  0.59975822  1
  O2-  O248  1  0.95834953  0.42057697  0.93032087  1
  O2-  O249  1  0.95498413  0.92228014  0.26810460  1
  O2-  O250  1  0.94660366  0.91349051  0.60927048  1
  O2-  O251  1  0.95758550  0.91355122  0.92682502  1
  O2-  O252  1  0.32738640  0.29462181  0.26490816  1
  O2-  O253  1  0.33700743  0.30211593  0.61182959  1
  O2-  O254  1  0.33983640  0.29508872  0.93283935  1
  O2-  O255  1  0.33271188  0.80103808  0.27502414  1
  O2-  O256  1  0.33558413  0.79750508  0.60648391  1
  O2-  O257  1  0.33251264  0.79241652  0.92859871  1
  O2-  O258  1  0.83315122  0.29255769  0.26578204  1
  O2-  O259  1  0.82695163  0.29764767  0.59845461  1
  O2-  O260  1  0.82827273  0.29685771  0.93170366  1
  O2-  O261  1  0.83062030  0.79357701  0.26735176  1
  O2-  O262  1  0.83508781  0.78615022  0.60554369  1
  O2-  O263  1  0.83051940  0.78495870  0.93218630  1
  O2-  O264  1  0.41093883  0.04032582  0.06094139  1
  O2-  O265  1  0.42012258  0.03997680  0.39937523  1
  O2-  O266  1  0.41359425  0.03689785  0.73866708  1
  O2-  O267  1  0.41907114  0.54263413  0.06457415  1
  O2-  O268  1  0.42395706  0.54107533  0.39781025  1
  O2-  O269  1  0.41850983  0.54041401  0.73861184  1
  O2-  O270  1  0.91809792  0.04754478  0.05483590  1
  O2-  O271  1  0.91368881  0.04291016  0.40493319  1
  O2-  O272  1  0.91800365  0.05101705  0.72678522  1
  O2-  O273  1  0.92107634  0.54359368  0.06535258  1
  O2-  O274  1  0.91669728  0.54253545  0.40189752  1
  O2-  O275  1  0.91467246  0.54790462  0.72860716  1
  O2-  O276  1  0.29896059  0.16669256  0.05863557  1
  O2-  O277  1  0.29865567  0.16963651  0.39923980  1
  O2-  O278  1  0.29349801  0.17002640  0.73544351  1
  O2-  O279  1  0.29261902  0.67127073  0.06586926  1
  O2-  O280  1  0.29878723  0.66921856  0.40141256  1
  O2-  O281  1  0.29081158  0.66887963  0.73398278  1
  O2-  O282  1  0.79423480  0.16468998  0.05767648  1
  O2-  O283  1  0.78564323  0.16810167  0.40081156  1
  O2-  O284  1  0.79282878  0.16646731  0.73080246  1
  O2-  O285  1  0.78672365  0.66249441  0.06850257  1
  O2-  O286  1  0.78523084  0.66647264  0.40174531  1
  O2-  O287  1  0.78691083  0.65869024  0.73185769  1
