# generated using pymatgen
data_Ca2Al2SiO7
_symmetry_space_group_name_H-M   'P 1'
_cell_length_a   15.45388713
_cell_length_b   15.45424236
_cell_length_c   15.28019629
_cell_angle_alpha   89.99675409
_cell_angle_beta   90.00430298
_cell_angle_gamma   90.00044818
_symmetry_Int_Tables_number   1
_chemical_formula_structural   Ca2Al2SiO7
_chemical_formula_sum   'Ca48 Al48 Si24 O168'
_cell_volume   3649.34049419
_cell_formula_units_Z   24
loop_
 _symmetry_equiv_pos_site_id
 _symmetry_equiv_pos_as_xyz
  1  'x, y, z'
loop_
 _atom_type_symbol
 _atom_type_oxidation_number
  Ca2+  2.0
  Al0+  0.0
  Si0+  0.0
  O2-  -2.0
loop_
 _atom_site_type_symbol
 _atom_site_label
 _atom_site_symmetry_multiplicity
 _atom_site_fract_x
 _atom_site_fract_y
 _atom_site_fract_z
 _atom_site_occupancy
  Ca2+  Ca0  1  0.16724917  0.06807493  0.16938442  1
  Ca2+  Ca1  1  0.17205672  0.08287304  0.50946997  1
  Ca2+  Ca2  1  0.17695203  0.08481810  0.83891100  1
  Ca2+  Ca3  1  0.17074522  0.58249369  0.17339860  1
  Ca2+  Ca4  1  0.15878841  0.57351856  0.50184770  1
  Ca2+  Ca5  1  0.16814105  0.57702409  0.83766718  1
  Ca2+  Ca6  1  0.66892411  0.08895428  0.16513236  1
  Ca2+  Ca7  1  0.66898139  0.07909681  0.51291667  1
  Ca2+  Ca8  1  0.67560667  0.08779721  0.83543257  1
  Ca2+  Ca9  1  0.67420149  0.58880136  0.16912086  1
  Ca2+  Ca10  1  0.66179033  0.57915183  0.51046419  1
  Ca2+  Ca11  1  0.66825253  0.57751767  0.83577107  1
  Ca2+  Ca12  1  0.07974052  0.33428102  0.16181944  1
  Ca2+  Ca13  1  0.08510708  0.33187815  0.50163286  1
  Ca2+  Ca14  1  0.07266332  0.33033742  0.82326245  1
  Ca2+  Ca15  1  0.08740744  0.83127375  0.15956835  1
  Ca2+  Ca16  1  0.07729954  0.83386453  0.49502309  1
  Ca2+  Ca17  1  0.07199288  0.84210036  0.83207921  1
  Ca2+  Ca18  1  0.58303537  0.32043384  0.16090851  1
  Ca2+  Ca19  1  0.59095557  0.32025010  0.49940676  1
  Ca2+  Ca20  1  0.58653023  0.32183694  0.82693458  1
  Ca2+  Ca21  1  0.57458080  0.82883822  0.15996974  1
  Ca2+  Ca22  1  0.58916656  0.82318924  0.49913680  1
  Ca2+  Ca23  1  0.58099573  0.83011323  0.82676601  1
  Ca2+  Ca24  1  0.32883297  0.42256162  0.17052259  1
  Ca2+  Ca25  1  0.32114327  0.41338161  0.50692653  1
  Ca2+  Ca26  1  0.32713077  0.42121584  0.83671694  1
  Ca2+  Ca27  1  0.32655072  0.91371256  0.16430114  1
  Ca2+  Ca28  1  0.32657887  0.92034753  0.50465847  1
  Ca2+  Ca29  1  0.33130054  0.92643995  0.84275532  1
  Ca2+  Ca30  1  0.83882338  0.42245188  0.16389734  1
  Ca2+  Ca31  1  0.82828221  0.41960179  0.51035966  1
  Ca2+  Ca32  1  0.83083514  0.41328394  0.83790408  1
  Ca2+  Ca33  1  0.83878912  0.92321839  0.16413052  1
  Ca2+  Ca34  1  0.82729288  0.92225634  0.51259075  1
  Ca2+  Ca35  1  0.83347594  0.92432079  0.83597426  1
  Ca2+  Ca36  1  0.42760205  0.15830113  0.16050674  1
  Ca2+  Ca37  1  0.42756238  0.15903388  0.50056712  1
  Ca2+  Ca38  1  0.42517438  0.15586243  0.82843406  1
  Ca2+  Ca39  1  0.41799684  0.66904473  0.15867895  1
  Ca2+  Ca40  1  0.43035967  0.66326665  0.49663279  1
  Ca2+  Ca41  1  0.41451380  0.67341217  0.83025570  1
  Ca2+  Ca42  1  0.91685261  0.17384188  0.15525667  1
  Ca2+  Ca43  1  0.91554813  0.17002447  0.50629583  1
  Ca2+  Ca44  1  0.91756828  0.17173178  0.82448433  1
  Ca2+  Ca45  1  0.92406367  0.67174223  0.15792110  1
  Ca2+  Ca46  1  0.91924270  0.67590822  0.49802509  1
  Ca2+  Ca47  1  0.90641606  0.67986944  0.83175346  1
  Al0+  Al48  1  -0.00033696  -0.00011300  0.00536758  1
  Al0+  Al49  1  -0.00028358  0.00335380  0.33886834  1
  Al0+  Al50  1  -0.00062308  0.00085245  0.65938867  1
  Al0+  Al51  1  -0.00202788  0.49956701  -0.00031331  1
  Al0+  Al52  1  -0.00038670  0.50293697  0.33402482  1
  Al0+  Al53  1  -0.00082778  0.50142796  0.66867523  1
  Al0+  Al54  1  0.50086490  -0.00293101  -0.00462250  1
  Al0+  Al55  1  0.50204677  -0.00073045  0.32885883  1
  Al0+  Al56  1  0.49810804  -0.00271649  0.66766073  1
  Al0+  Al57  1  0.49943265  0.49636440  0.00586027  1
  Al0+  Al58  1  0.50180888  0.49893694  0.32775223  1
  Al0+  Al59  1  0.49931520  0.50013460  0.66833489  1
  Al0+  Al60  1  0.25258830  0.24961097  0.00691993  1
  Al0+  Al61  1  0.24981943  0.25056312  0.33566719  1
  Al0+  Al62  1  0.24934452  0.25073244  0.67366794  1
  Al0+  Al63  1  0.25144900  0.74708377  0.00139075  1
  Al0+  Al64  1  0.24987527  0.75008301  0.33724952  1
  Al0+  Al65  1  0.24923047  0.74984257  0.66449629  1
  Al0+  Al66  1  0.74979656  0.24950070  -0.00253567  1
  Al0+  Al67  1  0.75050133  0.25207109  0.32813738  1
  Al0+  Al68  1  0.74969912  0.25126815  0.66490340  1
  Al0+  Al69  1  0.75109643  0.74846318  0.00225216  1
  Al0+  Al70  1  0.75083579  0.75261189  0.32767365  1
  Al0+  Al71  1  0.74922725  0.75023237  0.66033308  1
  Al0+  Al72  1  0.81971080  0.57140595  0.01391459  1
  Al0+  Al73  1  0.92915591  0.82154011  0.65246654  1
  Al0+  Al74  1  0.07332959  0.18018706  0.65214462  1
  Al0+  Al75  1  0.31997488  0.06976169  0.67943785  1
  Al0+  Al76  1  0.92974041  0.82168908  0.98706615  1
  Al0+  Al77  1  0.82085229  0.07090181  0.68101426  1
  Al0+  Al78  1  0.17866153  0.92829757  0.34984751  1
  Al0+  Al79  1  0.57217435  0.67735687  0.31731183  1
  Al0+  Al80  1  0.56899839  0.17932204  0.98381397  1
  Al0+  Al81  1  0.93114284  0.32107719  0.98635664  1
  Al0+  Al82  1  0.17753294  0.42992852  0.68218479  1
  Al0+  Al83  1  0.56893052  0.67894727  0.65557466  1
  Al0+  Al84  1  0.32109031  0.56954305  0.01342038  1
  Al0+  Al85  1  0.17879241  0.92966354  0.01306639  1
  Al0+  Al86  1  0.06950079  0.68029843  0.31999829  1
  Al0+  Al87  1  0.92826602  0.32304712  0.65035724  1
  Al0+  Al88  1  0.57119118  0.17903127  0.31883530  1
  Al0+  Al89  1  0.81957814  0.07157971  0.01360202  1
  Al0+  Al90  1  0.67839536  0.92576297  0.68137885  1
  Al0+  Al91  1  0.42842478  0.81762807  0.98553079  1
  Al0+  Al92  1  0.32506296  0.07156427  0.01725295  1
  Al0+  Al93  1  0.56943314  0.17873487  0.65384732  1
  Al0+  Al94  1  0.67812690  0.42929369  0.67935299  1
  Al0+  Al95  1  0.17881816  0.43024991  0.34749077  1
  Si0+  Si96  1  0.17663089  0.92602437  0.68209442  1
  Si0+  Si97  1  0.57271723  0.67543656  0.98391854  1
  Si0+  Si98  1  0.67837712  0.42673860  0.01890155  1
  Si0+  Si99  1  0.67862148  0.92642856  0.01732273  1
  Si0+  Si100  1  0.07372446  0.17751569  0.98693914  1
  Si0+  Si101  1  0.42838146  0.82089819  0.31700266  1
  Si0+  Si102  1  0.92912446  0.82534297  0.31505018  1
  Si0+  Si103  1  0.42744278  0.32313863  0.65161838  1
  Si0+  Si104  1  0.68020354  0.42967637  0.34701437  1
  Si0+  Si105  1  0.93004582  0.32124202  0.31792439  1
  Si0+  Si106  1  0.07250221  0.17927180  0.31762205  1
  Si0+  Si107  1  0.32236610  0.57262162  0.68226354  1
  Si0+  Si108  1  0.32480339  0.57186475  0.35141071  1
  Si0+  Si109  1  0.07383851  0.67831492  0.65053770  1
  Si0+  Si110  1  0.81999011  0.57292513  0.34835752  1
  Si0+  Si111  1  0.67933910  0.92979296  0.34672230  1
  Si0+  Si112  1  0.07256496  0.67734828  0.98304640  1
  Si0+  Si113  1  0.42553118  0.82203468  0.64808199  1
  Si0+  Si114  1  0.82167240  0.57286265  0.68209825  1
  Si0+  Si115  1  0.42551041  0.32103806  0.31643299  1
  Si0+  Si116  1  0.32364202  0.07085947  0.35014195  1
  Si0+  Si117  1  0.42637226  0.32351378  0.98325813  1
  Si0+  Si118  1  0.81951854  0.07442037  0.34848665  1
  Si0+  Si119  1  0.17660932  0.42836764  0.01708924  1
  O2-  O120  1  0.25054872  0.00123241  0.06552763  1
  O2-  O121  1  0.25362610  0.00370461  0.39469374  1
  O2-  O122  1  0.24401976  -0.00419026  0.72534979  1
  O2-  O123  1  0.24600659  0.49608139  0.06157246  1
  O2-  O124  1  0.25556938  0.50327457  0.39504679  1
  O2-  O125  1  0.25156048  0.50626201  0.72646027  1
  O2-  O126  1  0.74618684  -0.00371042  0.06246113  1
  O2-  O127  1  0.74962037  0.00152378  0.38879220  1
  O2-  O128  1  0.74839495  -0.00048947  0.73137826  1
  O2-  O129  1  0.74460652  0.49813314  0.06326340  1
  O2-  O130  1  0.74574094  0.50531187  0.39037321  1
  O2-  O131  1  0.75529674  0.50159600  0.72557648  1
  O2-  O132  1  0.00182066  0.25084740  0.27576513  1
  O2-  O133  1  0.00115134  0.25190966  0.59997458  1
  O2-  O134  1  0.00727711  0.24760315  0.94187447  1
  O2-  O135  1  0.00025679  0.75901363  0.27152558  1
  O2-  O136  1  0.00649229  0.74877791  0.60682527  1
  O2-  O137  1  0.00510141  0.74756886  0.93961605  1
  O2-  O138  1  0.49328085  0.25087742  0.27293927  1
  O2-  O139  1  0.49521498  0.25386223  0.60599708  1
  O2-  O140  1  0.49094133  0.25158132  0.93862779  1
  O2-  O141  1  0.49462891  0.74945551  0.27265671  1
  O2-  O142  1  0.49515286  0.75310484  0.60552415  1
  O2-  O143  1  0.50330708  0.74249397  0.93937385  1
  O2-  O144  1  0.07054087  0.17953018  0.09341079  1
  O2-  O145  1  0.07294358  0.17939228  0.42227968  1
  O2-  O146  1  0.07408772  0.18193579  0.76580050  1
  O2-  O147  1  0.07113744  0.67675179  0.08914089  1
  O2-  O148  1  0.06358242  0.67785413  0.43287648  1
  O2-  O149  1  0.07673303  0.67845970  0.75582890  1
  O2-  O150  1  0.56989419  0.18262468  0.09760854  1
  O2-  O151  1  0.57290210  0.17934582  0.43184676  1
  O2-  O152  1  0.56923482  0.18038869  0.76643609  1
  O2-  O153  1  0.57190764  0.67838090  0.09000698  1
  O2-  O154  1  0.57242838  0.67731768  0.43048413  1
  O2-  O155  1  0.56682010  0.67797783  0.76838744  1
  O2-  O156  1  0.17882992  0.43196246  0.23437378  1
  O2-  O157  1  0.17941738  0.43154446  0.56863974  1
  O2-  O158  1  0.17687743  0.42978347  0.91167712  1
  O2-  O159  1  0.17823545  0.92880095  0.23702379  1
  O2-  O160  1  0.18005193  0.92525300  0.57602523  1
  O2-  O161  1  0.17790703  0.93205914  0.89961811  1
  O2-  O162  1  0.68390197  0.42748710  0.24215596  1
  O2-  O163  1  0.67856462  0.43114122  0.56530902  1
  O2-  O164  1  0.67831971  0.42738878  0.91338679  1
  O2-  O165  1  0.67914325  0.92932718  0.24173935  1
  O2-  O166  1  0.68060835  0.92624698  0.56658825  1
  O2-  O167  1  0.68021627  0.92460884  0.91222537  1
  O2-  O168  1  0.42927504  0.32612482  0.08910125  1
  O2-  O169  1  0.42500337  0.32207264  0.42191190  1
  O2-  O170  1  0.42947711  0.32511605  0.75705635  1
  O2-  O171  1  0.43019327  0.81579931  0.09924255  1
  O2-  O172  1  0.43119138  0.82240586  0.42257339  1
  O2-  O173  1  0.42276332  0.81976252  0.75339515  1
  O2-  O174  1  0.93288918  0.32098408  0.10061074  1
  O2-  O175  1  0.92706075  0.32060902  0.42246906  1
  O2-  O176  1  0.92946862  0.32251924  0.76377424  1
  O2-  O177  1  0.93105623  0.81969881  0.10043716  1
  O2-  O178  1  0.92696315  0.82252521  0.42063943  1
  O2-  O179  1  0.92862451  0.82050887  0.76561511  1
  O2-  O180  1  0.32393049  0.06934306  0.24487906  1
  O2-  O181  1  0.32100225  0.06721145  0.56554834  1
  O2-  O182  1  0.32349920  0.07051420  0.90382636  1
  O2-  O183  1  0.32385679  0.57053186  0.24566809  1
  O2-  O184  1  0.32433232  0.57122284  0.57660965  1
  O2-  O185  1  0.31980339  0.56832933  0.90029057  1
  O2-  O186  1  0.81986462  0.07528272  0.24324054  1
  O2-  O187  1  0.81753253  0.06973368  0.56638388  1
  O2-  O188  1  0.82021223  0.07214393  0.90137854  1
  O2-  O189  1  0.82095302  0.57058522  0.24328859  1
  O2-  O190  1  0.82028781  0.57262974  0.57570062  1
  O2-  O191  1  0.81665187  0.57280138  0.90124581  1
  O2-  O192  1  0.04178544  0.08764813  0.27120616  1
  O2-  O193  1  0.04652284  0.08260957  0.59599080  1
  O2-  O194  1  0.04699882  0.08448882  0.94258778  1
  O2-  O195  1  0.03518281  0.58537154  0.26398895  1
  O2-  O196  1  0.04457709  0.58586178  0.60422622  1
  O2-  O197  1  0.04481268  0.58426481  0.93771382  1
  O2-  O198  1  0.54396282  0.08189909  0.26367035  1
  O2-  O199  1  0.53775027  0.08156967  0.60019500  1
  O2-  O200  1  0.54377723  0.08111796  0.93179167  1
  O2-  O201  1  0.54652625  0.57978847  0.26236844  1
  O2-  O202  1  0.53703857  0.58285276  0.59918812  1
  O2-  O203  1  0.54914598  0.57912933  0.94340541  1
  O2-  O204  1  0.16470338  0.20600696  0.27038794  1
  O2-  O205  1  0.17174261  0.21134003  0.59924734  1
  O2-  O206  1  0.16974924  0.20034894  0.94492937  1
  O2-  O207  1  0.16954068  0.70547940  0.26977633  1
  O2-  O208  1  0.16741408  0.70047423  0.60157405  1
  O2-  O209  1  0.16686779  0.69906541  0.93815306  1
  O2-  O210  1  0.66586415  0.21496242  0.26297100  1
  O2-  O211  1  0.66477273  0.21101835  0.59808222  1
  O2-  O212  1  0.66456770  0.21418020  0.93105935  1
  O2-  O213  1  0.66779654  0.71157087  0.26285247  1
  O2-  O214  1  0.66402642  0.70798442  0.59681198  1
  O2-  O215  1  0.66614432  0.70189180  0.93926783  1
  O2-  O216  1  0.08355963  0.45518813  0.06345700  1
  O2-  O217  1  0.08263925  0.46396257  0.40118450  1
  O2-  O218  1  0.08137522  0.46150125  0.73644161  1
  O2-  O219  1  0.08236920  0.95781378  0.07138699  1
  O2-  O220  1  0.08175248  0.96012367  0.40339405  1
  O2-  O221  1  0.08146995  0.95018441  0.72338097  1
  O2-  O222  1  0.58424701  0.44753772  0.06634213  1
  O2-  O223  1  0.58591940  0.45203528  0.39185873  1
  O2-  O224  1  0.58274880  0.46113444  0.73499387  1
  O2-  O225  1  0.58505068  0.95242343  0.06280724  1
  O2-  O226  1  0.58707194  0.95592823  0.39408184  1
  O2-  O227  1  0.57798057  0.94833325  0.73080203  1
  O2-  O228  1  0.20084287  0.33495006  0.06472189  1
  O2-  O229  1  0.20762066  0.33267608  0.40150878  1
  O2-  O230  1  0.20922309  0.33578609  0.73883609  1
  O2-  O231  1  0.20855070  0.83073490  0.06508261  1
  O2-  O232  1  0.20823794  0.83174001  0.40502222  1
  O2-  O233  1  0.20132258  0.83188082  0.72745397  1
  O2-  O234  1  0.70933071  0.33511217  0.06562328  1
  O2-  O235  1  0.71340631  0.33918708  0.39460885  1
  O2-  O236  1  0.70808673  0.33333919  0.73339891  1
  O2-  O237  1  0.70485718  0.83364879  0.06544517  1
  O2-  O238  1  0.70871214  0.83755457  0.39353339  1
  O2-  O239  1  0.70822625  0.82736925  0.73262020  1
  O2-  O240  1  0.45315511  0.41364738  0.26870271  1
  O2-  O241  1  0.45207956  0.41632326  0.60412874  1
  O2-  O242  1  0.45458990  0.41633045  0.93639894  1
  O2-  O243  1  0.45757562  0.91249079  0.26864179  1
  O2-  O244  1  0.45087771  0.91453723  0.60053745  1
  O2-  O245  1  0.45910169  0.91308598  0.93054062  1
  O2-  O246  1  0.95815926  0.41367600  0.27183570  1
  O2-  O247  1  0.95524207  0.42308573  0.59909171  1
  O2-  O248  1  0.95808951  0.41826590  0.93209814  1
  O2-  O249  1  0.95231962  0.92152578  0.27337042  1
  O2-  O250  1  0.95705019  0.91664463  0.59411375  1
  O2-  O251  1  0.95991941  0.91908308  0.93470515  1
  O2-  O252  1  0.33152617  0.29758262  0.26953005  1
  O2-  O253  1  0.33345595  0.29699058  0.60741476  1
  O2-  O254  1  0.32994199  0.30333323  0.94079292  1
  O2-  O255  1  0.33366760  0.79706221  0.27303845  1
  O2-  O256  1  0.33232060  0.79569379  0.60018401  1
  O2-  O257  1  0.33279828  0.78535366  0.93070116  1
  O2-  O258  1  0.83987848  0.29222965  0.26747102  1
  O2-  O259  1  0.83071524  0.29375647  0.59552414  1
  O2-  O260  1  0.83441271  0.29064093  0.93429470  1
  O2-  O261  1  0.83675229  0.79819996  0.26734292  1
  O2-  O262  1  0.83528296  0.78716850  0.59423142  1
  O2-  O263  1  0.83313542  0.78827173  0.93465119  1
  O2-  O264  1  0.42282170  0.03762052  0.06830427  1
  O2-  O265  1  0.41789506  0.04271317  0.39470467  1
  O2-  O266  1  0.41487581  0.03660510  0.73419294  1
  O2-  O267  1  0.41684057  0.53886715  0.07082307  1
  O2-  O268  1  0.41971274  0.54463279  0.39470499  1
  O2-  O269  1  0.41382869  0.54561441  0.73109358  1
  O2-  O270  1  0.91509287  0.04168031  0.07107197  1
  O2-  O271  1  0.91154258  0.04953313  0.39672845  1
  O2-  O272  1  0.92098618  0.04327396  0.72986383  1
  O2-  O273  1  0.91593331  0.53850041  0.06913245  1
  O2-  O274  1  0.90967794  0.54179163  0.39713252  1
  O2-  O275  1  0.91574711  0.55293436  0.72854477  1
  O2-  O276  1  0.30287902  0.17154538  0.07088809  1
  O2-  O277  1  0.29915263  0.16523149  0.39484690  1
  O2-  O278  1  0.29286901  0.16594460  0.73541557  1
  O2-  O279  1  0.29138455  0.66466361  0.07037402  1
  O2-  O280  1  0.30177372  0.66566318  0.39735014  1
  O2-  O281  1  0.29715660  0.66718031  0.72698574  1
  O2-  O282  1  0.78652559  0.16755820  0.06904657  1
  O2-  O283  1  0.78959412  0.16636730  0.39426909  1
  O2-  O284  1  0.79306401  0.16996413  0.73136219  1
  O2-  O285  1  0.79016885  0.66675360  0.07225920  1
  O2-  O286  1  0.79530055  0.66734793  0.39235089  1
  O2-  O287  1  0.79120778  0.66513295  0.72664119  1
