# generated using pymatgen
data_Ca2Al2SiO7
_symmetry_space_group_name_H-M   'P 1'
_cell_length_a   15.45627577
_cell_length_b   15.45691014
_cell_length_c   15.28193581
_cell_angle_alpha   89.99194923
_cell_angle_beta   89.98166464
_cell_angle_gamma   89.99861178
_symmetry_Int_Tables_number   1
_chemical_formula_structural   Ca2Al2SiO7
_chemical_formula_sum   'Ca48 Al48 Si24 O168'
_cell_volume   3650.94999261
_cell_formula_units_Z   24
loop_
 _symmetry_equiv_pos_site_id
 _symmetry_equiv_pos_as_xyz
  1  'x, y, z'
loop_
 _atom_type_symbol
 _atom_type_oxidation_number
  Ca2+  2.0
  Al0+  0.0
  Si0+  0.0
  O2-  -2.0
loop_
 _atom_site_type_symbol
 _atom_site_label
 _atom_site_symmetry_multiplicity
 _atom_site_fract_x
 _atom_site_fract_y
 _atom_site_fract_z
 _atom_site_occupancy
  Ca2+  Ca0  1  0.17015919  0.08443101  0.16680596  1
  Ca2+  Ca1  1  0.17404296  0.08073948  0.50736706  1
  Ca2+  Ca2  1  0.17748755  0.08183591  0.83903446  1
  Ca2+  Ca3  1  0.17861520  0.58853721  0.17308689  1
  Ca2+  Ca4  1  0.17336418  0.59020996  0.50330960  1
  Ca2+  Ca5  1  0.17824648  0.59547998  0.83279130  1
  Ca2+  Ca6  1  0.66645160  0.07688006  0.17216235  1
  Ca2+  Ca7  1  0.66815945  0.08133249  0.50255558  1
  Ca2+  Ca8  1  0.66372656  0.06627232  0.83846453  1
  Ca2+  Ca9  1  0.67411489  0.58419780  0.16793522  1
  Ca2+  Ca10  1  0.67793747  0.59127605  0.50009230  1
  Ca2+  Ca11  1  0.67593016  0.58374002  0.84381877  1
  Ca2+  Ca12  1  0.06964814  0.33751376  0.16354044  1
  Ca2+  Ca13  1  0.07724488  0.33334252  0.49439850  1
  Ca2+  Ca14  1  0.07843101  0.33640352  0.83477914  1
  Ca2+  Ca15  1  0.07544031  0.82749052  0.16274870  1
  Ca2+  Ca16  1  0.08063804  0.82078999  0.49854059  1
  Ca2+  Ca17  1  0.06922213  0.82793836  0.82589400  1
  Ca2+  Ca18  1  0.57640736  0.33469258  0.16076496  1
  Ca2+  Ca19  1  0.57715457  0.32606512  0.48818209  1
  Ca2+  Ca20  1  0.58052835  0.33794990  0.83697500  1
  Ca2+  Ca21  1  0.59034447  0.82049166  0.16180134  1
  Ca2+  Ca22  1  0.57978938  0.83161984  0.50026728  1
  Ca2+  Ca23  1  0.58544885  0.82934580  0.82982032  1
  Ca2+  Ca24  1  0.34067288  0.42340318  0.16909384  1
  Ca2+  Ca25  1  0.33931048  0.42840953  0.50084159  1
  Ca2+  Ca26  1  0.33375613  0.42771426  0.84192336  1
  Ca2+  Ca27  1  0.33460354  0.92243786  0.16761871  1
  Ca2+  Ca28  1  0.33551731  0.92004966  0.51024769  1
  Ca2+  Ca29  1  0.34273577  0.92663159  0.83620661  1
  Ca2+  Ca30  1  0.83327573  0.42215551  0.17180418  1
  Ca2+  Ca31  1  0.83745120  0.42692065  0.50152329  1
  Ca2+  Ca32  1  0.82939006  0.42858932  0.84279654  1
  Ca2+  Ca33  1  0.83046089  0.91774894  0.16877810  1
  Ca2+  Ca34  1  0.82744556  0.91878982  0.50601024  1
  Ca2+  Ca35  1  0.82478213  0.90511934  0.83854853  1
  Ca2+  Ca36  1  0.41895972  0.17712938  0.16129452  1
  Ca2+  Ca37  1  0.42194577  0.17102794  0.49140117  1
  Ca2+  Ca38  1  0.41054381  0.17022688  0.83100561  1
  Ca2+  Ca39  1  0.42895638  0.65609626  0.16181426  1
  Ca2+  Ca40  1  0.41798880  0.66911896  0.49273998  1
  Ca2+  Ca41  1  0.42275580  0.66537089  0.82848470  1
  Ca2+  Ca42  1  0.90671598  0.17812777  0.16435726  1
  Ca2+  Ca43  1  0.91315486  0.17285508  0.48906848  1
  Ca2+  Ca44  1  0.91191729  0.17553377  0.83322117  1
  Ca2+  Ca45  1  0.91895101  0.66300109  0.15981124  1
  Ca2+  Ca46  1  0.92388361  0.66262276  0.49605891  1
  Ca2+  Ca47  1  0.91327693  0.67223955  0.82627651  1
  Al0+  Al48  1  0.00066271  -0.00093775  -0.00503176  1
  Al0+  Al49  1  -0.00000863  -0.00050606  0.33880415  1
  Al0+  Al50  1  -0.00018473  0.00197132  0.66345333  1
  Al0+  Al51  1  0.00299291  0.49979779  -0.00422930  1
  Al0+  Al52  1  0.00165334  0.50002517  0.32894868  1
  Al0+  Al53  1  0.00050796  0.49926953  0.66767844  1
  Al0+  Al54  1  0.50076282  0.00006068  0.01182777  1
  Al0+  Al55  1  0.49911379  -0.00029803  0.33031660  1
  Al0+  Al56  1  0.50143160  -0.00020565  0.67001386  1
  Al0+  Al57  1  0.50129028  0.49902023  -0.00320265  1
  Al0+  Al58  1  0.50028882  0.50107158  0.33244901  1
  Al0+  Al59  1  0.50016157  0.49874714  0.66839043  1
  Al0+  Al60  1  0.25053622  0.25036807  0.00076209  1
  Al0+  Al61  1  0.24870273  0.25016509  0.33097799  1
  Al0+  Al62  1  0.24919823  0.25154322  0.66901960  1
  Al0+  Al63  1  0.25068408  0.75287867  0.00495055  1
  Al0+  Al64  1  0.24837250  0.75120230  0.33274967  1
  Al0+  Al65  1  0.24931589  0.75166138  0.66463883  1
  Al0+  Al66  1  0.74830178  0.24936100  -0.00531990  1
  Al0+  Al67  1  0.74899477  0.24811434  0.33023388  1
  Al0+  Al68  1  0.74862589  0.24969794  0.66623815  1
  Al0+  Al69  1  0.75003162  0.74900828  0.00118121  1
  Al0+  Al70  1  0.74892858  0.75103538  0.33575352  1
  Al0+  Al71  1  0.74960621  0.75061586  0.66841747  1
  Al0+  Al72  1  0.82237546  0.57057672  0.34719342  1
  Al0+  Al73  1  0.68126577  0.93079760  0.67979053  1
  Al0+  Al74  1  0.82272691  0.57041703  0.01522835  1
  Al0+  Al75  1  0.32126261  0.57263383  0.67978739  1
  Al0+  Al76  1  0.32056589  0.07084900  0.67925468  1
  Al0+  Al77  1  0.92738714  0.32192934  0.98430636  1
  Al0+  Al78  1  0.32059609  0.07194708  0.01646274  1
  Al0+  Al79  1  0.57133443  0.17681482  0.31694248  1
  Al0+  Al80  1  0.92515088  0.82207790  0.64886459  1
  Al0+  Al81  1  0.68015061  0.92779124  0.01589435  1
  Al0+  Al82  1  0.67911323  0.42752876  0.01516564  1
  Al0+  Al83  1  0.07078541  0.67934708  0.31764950  1
  Al0+  Al84  1  0.92984267  0.32032871  0.32079200  1
  Al0+  Al85  1  0.42812831  0.32153724  0.31825104  1
  Al0+  Al86  1  0.32052984  0.57209470  0.01364620  1
  Al0+  Al87  1  0.81984673  0.07122022  0.34596920  1
  Al0+  Al88  1  0.57138424  0.68115917  0.32064326  1
  Al0+  Al89  1  0.07026026  0.67826552  0.65114052  1
  Al0+  Al90  1  0.32186362  0.57041876  0.34741388  1
  Al0+  Al91  1  0.82065830  0.56919772  0.67975634  1
  Al0+  Al92  1  0.42945812  0.31980648  0.98362258  1
  Al0+  Al93  1  0.56963234  0.67949172  0.98562954  1
  Al0+  Al94  1  0.43086711  0.82139113  0.65578304  1
  Al0+  Al95  1  0.92954354  0.81945132  0.98736247  1
  Si0+  Si96  1  0.07194493  0.17808844  0.98229605  1
  Si0+  Si97  1  0.32007565  0.07115036  0.34874788  1
  Si0+  Si98  1  0.42765023  0.82390866  0.98586826  1
  Si0+  Si99  1  0.17632743  0.92853507  0.68392802  1
  Si0+  Si100  1  0.17849214  0.92905101  0.35055757  1
  Si0+  Si101  1  0.42589034  0.82248541  0.31589868  1
  Si0+  Si102  1  0.67811591  0.42771372  0.34959108  1
  Si0+  Si103  1  0.42753749  0.32157507  0.65162826  1
  Si0+  Si104  1  0.67655959  0.92777323  0.35193564  1
  Si0+  Si105  1  0.92822308  0.82267053  0.31788275  1
  Si0+  Si106  1  0.07569919  0.67841684  0.98315543  1
  Si0+  Si107  1  0.17562406  0.92953155  0.01763702  1
  Si0+  Si108  1  0.92856050  0.31927234  0.65143760  1
  Si0+  Si109  1  0.17764027  0.42743698  0.34932182  1
  Si0+  Si110  1  0.17875098  0.42721113  0.01751718  1
  Si0+  Si111  1  0.82346122  0.07171840  0.01386424  1
  Si0+  Si112  1  0.17813419  0.42763758  0.68419862  1
  Si0+  Si113  1  0.07202805  0.17497889  0.31742467  1
  Si0+  Si114  1  0.57100890  0.17482392  0.98112585  1
  Si0+  Si115  1  0.67763560  0.42466617  0.68244444  1
  Si0+  Si116  1  0.82382013  0.07478238  0.68378129  1
  Si0+  Si117  1  0.57127430  0.67559068  0.64998001  1
  Si0+  Si118  1  0.56937223  0.17871362  0.65311249  1
  Si0+  Si119  1  0.07293766  0.18016559  0.65172257  1
  O2-  O120  1  0.24549422  -0.00293525  0.06249238  1
  O2-  O121  1  0.25060527  -0.00027119  0.39243745  1
  O2-  O122  1  0.24649992  -0.00375992  0.72768576  1
  O2-  O123  1  0.24493286  0.49833290  0.06106296  1
  O2-  O124  1  0.24794423  0.49424085  0.39403921  1
  O2-  O125  1  0.24569141  0.49836762  0.72639293  1
  O2-  O126  1  0.75556064  0.00349650  0.05946343  1
  O2-  O127  1  0.74452676  -0.00171775  0.39456643  1
  O2-  O128  1  0.76051135  0.00135594  0.72710307  1
  O2-  O129  1  0.75437709  0.49527142  0.06592060  1
  O2-  O130  1  0.74735879  0.49568065  0.39473143  1
  O2-  O131  1  0.74447123  0.49547750  0.72494282  1
  O2-  O132  1  0.00228388  0.24256844  0.27423671  1
  O2-  O133  1  -0.00210508  0.24643820  0.60896544  1
  O2-  O134  1  0.00201391  0.24575271  0.93803104  1
  O2-  O135  1  -0.00777885  0.75056877  0.27227441  1
  O2-  O136  1  -0.00357074  0.74852177  0.60015830  1
  O2-  O137  1  0.00258414  0.74292231  0.94062436  1
  O2-  O138  1  0.50020452  0.24981132  0.26800307  1
  O2-  O139  1  0.49967614  0.25115220  0.61061917  1
  O2-  O140  1  0.50260349  0.24352490  0.93575162  1
  O2-  O141  1  0.49434454  0.75354028  0.27314806  1
  O2-  O142  1  0.49967496  0.74235550  0.60697341  1
  O2-  O143  1  0.49314110  0.75358130  0.94019701  1
  O2-  O144  1  0.07196369  0.17759474  0.08786612  1
  O2-  O145  1  0.07379107  0.17588215  0.42342216  1
  O2-  O146  1  0.07496836  0.18200673  0.75655681  1
  O2-  O147  1  0.07733723  0.68085631  0.08892188  1
  O2-  O148  1  0.07264250  0.68111463  0.43054669  1
  O2-  O149  1  0.07090149  0.68103504  0.76470725  1
  O2-  O150  1  0.56993971  0.17468568  0.08651446  1
  O2-  O151  1  0.56815695  0.17647408  0.43168571  1
  O2-  O152  1  0.56932820  0.17859080  0.75785073  1
  O2-  O153  1  0.57023395  0.68033146  0.09882654  1
  O2-  O154  1  0.57124269  0.68437620  0.43415753  1
  O2-  O155  1  0.57104491  0.67536186  0.75549923  1
  O2-  O156  1  0.17641382  0.42742609  0.24412160  1
  O2-  O157  1  0.17877116  0.42242407  0.57868724  1
  O2-  O158  1  0.18057819  0.42511446  0.91168105  1
  O2-  O159  1  0.17758532  0.93093997  0.24551417  1
  O2-  O160  1  0.17738500  0.93179160  0.57791443  1
  O2-  O161  1  0.17426898  0.93098501  0.91226789  1
  O2-  O162  1  0.67901900  0.42816509  0.24441487  1
  O2-  O163  1  0.67860363  0.41947098  0.57699086  1
  O2-  O164  1  0.68076328  0.43035826  0.90088669  1
  O2-  O165  1  0.67835543  0.92659367  0.24650781  1
  O2-  O166  1  0.67872637  0.93588787  0.56669469  1
  O2-  O167  1  0.67897676  0.92921767  0.90260142  1
  O2-  O168  1  0.42948072  0.31851652  0.09628618  1
  O2-  O169  1  0.42873989  0.31864093  0.43293667  1
  O2-  O170  1  0.42658166  0.32117403  0.75655631  1
  O2-  O171  1  0.42770405  0.82327277  0.09144065  1
  O2-  O172  1  0.42590265  0.82467622  0.42192083  1
  O2-  O173  1  0.43470406  0.82385169  0.76862252  1
  O2-  O174  1  0.92869836  0.32010690  0.09733040  1
  O2-  O175  1  0.93273089  0.31923426  0.43461085  1
  O2-  O176  1  0.92930547  0.31765425  0.75636542  1
  O2-  O177  1  0.93307482  0.82259714  0.10063913  1
  O2-  O178  1  0.93117502  0.82386622  0.42331523  1
  O2-  O179  1  0.92671698  0.82076651  0.76253714  1
  O2-  O180  1  0.31752317  0.07040725  0.24384755  1
  O2-  O181  1  0.31896190  0.07108751  0.56571958  1
  O2-  O182  1  0.31922914  0.07064448  0.90297253  1
  O2-  O183  1  0.32104349  0.56998486  0.23453896  1
  O2-  O184  1  0.32270150  0.56994988  0.56664593  1
  O2-  O185  1  0.31873834  0.57260989  0.90013152  1
  O2-  O186  1  0.82183587  0.06824449  0.23299919  1
  O2-  O187  1  0.82037083  0.07946900  0.57822281  1
  O2-  O188  1  0.82262002  0.07107252  0.90806602  1
  O2-  O189  1  0.82309729  0.56982273  0.23480160  1
  O2-  O190  1  0.82113665  0.56659238  0.56621592  1
  O2-  O191  1  0.82072183  0.57078349  0.90133684  1
  O2-  O192  1  0.04819193  0.08065234  0.27247544  1
  O2-  O193  1  0.05129306  0.08714397  0.60378590  1
  O2-  O194  1  0.04876288  0.08474845  0.93426363  1
  O2-  O195  1  0.04537615  0.58227671  0.26343372  1
  O2-  O196  1  0.04529586  0.57772205  0.59965878  1
  O2-  O197  1  0.05865653  0.58287356  0.93842357  1
  O2-  O198  1  0.54199225  0.07878354  0.26378202  1
  O2-  O199  1  0.53975735  0.08863624  0.60423232  1
  O2-  O200  1  0.54193284  0.08043897  0.93822401  1
  O2-  O201  1  0.54260864  0.58421515  0.26775759  1
  O2-  O202  1  0.54893927  0.58071753  0.60448143  1
  O2-  O203  1  0.53979638  0.58395497  0.92972544  1
  O2-  O204  1  0.16474786  0.20094829  0.26991219  1
  O2-  O205  1  0.16293793  0.21208835  0.60184066  1
  O2-  O206  1  0.16464380  0.20649657  0.93563391  1
  O2-  O207  1  0.16567717  0.71566495  0.26335077  1
  O2-  O208  1  0.16788765  0.70973625  0.59719132  1
  O2-  O209  1  0.16757134  0.71134474  0.93688650  1
  O2-  O210  1  0.67021595  0.20052294  0.26451911  1
  O2-  O211  1  0.66190907  0.20536986  0.60500481  1
  O2-  O212  1  0.66435602  0.19772895  0.93309963  1
  O2-  O213  1  0.66737972  0.71377274  0.26604089  1
  O2-  O214  1  0.66347235  0.70586245  0.60439076  1
  O2-  O215  1  0.66544258  0.71279425  0.93203351  1
  O2-  O216  1  0.08395587  0.45052023  0.06158464  1
  O2-  O217  1  0.08519310  0.45466044  0.39695904  1
  O2-  O218  1  0.08414719  0.45059995  0.73045693  1
  O2-  O219  1  0.08325885  0.95822240  0.06531631  1
  O2-  O220  1  0.08823603  0.95732266  0.40091399  1
  O2-  O221  1  0.08308836  0.95750601  0.72955577  1
  O2-  O222  1  0.58128650  0.45769460  0.06656046  1
  O2-  O223  1  0.58491293  0.45346211  0.39666882  1
  O2-  O224  1  0.58312051  0.44773920  0.72773501  1
  O2-  O225  1  0.58560875  0.95785296  0.07377459  1
  O2-  O226  1  0.58150478  0.95339805  0.39596396  1
  O2-  O227  1  0.58742533  0.96602070  0.73633128  1
  O2-  O228  1  0.20398147  0.33420913  0.06437448  1
  O2-  O229  1  0.19979149  0.33201425  0.39548771  1
  O2-  O230  1  0.20554361  0.33564754  0.73323576  1
  O2-  O231  1  0.20103230  0.83710292  0.06618692  1
  O2-  O232  1  0.20712736  0.83805775  0.39863486  1
  O2-  O233  1  0.19964535  0.83490391  0.72896120  1
  O2-  O234  1  0.70136906  0.32548658  0.06321942  1
  O2-  O235  1  0.70235840  0.33299984  0.39461199  1
  O2-  O236  1  0.70429419  0.33200575  0.73084587  1
  O2-  O237  1  0.71360840  0.83323061  0.07069513  1
  O2-  O238  1  0.70344726  0.83598687  0.40046273  1
  O2-  O239  1  0.70674303  0.83325969  0.73409887  1
  O2-  O240  1  0.45643822  0.41977451  0.26678199  1
  O2-  O241  1  0.45597222  0.41310977  0.60372656  1
  O2-  O242  1  0.46184606  0.41487362  0.92775523  1
  O2-  O243  1  0.45091233  0.91602454  0.26954440  1
  O2-  O244  1  0.46498919  0.91698707  0.59967750  1
  O2-  O245  1  0.45611261  0.91834541  0.94293005  1
  O2-  O246  1  0.96374974  0.41402055  0.26429193  1
  O2-  O247  1  0.95909462  0.40997291  0.60415323  1
  O2-  O248  1  0.96222194  0.41669471  0.92807793  1
  O2-  O249  1  0.95966020  0.91506745  0.27208437  1
  O2-  O250  1  0.95313067  0.92276531  0.59866124  1
  O2-  O251  1  0.96031638  0.91551726  0.93078210  1
  O2-  O252  1  0.32912111  0.29340688  0.26623183  1
  O2-  O253  1  0.33569302  0.29317795  0.60472423  1
  O2-  O254  1  0.33189972  0.28886326  0.93067878  1
  O2-  O255  1  0.33173141  0.80005740  0.27045244  1
  O2-  O256  1  0.33239875  0.79837581  0.60177967  1
  O2-  O257  1  0.33170204  0.80423103  0.94160084  1
  O2-  O258  1  0.83367776  0.29039727  0.26698974  1
  O2-  O259  1  0.83604785  0.29269525  0.60437704  1
  O2-  O260  1  0.83206549  0.29014022  0.92754733  1
  O2-  O261  1  0.83239478  0.80285932  0.27548343  1
  O2-  O262  1  0.82578384  0.79613924  0.59709630  1
  O2-  O263  1  0.83346654  0.78879549  0.93360808  1
  O2-  O264  1  0.41485205  0.04146153  0.07393967  1
  O2-  O265  1  0.41286994  0.04396951  0.39469946  1
  O2-  O266  1  0.41618112  0.04062745  0.73435197  1
  O2-  O267  1  0.41659216  0.53721457  0.06440727  1
  O2-  O268  1  0.41841909  0.54053276  0.40284562  1
  O2-  O269  1  0.41769298  0.54017103  0.73349557  1
  O2-  O270  1  0.91808762  0.04778972  0.05832821  1
  O2-  O271  1  0.91692022  0.04281816  0.40229400  1
  O2-  O272  1  0.92064169  0.05742466  0.72618246  1
  O2-  O273  1  0.92455134  0.54537305  0.06269133  1
  O2-  O274  1  0.91949869  0.53748013  0.39965986  1
  O2-  O275  1  0.91672728  0.53700508  0.73367141  1
  O2-  O276  1  0.28675374  0.16748794  0.07027356  1
  O2-  O277  1  0.29142917  0.16315828  0.39590626  1
  O2-  O278  1  0.28772688  0.16701307  0.73332869  1
  O2-  O279  1  0.29275630  0.66937692  0.06837999  1
  O2-  O280  1  0.28960496  0.66840520  0.39880823  1
  O2-  O281  1  0.29131593  0.66996931  0.73295976  1
  O2-  O282  1  0.79716841  0.16577382  0.05780754  1
  O2-  O283  1  0.79019061  0.16800042  0.40163433  1
  O2-  O284  1  0.79304211  0.16667968  0.73138933  1
  O2-  O285  1  0.79185499  0.66723508  0.06863123  1
  O2-  O286  1  0.79082419  0.66758884  0.40093752  1
  O2-  O287  1  0.79105985  0.66623233  0.73214609  1
