# generated using pymatgen
data_Ca2Al2SiO7
_symmetry_space_group_name_H-M   'P 1'
_cell_length_a   15.46531537
_cell_length_b   15.46448187
_cell_length_c   15.28934863
_cell_angle_alpha   90.00392430
_cell_angle_beta   90.00361165
_cell_angle_gamma   90.01260456
_symmetry_Int_Tables_number   1
_chemical_formula_structural   Ca2Al2SiO7
_chemical_formula_sum   'Ca48 Al48 Si24 O168'
_cell_volume   3656.64774452
_cell_formula_units_Z   24
loop_
 _symmetry_equiv_pos_site_id
 _symmetry_equiv_pos_as_xyz
  1  'x, y, z'
loop_
 _atom_type_symbol
 _atom_type_oxidation_number
  Ca2+  2.0
  Al0+  0.0
  Si0+  0.0
  O2-  -2.0
loop_
 _atom_site_type_symbol
 _atom_site_label
 _atom_site_symmetry_multiplicity
 _atom_site_fract_x
 _atom_site_fract_y
 _atom_site_fract_z
 _atom_site_occupancy
  Ca2+  Ca0  1  0.17283198  0.07502271  0.16916278  1
  Ca2+  Ca1  1  0.17847102  0.08160489  0.51161171  1
  Ca2+  Ca2  1  0.16036026  0.07319133  0.83264327  1
  Ca2+  Ca3  1  0.15923768  0.57796984  0.16482280  1
  Ca2+  Ca4  1  0.17005853  0.58378050  0.50395438  1
  Ca2+  Ca5  1  0.16481724  0.57826363  0.84283846  1
  Ca2+  Ca6  1  0.67002239  0.07286721  0.16629077  1
  Ca2+  Ca7  1  0.66669063  0.07629178  0.50818621  1
  Ca2+  Ca8  1  0.67789161  0.08345755  0.83758929  1
  Ca2+  Ca9  1  0.67483272  0.57963260  0.17388360  1
  Ca2+  Ca10  1  0.65976239  0.57670992  0.50321745  1
  Ca2+  Ca11  1  0.67002077  0.57488960  0.83880749  1
  Ca2+  Ca12  1  0.08331354  0.33089913  0.15756871  1
  Ca2+  Ca13  1  0.07692604  0.32739645  0.50074844  1
  Ca2+  Ca14  1  0.07494212  0.32747425  0.82502119  1
  Ca2+  Ca15  1  0.07617298  0.82570417  0.15206860  1
  Ca2+  Ca16  1  0.07615113  0.84465864  0.50254686  1
  Ca2+  Ca17  1  0.07474990  0.83825240  0.83034176  1
  Ca2+  Ca18  1  0.58124530  0.33841708  0.16021020  1
  Ca2+  Ca19  1  0.59320059  0.32767849  0.50015775  1
  Ca2+  Ca20  1  0.58248688  0.33416566  0.82589175  1
  Ca2+  Ca21  1  0.58562889  0.83646049  0.16613865  1
  Ca2+  Ca22  1  0.58430688  0.82400447  0.48861207  1
  Ca2+  Ca23  1  0.59122846  0.82582463  0.82834501  1
  Ca2+  Ca24  1  0.32978090  0.41279408  0.16387149  1
  Ca2+  Ca25  1  0.33399886  0.42000097  0.50391713  1
  Ca2+  Ca26  1  0.32847937  0.41479368  0.84151575  1
  Ca2+  Ca27  1  0.32963481  0.91619905  0.17459684  1
  Ca2+  Ca28  1  0.33259632  0.92405332  0.50687403  1
  Ca2+  Ca29  1  0.32196109  0.92139504  0.83599082  1
  Ca2+  Ca30  1  0.82430265  0.42857137  0.17121697  1
  Ca2+  Ca31  1  0.82469579  0.42205008  0.50556785  1
  Ca2+  Ca32  1  0.82354422  0.41659905  0.84017625  1
  Ca2+  Ca33  1  0.82616762  0.91425532  0.16377612  1
  Ca2+  Ca34  1  0.82803775  0.91783801  0.50634711  1
  Ca2+  Ca35  1  0.83673003  0.92482762  0.84010134  1
  Ca2+  Ca36  1  0.41727550  0.17013904  0.16129854  1
  Ca2+  Ca37  1  0.42008803  0.15895450  0.49813645  1
  Ca2+  Ca38  1  0.42339935  0.17026276  0.82803252  1
  Ca2+  Ca39  1  0.42543031  0.67031715  0.16600726  1
  Ca2+  Ca40  1  0.42892295  0.67408826  0.49406360  1
  Ca2+  Ca41  1  0.42502317  0.66876944  0.82670084  1
  Ca2+  Ca42  1  0.91583336  0.16612770  0.16046556  1
  Ca2+  Ca43  1  0.91416136  0.16811774  0.50589741  1
  Ca2+  Ca44  1  0.91588310  0.16761341  0.81960683  1
  Ca2+  Ca45  1  0.91465041  0.66750970  0.15614211  1
  Ca2+  Ca46  1  0.91403545  0.67099045  0.49788550  1
  Ca2+  Ca47  1  0.91220176  0.67794929  0.83380924  1
  Al0+  Al48  1  0.00257294  -0.00057664  0.00660607  1
  Al0+  Al49  1  0.00116806  0.00092818  0.33033952  1
  Al0+  Al50  1  0.00031025  0.00051267  0.66291146  1
  Al0+  Al51  1  0.00126348  0.49786821  0.00329733  1
  Al0+  Al52  1  -0.00161144  0.49876982  0.33757836  1
  Al0+  Al53  1  -0.00101551  0.50235898  0.66217581  1
  Al0+  Al54  1  0.50039221  0.00176287  0.00010928  1
  Al0+  Al55  1  0.50020764  0.00069350  0.33567610  1
  Al0+  Al56  1  0.49847327  0.00042093  0.66966423  1
  Al0+  Al57  1  0.49729889  0.50016740  -0.00199950  1
  Al0+  Al58  1  0.49828508  0.49930264  0.33243743  1
  Al0+  Al59  1  0.49959980  0.50086458  0.66644759  1
  Al0+  Al60  1  0.25113657  0.25137849  -0.00137390  1
  Al0+  Al61  1  0.24955808  0.24785740  0.33637232  1
  Al0+  Al62  1  0.25056483  0.25154507  0.66638145  1
  Al0+  Al63  1  0.25138669  0.74883059  0.00023508  1
  Al0+  Al64  1  0.24815331  0.74869730  0.33100489  1
  Al0+  Al65  1  0.25031452  0.74963842  0.67057326  1
  Al0+  Al66  1  0.74980899  0.24892794  0.00883735  1
  Al0+  Al67  1  0.75109044  0.25131503  0.33290283  1
  Al0+  Al68  1  0.74732369  0.25066250  0.66488224  1
  Al0+  Al69  1  0.75014310  0.75090079  0.00102004  1
  Al0+  Al70  1  0.75227540  0.75025499  0.33565109  1
  Al0+  Al71  1  0.75137609  0.74710533  0.65697438  1
  Al0+  Al72  1  0.57056831  0.67915835  0.65345652  1
  Al0+  Al73  1  0.67748076  0.92844298  0.01266737  1
  Al0+  Al74  1  0.32007815  0.07006939  0.34652130  1
  Al0+  Al75  1  0.07193188  0.67620139  0.98485399  1
  Al0+  Al76  1  0.82053817  0.57026346  0.01236270  1
  Al0+  Al77  1  0.82394454  0.07180496  0.01474691  1
  Al0+  Al78  1  0.07168531  0.17912717  0.65122520  1
  Al0+  Al79  1  0.82222587  0.57178133  0.35117196  1
  Al0+  Al80  1  0.67570086  0.42858142  0.01471412  1
  Al0+  Al81  1  0.56959617  0.17876430  0.65389397  1
  Al0+  Al82  1  0.43024812  0.32099832  0.98616238  1
  Al0+  Al83  1  0.18018850  0.42886140  0.01195339  1
  Al0+  Al84  1  0.67640324  0.42958924  0.35038568  1
  Al0+  Al85  1  0.93050299  0.82141180  0.65173062  1
  Al0+  Al86  1  0.17897941  0.92921928  0.68179425  1
  Al0+  Al87  1  0.57221977  0.67834440  0.31574899  1
  Al0+  Al88  1  0.42921613  0.82258628  0.31866932  1
  Al0+  Al89  1  0.32405169  0.07408585  0.68516463  1
  Al0+  Al90  1  0.68094334  0.93102716  0.34755763  1
  Al0+  Al91  1  0.92623204  0.32332783  0.65157413  1
  Al0+  Al92  1  0.81804748  0.06919585  0.67699090  1
  Al0+  Al93  1  0.18059161  0.92720598  0.01524881  1
  Al0+  Al94  1  0.92879873  0.82140571  0.98467501  1
  Al0+  Al95  1  0.67958963  0.43063861  0.68108849  1
  Si0+  Si96  1  0.07234054  0.18062605  0.31626466  1
  Si0+  Si97  1  0.32052896  0.57000285  0.68157317  1
  Si0+  Si98  1  0.07048539  0.67640009  0.31836314  1
  Si0+  Si99  1  0.92834439  0.31903730  0.98781122  1
  Si0+  Si100  1  0.93057600  0.82222921  0.31692520  1
  Si0+  Si101  1  0.17770524  0.92611165  0.34958797  1
  Si0+  Si102  1  0.57011604  0.68010638  0.98517235  1
  Si0+  Si103  1  0.57340884  0.17796174  0.98393241  1
  Si0+  Si104  1  0.42802018  0.32293266  0.64894448  1
  Si0+  Si105  1  0.32109864  0.07182369  0.01616653  1
  Si0+  Si106  1  0.17890053  0.42775952  0.34926127  1
  Si0+  Si107  1  0.07180619  0.17923097  0.98653675  1
  Si0+  Si108  1  0.57223668  0.17921689  0.31772684  1
  Si0+  Si109  1  0.67783233  0.92424083  0.68064779  1
  Si0+  Si110  1  0.92989580  0.32111762  0.31607989  1
  Si0+  Si111  1  0.07449365  0.67825512  0.64913274  1
  Si0+  Si112  1  0.31936061  0.57136300  0.34818933  1
  Si0+  Si113  1  0.42648153  0.31983873  0.31869101  1
  Si0+  Si114  1  0.82377217  0.57346563  0.68449683  1
  Si0+  Si115  1  0.82463194  0.07285190  0.35104728  1
  Si0+  Si116  1  0.17725396  0.43033933  0.68033889  1
  Si0+  Si117  1  0.42806361  0.82355490  0.98438505  1
  Si0+  Si118  1  0.32304647  0.57297503  0.01771741  1
  Si0+  Si119  1  0.42677526  0.82131068  0.65233721  1
  O2-  O120  1  0.25763892  -0.00061286  0.06210163  1
  O2-  O121  1  0.24875158  -0.00783950  0.39286673  1
  O2-  O122  1  0.24936234  0.00314852  0.73208598  1
  O2-  O123  1  0.25162405  0.50589612  0.06069183  1
  O2-  O124  1  0.24866347  0.49991047  0.39132108  1
  O2-  O125  1  0.24807560  0.50071343  0.72336032  1
  O2-  O126  1  0.75136979  -0.00092340  0.06238830  1
  O2-  O127  1  0.75560532  0.00511348  0.39497029  1
  O2-  O128  1  0.74501229  -0.00618942  0.72489729  1
  O2-  O129  1  0.74689863  0.50098850  0.06406981  1
  O2-  O130  1  0.74577482  0.50402018  0.40038292  1
  O2-  O131  1  0.75693382  0.50255439  0.72728945  1
  O2-  O132  1  -0.00024117  0.24913860  0.27270720  1
  O2-  O133  1  -0.00104787  0.25110259  0.60114341  1
  O2-  O134  1  -0.00505544  0.24413687  0.94515988  1
  O2-  O135  1  0.00069235  0.74868309  0.27727142  1
  O2-  O136  1  0.00726652  0.74784187  0.60465440  1
  O2-  O137  1  0.00156231  0.74937696  0.93475731  1
  O2-  O138  1  0.50152366  0.25239545  0.27753863  1
  O2-  O139  1  0.49297198  0.25125239  0.60454847  1
  O2-  O140  1  0.50858041  0.25067211  0.94020540  1
  O2-  O141  1  0.50252609  0.75321220  0.26588281  1
  O2-  O142  1  0.50064277  0.75885732  0.60786982  1
  O2-  O143  1  0.50129209  0.75408378  0.94293581  1
  O2-  O144  1  0.07433302  0.18286274  0.09228165  1
  O2-  O145  1  0.07425372  0.18256123  0.42072311  1
  O2-  O146  1  0.07004246  0.18107071  0.76526720  1
  O2-  O147  1  0.07031430  0.67711132  0.09917454  1
  O2-  O148  1  0.07285126  0.67502834  0.42344207  1
  O2-  O149  1  0.07550772  0.67497115  0.75396607  1
  O2-  O150  1  0.56955218  0.17579496  0.08981548  1
  O2-  O151  1  0.57178456  0.17903463  0.42282559  1
  O2-  O152  1  0.57037798  0.18182559  0.76673983  1
  O2-  O153  1  0.56765348  0.67845057  0.08989773  1
  O2-  O154  1  0.56659039  0.67777352  0.42935829  1
  O2-  O155  1  0.56837336  0.67850125  0.76713536  1
  O2-  O156  1  0.17942676  0.42684059  0.24422289  1
  O2-  O157  1  0.17955885  0.43227502  0.57460572  1
  O2-  O158  1  0.18210255  0.42768041  0.89893735  1
  O2-  O159  1  0.17745437  0.92770477  0.24399418  1
  O2-  O160  1  0.18248049  0.92825785  0.56772196  1
  O2-  O161  1  0.17976073  0.92994616  0.90263507  1
  O2-  O162  1  0.67803121  0.42894501  0.23698772  1
  O2-  O163  1  0.67790920  0.43265084  0.56829754  1
  O2-  O164  1  0.67680376  0.42941143  0.90100498  1
  O2-  O165  1  0.68176388  0.93330933  0.23467826  1
  O2-  O166  1  0.67890325  0.92560665  0.57484992  1
  O2-  O167  1  0.67627604  0.92944736  0.89907490  1
  O2-  O168  1  0.42701769  0.31716256  0.09978102  1
  O2-  O169  1  0.42148953  0.31913400  0.42346714  1
  O2-  O170  1  0.42930855  0.32581422  0.75437938  1
  O2-  O171  1  0.42702772  0.82246899  0.08934913  1
  O2-  O172  1  0.42827035  0.81939826  0.43231769  1
  O2-  O173  1  0.42475273  0.81639688  0.75813541  1
  O2-  O174  1  0.93255236  0.31864450  0.09329899  1
  O2-  O175  1  0.93192055  0.32090209  0.42083372  1
  O2-  O176  1  0.92882465  0.32320668  0.76570140  1
  O2-  O177  1  0.93030276  0.81989942  0.09875462  1
  O2-  O178  1  0.93390204  0.82546691  0.42201636  1
  O2-  O179  1  0.92895778  0.82088857  0.76427185  1
  O2-  O180  1  0.31572796  0.07387872  0.23335647  1
  O2-  O181  1  0.32320431  0.07123429  0.57117980  1
  O2-  O182  1  0.31951953  0.07185186  0.91112547  1
  O2-  O183  1  0.31822998  0.57068458  0.24341491  1
  O2-  O184  1  0.31956676  0.56900036  0.57603198  1
  O2-  O185  1  0.32513213  0.57153854  0.91193336  1
  O2-  O186  1  0.82565817  0.07205520  0.24556487  1
  O2-  O187  1  0.81566675  0.06744602  0.56369726  1
  O2-  O188  1  0.82347759  0.07434489  0.90116694  1
  O2-  O189  1  0.82601369  0.56758182  0.23777725  1
  O2-  O190  1  0.82382590  0.57324778  0.57902512  1
  O2-  O191  1  0.81858483  0.56910484  0.89870329  1
  O2-  O192  1  0.04662000  0.08777031  0.26886491  1
  O2-  O193  1  0.04490191  0.08201947  0.59590082  1
  O2-  O194  1  0.04975922  0.08502554  0.94311404  1
  O2-  O195  1  0.04287556  0.58334444  0.27264947  1
  O2-  O196  1  0.04851723  0.58582874  0.59974362  1
  O2-  O197  1  0.04587304  0.57596949  0.93402003  1
  O2-  O198  1  0.54163722  0.08889451  0.26974709  1
  O2-  O199  1  0.54065419  0.08055077  0.60021062  1
  O2-  O200  1  0.54438036  0.08631967  0.93560994  1
  O2-  O201  1  0.53780743  0.58057559  0.26385933  1
  O2-  O202  1  0.53149574  0.58567775  0.59853408  1
  O2-  O203  1  0.53798099  0.58996580  0.93666983  1
  O2-  O204  1  0.16299965  0.21173122  0.26790052  1
  O2-  O205  1  0.16974770  0.21109967  0.59797721  1
  O2-  O206  1  0.16069644  0.21274960  0.93803835  1
  O2-  O207  1  0.16251479  0.70110389  0.26992039  1
  O2-  O208  1  0.16939228  0.70192346  0.60340588  1
  O2-  O209  1  0.17319436  0.69989700  0.93519662  1
  O2-  O210  1  0.66471694  0.20531822  0.27041421  1
  O2-  O211  1  0.66361212  0.21103279  0.59627387  1
  O2-  O212  1  0.66943712  0.20008237  0.94195146  1
  O2-  O213  1  0.67288085  0.70498618  0.26751768  1
  O2-  O214  1  0.66676572  0.70278953  0.59649891  1
  O2-  O215  1  0.66187841  0.70614156  0.93749454  1
  O2-  O216  1  0.08490692  0.45609539  0.07045004  1
  O2-  O217  1  0.08782959  0.45510728  0.39737908  1
  O2-  O218  1  0.08513773  0.45850526  0.72624168  1
  O2-  O219  1  0.08692629  0.95993189  0.07296867  1
  O2-  O220  1  0.08486091  0.95687463  0.39432924  1
  O2-  O221  1  0.08047510  0.95884384  0.73294698  1
  O2-  O222  1  0.57601572  0.45605949  0.06495921  1
  O2-  O223  1  0.57523588  0.45264736  0.40085891  1
  O2-  O224  1  0.58256394  0.46358744  0.73368806  1
  O2-  O225  1  0.57977693  0.95921557  0.06750152  1
  O2-  O226  1  0.58441262  0.96102375  0.40145760  1
  O2-  O227  1  0.58301703  0.94542907  0.72507783  1
  O2-  O228  1  0.21488062  0.33418569  0.06898178  1
  O2-  O229  1  0.20898599  0.33737853  0.39744011  1
  O2-  O230  1  0.20388910  0.33874131  0.72737062  1
  O2-  O231  1  0.20985431  0.82978217  0.06835320  1
  O2-  O232  1  0.19760293  0.83061308  0.39392438  1
  O2-  O233  1  0.20734419  0.83067127  0.73515264  1
  O2-  O234  1  0.70195424  0.33080916  0.06906932  1
  O2-  O235  1  0.70914013  0.33064711  0.40057392  1
  O2-  O236  1  0.70738468  0.33324325  0.73365191  1
  O2-  O237  1  0.70397230  0.83071426  0.06719394  1
  O2-  O238  1  0.71098338  0.83437075  0.40086532  1
  O2-  O239  1  0.70550735  0.82986668  0.72337746  1
  O2-  O240  1  0.44923971  0.41280034  0.27138155  1
  O2-  O241  1  0.45572689  0.41565757  0.60174796  1
  O2-  O242  1  0.45341311  0.41932901  0.93120206  1
  O2-  O243  1  0.45513209  0.92218550  0.26636934  1
  O2-  O244  1  0.44538308  0.91741530  0.61006038  1
  O2-  O245  1  0.45235849  0.91658481  0.93794344  1
  O2-  O246  1  0.96123946  0.41241950  0.26975518  1
  O2-  O247  1  0.95679544  0.42086268  0.59687989  1
  O2-  O248  1  0.96016814  0.40880281  0.94015885  1
  O2-  O249  1  0.95936682  0.91369702  0.26855075  1
  O2-  O250  1  0.96125861  0.91635775  0.59449919  1
  O2-  O251  1  0.96044210  0.92112484  0.93576005  1
  O2-  O252  1  0.33564709  0.28803198  0.27022541  1
  O2-  O253  1  0.33276998  0.30329719  0.60353728  1
  O2-  O254  1  0.33458460  0.28792456  0.93082956  1
  O2-  O255  1  0.33013085  0.79123888  0.26658015  1
  O2-  O256  1  0.33555746  0.78958170  0.60460583  1
  O2-  O257  1  0.33796540  0.79259869  0.93578170  1
  O2-  O258  1  0.83781959  0.29453172  0.26851389  1
  O2-  O259  1  0.82969476  0.29278984  0.59711160  1
  O2-  O260  1  0.83404397  0.29560143  0.94379330  1
  O2-  O261  1  0.83834393  0.79608087  0.27106608  1
  O2-  O262  1  0.83621897  0.78881828  0.59393548  1
  O2-  O263  1  0.82972126  0.79433471  0.93176510  1
  O2-  O264  1  0.41632609  0.05149601  0.06075426  1
  O2-  O265  1  0.41723942  0.04386851  0.40044631  1
  O2-  O266  1  0.42125112  0.04425375  0.74007787  1
  O2-  O267  1  0.41392437  0.54272712  0.06601460  1
  O2-  O268  1  0.40978927  0.54174320  0.39670950  1
  O2-  O269  1  0.41061377  0.54012525  0.73042033  1
  O2-  O270  1  0.92140888  0.04567518  0.07064051  1
  O2-  O271  1  0.91933737  0.04710642  0.39508197  1
  O2-  O272  1  0.91617061  0.04185558  0.72822898  1
  O2-  O273  1  0.91780084  0.54002103  0.06647266  1
  O2-  O274  1  0.91925285  0.53874546  0.40597625  1
  O2-  O275  1  0.91936118  0.55197716  0.72785797  1
  O2-  O276  1  0.29014205  0.16367444  0.06273657  1
  O2-  O277  1  0.28624199  0.16503218  0.40263578  1
  O2-  O278  1  0.29931046  0.17532339  0.73354899  1
  O2-  O279  1  0.30137925  0.66663183  0.06437760  1
  O2-  O280  1  0.28924245  0.66191679  0.39720939  1
  O2-  O281  1  0.29570812  0.66150723  0.73039126  1
  O2-  O282  1  0.79499591  0.16788326  0.07290596  1
  O2-  O283  1  0.80036214  0.16768507  0.39403663  1
  O2-  O284  1  0.78751362  0.16577565  0.73035231  1
  O2-  O285  1  0.79412166  0.66875459  0.06515702  1
  O2-  O286  1  0.80192302  0.67249714  0.40113033  1
  O2-  O287  1  0.79390252  0.66670266  0.72838608  1
