# generated using pymatgen
data_Ca2Al2SiO7
_symmetry_space_group_name_H-M   'P 1'
_cell_length_a   15.47715258
_cell_length_b   15.47110978
_cell_length_c   15.29588541
_cell_angle_alpha   89.98960981
_cell_angle_beta   90.00849414
_cell_angle_gamma   89.99953675
_symmetry_Int_Tables_number   1
_chemical_formula_structural   Ca2Al2SiO7
_chemical_formula_sum   'Ca48 Al48 Si24 O168'
_cell_volume   3662.58018414
_cell_formula_units_Z   24
loop_
 _symmetry_equiv_pos_site_id
 _symmetry_equiv_pos_as_xyz
  1  'x, y, z'
loop_
 _atom_type_symbol
 _atom_type_oxidation_number
  Ca2+  2.0
  Al0+  0.0
  Si0+  0.0
  O2-  -2.0
loop_
 _atom_site_type_symbol
 _atom_site_label
 _atom_site_symmetry_multiplicity
 _atom_site_fract_x
 _atom_site_fract_y
 _atom_site_fract_z
 _atom_site_occupancy
  Ca2+  Ca0  1  0.16014413  0.07695901  0.17275518  1
  Ca2+  Ca1  1  0.17006896  0.07686987  0.50968874  1
  Ca2+  Ca2  1  0.16787713  0.09037848  0.83311853  1
  Ca2+  Ca3  1  0.16925436  0.58342207  0.17104812  1
  Ca2+  Ca4  1  0.16446464  0.57920380  0.51024998  1
  Ca2+  Ca5  1  0.15695431  0.57918903  0.83008198  1
  Ca2+  Ca6  1  0.67103905  0.08533012  0.17434479  1
  Ca2+  Ca7  1  0.67784981  0.08045116  0.50780635  1
  Ca2+  Ca8  1  0.66990118  0.07744540  0.83298573  1
  Ca2+  Ca9  1  0.67619696  0.57356649  0.17419304  1
  Ca2+  Ca10  1  0.67002364  0.58233272  0.50750673  1
  Ca2+  Ca11  1  0.67406645  0.57977251  0.83702530  1
  Ca2+  Ca12  1  0.07247492  0.32472248  0.15488338  1
  Ca2+  Ca13  1  0.08451114  0.32855819  0.50150407  1
  Ca2+  Ca14  1  0.07729027  0.32922373  0.82581523  1
  Ca2+  Ca15  1  0.07147595  0.83678774  0.16419684  1
  Ca2+  Ca16  1  0.07254814  0.83240557  0.49809868  1
  Ca2+  Ca17  1  0.06960097  0.82480658  0.82440592  1
  Ca2+  Ca18  1  0.59824603  0.32443543  0.16417412  1
  Ca2+  Ca19  1  0.59281171  0.33025521  0.49384666  1
  Ca2+  Ca20  1  0.59321134  0.33187217  0.83150912  1
  Ca2+  Ca21  1  0.59003325  0.82263732  0.16625099  1
  Ca2+  Ca22  1  0.59330872  0.82309504  0.50258888  1
  Ca2+  Ca23  1  0.58145657  0.82863853  0.81828181  1
  Ca2+  Ca24  1  0.33006550  0.41505705  0.16771781  1
  Ca2+  Ca25  1  0.32676642  0.41710627  0.50794616  1
  Ca2+  Ca26  1  0.32581625  0.41524007  0.83101259  1
  Ca2+  Ca27  1  0.32148972  0.91813735  0.17496578  1
  Ca2+  Ca28  1  0.32936055  0.91828261  0.50876563  1
  Ca2+  Ca29  1  0.33735295  0.92133581  0.83285895  1
  Ca2+  Ca30  1  0.83000523  0.42346435  0.17135789  1
  Ca2+  Ca31  1  0.82191184  0.42910239  0.50674137  1
  Ca2+  Ca32  1  0.82861729  0.42773844  0.83863493  1
  Ca2+  Ca33  1  0.84114541  0.92329939  0.17304592  1
  Ca2+  Ca34  1  0.83602937  0.92390448  0.50708632  1
  Ca2+  Ca35  1  0.83708332  0.91463039  0.83048091  1
  Ca2+  Ca36  1  0.43224826  0.16669657  0.16349099  1
  Ca2+  Ca37  1  0.42289508  0.16531210  0.49778014  1
  Ca2+  Ca38  1  0.42247907  0.16531984  0.82823344  1
  Ca2+  Ca39  1  0.42506347  0.66418791  0.16679456  1
  Ca2+  Ca40  1  0.42961812  0.67035417  0.49958551  1
  Ca2+  Ca41  1  0.42465139  0.67465368  0.82085335  1
  Ca2+  Ca42  1  0.91554780  0.17380136  0.15719783  1
  Ca2+  Ca43  1  0.91491436  0.16130817  0.49833301  1
  Ca2+  Ca44  1  0.92424573  0.17126561  0.82797082  1
  Ca2+  Ca45  1  0.90245968  0.67661048  0.16515520  1
  Ca2+  Ca46  1  0.90621267  0.67586613  0.49907256  1
  Ca2+  Ca47  1  0.91047088  0.67195824  0.82445242  1
  Al0+  Al48  1  0.00093482  -0.00236078  -0.00815698  1
  Al0+  Al49  1  0.00138051  -0.00204025  0.33859904  1
  Al0+  Al50  1  0.00318137  0.00050854  0.66485440  1
  Al0+  Al51  1  0.00099071  0.50160973  0.00439197  1
  Al0+  Al52  1  0.00018922  0.50016570  0.33632260  1
  Al0+  Al53  1  -0.00139702  0.49777617  0.67054245  1
  Al0+  Al54  1  0.49951188  0.00092532  0.00001598  1
  Al0+  Al55  1  0.49819924  0.00051190  0.32756992  1
  Al0+  Al56  1  0.49905102  0.00244576  0.66965904  1
  Al0+  Al57  1  0.49929113  0.49857659  0.00423091  1
  Al0+  Al58  1  0.49706278  0.49890239  0.33058673  1
  Al0+  Al59  1  0.49738728  0.49906273  0.66686248  1
  Al0+  Al60  1  0.25450259  0.24928227  0.00098237  1
  Al0+  Al61  1  0.25121129  0.24903596  0.33069757  1
  Al0+  Al62  1  0.25016224  0.24970500  0.67000933  1
  Al0+  Al63  1  0.24938967  0.75141134  0.00202098  1
  Al0+  Al64  1  0.24864675  0.74901968  0.33781858  1
  Al0+  Al65  1  0.24958246  0.75054156  0.66098208  1
  Al0+  Al66  1  0.75126536  0.24828015  -0.00811114  1
  Al0+  Al67  1  0.75220991  0.25013258  0.33608680  1
  Al0+  Al68  1  0.75207124  0.24969622  0.67308150  1
  Al0+  Al69  1  0.74799465  0.75045058  -0.00140848  1
  Al0+  Al70  1  0.74950889  0.75133417  0.32527191  1
  Al0+  Al71  1  0.74893640  0.75136108  0.66508657  1
  Al0+  Al72  1  0.92898096  0.32407673  0.98383410  1
  Al0+  Al73  1  0.93067508  0.82078826  0.31865561  1
  Al0+  Al74  1  0.07254902  0.17831318  0.98581686  1
  Al0+  Al75  1  0.57033681  0.67824188  0.31740213  1
  Al0+  Al76  1  0.67999753  0.93063498  0.67975814  1
  Al0+  Al77  1  0.82207113  0.57362188  0.01680471  1
  Al0+  Al78  1  0.92806076  0.81851936  0.98554500  1
  Al0+  Al79  1  0.67939287  0.42707356  0.01651863  1
  Al0+  Al80  1  0.17896416  0.92867472  0.34875144  1
  Al0+  Al81  1  0.67528639  0.42847516  0.68237710  1
  Al0+  Al82  1  0.06939760  0.67532642  0.65190426  1
  Al0+  Al83  1  0.82041758  0.57375275  0.34974673  1
  Al0+  Al84  1  0.82557454  0.07076697  0.68469508  1
  Al0+  Al85  1  0.32029482  0.07065730  0.68078864  1
  Al0+  Al86  1  0.57151532  0.17863970  0.98401683  1
  Al0+  Al87  1  0.57230797  0.18035297  0.32193380  1
  Al0+  Al88  1  0.82060183  0.07051575  0.34412272  1
  Al0+  Al89  1  0.57049214  0.67798431  0.65280327  1
  Al0+  Al90  1  0.17876862  0.42941910  0.67980708  1
  Al0+  Al91  1  0.07210738  0.18131316  0.65125217  1
  Al0+  Al92  1  0.81933371  0.57214280  0.68137582  1
  Al0+  Al93  1  0.92830550  0.82056078  0.64978143  1
  Al0+  Al94  1  0.67827416  0.42867209  0.34785540  1
  Al0+  Al95  1  0.42868258  0.82536863  0.65151164  1
  Si0+  Si96  1  0.67496672  0.92852947  0.34636588  1
  Si0+  Si97  1  0.42501162  0.32145694  0.31537637  1
  Si0+  Si98  1  0.92684476  0.32068242  0.64763408  1
  Si0+  Si99  1  0.32371772  0.07175643  0.01845000  1
  Si0+  Si100  1  0.32080811  0.57323841  0.68265760  1
  Si0+  Si101  1  0.42822140  0.32000790  0.65259250  1
  Si0+  Si102  1  0.93116491  0.32145155  0.32005390  1
  Si0+  Si103  1  0.32063166  0.57064851  0.34930998  1
  Si0+  Si104  1  0.18010022  0.42771478  0.01587113  1
  Si0+  Si105  1  0.42707742  0.82027561  0.98726323  1
  Si0+  Si106  1  0.67569100  0.92970556  0.01592944  1
  Si0+  Si107  1  0.42841006  0.32332255  0.98159902  1
  Si0+  Si108  1  0.57227391  0.18093301  0.65235970  1
  Si0+  Si109  1  0.17925254  0.92627366  0.68599276  1
  Si0+  Si110  1  0.07222243  0.17919944  0.32006466  1
  Si0+  Si111  1  0.18036820  0.93082943  0.01433191  1
  Si0+  Si112  1  0.32219638  0.07171798  0.34915110  1
  Si0+  Si113  1  0.82197968  0.06689186  0.01263634  1
  Si0+  Si114  1  0.56807651  0.67894452  0.98567784  1
  Si0+  Si115  1  0.42489563  0.82080770  0.31552978  1
  Si0+  Si116  1  0.07647554  0.67936799  0.98582521  1
  Si0+  Si117  1  0.32039836  0.57257906  0.01512373  1
  Si0+  Si118  1  0.17949777  0.42762458  0.34668324  1
  Si0+  Si119  1  0.07295477  0.67581165  0.31621280  1
  O2-  O120  1  0.24826456  0.00451303  0.05896488  1
  O2-  O121  1  0.25558508  0.00214416  0.39356512  1
  O2-  O122  1  0.24864502  -0.00559954  0.73028713  1
  O2-  O123  1  0.24894632  0.50150672  0.05788102  1
  O2-  O124  1  0.24926040  0.49920856  0.38933857  1
  O2-  O125  1  0.24844023  0.50876871  0.72752048  1
  O2-  O126  1  0.74914914  -0.00125768  0.05744042  1
  O2-  O127  1  0.74291297  -0.00181528  0.38880277  1
  O2-  O128  1  0.75415747  -0.00227305  0.73392464  1
  O2-  O129  1  0.75317950  0.49764455  0.06568224  1
  O2-  O130  1  0.74418242  0.50544333  0.39788650  1
  O2-  O131  1  0.74568930  0.50188264  0.73121632  1
  O2-  O132  1  0.00177595  0.24959742  0.27719718  1
  O2-  O133  1  -0.00593515  0.25067314  0.60190175  1
  O2-  O134  1  0.00444962  0.25373878  0.93630409  1
  O2-  O135  1  0.00298876  0.74272492  0.27168708  1
  O2-  O136  1  -0.00228690  0.74561785  0.59983036  1
  O2-  O137  1  -0.00049420  0.73860292  0.94357552  1
  O2-  O138  1  0.49879721  0.25681531  0.27397751  1
  O2-  O139  1  0.50493607  0.25577576  0.61036142  1
  O2-  O140  1  0.49983233  0.25741852  0.93861126  1
  O2-  O141  1  0.49602799  0.75513687  0.27018132  1
  O2-  O142  1  0.50121712  0.75359682  0.60281206  1
  O2-  O143  1  0.49809359  0.75098818  0.94427672  1
  O2-  O144  1  0.06948540  0.17756291  0.10052845  1
  O2-  O145  1  0.07608901  0.18244501  0.42454200  1
  O2-  O146  1  0.07406815  0.18622320  0.76405887  1
  O2-  O147  1  0.08707588  0.68571978  0.09088202  1
  O2-  O148  1  0.07623404  0.67508439  0.42086920  1
  O2-  O149  1  0.06957736  0.67827884  0.76609034  1
  O2-  O150  1  0.56929718  0.17616809  0.09753671  1
  O2-  O151  1  0.56927844  0.17994920  0.43481949  1
  O2-  O152  1  0.56897821  0.18002674  0.75744660  1
  O2-  O153  1  0.56557779  0.68053429  0.09103760  1
  O2-  O154  1  0.56815086  0.67827435  0.42962513  1
  O2-  O155  1  0.56616931  0.67754480  0.76693319  1
  O2-  O156  1  0.18173740  0.42741183  0.24123171  1
  O2-  O157  1  0.18441962  0.42697330  0.56629706  1
  O2-  O158  1  0.18232423  0.42682584  0.91134914  1
  O2-  O159  1  0.17879446  0.93183378  0.23452538  1
  O2-  O160  1  0.18048213  0.92863016  0.58028644  1
  O2-  O161  1  0.18476650  0.92809102  0.91019826  1
  O2-  O162  1  0.68371213  0.42612183  0.23449436  1
  O2-  O163  1  0.67619931  0.42799113  0.56880261  1
  O2-  O164  1  0.67589552  0.43293207  0.90374399  1
  O2-  O165  1  0.67534257  0.93022118  0.23999302  1
  O2-  O166  1  0.67833107  0.93458551  0.56596612  1
  O2-  O167  1  0.67099017  0.93029100  0.91163498  1
  O2-  O168  1  0.42290368  0.32117414  0.08714270  1
  O2-  O169  1  0.41633116  0.31914048  0.42029515  1
  O2-  O170  1  0.42491750  0.31767202  0.75752529  1
  O2-  O171  1  0.42498500  0.81802164  0.09245057  1
  O2-  O172  1  0.42270913  0.81960359  0.42018269  1
  O2-  O173  1  0.42953284  0.82249129  0.76621480  1
  O2-  O174  1  0.93087855  0.32041770  0.09872311  1
  O2-  O175  1  0.93409153  0.32182651  0.42460788  1
  O2-  O176  1  0.92997024  0.32072730  0.75305951  1
  O2-  O177  1  0.93197101  0.82364339  0.09883318  1
  O2-  O178  1  0.93223861  0.82385302  0.43051337  1
  O2-  O179  1  0.93103065  0.81951550  0.76358393  1
  O2-  O180  1  0.32040751  0.07171613  0.24318779  1
  O2-  O181  1  0.31862146  0.07193642  0.56752787  1
  O2-  O182  1  0.32645253  0.07010116  0.91386734  1
  O2-  O183  1  0.31917570  0.57099025  0.24343296  1
  O2-  O184  1  0.32231498  0.56861863  0.57701498  1
  O2-  O185  1  0.32043205  0.57450754  0.91078214  1
  O2-  O186  1  0.82177634  0.07143834  0.23018020  1
  O2-  O187  1  0.82128541  0.07187115  0.57071866  1
  O2-  O188  1  0.82230765  0.06359939  0.90837713  1
  O2-  O189  1  0.82090653  0.57081306  0.23610411  1
  O2-  O190  1  0.81850455  0.57077564  0.56787299  1
  O2-  O191  1  0.81839628  0.57622733  0.90392886  1
  O2-  O192  1  0.04481140  0.08658487  0.27529764  1
  O2-  O193  1  0.04818194  0.08268713  0.59922271  1
  O2-  O194  1  0.04467015  0.08155694  0.93123944  1
  O2-  O195  1  0.05108770  0.58060052  0.27034360  1
  O2-  O196  1  0.04787020  0.57396225  0.60219110  1
  O2-  O197  1  0.06100501  0.58133910  0.94722307  1
  O2-  O198  1  0.53995540  0.08498539  0.26408575  1
  O2-  O199  1  0.53921941  0.09141299  0.60503545  1
  O2-  O200  1  0.53404614  0.08334779  0.93119275  1
  O2-  O201  1  0.53432675  0.58285830  0.26261898  1
  O2-  O202  1  0.53634567  0.58104400  0.59943254  1
  O2-  O203  1  0.53776611  0.58709699  0.94125646  1
  O2-  O204  1  0.16374492  0.20604999  0.27006315  1
  O2-  O205  1  0.16772966  0.21694200  0.59747968  1
  O2-  O206  1  0.17445635  0.20269118  0.93883796  1
  O2-  O207  1  0.16707791  0.70279464  0.27026555  1
  O2-  O208  1  0.16883977  0.70180520  0.59966494  1
  O2-  O209  1  0.16617851  0.71185089  0.93515754  1
  O2-  O210  1  0.66937749  0.21021104  0.26715004  1
  O2-  O211  1  0.66581680  0.20529213  0.60728700  1
  O2-  O212  1  0.66804612  0.20264568  0.92855369  1
  O2-  O213  1  0.66456925  0.71010523  0.25931336  1
  O2-  O214  1  0.66740719  0.70656427  0.59852577  1
  O2-  O215  1  0.65900141  0.70724145  0.93890018  1
  O2-  O216  1  0.08886592  0.45203600  0.06581330  1
  O2-  O217  1  0.08830909  0.45281904  0.39496637  1
  O2-  O218  1  0.08263891  0.45475595  0.73640206  1
  O2-  O219  1  0.08769923  0.95826735  0.06073934  1
  O2-  O220  1  0.08588459  0.96217879  0.40542167  1
  O2-  O221  1  0.08680830  0.95411357  0.73156297  1
  O2-  O222  1  0.57925144  0.45375789  0.06923636  1
  O2-  O223  1  0.57440185  0.44703977  0.39317557  1
  O2-  O224  1  0.57435438  0.45097143  0.73322272  1
  O2-  O225  1  0.58485512  0.95858039  0.06555534  1
  O2-  O226  1  0.57988136  0.95111998  0.38973035  1
  O2-  O227  1  0.58277084  0.96205051  0.73450294  1
  O2-  O228  1  0.21270271  0.33746053  0.06489259  1
  O2-  O229  1  0.20942146  0.33573097  0.39293277  1
  O2-  O230  1  0.21742055  0.33709390  0.73612026  1
  O2-  O231  1  0.21154707  0.84084185  0.06473454  1
  O2-  O232  1  0.20748925  0.83160639  0.40178068  1
  O2-  O233  1  0.20450103  0.83197910  0.73062736  1
  O2-  O234  1  0.70735173  0.32527329  0.06341762  1
  O2-  O235  1  0.71161642  0.33254141  0.40158957  1
  O2-  O236  1  0.70560090  0.33095498  0.73501910  1
  O2-  O237  1  0.70194846  0.83691046  0.06174918  1
  O2-  O238  1  0.70122784  0.83460513  0.38899011  1
  O2-  O239  1  0.70226515  0.83103441  0.73234606  1
  O2-  O240  1  0.44282276  0.41655973  0.26958647  1
  O2-  O241  1  0.44712848  0.41370367  0.60533641  1
  O2-  O242  1  0.44853410  0.41909845  0.93795540  1
  O2-  O243  1  0.44528659  0.91587626  0.26925208  1
  O2-  O244  1  0.45362506  0.92506250  0.60024453  1
  O2-  O245  1  0.45313942  0.91314991  0.94229531  1
  O2-  O246  1  0.96084912  0.41247121  0.27139143  1
  O2-  O247  1  0.95545323  0.41337687  0.60249349  1
  O2-  O248  1  0.95784380  0.42403895  0.93479253  1
  O2-  O249  1  0.96751028  0.91696254  0.26485635  1
  O2-  O250  1  0.96106603  0.91856412  0.59881125  1
  O2-  O251  1  0.96437887  0.91140913  0.92916321  1
  O2-  O252  1  0.33441631  0.29028083  0.26360551  1
  O2-  O253  1  0.33966222  0.28579213  0.60295116  1
  O2-  O254  1  0.33643101  0.29399587  0.93415406  1
  O2-  O255  1  0.33219175  0.79039843  0.26843922  1
  O2-  O256  1  0.33104278  0.79675627  0.59814634  1
  O2-  O257  1  0.33606663  0.79187159  0.93899291  1
  O2-  O258  1  0.84049831  0.29204472  0.27214174  1
  O2-  O259  1  0.83283633  0.29455323  0.60295615  1
  O2-  O260  1  0.83323643  0.29403792  0.92911248  1
  O2-  O261  1  0.83359073  0.79616004  0.26179324  1
  O2-  O262  1  0.82879184  0.79755777  0.59776998  1
  O2-  O263  1  0.82932353  0.79385151  0.93332931  1
  O2-  O264  1  0.41292159  0.03845394  0.06827524  1
  O2-  O265  1  0.41682151  0.04825226  0.39338406  1
  O2-  O266  1  0.41618401  0.04291757  0.73776519  1
  O2-  O267  1  0.41026719  0.54313037  0.06590394  1
  O2-  O268  1  0.41131414  0.54166752  0.39667876  1
  O2-  O269  1  0.41106587  0.54216274  0.73191795  1
  O2-  O270  1  0.91401025  0.03706784  0.05956383  1
  O2-  O271  1  0.91564746  0.03913293  0.39959997  1
  O2-  O272  1  0.92541384  0.04462249  0.73498784  1
  O2-  O273  1  0.92357609  0.55293135  0.06870167  1
  O2-  O274  1  0.91945049  0.54382629  0.40032902  1
  O2-  O275  1  0.91698808  0.54219400  0.73474660  1
  O2-  O276  1  0.30186696  0.16525328  0.06543307  1
  O2-  O277  1  0.29584114  0.16565469  0.39392028  1
  O2-  O278  1  0.28730513  0.16521814  0.73724305  1
  O2-  O279  1  0.29182233  0.66357192  0.06515125  1
  O2-  O280  1  0.29403863  0.66164410  0.39726457  1
  O2-  O281  1  0.29994350  0.66864365  0.72654655  1
  O2-  O282  1  0.79635571  0.16072943  0.05671669  1
  O2-  O283  1  0.79320381  0.16620214  0.40039050  1
  O2-  O284  1  0.79613450  0.16830182  0.73753790  1
  O2-  O285  1  0.78667774  0.67116454  0.06909305  1
  O2-  O286  1  0.79328233  0.67489722  0.39598928  1
  O2-  O287  1  0.79271470  0.67114921  0.73253416  1
