# generated using pymatgen
data_Ca2Al2SiO7
_symmetry_space_group_name_H-M   'P 1'
_cell_length_a   15.46166688
_cell_length_b   15.46183877
_cell_length_c   15.28622756
_cell_angle_alpha   89.99215516
_cell_angle_beta   90.00898992
_cell_angle_gamma   90.03578260
_symmetry_Int_Tables_number   1
_chemical_formula_structural   Ca2Al2SiO7
_chemical_formula_sum   'Ca48 Al48 Si24 O168'
_cell_volume   3654.41343693
_cell_formula_units_Z   24
loop_
 _symmetry_equiv_pos_site_id
 _symmetry_equiv_pos_as_xyz
  1  'x, y, z'
loop_
 _atom_type_symbol
 _atom_type_oxidation_number
  Ca2+  2.0
  Al0+  0.0
  Si0+  0.0
  O2-  -2.0
loop_
 _atom_site_type_symbol
 _atom_site_label
 _atom_site_symmetry_multiplicity
 _atom_site_fract_x
 _atom_site_fract_y
 _atom_site_fract_z
 _atom_site_occupancy
  Ca2+  Ca0  1  0.17360278  0.07551732  0.16850526  1
  Ca2+  Ca1  1  0.16256481  0.07460767  0.49933888  1
  Ca2+  Ca2  1  0.17541234  0.07722445  0.84398760  1
  Ca2+  Ca3  1  0.17406830  0.57410891  0.17482178  1
  Ca2+  Ca4  1  0.17426542  0.57695366  0.50740503  1
  Ca2+  Ca5  1  0.16902122  0.57642759  0.83482571  1
  Ca2+  Ca6  1  0.66324811  0.07553945  0.17492546  1
  Ca2+  Ca7  1  0.67357732  0.08430055  0.49786481  1
  Ca2+  Ca8  1  0.66794209  0.08000900  0.84050665  1
  Ca2+  Ca9  1  0.66798245  0.58010530  0.17502472  1
  Ca2+  Ca10  1  0.67600994  0.59001042  0.49899656  1
  Ca2+  Ca11  1  0.67625329  0.58112851  0.84429054  1
  Ca2+  Ca12  1  0.08440026  0.33916638  0.16254443  1
  Ca2+  Ca13  1  0.08589365  0.33627344  0.49596470  1
  Ca2+  Ca14  1  0.08712567  0.33715074  0.82829481  1
  Ca2+  Ca15  1  0.07791259  0.84002187  0.16496262  1
  Ca2+  Ca16  1  0.07741350  0.82660904  0.49081169  1
  Ca2+  Ca17  1  0.08376357  0.82611645  0.82677755  1
  Ca2+  Ca18  1  0.59487298  0.32446896  0.16163232  1
  Ca2+  Ca19  1  0.58025584  0.33369673  0.49075431  1
  Ca2+  Ca20  1  0.58071026  0.33131906  0.83114017  1
  Ca2+  Ca21  1  0.59479624  0.82359682  0.16243742  1
  Ca2+  Ca22  1  0.58251907  0.82834417  0.48953855  1
  Ca2+  Ca23  1  0.58642625  0.82984951  0.83706757  1
  Ca2+  Ca24  1  0.32385451  0.41804273  0.17298347  1
  Ca2+  Ca25  1  0.33019514  0.42545793  0.50446645  1
  Ca2+  Ca26  1  0.32681800  0.41370624  0.83226173  1
  Ca2+  Ca27  1  0.32550860  0.91744185  0.16772711  1
  Ca2+  Ca28  1  0.32753025  0.91330958  0.49961817  1
  Ca2+  Ca29  1  0.32794649  0.92264366  0.84384545  1
  Ca2+  Ca30  1  0.82291157  0.42931712  0.16956756  1
  Ca2+  Ca31  1  0.82654971  0.42629402  0.49958921  1
  Ca2+  Ca32  1  0.83011322  0.42883735  0.83915379  1
  Ca2+  Ca33  1  0.82291944  0.91896637  0.17567139  1
  Ca2+  Ca34  1  0.83290336  0.92237634  0.49620010  1
  Ca2+  Ca35  1  0.82910107  0.92336681  0.83706235  1
  Ca2+  Ca36  1  0.42749774  0.16462242  0.16006445  1
  Ca2+  Ca37  1  0.42251941  0.17659212  0.49327029  1
  Ca2+  Ca38  1  0.41972815  0.17019493  0.83042843  1
  Ca2+  Ca39  1  0.42819468  0.66083440  0.16578791  1
  Ca2+  Ca40  1  0.41954280  0.66076055  0.49188932  1
  Ca2+  Ca41  1  0.42287539  0.66048386  0.82999820  1
  Ca2+  Ca42  1  0.91434680  0.16771990  0.16504488  1
  Ca2+  Ca43  1  0.91262729  0.16456228  0.49270587  1
  Ca2+  Ca44  1  0.91728904  0.16901551  0.82723297  1
  Ca2+  Ca45  1  0.90766034  0.67094830  0.16458690  1
  Ca2+  Ca46  1  0.91932763  0.66437618  0.49287156  1
  Ca2+  Ca47  1  0.92028294  0.66184089  0.82697656  1
  Al0+  Al48  1  0.00036125  0.00092706  -0.00120618  1
  Al0+  Al49  1  0.00094811  -0.00042959  0.33437094  1
  Al0+  Al50  1  -0.00178739  -0.00014572  0.67076886  1
  Al0+  Al51  1  -0.00010980  0.50173965  0.00676645  1
  Al0+  Al52  1  0.00016795  0.49874902  0.33720339  1
  Al0+  Al53  1  -0.00088061  0.49876166  0.66763509  1
  Al0+  Al54  1  0.50084363  -0.00006650  0.00127597  1
  Al0+  Al55  1  0.49853845  0.00062602  0.33414503  1
  Al0+  Al56  1  0.50004427  -0.00171167  0.66446953  1
  Al0+  Al57  1  0.50040518  0.49786982  -0.00421765  1
  Al0+  Al58  1  0.49759163  0.49906294  0.33337090  1
  Al0+  Al59  1  0.49921783  0.49869096  0.66491403  1
  Al0+  Al60  1  0.25055699  0.24923444  0.00704284  1
  Al0+  Al61  1  0.24949836  0.24878075  0.33492057  1
  Al0+  Al62  1  0.25106200  0.24857929  0.66298719  1
  Al0+  Al63  1  0.24875392  0.74964488  0.00291324  1
  Al0+  Al64  1  0.24943328  0.75021682  0.33851738  1
  Al0+  Al65  1  0.25018023  0.74788287  0.66641140  1
  Al0+  Al66  1  0.75204193  0.25269571  -0.00622779  1
  Al0+  Al67  1  0.75094044  0.25135545  0.33476732  1
  Al0+  Al68  1  0.75172304  0.24785315  0.67025604  1
  Al0+  Al69  1  0.75202965  0.75383570  -0.00235241  1
  Al0+  Al70  1  0.75036694  0.75201585  0.33345421  1
  Al0+  Al71  1  0.74975164  0.75204020  0.67033000  1
  Al0+  Al72  1  0.57158073  0.18077813  0.31980245  1
  Al0+  Al73  1  0.67729717  0.42848251  0.01291698  1
  Al0+  Al74  1  0.93084424  0.82063847  0.31905227  1
  Al0+  Al75  1  0.42937172  0.31988195  0.65139414  1
  Al0+  Al76  1  0.56941627  0.68018032  0.32077920  1
  Al0+  Al77  1  0.68063869  0.93157618  0.01287861  1
  Al0+  Al78  1  0.81962919  0.57149052  0.68061843  1
  Al0+  Al79  1  0.82063304  0.07063338  0.68224627  1
  Al0+  Al80  1  0.82076060  0.07148321  0.34564566  1
  Al0+  Al81  1  0.32101267  0.57081316  0.34741321  1
  Al0+  Al82  1  0.57209522  0.17820997  0.98496973  1
  Al0+  Al83  1  0.57177920  0.67862082  0.98559499  1
  Al0+  Al84  1  0.82036969  0.57292588  0.01511475  1
  Al0+  Al85  1  0.17986473  0.42771290  0.68193668  1
  Al0+  Al86  1  0.81964327  0.57331793  0.34813452  1
  Al0+  Al87  1  0.67646393  0.92845171  0.34892968  1
  Al0+  Al88  1  0.32303393  0.57209802  0.68424662  1
  Al0+  Al89  1  0.17712964  0.92678721  0.01420675  1
  Al0+  Al90  1  0.67794417  0.42827331  0.34763823  1
  Al0+  Al91  1  0.17892389  0.92973705  0.34801417  1
  Al0+  Al92  1  0.32240161  0.07123445  0.01497012  1
  Al0+  Al93  1  0.06981216  0.67790491  0.65288308  1
  Al0+  Al94  1  0.17998524  0.43010405  0.01370925  1
  Al0+  Al95  1  0.17824092  0.42701895  0.34984210  1
  Si0+  Si96  1  0.42838430  0.82189639  0.65220944  1
  Si0+  Si97  1  0.42619555  0.82037499  0.98400567  1
  Si0+  Si98  1  0.07106571  0.67858964  0.98611499  1
  Si0+  Si99  1  0.92992109  0.82301886  0.98255303  1
  Si0+  Si100  1  0.32376087  0.57290686  0.01599542  1
  Si0+  Si101  1  0.07241524  0.67668749  0.31600745  1
  Si0+  Si102  1  0.17901157  0.92865786  0.68115889  1
  Si0+  Si103  1  0.07147196  0.17833798  0.31715020  1
  Si0+  Si104  1  0.07155565  0.17966215  0.98511497  1
  Si0+  Si105  1  0.93180805  0.32300388  0.98392652  1
  Si0+  Si106  1  0.42491414  0.82341042  0.31621760  1
  Si0+  Si107  1  0.92866920  0.31979626  0.65110597  1
  Si0+  Si108  1  0.57316654  0.17658603  0.64919184  1
  Si0+  Si109  1  0.32134061  0.06941951  0.67953384  1
  Si0+  Si110  1  0.92789960  0.82343102  0.64976959  1
  Si0+  Si111  1  0.92965845  0.32203477  0.31743385  1
  Si0+  Si112  1  0.67752900  0.42710100  0.68287936  1
  Si0+  Si113  1  0.32222907  0.07177009  0.35237399  1
  Si0+  Si114  1  0.42687702  0.32120973  0.31451212  1
  Si0+  Si115  1  0.67554795  0.92867527  0.68505767  1
  Si0+  Si116  1  0.57156318  0.68000383  0.65285339  1
  Si0+  Si117  1  0.42505632  0.32047433  0.98293958  1
  Si0+  Si118  1  0.07061539  0.17729644  0.65191995  1
  Si0+  Si119  1  0.82275751  0.07443876  0.01489982  1
  O2-  O120  1  0.25070482  -0.00241578  0.06260448  1
  O2-  O121  1  0.25461367  0.00214312  0.39714202  1
  O2-  O122  1  0.25085247  -0.00139409  0.72327508  1
  O2-  O123  1  0.25640273  0.50270354  0.05923720  1
  O2-  O124  1  0.24827285  0.50045952  0.39845841  1
  O2-  O125  1  0.25051960  0.50008019  0.73332406  1
  O2-  O126  1  0.75144855  0.00980864  0.05893074  1
  O2-  O127  1  0.74768804  0.00182904  0.39760890  1
  O2-  O128  1  0.74391775  -0.00158277  0.72809697  1
  O2-  O129  1  0.74210123  0.50676716  0.06270033  1
  O2-  O130  1  0.74570501  0.50355493  0.39874325  1
  O2-  O131  1  0.74323534  0.49863669  0.72706179  1
  O2-  O132  1  0.00239171  0.25150776  0.27554710  1
  O2-  O133  1  0.00023663  0.24848227  0.60924447  1
  O2-  O134  1  0.00252960  0.25131946  0.94092843  1
  O2-  O135  1  0.00288596  0.74375055  0.27025992  1
  O2-  O136  1  -0.00626321  0.75188421  0.60641068  1
  O2-  O137  1  0.00180617  0.75148770  0.94267490  1
  O2-  O138  1  0.49782464  0.25512022  0.27038542  1
  O2-  O139  1  0.50742785  0.24782315  0.60544832  1
  O2-  O140  1  0.49694620  0.25370709  0.93952472  1
  O2-  O141  1  0.49525547  0.75606913  0.27319388  1
  O2-  O142  1  0.49815523  0.74926712  0.61141164  1
  O2-  O143  1  0.49345366  0.75064150  0.93833224  1
  O2-  O144  1  0.06922837  0.17804461  0.09001075  1
  O2-  O145  1  0.07083949  0.17696573  0.42268885  1
  O2-  O146  1  0.07048829  0.17612856  0.75723312  1
  O2-  O147  1  0.07095848  0.67809772  0.09075416  1
  O2-  O148  1  0.07127986  0.67905360  0.42181627  1
  O2-  O149  1  0.06942393  0.68097861  0.76677854  1
  O2-  O150  1  0.57248849  0.17862871  0.09774217  1
  O2-  O151  1  0.56924072  0.18225065  0.43337970  1
  O2-  O152  1  0.57089274  0.17463836  0.75491414  1
  O2-  O153  1  0.57174094  0.67987118  0.09825097  1
  O2-  O154  1  0.56844347  0.68233183  0.43453066  1
  O2-  O155  1  0.57231409  0.68238353  0.75806609  1
  O2-  O156  1  0.17979609  0.42719678  0.23591754  1
  O2-  O157  1  0.18133944  0.42719289  0.56920463  1
  O2-  O158  1  0.17920871  0.43002292  0.90083162  1
  O2-  O159  1  0.17917569  0.93319899  0.23532261  1
  O2-  O160  1  0.17837791  0.93104316  0.57621315  1
  O2-  O161  1  0.17765116  0.92894645  0.89973165  1
  O2-  O162  1  0.68213663  0.42707345  0.23437546  1
  O2-  O163  1  0.67970008  0.42598338  0.57755974  1
  O2-  O164  1  0.68139381  0.42817096  0.89879555  1
  O2-  O165  1  0.67851256  0.92906255  0.23541069  1
  O2-  O166  1  0.67310020  0.92763962  0.58008275  1
  O2-  O167  1  0.68361576  0.93160083  0.89918413  1
  O2-  O168  1  0.42099293  0.31882709  0.08801472  1
  O2-  O169  1  0.42603053  0.31785634  0.42032702  1
  O2-  O170  1  0.42801374  0.31496852  0.76468035  1
  O2-  O171  1  0.42372532  0.81902546  0.08903697  1
  O2-  O172  1  0.42502157  0.82297655  0.42249028  1
  O2-  O173  1  0.42907796  0.82676553  0.75708275  1
  O2-  O174  1  0.93254351  0.32125616  0.08887991  1
  O2-  O175  1  0.92967495  0.32068352  0.42281396  1
  O2-  O176  1  0.92934878  0.31836665  0.75653845  1
  O2-  O177  1  0.92994348  0.82571374  0.08725321  1
  O2-  O178  1  0.93397176  0.82193326  0.43236584  1
  O2-  O179  1  0.93103313  0.82592330  0.75572089  1
  O2-  O180  1  0.32066563  0.07243696  0.24708627  1
  O2-  O181  1  0.32055753  0.06692678  0.57469962  1
  O2-  O182  1  0.31913532  0.07090734  0.90020157  1
  O2-  O183  1  0.32013543  0.56908257  0.23337548  1
  O2-  O184  1  0.32242893  0.57281726  0.57136683  1
  O2-  O185  1  0.32128588  0.57445133  0.91043925  1
  O2-  O186  1  0.82161369  0.07089395  0.23211785  1
  O2-  O187  1  0.82243375  0.07018641  0.56990559  1
  O2-  O188  1  0.82437861  0.07124625  0.90887687  1
  O2-  O189  1  0.81893165  0.57193348  0.23490235  1
  O2-  O190  1  0.81847086  0.57173639  0.56811484  1
  O2-  O191  1  0.82321932  0.56930975  0.90100594  1
  O2-  O192  1  0.04179576  0.08799771  0.26849379  1
  O2-  O193  1  0.04074126  0.08531901  0.60502309  1
  O2-  O194  1  0.04340277  0.08843852  0.93504827  1
  O2-  O195  1  0.04937394  0.58126698  0.27240012  1
  O2-  O196  1  0.03969571  0.58094080  0.59974075  1
  O2-  O197  1  0.04019294  0.58739934  0.93854641  1
  O2-  O198  1  0.53925766  0.08326026  0.26774168  1
  O2-  O199  1  0.54458834  0.08365753  0.60296304  1
  O2-  O200  1  0.54063955  0.08142828  0.93017287  1
  O2-  O201  1  0.53775196  0.58326053  0.26677663  1
  O2-  O202  1  0.54754163  0.58709557  0.60681560  1
  O2-  O203  1  0.54431592  0.58115987  0.93005788  1
  O2-  O204  1  0.16419101  0.20401546  0.27003934  1
  O2-  O205  1  0.16226218  0.20207112  0.60294364  1
  O2-  O206  1  0.16453932  0.20618413  0.93917173  1
  O2-  O207  1  0.16634257  0.70445321  0.27181320  1
  O2-  O208  1  0.16657916  0.71006199  0.59964324  1
  O2-  O209  1  0.16351457  0.70480544  0.93794608  1
  O2-  O210  1  0.66912705  0.20992053  0.26664364  1
  O2-  O211  1  0.66903834  0.19945510  0.60694539  1
  O2-  O212  1  0.66883607  0.20879473  0.92902709  1
  O2-  O213  1  0.66601002  0.71099758  0.26728110  1
  O2-  O214  1  0.66282526  0.71139400  0.60589419  1
  O2-  O215  1  0.66704149  0.71521920  0.93051811  1
  O2-  O216  1  0.08526944  0.46212243  0.06940943  1
  O2-  O217  1  0.07929836  0.45173071  0.40192395  1
  O2-  O218  1  0.08030759  0.45386191  0.73334203  1
  O2-  O219  1  0.07976292  0.95944266  0.06599394  1
  O2-  O220  1  0.08516238  0.96477196  0.40415541  1
  O2-  O221  1  0.08800615  0.95735636  0.72925105  1
  O2-  O222  1  0.57531583  0.44549010  0.06160430  1
  O2-  O223  1  0.57734192  0.44999923  0.39689324  1
  O2-  O224  1  0.58280325  0.44921227  0.72696326  1
  O2-  O225  1  0.58275506  0.95503081  0.06536121  1
  O2-  O226  1  0.57715841  0.95458537  0.40126785  1
  O2-  O227  1  0.58171621  0.95432207  0.73155495  1
  O2-  O228  1  0.20652258  0.33319585  0.06839112  1
  O2-  O229  1  0.20509196  0.32744606  0.40109817  1
  O2-  O230  1  0.20886568  0.32739268  0.73274369  1
  O2-  O231  1  0.20242911  0.82866167  0.06825823  1
  O2-  O232  1  0.20724520  0.83380118  0.40379683  1
  O2-  O233  1  0.20671310  0.83707346  0.72792083  1
  O2-  O234  1  0.71426179  0.33198870  0.06412047  1
  O2-  O235  1  0.71151394  0.33296695  0.40321592  1
  O2-  O236  1  0.70555465  0.33408571  0.72908641  1
  O2-  O237  1  0.71622623  0.83709004  0.06605612  1
  O2-  O238  1  0.70803303  0.83240669  0.40326607  1
  O2-  O239  1  0.70306109  0.83642579  0.73293376  1
  O2-  O240  1  0.44702463  0.41585419  0.26963677  1
  O2-  O241  1  0.45722494  0.41734048  0.59734497  1
  O2-  O242  1  0.44703114  0.41436887  0.93535955  1
  O2-  O243  1  0.44650266  0.91845476  0.27198357  1
  O2-  O244  1  0.45671807  0.91246808  0.60119026  1
  O2-  O245  1  0.45385557  0.91356332  0.93729540  1
  O2-  O246  1  0.95782028  0.41348325  0.26909876  1
  O2-  O247  1  0.95554114  0.41100913  0.60311219  1
  O2-  O248  1  0.96202707  0.41488496  0.93762341  1
  O2-  O249  1  0.96529717  0.91648338  0.26454910  1
  O2-  O250  1  0.95752765  0.91626677  0.60384662  1
  O2-  O251  1  0.95850826  0.91482034  0.93337146  1
  O2-  O252  1  0.33341841  0.29137796  0.26921667  1
  O2-  O253  1  0.33475069  0.28464238  0.59542812  1
  O2-  O254  1  0.33250447  0.28965486  0.93585298  1
  O2-  O255  1  0.33088205  0.79733550  0.27088164  1
  O2-  O256  1  0.33589407  0.79664012  0.60482213  1
  O2-  O257  1  0.33135945  0.79719930  0.93704961  1
  O2-  O258  1  0.83955366  0.29186622  0.26867015  1
  O2-  O259  1  0.83702752  0.28993682  0.60432007  1
  O2-  O260  1  0.84177000  0.29605549  0.93228758  1
  O2-  O261  1  0.83354399  0.79312900  0.26505507  1
  O2-  O262  1  0.83174141  0.80236531  0.60757353  1
  O2-  O263  1  0.83964896  0.79620741  0.93164398  1
  O2-  O264  1  0.41974389  0.04307351  0.06764957  1
  O2-  O265  1  0.41493876  0.04729411  0.39991917  1
  O2-  O266  1  0.41344349  0.04169215  0.72667120  1
  O2-  O267  1  0.41828292  0.54828048  0.05907375  1
  O2-  O268  1  0.41781408  0.54112078  0.40195723  1
  O2-  O269  1  0.42196250  0.54236509  0.73568807  1
  O2-  O270  1  0.91603343  0.04744564  0.05985461  1
  O2-  O271  1  0.91844532  0.04186352  0.39955883  1
  O2-  O272  1  0.91663917  0.03899361  0.73868129  1
  O2-  O273  1  0.91565066  0.54002322  0.07039532  1
  O2-  O274  1  0.91737367  0.54191245  0.40012728  1
  O2-  O275  1  0.91500356  0.53741921  0.73455362  1
  O2-  O276  1  0.29121401  0.16626288  0.07146013  1
  O2-  O277  1  0.29339766  0.16400377  0.39905674  1
  O2-  O278  1  0.29217895  0.16025162  0.72679165  1
  O2-  O279  1  0.29696165  0.66531098  0.06281699  1
  O2-  O280  1  0.29660198  0.66973322  0.40086888  1
  O2-  O281  1  0.29565548  0.67155970  0.73657110  1
  O2-  O282  1  0.80299947  0.17046781  0.05609452  1
  O2-  O283  1  0.79465760  0.16940810  0.40019166  1
  O2-  O284  1  0.79393635  0.16761596  0.73815415  1
  O2-  O285  1  0.79900014  0.67435660  0.06190944  1
  O2-  O286  1  0.79365602  0.67141680  0.40175596  1
  O2-  O287  1  0.79287614  0.66967868  0.73429085  1
