# generated using pymatgen
data_Ca2Al2SiO7
_symmetry_space_group_name_H-M   'P 1'
_cell_length_a   15.45536521
_cell_length_b   15.45586163
_cell_length_c   15.28172829
_cell_angle_alpha   90.00113154
_cell_angle_beta   89.98616255
_cell_angle_gamma   90.01136286
_symmetry_Int_Tables_number   1
_chemical_formula_structural   Ca2Al2SiO7
_chemical_formula_sum   'Ca48 Al48 Si24 O168'
_cell_volume   3650.43773669
_cell_formula_units_Z   24
loop_
 _symmetry_equiv_pos_site_id
 _symmetry_equiv_pos_as_xyz
  1  'x, y, z'
loop_
 _atom_type_symbol
 _atom_type_oxidation_number
  Ca2+  2.0
  Al0+  0.0
  Si0+  0.0
  O2-  -2.0
loop_
 _atom_site_type_symbol
 _atom_site_label
 _atom_site_symmetry_multiplicity
 _atom_site_fract_x
 _atom_site_fract_y
 _atom_site_fract_z
 _atom_site_occupancy
  Ca2+  Ca0  1  0.17344927  0.07664461  0.16943088  1
  Ca2+  Ca1  1  0.17601448  0.08288805  0.51020011  1
  Ca2+  Ca2  1  0.16727236  0.07738454  0.83331311  1
  Ca2+  Ca3  1  0.18000731  0.58466741  0.17017957  1
  Ca2+  Ca4  1  0.16916759  0.58354946  0.50372578  1
  Ca2+  Ca5  1  0.17074813  0.58532661  0.83591994  1
  Ca2+  Ca6  1  0.67231953  0.08178616  0.16913682  1
  Ca2+  Ca7  1  0.67312035  0.08728743  0.50567338  1
  Ca2+  Ca8  1  0.67729936  0.07543497  0.83567985  1
  Ca2+  Ca9  1  0.67017230  0.57583782  0.16923167  1
  Ca2+  Ca10  1  0.67493342  0.57651215  0.50532767  1
  Ca2+  Ca11  1  0.66088699  0.57049602  0.83583421  1
  Ca2+  Ca12  1  0.07617326  0.33245534  0.16550357  1
  Ca2+  Ca13  1  0.07274372  0.32473053  0.49957655  1
  Ca2+  Ca14  1  0.07497275  0.32305950  0.81989268  1
  Ca2+  Ca15  1  0.07813532  0.83552465  0.15690785  1
  Ca2+  Ca16  1  0.08868078  0.83160990  0.50409671  1
  Ca2+  Ca17  1  0.08528783  0.83393453  0.82900486  1
  Ca2+  Ca18  1  0.58304212  0.32632008  0.16079444  1
  Ca2+  Ca19  1  0.58226312  0.32804032  0.49920002  1
  Ca2+  Ca20  1  0.57669088  0.33823567  0.82853096  1
  Ca2+  Ca21  1  0.57821978  0.83131593  0.15582926  1
  Ca2+  Ca22  1  0.57723951  0.84572212  0.50157883  1
  Ca2+  Ca23  1  0.57615150  0.84314409  0.82939508  1
  Ca2+  Ca24  1  0.34039114  0.42626520  0.16752617  1
  Ca2+  Ca25  1  0.33861055  0.42249428  0.50581057  1
  Ca2+  Ca26  1  0.33906215  0.42116209  0.84185778  1
  Ca2+  Ca27  1  0.32805037  0.91465843  0.16925878  1
  Ca2+  Ca28  1  0.33285091  0.92947011  0.51045962  1
  Ca2+  Ca29  1  0.32649077  0.91442474  0.83463538  1
  Ca2+  Ca30  1  0.82882745  0.41812780  0.17353996  1
  Ca2+  Ca31  1  0.83305980  0.41354726  0.50560685  1
  Ca2+  Ca32  1  0.82124259  0.40862560  0.83460805  1
  Ca2+  Ca33  1  0.83355092  0.92580978  0.16769866  1
  Ca2+  Ca34  1  0.82592160  0.93051640  0.51068315  1
  Ca2+  Ca35  1  0.83049599  0.92467124  0.84206503  1
  Ca2+  Ca36  1  0.42322661  0.16628000  0.16271540  1
  Ca2+  Ca37  1  0.41906457  0.16589026  0.49416312  1
  Ca2+  Ca38  1  0.41363174  0.17807576  0.82377393  1
  Ca2+  Ca39  1  0.41483855  0.66771426  0.15790037  1
  Ca2+  Ca40  1  0.41645813  0.67385417  0.49887531  1
  Ca2+  Ca41  1  0.41255595  0.67861808  0.83069776  1
  Ca2+  Ca42  1  0.90942203  0.16644002  0.16499335  1
  Ca2+  Ca43  1  0.90941579  0.17237125  0.49728914  1
  Ca2+  Ca44  1  0.91868686  0.16353001  0.82457925  1
  Ca2+  Ca45  1  0.91527643  0.67267955  0.16053169  1
  Ca2+  Ca46  1  0.92265307  0.66337260  0.49502951  1
  Ca2+  Ca47  1  0.92211346  0.67625611  0.82649794  1
  Al0+  Al48  1  0.00134490  -0.00043181  0.00483021  1
  Al0+  Al49  1  -0.00109839  -0.00070464  0.33794393  1
  Al0+  Al50  1  0.00260447  -0.00161410  0.66725974  1
  Al0+  Al51  1  0.00104653  0.49859716  -0.00168888  1
  Al0+  Al52  1  0.00054793  0.49999068  0.32985950  1
  Al0+  Al53  1  0.00140800  0.50144494  0.66001024  1
  Al0+  Al54  1  0.50181705  0.00056038  -0.00268858  1
  Al0+  Al55  1  0.49740161  0.00012120  0.32908534  1
  Al0+  Al56  1  0.49978815  0.00297245  0.66989550  1
  Al0+  Al57  1  0.50107481  0.49927518  0.00616820  1
  Al0+  Al58  1  0.49975701  0.50171979  0.33835770  1
  Al0+  Al59  1  0.50138819  0.50213952  0.66480964  1
  Al0+  Al60  1  0.24886448  0.25051710  -0.00237681  1
  Al0+  Al61  1  0.24795113  0.25053807  0.33395055  1
  Al0+  Al62  1  0.24846604  0.25327790  0.66074831  1
  Al0+  Al63  1  0.25116345  0.74960846  0.00510306  1
  Al0+  Al64  1  0.24923844  0.74760432  0.33685439  1
  Al0+  Al65  1  0.25178291  0.75105663  0.65986222  1
  Al0+  Al66  1  0.74937804  0.25011701  0.00687673  1
  Al0+  Al67  1  0.74795009  0.24874444  0.32723974  1
  Al0+  Al68  1  0.74779941  0.25160410  0.67237375  1
  Al0+  Al69  1  0.75027968  0.74935267  -0.00364973  1
  Al0+  Al70  1  0.74869946  0.74777615  0.33674248  1
  Al0+  Al71  1  0.74952260  0.74863196  0.66921391  1
  Al0+  Al72  1  0.42834548  0.32415037  0.65236558  1
  Al0+  Al73  1  0.67956479  0.42991778  0.01601214  1
  Al0+  Al74  1  0.42879117  0.82123013  0.98698232  1
  Al0+  Al75  1  0.67982090  0.43103539  0.67947418  1
  Al0+  Al76  1  0.56877713  0.17892657  0.31862708  1
  Al0+  Al77  1  0.31876278  0.56912224  0.01182414  1
  Al0+  Al78  1  0.32075547  0.07057896  0.34489638  1
  Al0+  Al79  1  0.07091859  0.17530710  0.65093912  1
  Al0+  Al80  1  0.07106239  0.68058535  0.65212913  1
  Al0+  Al81  1  0.43066723  0.32016695  0.98821460  1
  Al0+  Al82  1  0.67697820  0.92667265  0.01591914  1
  Al0+  Al83  1  0.92948426  0.82134205  0.98715903  1
  Al0+  Al84  1  0.92965584  0.31956824  0.31757725  1
  Al0+  Al85  1  0.32120215  0.07592409  0.68245321  1
  Al0+  Al86  1  0.92618197  0.31906877  0.65297294  1
  Al0+  Al87  1  0.32153129  0.57019860  0.35049211  1
  Al0+  Al88  1  0.67787043  0.92708821  0.68167788  1
  Al0+  Al89  1  0.18172503  0.92746399  0.68143461  1
  Al0+  Al90  1  0.82171397  0.06956460  0.01720752  1
  Al0+  Al91  1  0.82164539  0.57108957  0.34604160  1
  Al0+  Al92  1  0.82157603  0.07139804  0.68133699  1
  Al0+  Al93  1  0.18181980  0.92970539  0.01413624  1
  Al0+  Al94  1  0.43182619  0.82210080  0.65234487  1
  Al0+  Al95  1  0.81909763  0.07078732  0.34831297  1
  Si0+  Si96  1  0.17683512  0.42855249  0.35080804  1
  Si0+  Si97  1  0.82487626  0.57143739  0.01420146  1
  Si0+  Si98  1  0.92573784  0.82184116  0.64882822  1
  Si0+  Si99  1  0.92805323  0.32152040  0.98540454  1
  Si0+  Si100  1  0.07277429  0.17559014  0.31489435  1
  Si0+  Si101  1  0.17730563  0.92719785  0.35083607  1
  Si0+  Si102  1  0.07293085  0.67779804  0.98517977  1
  Si0+  Si103  1  0.42646249  0.32447325  0.31705717  1
  Si0+  Si104  1  0.92805217  0.82061918  0.32005990  1
  Si0+  Si105  1  0.67665521  0.92654413  0.34829938  1
  Si0+  Si106  1  0.07145264  0.67941267  0.31556684  1
  Si0+  Si107  1  0.17563886  0.42511724  0.01616597  1
  Si0+  Si108  1  0.82592159  0.57200703  0.68395158  1
  Si0+  Si109  1  0.32076791  0.57045608  0.68131898  1
  Si0+  Si110  1  0.57142421  0.67765311  0.31822508  1
  Si0+  Si111  1  0.32243702  0.07565076  0.01499310  1
  Si0+  Si112  1  0.67919272  0.42758192  0.35045766  1
  Si0+  Si113  1  0.42883293  0.81908211  0.31781484  1
  Si0+  Si114  1  0.57304647  0.67698000  0.64890738  1
  Si0+  Si115  1  0.56986344  0.18015470  0.65196905  1
  Si0+  Si116  1  0.57227445  0.67688235  0.98379271  1
  Si0+  Si117  1  0.57404141  0.17832769  0.98098862  1
  Si0+  Si118  1  0.07058237  0.17910073  0.98627947  1
  Si0+  Si119  1  0.17766756  0.43083625  0.68020183  1
  O2-  O120  1  0.25906897  0.00220440  0.06022734  1
  O2-  O121  1  0.24451080  -0.00183546  0.39221924  1
  O2-  O122  1  0.25019849  0.00257805  0.73194068  1
  O2-  O123  1  0.24503531  0.49352246  0.05972909  1
  O2-  O124  1  0.24983558  0.49241246  0.39608561  1
  O2-  O125  1  0.25165115  0.49809186  0.72405304  1
  O2-  O126  1  0.74886546  -0.00231792  0.06706033  1
  O2-  O127  1  0.74480011  -0.00488799  0.39294275  1
  O2-  O128  1  0.75502841  -0.00612416  0.73050409  1
  O2-  O129  1  0.75728463  0.50281569  0.06028434  1
  O2-  O130  1  0.75011077  0.49439486  0.39385425  1
  O2-  O131  1  0.75653916  0.50383367  0.72738333  1
  O2-  O132  1  0.00259775  0.24281860  0.26977021  1
  O2-  O133  1  -0.00632047  0.24304476  0.60219438  1
  O2-  O134  1  -0.00113973  0.25017858  0.94494349  1
  O2-  O135  1  0.00039462  0.75115931  0.27538511  1
  O2-  O136  1  -0.00575685  0.75271524  0.60399930  1
  O2-  O137  1  0.00257482  0.74426890  0.94119176  1
  O2-  O138  1  0.49263644  0.25375023  0.27287239  1
  O2-  O139  1  0.49845611  0.24558353  0.60615219  1
  O2-  O140  1  0.50187420  0.24436872  0.93814380  1
  O2-  O141  1  0.50008135  0.74818082  0.27549767  1
  O2-  O142  1  0.51111259  0.75195441  0.60462494  1
  O2-  O143  1  0.50724343  0.74959126  0.94068769  1
  O2-  O144  1  0.07251227  0.18121075  0.09166788  1
  O2-  O145  1  0.07404916  0.17726487  0.41973682  1
  O2-  O146  1  0.07174347  0.17983903  0.76525820  1
  O2-  O147  1  0.07221693  0.67789975  0.09115243  1
  O2-  O148  1  0.07252570  0.67922979  0.42047617  1
  O2-  O149  1  0.07107342  0.67989125  0.76543551  1
  O2-  O150  1  0.57305356  0.17984483  0.08712715  1
  O2-  O151  1  0.56893815  0.18020822  0.43173086  1
  O2-  O152  1  0.57023833  0.18318215  0.75739742  1
  O2-  O153  1  0.57050057  0.67577994  0.09007409  1
  O2-  O154  1  0.57157618  0.67680547  0.42290689  1
  O2-  O155  1  0.56770200  0.67071189  0.75411014  1
  O2-  O156  1  0.17619282  0.43166818  0.24480090  1
  O2-  O157  1  0.17727303  0.43426247  0.57509983  1
  O2-  O158  1  0.17341149  0.42552482  0.91075634  1
  O2-  O159  1  0.17789764  0.92543926  0.24483123  1
  O2-  O160  1  0.18658784  0.92584602  0.56757030  1
  O2-  O161  1  0.18140581  0.92903250  0.90189494  1
  O2-  O162  1  0.67865095  0.43082412  0.24464102  1
  O2-  O163  1  0.67943992  0.43284192  0.56630061  1
  O2-  O164  1  0.67872891  0.43110321  0.90297131  1
  O2-  O165  1  0.67813396  0.92413745  0.24290255  1
  O2-  O166  1  0.67879201  0.93047974  0.56727896  1
  O2-  O167  1  0.67862970  0.92927838  0.90297331  1
  O2-  O168  1  0.43230576  0.31993705  0.10159384  1
  O2-  O169  1  0.42905860  0.32559661  0.42252067  1
  O2-  O170  1  0.43085859  0.32742928  0.76562242  1
  O2-  O171  1  0.42719911  0.81629197  0.10084147  1
  O2-  O172  1  0.43020431  0.81949275  0.42274556  1
  O2-  O173  1  0.42873912  0.81741789  0.76520041  1
  O2-  O174  1  0.93037718  0.32411585  0.09072925  1
  O2-  O175  1  0.93033478  0.31979067  0.43015027  1
  O2-  O176  1  0.92894577  0.32057013  0.76709223  1
  O2-  O177  1  0.93172451  0.81920743  0.10118472  1
  O2-  O178  1  0.92894305  0.81841814  0.42477303  1
  O2-  O179  1  0.92593957  0.81926928  0.75446681  1
  O2-  O180  1  0.32064132  0.06657396  0.23138513  1
  O2-  O181  1  0.32189453  0.07362217  0.56831205  1
  O2-  O182  1  0.31721899  0.08023863  0.91017514  1
  O2-  O183  1  0.32053650  0.57209238  0.23727697  1
  O2-  O184  1  0.31984329  0.56946436  0.57598641  1
  O2-  O185  1  0.31693139  0.56970634  0.89867240  1
  O2-  O186  1  0.81953019  0.06819804  0.23556112  1
  O2-  O187  1  0.81650827  0.07359732  0.56742960  1
  O2-  O188  1  0.82331365  0.07022225  0.90407947  1
  O2-  O189  1  0.81851016  0.57238355  0.23275687  1
  O2-  O190  1  0.82511850  0.57155585  0.57800812  1
  O2-  O191  1  0.82722421  0.56899665  0.90900886  1
  O2-  O192  1  0.04847279  0.08006716  0.27136484  1
  O2-  O193  1  0.05253849  0.07444587  0.59922714  1
  O2-  O194  1  0.04270917  0.08726188  0.94039117  1
  O2-  O195  1  0.04469196  0.58820299  0.26680622  1
  O2-  O196  1  0.04227796  0.58500759  0.59418563  1
  O2-  O197  1  0.05113508  0.58269950  0.93924117  1
  O2-  O198  1  0.53710338  0.08300171  0.26206540  1
  O2-  O199  1  0.54853511  0.08617088  0.60516216  1
  O2-  O200  1  0.55363393  0.08356611  0.93634330  1
  O2-  O201  1  0.54289948  0.58557775  0.27077767  1
  O2-  O202  1  0.54013247  0.58792571  0.59762779  1
  O2-  O203  1  0.54072069  0.58474696  0.93845409  1
  O2-  O204  1  0.16564821  0.20360794  0.26674355  1
  O2-  O205  1  0.16560374  0.21201037  0.59496541  1
  O2-  O206  1  0.16130889  0.20704676  0.93696084  1
  O2-  O207  1  0.16389327  0.70811171  0.26867940  1
  O2-  O208  1  0.16598603  0.71213591  0.59461128  1
  O2-  O209  1  0.16572043  0.70576493  0.93990769  1
  O2-  O210  1  0.66307379  0.21088965  0.26090959  1
  O2-  O211  1  0.66173630  0.21147567  0.60540238  1
  O2-  O212  1  0.66698091  0.20932053  0.93722347  1
  O2-  O213  1  0.66342676  0.70455302  0.26991833  1
  O2-  O214  1  0.66997096  0.69420248  0.60580517  1
  O2-  O215  1  0.66719072  0.69448050  0.93758083  1
  O2-  O216  1  0.08254799  0.45185923  0.06401659  1
  O2-  O217  1  0.08567123  0.46073891  0.39706986  1
  O2-  O218  1  0.08732258  0.46235907  0.72864178  1
  O2-  O219  1  0.08752063  0.96271597  0.07128497  1
  O2-  O220  1  0.08322610  0.94902662  0.39684543  1
  O2-  O221  1  0.08109043  0.94842520  0.73230404  1
  O2-  O222  1  0.58593890  0.46342512  0.07373877  1
  O2-  O223  1  0.58658720  0.45567342  0.39673869  1
  O2-  O224  1  0.58433724  0.46687941  0.73401201  1
  O2-  O225  1  0.57750440  0.95461733  0.06859482  1
  O2-  O226  1  0.58214472  0.95326332  0.39108091  1
  O2-  O227  1  0.58140382  0.95927402  0.73486783  1
  O2-  O228  1  0.20054756  0.33211266  0.06374657  1
  O2-  O229  1  0.19566585  0.33285165  0.39449777  1
  O2-  O230  1  0.20118028  0.33812588  0.72641261  1
  O2-  O231  1  0.21051039  0.83355393  0.07106726  1
  O2-  O232  1  0.20435534  0.83379700  0.39596709  1
  O2-  O233  1  0.21454545  0.82922723  0.73325091  1
  O2-  O234  1  0.70941324  0.33450440  0.07183367  1
  O2-  O235  1  0.70376664  0.33336027  0.39363805  1
  O2-  O236  1  0.70676482  0.33606566  0.73768358  1
  O2-  O237  1  0.70252521  0.82547589  0.06548777  1
  O2-  O238  1  0.70016319  0.83300373  0.39553934  1
  O2-  O239  1  0.69685072  0.82503750  0.73160356  1
  O2-  O240  1  0.45494542  0.41867898  0.27251375  1
  O2-  O241  1  0.46386390  0.41904740  0.59705790  1
  O2-  O242  1  0.46340138  0.41742510  0.93624509  1
  O2-  O243  1  0.45418998  0.91032348  0.26864547  1
  O2-  O244  1  0.46019032  0.92039580  0.59916052  1
  O2-  O245  1  0.45368239  0.91952523  0.93374763  1
  O2-  O246  1  0.96300141  0.41594011  0.26239859  1
  O2-  O247  1  0.95865065  0.41638571  0.59954072  1
  O2-  O248  1  0.95527237  0.41310748  0.93696141  1
  O2-  O249  1  0.95539585  0.91304929  0.27312330  1
  O2-  O250  1  0.95236744  0.91481774  0.60274519  1
  O2-  O251  1  0.96379734  0.91724589  0.93503925  1
  O2-  O252  1  0.33057122  0.30395458  0.27323089  1
  O2-  O253  1  0.33056175  0.30139490  0.59777083  1
  O2-  O254  1  0.33148445  0.29564565  0.93512983  1
  O2-  O255  1  0.33605142  0.78887171  0.27297793  1
  O2-  O256  1  0.33917895  0.78546271  0.59455327  1
  O2-  O257  1  0.33334041  0.78447801  0.93418784  1
  O2-  O258  1  0.83271963  0.29130207  0.26302914  1
  O2-  O259  1  0.82587517  0.29537175  0.60154957  1
  O2-  O260  1  0.83485136  0.29435238  0.94158207  1
  O2-  O261  1  0.83616881  0.79062637  0.27340597  1
  O2-  O262  1  0.83153326  0.79636704  0.60323173  1
  O2-  O263  1  0.83345834  0.79185259  0.93138454  1
  O2-  O264  1  0.41868647  0.05482160  0.05646896  1
  O2-  O265  1  0.41643140  0.03750708  0.39921752  1
  O2-  O266  1  0.41996240  0.05091713  0.73446997  1
  O2-  O267  1  0.41418300  0.53878385  0.06873835  1
  O2-  O268  1  0.41877525  0.54378592  0.40546158  1
  O2-  O269  1  0.41305615  0.54452199  0.72747282  1
  O2-  O270  1  0.91928848  0.04060617  0.07206236  1
  O2-  O271  1  0.91651750  0.04218086  0.40179201  1
  O2-  O272  1  0.92222381  0.04708744  0.73043041  1
  O2-  O273  1  0.91896309  0.54691849  0.06143822  1
  O2-  O274  1  0.92015600  0.54343154  0.39716001  1
  O2-  O275  1  0.92020616  0.54754523  0.72844154  1
  O2-  O276  1  0.29145303  0.16674919  0.06443527  1
  O2-  O277  1  0.29472792  0.16949030  0.39660206  1
  O2-  O278  1  0.29151270  0.17576584  0.73191840  1
  O2-  O279  1  0.28684180  0.66300023  0.07064367  1
  O2-  O280  1  0.28682192  0.66547071  0.40483789  1
  O2-  O281  1  0.28959299  0.66178653  0.72633534  1
  O2-  O282  1  0.79248733  0.16779479  0.07044529  1
  O2-  O283  1  0.78586095  0.16814861  0.39845813  1
  O2-  O284  1  0.78987103  0.16778677  0.73596815  1
  O2-  O285  1  0.79887668  0.66501623  0.05972890  1
  O2-  O286  1  0.78915697  0.66559965  0.40344824  1
  O2-  O287  1  0.80129521  0.66574576  0.72984456  1
