# generated using pymatgen
data_Ca2Al2SiO7
_symmetry_space_group_name_H-M   'P 1'
_cell_length_a   15.45648046
_cell_length_b   15.45634854
_cell_length_c   15.28182767
_cell_angle_alpha   90.00537307
_cell_angle_beta   90.00533903
_cell_angle_gamma   89.99788423
_symmetry_Int_Tables_number   1
_chemical_formula_structural   Ca2Al2SiO7
_chemical_formula_sum   'Ca48 Al48 Si24 O168'
_cell_volume   3650.84004560
_cell_formula_units_Z   24
loop_
 _symmetry_equiv_pos_site_id
 _symmetry_equiv_pos_as_xyz
  1  'x, y, z'
loop_
 _atom_type_symbol
 _atom_type_oxidation_number
  Ca2+  2.0
  Al0+  0.0
  Si0+  0.0
  O2-  -2.0
loop_
 _atom_site_type_symbol
 _atom_site_label
 _atom_site_symmetry_multiplicity
 _atom_site_fract_x
 _atom_site_fract_y
 _atom_site_fract_z
 _atom_site_occupancy
  Ca2+  Ca0  1  0.17154739  0.07055363  0.16932395  1
  Ca2+  Ca1  1  0.16149469  0.07245186  0.50791184  1
  Ca2+  Ca2  1  0.16559836  0.07341524  0.83723076  1
  Ca2+  Ca3  1  0.17328233  0.58352903  0.17504958  1
  Ca2+  Ca4  1  0.15633299  0.57513743  0.50306671  1
  Ca2+  Ca5  1  0.16788262  0.58102131  0.83376889  1
  Ca2+  Ca6  1  0.66927216  0.07611323  0.17125291  1
  Ca2+  Ca7  1  0.67788459  0.08972503  0.50511509  1
  Ca2+  Ca8  1  0.67100562  0.07983601  0.83479129  1
  Ca2+  Ca9  1  0.67231188  0.58221086  0.17526472  1
  Ca2+  Ca10  1  0.66878982  0.58006037  0.50248866  1
  Ca2+  Ca11  1  0.66396241  0.58907181  0.83755045  1
  Ca2+  Ca12  1  0.07795025  0.33881123  0.16807900  1
  Ca2+  Ca13  1  0.07678764  0.33473188  0.49455329  1
  Ca2+  Ca14  1  0.07874958  0.32607107  0.81966897  1
  Ca2+  Ca15  1  0.08835925  0.83275935  0.16744988  1
  Ca2+  Ca16  1  0.08713421  0.82666261  0.49660857  1
  Ca2+  Ca17  1  0.08329147  0.83373152  0.82276917  1
  Ca2+  Ca18  1  0.57980427  0.33743606  0.16878211  1
  Ca2+  Ca19  1  0.58086639  0.32987930  0.49370921  1
  Ca2+  Ca20  1  0.57826984  0.32467952  0.82429820  1
  Ca2+  Ca21  1  0.57381770  0.83139101  0.15577157  1
  Ca2+  Ca22  1  0.57707438  0.82842283  0.49543487  1
  Ca2+  Ca23  1  0.58044395  0.82848926  0.83079383  1
  Ca2+  Ca24  1  0.33181922  0.42447107  0.17518522  1
  Ca2+  Ca25  1  0.32148203  0.41147246  0.50297178  1
  Ca2+  Ca26  1  0.32673692  0.42241559  0.83681586  1
  Ca2+  Ca27  1  0.32924052  0.91144035  0.17028538  1
  Ca2+  Ca28  1  0.32379061  0.90916137  0.50126311  1
  Ca2+  Ca29  1  0.32252246  0.91798672  0.84264520  1
  Ca2+  Ca30  1  0.82658834  0.42180653  0.18190422  1
  Ca2+  Ca31  1  0.83734944  0.41770154  0.49965356  1
  Ca2+  Ca32  1  0.83399817  0.41617913  0.83219589  1
  Ca2+  Ca33  1  0.82483551  0.92020799  0.17241954  1
  Ca2+  Ca34  1  0.84112858  0.92878852  0.50659551  1
  Ca2+  Ca35  1  0.83242137  0.91961244  0.83390075  1
  Ca2+  Ca36  1  0.40755471  0.17340558  0.16439850  1
  Ca2+  Ca37  1  0.42366564  0.16951281  0.49442562  1
  Ca2+  Ca38  1  0.42141055  0.15871163  0.82953356  1
  Ca2+  Ca39  1  0.41769697  0.67666450  0.15835017  1
  Ca2+  Ca40  1  0.42089046  0.67008404  0.49580417  1
  Ca2+  Ca41  1  0.42287146  0.66745841  0.83414316  1
  Ca2+  Ca42  1  0.91198276  0.16974687  0.17006014  1
  Ca2+  Ca43  1  0.91713299  0.17169969  0.49829098  1
  Ca2+  Ca44  1  0.92221865  0.17061876  0.81958914  1
  Ca2+  Ca45  1  0.92428156  0.65834147  0.16799510  1
  Ca2+  Ca46  1  0.92656807  0.66871374  0.49673892  1
  Ca2+  Ca47  1  0.92460517  0.67809200  0.82158807  1
  Al0+  Al48  1  0.00026807  0.00164356  0.00519653  1
  Al0+  Al49  1  0.00077164  -0.00119061  0.33852174  1
  Al0+  Al50  1  -0.00051500  0.00203336  0.67030261  1
  Al0+  Al51  1  -0.00225449  0.49973737  -0.00320597  1
  Al0+  Al52  1  0.00048708  0.49995618  0.33061183  1
  Al0+  Al53  1  -0.00138712  0.50090328  0.66807007  1
  Al0+  Al54  1  0.49996098  0.00199107  0.00300271  1
  Al0+  Al55  1  0.49973860  -0.00053864  0.32941071  1
  Al0+  Al56  1  0.50114901  -0.00030060  0.66025088  1
  Al0+  Al57  1  0.49897248  0.49894439  -0.00023044  1
  Al0+  Al58  1  0.50116718  0.49916098  0.33363262  1
  Al0+  Al59  1  0.50017001  0.50078735  0.66394130  1
  Al0+  Al60  1  0.24664075  0.24916177  0.00147359  1
  Al0+  Al61  1  0.25111772  0.24904340  0.33154194  1
  Al0+  Al62  1  0.24968244  0.24983260  0.66952399  1
  Al0+  Al63  1  0.25012550  0.74749133  0.00228634  1
  Al0+  Al64  1  0.25092420  0.74965902  0.32965233  1
  Al0+  Al65  1  0.25119211  0.74878117  0.66878119  1
  Al0+  Al66  1  0.74913416  0.25202023  -0.00056492  1
  Al0+  Al67  1  0.75030240  0.24916015  0.33469672  1
  Al0+  Al68  1  0.74879784  0.25050790  0.66551496  1
  Al0+  Al69  1  0.75205925  0.75018931  0.00202081  1
  Al0+  Al70  1  0.75186215  0.75062462  0.33828569  1
  Al0+  Al71  1  0.74922529  0.75036914  0.65826366  1
  Al0+  Al72  1  0.07310802  0.17854223  0.65204353  1
  Al0+  Al73  1  0.18047526  0.42887030  0.34550847  1
  Al0+  Al74  1  0.81943971  0.07184887  0.68152917  1
  Al0+  Al75  1  0.81966814  0.06933922  0.34754507  1
  Al0+  Al76  1  0.57116685  0.67811261  0.65130431  1
  Al0+  Al77  1  0.18052064  0.92890320  0.68030471  1
  Al0+  Al78  1  0.42817050  0.32058688  0.31941856  1
  Al0+  Al79  1  0.43031145  0.81953458  0.31865040  1
  Al0+  Al80  1  0.68029063  0.92846125  0.01179270  1
  Al0+  Al81  1  0.32098100  0.56841050  0.01408307  1
  Al0+  Al82  1  0.92892256  0.82339120  0.65179626  1
  Al0+  Al83  1  0.32188535  0.07247980  0.01500582  1
  Al0+  Al84  1  0.17813067  0.92722940  0.01647336  1
  Al0+  Al85  1  0.92865804  0.32168322  0.65110050  1
  Al0+  Al86  1  0.67790279  0.42948560  0.34987589  1
  Al0+  Al87  1  0.07316588  0.67977428  0.65281385  1
  Al0+  Al88  1  0.82290373  0.57230895  0.35048802  1
  Al0+  Al89  1  0.56996038  0.17808313  0.65332338  1
  Al0+  Al90  1  0.57256733  0.67895528  0.98644788  1
  Al0+  Al91  1  0.42738052  0.82315130  0.98310180  1
  Al0+  Al92  1  0.93029540  0.31897203  0.31839721  1
  Al0+  Al93  1  0.06898214  0.67949948  0.31804351  1
  Al0+  Al94  1  0.18193072  0.92839988  0.34899373  1
  Al0+  Al95  1  0.17722385  0.42906019  0.68085853  1
  Si0+  Si96  1  0.57442042  0.67807412  0.31687836  1
  Si0+  Si97  1  0.32481570  0.07205826  0.68094280  1
  Si0+  Si98  1  0.67551391  0.92785106  0.35104364  1
  Si0+  Si99  1  0.06927741  0.17890044  0.98567325  1
  Si0+  Si100  1  0.57248650  0.17869941  0.31420501  1
  Si0+  Si101  1  0.42814967  0.82195423  0.65032794  1
  Si0+  Si102  1  0.92763166  0.32108666  0.98436112  1
  Si0+  Si103  1  0.32325035  0.07248472  0.35096096  1
  Si0+  Si104  1  0.32445602  0.57101733  0.68376548  1
  Si0+  Si105  1  0.67671176  0.92654239  0.68167462  1
  Si0+  Si106  1  0.81937126  0.57260689  0.68293817  1
  Si0+  Si107  1  0.07044453  0.67765540  0.98492143  1
  Si0+  Si108  1  0.17559924  0.42855088  0.01653407  1
  Si0+  Si109  1  0.57244165  0.18037914  0.98525767  1
  Si0+  Si110  1  0.67920782  0.42787493  0.01351569  1
  Si0+  Si111  1  0.82123887  0.57044728  0.01327293  1
  Si0+  Si112  1  0.82118831  0.07446990  0.01681966  1
  Si0+  Si113  1  0.67750373  0.43024985  0.68328375  1
  Si0+  Si114  1  0.07285427  0.17483956  0.31487696  1
  Si0+  Si115  1  0.42721623  0.32083848  0.98484040  1
  Si0+  Si116  1  0.92990914  0.82252711  0.98748786  1
  Si0+  Si117  1  0.42774675  0.32268606  0.65158061  1
  Si0+  Si118  1  0.32232160  0.57238659  0.35030683  1
  Si0+  Si119  1  0.92795461  0.82448142  0.31558211  1
  O2-  O120  1  0.25513050  -0.00451811  0.06486633  1
  O2-  O121  1  0.25550834  0.00418789  0.39607428  1
  O2-  O122  1  0.25511699  0.00483981  0.72548414  1
  O2-  O123  1  0.24485643  0.49542538  0.06140515  1
  O2-  O124  1  0.25592903  0.50168656  0.39436623  1
  O2-  O125  1  0.25279959  0.50382939  0.72660770  1
  O2-  O126  1  0.75355793  0.00447117  0.05969273  1
  O2-  O127  1  0.74571909  -0.00571522  0.39515137  1
  O2-  O128  1  0.74570679  -0.00509715  0.72666012  1
  O2-  O129  1  0.74763650  0.50167585  0.05423647  1
  O2-  O130  1  0.74923029  0.50164859  0.40033474  1
  O2-  O131  1  0.74758844  0.50204068  0.72648643  1
  O2-  O132  1  0.00508143  0.24489377  0.26956565  1
  O2-  O133  1  0.00359490  0.25260320  0.60181780  1
  O2-  O134  1  -0.00190804  0.24994460  0.94332078  1
  O2-  O135  1  -0.00679729  0.75316765  0.26983271  1
  O2-  O136  1  0.00348347  0.75372221  0.60268535  1
  O2-  O137  1  0.00423829  0.75450947  0.94523496  1
  O2-  O138  1  0.50248081  0.24632068  0.26985975  1
  O2-  O139  1  0.49355975  0.25123022  0.60788672  1
  O2-  O140  1  0.49668774  0.24746974  0.94341692  1
  O2-  O141  1  0.50824546  0.74799245  0.27200527  1
  O2-  O142  1  0.49698191  0.75319183  0.60633464  1
  O2-  O143  1  0.50164914  0.75157951  0.93507924  1
  O2-  O144  1  0.06847172  0.17935255  0.09065347  1
  O2-  O145  1  0.07223769  0.17479141  0.42008374  1
  O2-  O146  1  0.07054274  0.17968696  0.76668717  1
  O2-  O147  1  0.06652509  0.67194788  0.08971934  1
  O2-  O148  1  0.06943861  0.68019776  0.43058091  1
  O2-  O149  1  0.07055336  0.68022489  0.76741509  1
  O2-  O150  1  0.57880581  0.18516867  0.08978081  1
  O2-  O151  1  0.57134635  0.17917775  0.41984074  1
  O2-  O152  1  0.56883111  0.17931885  0.76728812  1
  O2-  O153  1  0.57371684  0.67871870  0.09974070  1
  O2-  O154  1  0.57177573  0.67858285  0.42259983  1
  O2-  O155  1  0.57020608  0.67790964  0.76445181  1
  O2-  O156  1  0.18171178  0.43183119  0.23184047  1
  O2-  O157  1  0.17862976  0.42915083  0.56796947  1
  O2-  O158  1  0.17521598  0.42980131  0.91091289  1
  O2-  O159  1  0.18279209  0.92903145  0.23595556  1
  O2-  O160  1  0.18337993  0.92721766  0.56738807  1
  O2-  O161  1  0.17412981  0.93062132  0.90285849  1
  O2-  O162  1  0.67872496  0.43130193  0.23510845  1
  O2-  O163  1  0.67542449  0.43079603  0.57885578  1
  O2-  O164  1  0.68149306  0.42366030  0.90835799  1
  O2-  O165  1  0.67606678  0.92919870  0.24496774  1
  O2-  O166  1  0.67483921  0.92828612  0.57632659  1
  O2-  O167  1  0.68361494  0.92952864  0.89864018  1
  O2-  O168  1  0.42947901  0.32211312  0.08980062  1
  O2-  O169  1  0.42796045  0.31712181  0.43244319  1
  O2-  O170  1  0.43092456  0.32435147  0.75781965  1
  O2-  O171  1  0.42924305  0.81974821  0.09668595  1
  O2-  O172  1  0.43117484  0.81694805  0.43209470  1
  O2-  O173  1  0.42915314  0.82361033  0.75567120  1
  O2-  O174  1  0.92647798  0.32250827  0.08918989  1
  O2-  O175  1  0.93114975  0.31862547  0.43058529  1
  O2-  O176  1  0.92852983  0.31994908  0.76600997  1
  O2-  O177  1  0.92796384  0.82095592  0.09242961  1
  O2-  O178  1  0.93051486  0.82641122  0.42060021  1
  O2-  O179  1  0.92769096  0.82021277  0.76669979  1
  O2-  O180  1  0.32192155  0.07263452  0.24539752  1
  O2-  O181  1  0.32682457  0.07107512  0.57554023  1
  O2-  O182  1  0.31797895  0.07486309  0.90129982  1
  O2-  O183  1  0.32109729  0.57115375  0.24435253  1
  O2-  O184  1  0.32856209  0.56945775  0.57851505  1
  O2-  O185  1  0.32115226  0.56513779  0.90085493  1
  O2-  O186  1  0.81649891  0.06791492  0.23351611  1
  O2-  O187  1  0.81695168  0.07322091  0.56880274  1
  O2-  O188  1  0.82063037  0.07683804  0.91151255  1
  O2-  O189  1  0.82111297  0.56976935  0.23552693  1
  O2-  O190  1  0.81903325  0.57128428  0.57849203  1
  O2-  O191  1  0.82389309  0.56885307  0.90818312  1
  O2-  O192  1  0.04334876  0.08201967  0.26876869  1
  O2-  O193  1  0.04180301  0.08147985  0.60045123  1
  O2-  O194  1  0.04078007  0.08693511  0.93858054  1
  O2-  O195  1  0.03837147  0.58398935  0.26101830  1
  O2-  O196  1  0.03996247  0.58262296  0.60170818  1
  O2-  O197  1  0.03692403  0.58799181  0.93502370  1
  O2-  O198  1  0.54814292  0.08449348  0.26862619  1
  O2-  O199  1  0.54336922  0.08245864  0.59552434  1
  O2-  O200  1  0.54896205  0.08770538  0.93835196  1
  O2-  O201  1  0.54947762  0.58391736  0.27202555  1
  O2-  O202  1  0.53984590  0.58205847  0.59659905  1
  O2-  O203  1  0.54368679  0.57943551  0.93393472  1
  O2-  O204  1  0.16691662  0.19933473  0.26940654  1
  O2-  O205  1  0.17376697  0.20138026  0.60177480  1
  O2-  O206  1  0.16063642  0.20659650  0.93728430  1
  O2-  O207  1  0.16539910  0.71106608  0.26392985  1
  O2-  O208  1  0.17330117  0.70222511  0.60155089  1
  O2-  O209  1  0.16410869  0.69854677  0.93969907  1
  O2-  O210  1  0.66511987  0.20552097  0.26729820  1
  O2-  O211  1  0.66390972  0.21348480  0.59910574  1
  O2-  O212  1  0.66219299  0.21333755  0.93504321  1
  O2-  O213  1  0.67026358  0.70110279  0.27377233  1
  O2-  O214  1  0.66615163  0.70680874  0.59465416  1
  O2-  O215  1  0.67263795  0.70593246  0.93447073  1
  O2-  O216  1  0.08097338  0.45551906  0.06060105  1
  O2-  O217  1  0.08441304  0.46088469  0.39770074  1
  O2-  O218  1  0.08114727  0.46029808  0.73703845  1
  O2-  O219  1  0.08131798  0.96075127  0.07152202  1
  O2-  O220  1  0.08479954  0.95692018  0.40174736  1
  O2-  O221  1  0.08431701  0.95976210  0.73515652  1
  O2-  O222  1  0.58623009  0.45149412  0.05959083  1
  O2-  O223  1  0.57910083  0.45588166  0.40339023  1
  O2-  O224  1  0.58526946  0.45753012  0.73131357  1
  O2-  O225  1  0.58468759  0.95951820  0.06693892  1
  O2-  O226  1  0.58197588  0.95491985  0.39636823  1
  O2-  O227  1  0.58308941  0.95403021  0.72752553  1
  O2-  O228  1  0.19786922  0.33406523  0.06121315  1
  O2-  O229  1  0.20963331  0.33107956  0.39789852  1
  O2-  O230  1  0.20868133  0.33275813  0.73711421  1
  O2-  O231  1  0.20079961  0.82678147  0.06656612  1
  O2-  O232  1  0.21583184  0.83178973  0.40087757  1
  O2-  O233  1  0.21115986  0.83210445  0.73527672  1
  O2-  O234  1  0.71009527  0.33824215  0.06395965  1
  O2-  O235  1  0.70527907  0.33028875  0.39978373  1
  O2-  O236  1  0.70645585  0.33905902  0.73178963  1
  O2-  O237  1  0.71318906  0.83359924  0.06879083  1
  O2-  O238  1  0.69740185  0.83323615  0.39589201  1
  O2-  O239  1  0.70244821  0.83223942  0.72639354  1
  O2-  O240  1  0.45966777  0.41761348  0.26507413  1
  O2-  O241  1  0.45619704  0.41410128  0.60395998  1
  O2-  O242  1  0.45797998  0.41038620  0.93511272  1
  O2-  O243  1  0.45691828  0.91772559  0.26492109  1
  O2-  O244  1  0.45322715  0.91422653  0.60118101  1
  O2-  O245  1  0.45420022  0.92373289  0.93364565  1
  O2-  O246  1  0.96104172  0.41496270  0.26240384  1
  O2-  O247  1  0.95337597  0.42154057  0.60168980  1
  O2-  O248  1  0.95473952  0.41272072  0.93534197  1
  O2-  O249  1  0.95625985  0.91691888  0.26804235  1
  O2-  O250  1  0.95454289  0.92287780  0.60272496  1
  O2-  O251  1  0.95341746  0.91683208  0.94233785  1
  O2-  O252  1  0.33254218  0.29005693  0.26202458  1
  O2-  O253  1  0.33314990  0.29993128  0.60785367  1
  O2-  O254  1  0.33341187  0.29600197  0.93947733  1
  O2-  O255  1  0.33594550  0.78582677  0.26293100  1
  O2-  O256  1  0.33580890  0.79326804  0.60426431  1
  O2-  O257  1  0.32865749  0.79138850  0.93220900  1
  O2-  O258  1  0.83313694  0.28713098  0.26407521  1
  O2-  O259  1  0.83026514  0.29314719  0.60019254  1
  O2-  O260  1  0.83530774  0.29443380  0.93662550  1
  O2-  O261  1  0.83164823  0.80191641  0.27249030  1
  O2-  O262  1  0.83190074  0.79538556  0.59711014  1
  O2-  O263  1  0.84020656  0.79126478  0.93827620  1
  O2-  O264  1  0.42313967  0.05613963  0.06650945  1
  O2-  O265  1  0.41851679  0.04793141  0.39454553  1
  O2-  O266  1  0.41872729  0.04452120  0.72696588  1
  O2-  O267  1  0.41692145  0.53580613  0.06888643  1
  O2-  O268  1  0.41712497  0.54915917  0.39430004  1
  O2-  O269  1  0.41651023  0.54100187  0.73206059  1
  O2-  O270  1  0.91431071  0.05057103  0.06391848  1
  O2-  O271  1  0.91628514  0.04050689  0.40132580  1
  O2-  O272  1  0.91508970  0.04263230  0.73828000  1
  O2-  O273  1  0.91160304  0.53820964  0.06183179  1
  O2-  O274  1  0.92040899  0.54037175  0.40099497  1
  O2-  O275  1  0.91001993  0.54443097  0.73302564  1
  O2-  O276  1  0.28763089  0.16961411  0.06942710  1
  O2-  O277  1  0.29942992  0.16647043  0.39626266  1
  O2-  O278  1  0.30441576  0.16661373  0.72771303  1
  O2-  O279  1  0.29140480  0.66436504  0.06878914  1
  O2-  O280  1  0.29492278  0.66486951  0.39589648  1
  O2-  O281  1  0.30086289  0.66454525  0.73065167  1
  O2-  O282  1  0.79248781  0.16779852  0.06300722  1
  O2-  O283  1  0.78802860  0.16511593  0.40114166  1
  O2-  O284  1  0.78511874  0.16778358  0.73653754  1
  O2-  O285  1  0.79814322  0.66216490  0.06228842  1
  O2-  O286  1  0.79929479  0.67201186  0.40294374  1
  O2-  O287  1  0.79028587  0.66521685  0.72880875  1
