# generated using pymatgen
data_Ca2Al2SiO7
_symmetry_space_group_name_H-M   'P 1'
_cell_length_a   15.47408283
_cell_length_b   15.47048253
_cell_length_c   15.29319244
_cell_angle_alpha   90.01122291
_cell_angle_beta   89.99603974
_cell_angle_gamma   90.00013381
_symmetry_Int_Tables_number   1
_chemical_formula_structural   Ca2Al2SiO7
_chemical_formula_sum   'Ca48 Al48 Si24 O168'
_cell_volume   3661.06062784
_cell_formula_units_Z   24
loop_
 _symmetry_equiv_pos_site_id
 _symmetry_equiv_pos_as_xyz
  1  'x, y, z'
loop_
 _atom_type_symbol
 _atom_type_oxidation_number
  Ca2+  2.0
  Al0+  0.0
  Si0+  0.0
  O2-  -2.0
loop_
 _atom_site_type_symbol
 _atom_site_label
 _atom_site_symmetry_multiplicity
 _atom_site_fract_x
 _atom_site_fract_y
 _atom_site_fract_z
 _atom_site_occupancy
  Ca2+  Ca0  1  0.15683248  0.07219895  0.17266962  1
  Ca2+  Ca1  1  0.15331541  0.07356337  0.50188761  1
  Ca2+  Ca2  1  0.15963513  0.07240894  0.83403000  1
  Ca2+  Ca3  1  0.16118559  0.57754521  0.17204736  1
  Ca2+  Ca4  1  0.15378815  0.57318389  0.49739093  1
  Ca2+  Ca5  1  0.17306560  0.57627850  0.84755800  1
  Ca2+  Ca6  1  0.67868800  0.07552642  0.16956661  1
  Ca2+  Ca7  1  0.68144491  0.08966199  0.50163794  1
  Ca2+  Ca8  1  0.67849306  0.08007107  0.84086934  1
  Ca2+  Ca9  1  0.67410009  0.58213348  0.18015701  1
  Ca2+  Ca10  1  0.66838675  0.58289701  0.49262044  1
  Ca2+  Ca11  1  0.66902083  0.58076426  0.83658771  1
  Ca2+  Ca12  1  0.08397084  0.33228728  0.16702256  1
  Ca2+  Ca13  1  0.07652279  0.32007470  0.48986578  1
  Ca2+  Ca14  1  0.08041007  0.32489296  0.82457316  1
  Ca2+  Ca15  1  0.07752095  0.82975344  0.16427797  1
  Ca2+  Ca16  1  0.08302417  0.82996518  0.48889192  1
  Ca2+  Ca17  1  0.08760526  0.83325727  0.83441030  1
  Ca2+  Ca18  1  0.57989706  0.33998562  0.16921006  1
  Ca2+  Ca19  1  0.57236862  0.34164349  0.49232156  1
  Ca2+  Ca20  1  0.57514475  0.33161863  0.82549414  1
  Ca2+  Ca21  1  0.58768743  0.82967921  0.16221127  1
  Ca2+  Ca22  1  0.57438038  0.83205596  0.49302287  1
  Ca2+  Ca23  1  0.57756735  0.83751802  0.82949735  1
  Ca2+  Ca24  1  0.32194568  0.42013408  0.17138188  1
  Ca2+  Ca25  1  0.32946375  0.41076383  0.49881665  1
  Ca2+  Ca26  1  0.32795574  0.42032770  0.84189397  1
  Ca2+  Ca27  1  0.31892062  0.91544896  0.17113949  1
  Ca2+  Ca28  1  0.32091534  0.91218642  0.50517372  1
  Ca2+  Ca29  1  0.32356451  0.91214995  0.83616247  1
  Ca2+  Ca30  1  0.82999837  0.42383534  0.18288483  1
  Ca2+  Ca31  1  0.84277573  0.42077568  0.49939232  1
  Ca2+  Ca32  1  0.83623210  0.41498973  0.83589774  1
  Ca2+  Ca33  1  0.84435563  0.92286719  0.17091257  1
  Ca2+  Ca34  1  0.84426834  0.92996599  0.50054629  1
  Ca2+  Ca35  1  0.83370326  0.92887286  0.84341733  1
  Ca2+  Ca36  1  0.41400113  0.17332250  0.16674723  1
  Ca2+  Ca37  1  0.41615586  0.17803092  0.49254220  1
  Ca2+  Ca38  1  0.41877500  0.17188048  0.82530413  1
  Ca2+  Ca39  1  0.42264754  0.65907284  0.16591348  1
  Ca2+  Ca40  1  0.42217814  0.67085589  0.49500065  1
  Ca2+  Ca41  1  0.41379368  0.67080340  0.82933266  1
  Ca2+  Ca42  1  0.91412977  0.16686081  0.17000775  1
  Ca2+  Ca43  1  0.92142677  0.16911806  0.49339460  1
  Ca2+  Ca44  1  0.91839993  0.16723316  0.82531799  1
  Ca2+  Ca45  1  0.92508520  0.67237346  0.16320335  1
  Ca2+  Ca46  1  0.91990357  0.67679232  0.48523027  1
  Ca2+  Ca47  1  0.92372647  0.67431213  0.83598455  1
  Al0+  Al48  1  0.00045201  0.00200555  0.00321372  1
  Al0+  Al49  1  0.00053916  0.00037155  0.33502478  1
  Al0+  Al50  1  -0.00071728  -0.00202120  0.67466706  1
  Al0+  Al51  1  -0.00052355  0.49954426  -0.00173313  1
  Al0+  Al52  1  -0.00015691  0.49964175  0.33692697  1
  Al0+  Al53  1  0.00023263  0.50044755  0.66949695  1
  Al0+  Al54  1  0.50259324  0.00115026  0.00203164  1
  Al0+  Al55  1  0.49854853  0.00223073  0.33236430  1
  Al0+  Al56  1  0.49913934  -0.00067152  0.65991727  1
  Al0+  Al57  1  0.49908204  0.50009712  -0.00002340  1
  Al0+  Al58  1  0.49926736  0.50174642  0.32865965  1
  Al0+  Al59  1  0.50111819  0.50032790  0.66462560  1
  Al0+  Al60  1  0.24968566  0.25136049  0.00007851  1
  Al0+  Al61  1  0.25082085  0.25074043  0.32759381  1
  Al0+  Al62  1  0.24964257  0.24742950  0.65972623  1
  Al0+  Al63  1  0.25367260  0.74944708  0.00519355  1
  Al0+  Al64  1  0.25107050  0.74997785  0.33409350  1
  Al0+  Al65  1  0.25172138  0.74842953  0.66628583  1
  Al0+  Al66  1  0.74888257  0.24870499  0.00214268  1
  Al0+  Al67  1  0.74649147  0.24896823  0.33753936  1
  Al0+  Al68  1  0.74947702  0.25270501  0.66946783  1
  Al0+  Al69  1  0.74934768  0.74922725  -0.00504308  1
  Al0+  Al70  1  0.74744531  0.75154150  0.33103251  1
  Al0+  Al71  1  0.75075993  0.74766892  0.66872611  1
  Al0+  Al72  1  0.06870801  0.17570184  0.65228789  1
  Al0+  Al73  1  0.67861279  0.92734418  0.01394845  1
  Al0+  Al74  1  0.07249850  0.67771044  0.31974991  1
  Al0+  Al75  1  0.42922031  0.32103315  0.65324105  1
  Al0+  Al76  1  0.92982101  0.82261017  0.98308962  1
  Al0+  Al77  1  0.07031387  0.17905592  0.31616454  1
  Al0+  Al78  1  0.81979360  0.06909882  0.34860740  1
  Al0+  Al79  1  0.42962462  0.32149610  0.31611854  1
  Al0+  Al80  1  0.32270442  0.57139546  0.01558934  1
  Al0+  Al81  1  0.82174996  0.57259509  0.34850849  1
  Al0+  Al82  1  0.17869407  0.42824070  0.34887956  1
  Al0+  Al83  1  0.18073315  0.92981643  0.01461678  1
  Al0+  Al84  1  0.92670913  0.32039183  0.31887989  1
  Al0+  Al85  1  0.82198699  0.07166413  0.01729269  1
  Al0+  Al86  1  0.42862335  0.82045499  0.65313440  1
  Al0+  Al87  1  0.81913801  0.07088746  0.68133652  1
  Al0+  Al88  1  0.07352116  0.67830982  0.98456614  1
  Al0+  Al89  1  0.56892446  0.68221808  0.31915929  1
  Al0+  Al90  1  0.92781103  0.32320794  0.65223027  1
  Al0+  Al91  1  0.18091919  0.92759400  0.68138105  1
  Al0+  Al92  1  0.18086688  0.92987317  0.34751220  1
  Al0+  Al93  1  0.67708668  0.42971715  0.34871727  1
  Al0+  Al94  1  0.92889380  0.82273418  0.32038860  1
  Al0+  Al95  1  0.17710174  0.42842567  0.01470230  1
  Si0+  Si96  1  0.67761031  0.43186413  0.68302672  1
  Si0+  Si97  1  0.81992087  0.56987114  0.01298755  1
  Si0+  Si98  1  0.57268396  0.17826405  0.65029613  1
  Si0+  Si99  1  0.92879301  0.81879504  0.65406554  1
  Si0+  Si100  1  0.57077631  0.67720617  0.98283978  1
  Si0+  Si101  1  0.07234381  0.67937857  0.65364913  1
  Si0+  Si102  1  0.32199921  0.57117639  0.35191399  1
  Si0+  Si103  1  0.32233844  0.56840355  0.68035104  1
  Si0+  Si104  1  0.67603324  0.92608452  0.68104813  1
  Si0+  Si105  1  0.32315621  0.07307179  0.35005926  1
  Si0+  Si106  1  0.67418789  0.92778850  0.35115192  1
  Si0+  Si107  1  0.92663770  0.32036393  0.98640177  1
  Si0+  Si108  1  0.32402113  0.07288411  0.68152313  1
  Si0+  Si109  1  0.57379518  0.67776411  0.64986115  1
  Si0+  Si110  1  0.57196630  0.17624232  0.31412703  1
  Si0+  Si111  1  0.42729447  0.82429013  0.31451525  1
  Si0+  Si112  1  0.57154196  0.17941738  0.98416830  1
  Si0+  Si113  1  0.42991608  0.32067164  0.98378678  1
  Si0+  Si114  1  0.17942007  0.42729003  0.68068347  1
  Si0+  Si115  1  0.82321216  0.57226382  0.68521913  1
  Si0+  Si116  1  0.67857765  0.42884680  0.01308446  1
  Si0+  Si117  1  0.43097143  0.82303580  0.98593419  1
  Si0+  Si118  1  0.07216970  0.17998360  0.98451892  1
  Si0+  Si119  1  0.32407984  0.07362294  0.01486575  1
  O2-  O120  1  0.25505453  0.00620080  0.05924977  1
  O2-  O121  1  0.25528299  0.00465126  0.39508375  1
  O2-  O122  1  0.25601626  0.00388602  0.72639804  1
  O2-  O123  1  0.24535535  0.50466174  0.06357191  1
  O2-  O124  1  0.25076836  0.50575765  0.39714053  1
  O2-  O125  1  0.25212091  0.49682601  0.72269874  1
  O2-  O126  1  0.75568487  -0.00726751  0.06443917  1
  O2-  O127  1  0.74491312  -0.00624726  0.39565886  1
  O2-  O128  1  0.74285522  -0.00405834  0.72577217  1
  O2-  O129  1  0.74999758  0.49822619  0.05485044  1
  O2-  O130  1  0.75335766  0.49671438  0.39994975  1
  O2-  O131  1  0.75252675  0.49898939  0.72553486  1
  O2-  O132  1  -0.00068010  0.25172347  0.26520541  1
  O2-  O133  1  -0.00265300  0.24883541  0.60360462  1
  O2-  O134  1  -0.00070159  0.25068068  0.94439539  1
  O2-  O135  1  -0.00170606  0.74779946  0.27126317  1
  O2-  O136  1  0.00035534  0.74896007  0.61184926  1
  O2-  O137  1  0.00521302  0.75333398  0.93249850  1
  O2-  O138  1  0.50463240  0.24659973  0.26983694  1
  O2-  O139  1  0.50207269  0.24482518  0.60633013  1
  O2-  O140  1  0.49940817  0.24890495  0.94060810  1
  O2-  O141  1  0.49751563  0.75818431  0.26942871  1
  O2-  O142  1  0.50806028  0.75011419  0.60800346  1
  O2-  O143  1  0.50097121  0.75038523  0.94260257  1
  O2-  O144  1  0.07515666  0.18070221  0.08885154  1
  O2-  O145  1  0.06852583  0.17729165  0.42974554  1
  O2-  O146  1  0.06899377  0.17792882  0.76677765  1
  O2-  O147  1  0.06868376  0.67541923  0.09705538  1
  O2-  O148  1  0.07197761  0.68093649  0.43448856  1
  O2-  O149  1  0.07260225  0.67873818  0.75867017  1
  O2-  O150  1  0.57136156  0.18120866  0.08858485  1
  O2-  O151  1  0.56880982  0.17361983  0.41977489  1
  O2-  O152  1  0.57128310  0.18033911  0.75652540  1
  O2-  O153  1  0.57060418  0.67377703  0.08725343  1
  O2-  O154  1  0.56572164  0.68316960  0.43266956  1
  O2-  O155  1  0.57293557  0.67526102  0.75580031  1
  O2-  O156  1  0.18119209  0.42812636  0.23612835  1
  O2-  O157  1  0.17866325  0.42951769  0.57608918  1
  O2-  O158  1  0.18194841  0.42543503  0.90002104  1
  O2-  O159  1  0.18249999  0.93016387  0.23451379  1
  O2-  O160  1  0.18127553  0.92506733  0.56884179  1
  O2-  O161  1  0.18354221  0.93086607  0.90101112  1
  O2-  O162  1  0.67714542  0.43421990  0.23441306  1
  O2-  O163  1  0.67169182  0.43517109  0.57911644  1
  O2-  O164  1  0.67763998  0.42999761  0.90731137  1
  O2-  O165  1  0.67068037  0.93030478  0.24591228  1
  O2-  O166  1  0.67650393  0.92415542  0.57591217  1
  O2-  O167  1  0.67448103  0.93299584  0.89994383  1
  O2-  O168  1  0.43165698  0.32096174  0.08822125  1
  O2-  O169  1  0.43093087  0.32012989  0.42960262  1
  O2-  O170  1  0.43194078  0.32133961  0.76706123  1
  O2-  O171  1  0.43385052  0.82499218  0.09043302  1
  O2-  O172  1  0.42817053  0.82259053  0.42046817  1
  O2-  O173  1  0.42821950  0.81708661  0.76671033  1
  O2-  O174  1  0.92294900  0.32076246  0.09062022  1
  O2-  O175  1  0.92925941  0.31812024  0.43235057  1
  O2-  O176  1  0.93076099  0.32414829  0.76685919  1
  O2-  O177  1  0.92902628  0.81926428  0.09584289  1
  O2-  O178  1  0.93189097  0.82298856  0.43504770  1
  O2-  O179  1  0.92764095  0.81673397  0.75895236  1
  O2-  O180  1  0.32569131  0.06995376  0.24423004  1
  O2-  O181  1  0.32633878  0.07285590  0.57660395  1
  O2-  O182  1  0.32571911  0.07409711  0.90901193  1
  O2-  O183  1  0.32348100  0.56858897  0.24656455  1
  O2-  O184  1  0.32444414  0.56865220  0.57586453  1
  O2-  O185  1  0.32599847  0.56690087  0.90091995  1
  O2-  O186  1  0.81803440  0.06806872  0.23603542  1
  O2-  O187  1  0.81915937  0.06974686  0.56857635  1
  O2-  O188  1  0.81770506  0.07540207  0.90324091  1
  O2-  O189  1  0.81857403  0.57273510  0.23445890  1
  O2-  O190  1  0.82419404  0.57630850  0.58108240  1
  O2-  O191  1  0.81789740  0.56757972  0.90710858  1
  O2-  O192  1  0.03875053  0.08158728  0.26457741  1
  O2-  O193  1  0.03854149  0.07628329  0.60302118  1
  O2-  O194  1  0.04466903  0.08826479  0.93723469  1
  O2-  O195  1  0.04658783  0.57836694  0.26976426  1
  O2-  O196  1  0.04450685  0.58676334  0.60861246  1
  O2-  O197  1  0.04121291  0.58034939  0.92958647  1
  O2-  O198  1  0.54348583  0.08402989  0.26597824  1
  O2-  O199  1  0.55203952  0.08414154  0.60401482  1
  O2-  O200  1  0.54430475  0.08777440  0.93573753  1
  O2-  O201  1  0.53620967  0.58750392  0.26300450  1
  O2-  O202  1  0.54304887  0.58672688  0.60270427  1
  O2-  O203  1  0.54044798  0.58608300  0.93342538  1
  O2-  O204  1  0.16948034  0.20424395  0.26396349  1
  O2-  O205  1  0.16784261  0.19989489  0.59971126  1
  O2-  O206  1  0.16371118  0.20837948  0.93540559  1
  O2-  O207  1  0.17145033  0.70563768  0.26850690  1
  O2-  O208  1  0.16358437  0.70582096  0.60596106  1
  O2-  O209  1  0.17536445  0.70336463  0.93558858  1
  O2-  O210  1  0.66520825  0.20085718  0.26860925  1
  O2-  O211  1  0.66501795  0.20770091  0.60548598  1
  O2-  O212  1  0.66189814  0.21028418  0.93476344  1
  O2-  O213  1  0.66511702  0.70958208  0.26333559  1
  O2-  O214  1  0.66887489  0.69902888  0.60550917  1
  O2-  O215  1  0.66182928  0.70180113  0.93208747  1
  O2-  O216  1  0.07674968  0.45195014  0.06477364  1
  O2-  O217  1  0.08283051  0.45690946  0.40525522  1
  O2-  O218  1  0.08878748  0.45675387  0.73008186  1
  O2-  O219  1  0.08475510  0.96100273  0.06731328  1
  O2-  O220  1  0.08510556  0.96083695  0.40220967  1
  O2-  O221  1  0.08534078  0.95735353  0.73805219  1
  O2-  O222  1  0.58704152  0.45723111  0.05924386  1
  O2-  O223  1  0.58037169  0.46662846  0.40084791  1
  O2-  O224  1  0.58781931  0.46427341  0.73406106  1
  O2-  O225  1  0.58271821  0.96062585  0.06935619  1
  O2-  O226  1  0.58067734  0.95616815  0.39753224  1
  O2-  O227  1  0.58062900  0.95022839  0.72513882  1
  O2-  O228  1  0.21068482  0.33171871  0.06746598  1
  O2-  O229  1  0.21465160  0.33189606  0.40057416  1
  O2-  O230  1  0.20660327  0.33404760  0.72566880  1
  O2-  O231  1  0.21300872  0.83452951  0.06845763  1
  O2-  O232  1  0.21324949  0.83334954  0.40194971  1
  O2-  O233  1  0.21565626  0.83139878  0.73535788  1
  O2-  O234  1  0.70291779  0.33671750  0.05969355  1
  O2-  O235  1  0.69281991  0.32829565  0.39899872  1
  O2-  O236  1  0.70045744  0.33933703  0.73190257  1
  O2-  O237  1  0.69791319  0.82463330  0.06063044  1
  O2-  O238  1  0.69436873  0.83282868  0.39548041  1
  O2-  O239  1  0.70081211  0.83196552  0.72772366  1
  O2-  O240  1  0.46209567  0.41676985  0.26179015  1
  O2-  O241  1  0.46297379  0.41670759  0.59983074  1
  O2-  O242  1  0.46057804  0.41162335  0.93539083  1
  O2-  O243  1  0.44962994  0.91925362  0.27047288  1
  O2-  O244  1  0.45364191  0.91723490  0.59666740  1
  O2-  O245  1  0.45982812  0.91441256  0.93692704  1
  O2-  O246  1  0.95211809  0.42080891  0.26973560  1
  O2-  O247  1  0.95702616  0.42259986  0.60235078  1
  O2-  O248  1  0.95167136  0.41234361  0.93752114  1
  O2-  O249  1  0.96250137  0.91809086  0.26669488  1
  O2-  O250  1  0.95599660  0.91147676  0.61016969  1
  O2-  O251  1  0.95657346  0.92327883  0.93313478  1
  O2-  O252  1  0.33528876  0.28918159  0.25977973  1
  O2-  O253  1  0.33332761  0.29273799  0.59798724  1
  O2-  O254  1  0.33787911  0.29367862  0.93615074  1
  O2-  O255  1  0.33512042  0.79560959  0.26880279  1
  O2-  O256  1  0.33509332  0.78353613  0.59735759  1
  O2-  O257  1  0.33948609  0.79512463  0.93826751  1
  O2-  O258  1  0.82618725  0.29317877  0.26926826  1
  O2-  O259  1  0.82578876  0.30314683  0.60471249  1
  O2-  O260  1  0.83477954  0.29163210  0.93749230  1
  O2-  O261  1  0.82813251  0.80169300  0.27049726  1
  O2-  O262  1  0.83698848  0.79030640  0.60711175  1
  O2-  O263  1  0.83175746  0.79059104  0.92868767  1
  O2-  O264  1  0.41729860  0.04905164  0.06161448  1
  O2-  O265  1  0.41711821  0.04941491  0.39710144  1
  O2-  O266  1  0.41880372  0.04822395  0.72736347  1
  O2-  O267  1  0.41929539  0.53672612  0.06891789  1
  O2-  O268  1  0.41430567  0.54157779  0.39790127  1
  O2-  O269  1  0.41461641  0.54215215  0.72884639  1
  O2-  O270  1  0.92175525  0.05043075  0.06831166  1
  O2-  O271  1  0.91550191  0.03724212  0.40325040  1
  O2-  O272  1  0.91343573  0.03788460  0.73832682  1
  O2-  O273  1  0.91168754  0.54353927  0.05897490  1
  O2-  O274  1  0.91983270  0.54788559  0.40368371  1
  O2-  O275  1  0.91436145  0.54455926  0.73493074  1
  O2-  O276  1  0.29947410  0.16762893  0.05995634  1
  O2-  O277  1  0.29911379  0.16776510  0.39298010  1
  O2-  O278  1  0.29869397  0.16694853  0.72809603  1
  O2-  O279  1  0.30683983  0.67171246  0.06746345  1
  O2-  O280  1  0.30208714  0.66675153  0.39620502  1
  O2-  O281  1  0.29312856  0.65939629  0.72866384  1
  O2-  O282  1  0.78557383  0.16777359  0.07004762  1
  O2-  O283  1  0.78678767  0.16461875  0.40355319  1
  O2-  O284  1  0.78917910  0.16864837  0.73517818  1
  O2-  O285  1  0.79027364  0.66137670  0.05760009  1
  O2-  O286  1  0.78715424  0.67016669  0.40131909  1
  O2-  O287  1  0.79171513  0.66208221  0.73569242  1
