# generated using pymatgen
data_Ca2Al2SiO7
_symmetry_space_group_name_H-M   'P 1'
_cell_length_a   15.46272218
_cell_length_b   15.46289140
_cell_length_c   15.28686727
_cell_angle_alpha   90.00595170
_cell_angle_beta   89.99758908
_cell_angle_gamma   90.01802801
_symmetry_Int_Tables_number   1
_chemical_formula_structural   Ca2Al2SiO7
_chemical_formula_sum   'Ca48 Al48 Si24 O168'
_cell_volume   3655.06520634
_cell_formula_units_Z   24
loop_
 _symmetry_equiv_pos_site_id
 _symmetry_equiv_pos_as_xyz
  1  'x, y, z'
loop_
 _atom_type_symbol
 _atom_type_oxidation_number
  Ca2+  2.0
  Al0+  0.0
  Si0+  0.0
  O2-  -2.0
loop_
 _atom_site_type_symbol
 _atom_site_label
 _atom_site_symmetry_multiplicity
 _atom_site_fract_x
 _atom_site_fract_y
 _atom_site_fract_z
 _atom_site_occupancy
  Ca2+  Ca0  1  0.17543455  0.07464690  0.17251522  1
  Ca2+  Ca1  1  0.17084017  0.08183581  0.49539024  1
  Ca2+  Ca2  1  0.17354389  0.07898280  0.84288398  1
  Ca2+  Ca3  1  0.17645055  0.58426640  0.17270382  1
  Ca2+  Ca4  1  0.18041297  0.57183149  0.50047694  1
  Ca2+  Ca5  1  0.17697075  0.58065680  0.83759130  1
  Ca2+  Ca6  1  0.66906129  0.08269364  0.17412730  1
  Ca2+  Ca7  1  0.66758078  0.08662733  0.49833759  1
  Ca2+  Ca8  1  0.66258279  0.06974206  0.83900960  1
  Ca2+  Ca9  1  0.65880765  0.57421877  0.16994622  1
  Ca2+  Ca10  1  0.65833214  0.57640415  0.49647439  1
  Ca2+  Ca11  1  0.66794079  0.57628214  0.84404799  1
  Ca2+  Ca12  1  0.07111507  0.34424052  0.16419383  1
  Ca2+  Ca13  1  0.07570874  0.34593885  0.49460378  1
  Ca2+  Ca14  1  0.07336997  0.33993831  0.82615623  1
  Ca2+  Ca15  1  0.09049791  0.83184711  0.15950740  1
  Ca2+  Ca16  1  0.08615694  0.83298599  0.49085259  1
  Ca2+  Ca17  1  0.09514451  0.82633796  0.83591229  1
  Ca2+  Ca18  1  0.58196547  0.33256654  0.16862855  1
  Ca2+  Ca19  1  0.57245499  0.33151028  0.48818824  1
  Ca2+  Ca20  1  0.57737002  0.33407431  0.83055709  1
  Ca2+  Ca21  1  0.57941039  0.82309163  0.16187807  1
  Ca2+  Ca22  1  0.57802542  0.82610790  0.48900423  1
  Ca2+  Ca23  1  0.58829772  0.82955660  0.83082068  1
  Ca2+  Ca24  1  0.33134521  0.42740964  0.17842221  1
  Ca2+  Ca25  1  0.33594908  0.42142319  0.50628298  1
  Ca2+  Ca26  1  0.33449658  0.42410712  0.83646711  1
  Ca2+  Ca27  1  0.32789103  0.92223409  0.17354717  1
  Ca2+  Ca28  1  0.33886066  0.92023093  0.49408399  1
  Ca2+  Ca29  1  0.32998335  0.92701391  0.84518005  1
  Ca2+  Ca30  1  0.82391139  0.40786102  0.17197606  1
  Ca2+  Ca31  1  0.82905237  0.40929465  0.49773247  1
  Ca2+  Ca32  1  0.82938742  0.41055891  0.83991116  1
  Ca2+  Ca33  1  0.82626113  0.92133564  0.17345360  1
  Ca2+  Ca34  1  0.82624890  0.92650594  0.50357949  1
  Ca2+  Ca35  1  0.82120934  0.91549333  0.83880024  1
  Ca2+  Ca36  1  0.41247421  0.16748959  0.16828514  1
  Ca2+  Ca37  1  0.41944851  0.17654574  0.48877414  1
  Ca2+  Ca38  1  0.41495472  0.17169202  0.82798533  1
  Ca2+  Ca39  1  0.41962623  0.66463080  0.16511085  1
  Ca2+  Ca40  1  0.41536911  0.66954928  0.48870758  1
  Ca2+  Ca41  1  0.41842650  0.66048833  0.83425774  1
  Ca2+  Ca42  1  0.91360101  0.17407380  0.16624736  1
  Ca2+  Ca43  1  0.91656890  0.17564901  0.49043930  1
  Ca2+  Ca44  1  0.91814855  0.17753432  0.83028102  1
  Ca2+  Ca45  1  0.92713272  0.66793167  0.15929785  1
  Ca2+  Ca46  1  0.92030548  0.66871021  0.49486819  1
  Ca2+  Ca47  1  0.92591188  0.66558783  0.83320284  1
  Al0+  Al48  1  -0.00134891  0.00191796  -0.00006022  1
  Al0+  Al49  1  -0.00265479  0.00178481  0.34093317  1
  Al0+  Al50  1  -0.00052936  0.00047694  0.66905450  1
  Al0+  Al51  1  -0.00097006  0.50277244  -0.01153530  1
  Al0+  Al52  1  -0.00113423  0.50264516  0.33169920  1
  Al0+  Al53  1  0.00051572  0.50173423  0.66422332  1
  Al0+  Al54  1  0.50097709  0.00017340  0.00733816  1
  Al0+  Al55  1  0.49890743  -0.00142259  0.32942958  1
  Al0+  Al56  1  0.50091003  -0.00235070  0.67067522  1
  Al0+  Al57  1  0.50084187  0.49997339  0.00270142  1
  Al0+  Al58  1  0.50108621  0.49923399  0.33492850  1
  Al0+  Al59  1  0.50206569  0.50012433  0.66758612  1
  Al0+  Al60  1  0.24805209  0.25158630  0.00239009  1
  Al0+  Al61  1  0.24574658  0.24789716  0.33590900  1
  Al0+  Al62  1  0.24795238  0.24978656  0.66665372  1
  Al0+  Al63  1  0.25190064  0.75009974  0.00007338  1
  Al0+  Al64  1  0.24959379  0.74878223  0.33726974  1
  Al0+  Al65  1  0.25237473  0.74923075  0.66815980  1
  Al0+  Al66  1  0.74764040  0.24922430  -0.00367424  1
  Al0+  Al67  1  0.74968042  0.25044312  0.33496298  1
  Al0+  Al68  1  0.75212125  0.24904701  0.66443341  1
  Al0+  Al69  1  0.75040684  0.74831424  0.00009065  1
  Al0+  Al70  1  0.75148846  0.74912277  0.32924097  1
  Al0+  Al71  1  0.75140531  0.74975910  0.66934265  1
  Al0+  Al72  1  0.42981624  0.32070838  0.65494072  1
  Al0+  Al73  1  0.42454224  0.32103270  0.31832469  1
  Al0+  Al74  1  0.92823653  0.31974864  0.98520442  1
  Al0+  Al75  1  0.67996452  0.92911823  0.67964222  1
  Al0+  Al76  1  0.17793233  0.42836479  0.68298129  1
  Al0+  Al77  1  0.57275461  0.67775147  0.31752914  1
  Al0+  Al78  1  0.32209870  0.07532827  0.01540753  1
  Al0+  Al79  1  0.17906693  0.92853234  0.34891152  1
  Al0+  Al80  1  0.32224417  0.56839363  0.34861629  1
  Al0+  Al81  1  0.57071151  0.67817900  0.98436893  1
  Al0+  Al82  1  0.68044079  0.42999306  0.34742528  1
  Al0+  Al83  1  0.32083692  0.56880204  0.01468081  1
  Al0+  Al84  1  0.07367896  0.68149388  0.98488857  1
  Al0+  Al85  1  0.92988147  0.32149018  0.64984284  1
  Al0+  Al86  1  0.32322281  0.07164065  0.35036558  1
  Al0+  Al87  1  0.17540304  0.42820720  0.34540944  1
  Al0+  Al88  1  0.68057198  0.42829077  0.01311020  1
  Al0+  Al89  1  0.81838348  0.07145585  0.34720973  1
  Al0+  Al90  1  0.93132719  0.32124421  0.31889178  1
  Al0+  Al91  1  0.57072518  0.17957472  0.31841173  1
  Al0+  Al92  1  0.42665525  0.82010614  0.31681513  1
  Al0+  Al93  1  0.32350145  0.57107965  0.68401656  1
  Al0+  Al94  1  0.67987444  0.92599733  0.01632108  1
  Al0+  Al95  1  0.17871024  0.92949340  0.01309927  1
  Si0+  Si96  1  0.82152321  0.57228955  0.68179386  1
  Si0+  Si97  1  0.82270019  0.07285093  0.68594537  1
  Si0+  Si98  1  0.57347180  0.67969866  0.65283496  1
  Si0+  Si99  1  0.92756541  0.82401431  0.98302903  1
  Si0+  Si100  1  0.06884440  0.68172628  0.31939528  1
  Si0+  Si101  1  0.92817376  0.82080157  0.65195507  1
  Si0+  Si102  1  0.17432647  0.42958820  0.01485167  1
  Si0+  Si103  1  0.57001400  0.17776675  0.98402990  1
  Si0+  Si104  1  0.92875834  0.82415164  0.31937092  1
  Si0+  Si105  1  0.81993766  0.07227830  0.01539028  1
  Si0+  Si106  1  0.68105520  0.42833742  0.68125318  1
  Si0+  Si107  1  0.32106547  0.07017604  0.68070281  1
  Si0+  Si108  1  0.57078706  0.17520308  0.65218208  1
  Si0+  Si109  1  0.43065094  0.82258117  0.98200460  1
  Si0+  Si110  1  0.07178794  0.17532263  0.64878627  1
  Si0+  Si111  1  0.17783137  0.92850684  0.68189988  1
  Si0+  Si112  1  0.42970895  0.82138634  0.65316778  1
  Si0+  Si113  1  0.82414802  0.57114052  0.01544436  1
  Si0+  Si114  1  0.07259079  0.68170076  0.64926979  1
  Si0+  Si115  1  0.42813501  0.32132201  0.98628262  1
  Si0+  Si116  1  0.07001022  0.17406097  0.31571395  1
  Si0+  Si117  1  0.82303815  0.57397063  0.34932186  1
  Si0+  Si118  1  0.07228127  0.17783713  0.98317214  1
  Si0+  Si119  1  0.67823692  0.92538485  0.34876371  1
  O2-  O120  1  0.24971446  0.00201420  0.06183331  1
  O2-  O121  1  0.25181351  -0.00149781  0.40089761  1
  O2-  O122  1  0.24842608  0.00032333  0.72274761  1
  O2-  O123  1  0.24459047  0.49530984  0.05961637  1
  O2-  O124  1  0.25650705  0.48924101  0.39668503  1
  O2-  O125  1  0.25279474  0.49717330  0.73344308  1
  O2-  O126  1  0.75597552  0.00000895  0.06038893  1
  O2-  O127  1  0.74256851  -0.00242109  0.39405389  1
  O2-  O128  1  0.75249008  0.00514387  0.72881530  1
  O2-  O129  1  0.75680455  0.50183109  0.05915676  1
  O2-  O130  1  0.75249077  0.50783493  0.39418960  1
  O2-  O131  1  0.75357472  0.49800608  0.72343663  1
  O2-  O132  1  0.00846193  0.24957353  0.27166428  1
  O2-  O133  1  0.00576096  0.24696041  0.60514379  1
  O2-  O134  1  0.00591921  0.24839140  0.93770139  1
  O2-  O135  1  0.00147934  0.75603469  0.27647758  1
  O2-  O136  1  0.00277392  0.75489552  0.60760337  1
  O2-  O137  1  0.00001762  0.75900721  0.93825435  1
  O2-  O138  1  0.49536389  0.24766809  0.26743250  1
  O2-  O139  1  0.50395069  0.24523972  0.60890827  1
  O2-  O140  1  0.49537307  0.24604400  0.94329887  1
  O2-  O141  1  0.49954751  0.74845820  0.26784249  1
  O2-  O142  1  0.49968217  0.74846041  0.61248779  1
  O2-  O143  1  0.49940822  0.75505665  0.93498592  1
  O2-  O144  1  0.07055099  0.17561150  0.08798513  1
  O2-  O145  1  0.06421272  0.16868359  0.42129958  1
  O2-  O146  1  0.06896805  0.17151444  0.75456329  1
  O2-  O147  1  0.07049409  0.68060632  0.09791820  1
  O2-  O148  1  0.06480176  0.68253432  0.42481950  1
  O2-  O149  1  0.07191590  0.68348462  0.75449903  1
  O2-  O150  1  0.57515288  0.17898600  0.08818265  1
  O2-  O151  1  0.57172883  0.18270365  0.43280043  1
  O2-  O152  1  0.56888260  0.17358835  0.75827445  1
  O2-  O153  1  0.56919895  0.67749353  0.09636410  1
  O2-  O154  1  0.57533931  0.68177626  0.43217767  1
  O2-  O155  1  0.57573034  0.68045100  0.75798811  1
  O2-  O156  1  0.17048718  0.43766149  0.23198227  1
  O2-  O157  1  0.17658526  0.43263364  0.57009157  1
  O2-  O158  1  0.17538282  0.43007948  0.90908276  1
  O2-  O159  1  0.17642507  0.92987207  0.23580577  1
  O2-  O160  1  0.17571577  0.92777348  0.57748806  1
  O2-  O161  1  0.18188268  0.93153161  0.89841990  1
  O2-  O162  1  0.68339101  0.42866395  0.23452314  1
  O2-  O163  1  0.68046799  0.42941281  0.57660280  1
  O2-  O164  1  0.68133143  0.42902677  0.89892833  1
  O2-  O165  1  0.68422507  0.92339122  0.24342912  1
  O2-  O166  1  0.68220059  0.92798501  0.56709185  1
  O2-  O167  1  0.68080623  0.92798819  0.90240315  1
  O2-  O168  1  0.42938089  0.32206978  0.09058409  1
  O2-  O169  1  0.42932282  0.32118948  0.43246026  1
  O2-  O170  1  0.43317118  0.31920525  0.76888909  1
  O2-  O171  1  0.43093073  0.82132167  0.08678576  1
  O2-  O172  1  0.42961688  0.81872448  0.43179388  1
  O2-  O173  1  0.43012218  0.82479008  0.75813434  1
  O2-  O174  1  0.92749482  0.31869373  0.09790178  1
  O2-  O175  1  0.93167627  0.32032963  0.43210845  1
  O2-  O176  1  0.92789795  0.31899432  0.76324629  1
  O2-  O177  1  0.92645447  0.82225850  0.08853650  1
  O2-  O178  1  0.92751300  0.82144460  0.42497842  1
  O2-  O179  1  0.92642655  0.81793549  0.75689190  1
  O2-  O180  1  0.31997623  0.06987470  0.23731285  1
  O2-  O181  1  0.32351051  0.06792884  0.57643878  1
  O2-  O182  1  0.32113043  0.07424942  0.90030033  1
  O2-  O183  1  0.31809741  0.57155010  0.23512843  1
  O2-  O184  1  0.32287776  0.57420668  0.57118182  1
  O2-  O185  1  0.32109858  0.56619898  0.90133254  1
  O2-  O186  1  0.81903791  0.06852050  0.23400220  1
  O2-  O187  1  0.82365082  0.07195337  0.58069308  1
  O2-  O188  1  0.81710157  0.07207604  0.90937084  1
  O2-  O189  1  0.82708907  0.57446715  0.24414071  1
  O2-  O190  1  0.82011299  0.57710400  0.57708656  1
  O2-  O191  1  0.82328899  0.57103745  0.90911972  1
  O2-  O192  1  0.03471439  0.08373055  0.26835730  1
  O2-  O193  1  0.04320049  0.08202244  0.60234047  1
  O2-  O194  1  0.04459974  0.08519010  0.93395469  1
  O2-  O195  1  0.03633283  0.59311175  0.26947746  1
  O2-  O196  1  0.04047604  0.59179887  0.60196671  1
  O2-  O197  1  0.03927797  0.58854293  0.92494989  1
  O2-  O198  1  0.54995979  0.07888183  0.26768890  1
  O2-  O199  1  0.54502520  0.08160512  0.60629517  1
  O2-  O200  1  0.54378101  0.08461711  0.93723871  1
  O2-  O201  1  0.54699970  0.57838725  0.26750345  1
  O2-  O202  1  0.54889717  0.58671893  0.60684782  1
  O2-  O203  1  0.53812721  0.58145694  0.93001610  1
  O2-  O204  1  0.16634529  0.18992940  0.27360707  1
  O2-  O205  1  0.16680971  0.19611241  0.60448329  1
  O2-  O206  1  0.16672817  0.20153476  0.93677366  1
  O2-  O207  1  0.16114855  0.70691116  0.27342982  1
  O2-  O208  1  0.16469542  0.70965625  0.60303894  1
  O2-  O209  1  0.16942596  0.71270567  0.92813869  1
  O2-  O210  1  0.66792906  0.21188363  0.26540064  1
  O2-  O211  1  0.66611603  0.19839192  0.60909987  1
  O2-  O212  1  0.65907079  0.20837823  0.93194776  1
  O2-  O213  1  0.67178694  0.70517894  0.26416802  1
  O2-  O214  1  0.66458036  0.70978281  0.60535180  1
  O2-  O215  1  0.66965291  0.70586918  0.93145842  1
  O2-  O216  1  0.08010980  0.45884658  0.05677798  1
  O2-  O217  1  0.08136972  0.46895495  0.40092206  1
  O2-  O218  1  0.07966716  0.46241799  0.73461833  1
  O2-  O219  1  0.07788133  0.95355979  0.06283512  1
  O2-  O220  1  0.08086945  0.95779849  0.40356092  1
  O2-  O221  1  0.08536392  0.95381249  0.73005300  1
  O2-  O222  1  0.58552116  0.46020863  0.06705805  1
  O2-  O223  1  0.58490084  0.45960557  0.40387114  1
  O2-  O224  1  0.59073520  0.45795816  0.73037289  1
  O2-  O225  1  0.58456262  0.95685953  0.06979888  1
  O2-  O226  1  0.58291247  0.94593819  0.39157294  1
  O2-  O227  1  0.58384537  0.95782077  0.73691632  1
  O2-  O228  1  0.19381218  0.33452352  0.05923065  1
  O2-  O229  1  0.18540187  0.32493925  0.39301061  1
  O2-  O230  1  0.19881362  0.32683027  0.73378143  1
  O2-  O231  1  0.20663467  0.83131071  0.06433828  1
  O2-  O232  1  0.20498712  0.83022313  0.40340397  1
  O2-  O233  1  0.20780355  0.83717955  0.72876597  1
  O2-  O234  1  0.71062714  0.33104974  0.06495550  1
  O2-  O235  1  0.71475934  0.33597604  0.40350054  1
  O2-  O236  1  0.70728451  0.33512227  0.72761347  1
  O2-  O237  1  0.71115154  0.82938282  0.06871632  1
  O2-  O238  1  0.70980986  0.83354808  0.39581948  1
  O2-  O239  1  0.71479554  0.83396010  0.73530975  1
  O2-  O240  1  0.45678169  0.41876573  0.26734755  1
  O2-  O241  1  0.46328089  0.41694973  0.60191054  1
  O2-  O242  1  0.46232265  0.41033308  0.93713919  1
  O2-  O243  1  0.45238518  0.91845775  0.26416794  1
  O2-  O244  1  0.45985074  0.91235867  0.60499786  1
  O2-  O245  1  0.45664824  0.91768888  0.93761238  1
  O2-  O246  1  0.95827198  0.41949832  0.26537717  1
  O2-  O247  1  0.95701130  0.42029330  0.59810912  1
  O2-  O248  1  0.95460953  0.41684904  0.92895467  1
  O2-  O249  1  0.95319768  0.91708073  0.27386085  1
  O2-  O250  1  0.95162776  0.91523078  0.60763979  1
  O2-  O251  1  0.94686112  0.91940260  0.93716732  1
  O2-  O252  1  0.32374683  0.29669825  0.26816837  1
  O2-  O253  1  0.33167182  0.29264053  0.60366994  1
  O2-  O254  1  0.33434252  0.29812493  0.93927285  1
  O2-  O255  1  0.32739994  0.79111009  0.26660241  1
  O2-  O256  1  0.33746903  0.79539093  0.60575173  1
  O2-  O257  1  0.33720324  0.79673580  0.93524566  1
  O2-  O258  1  0.83571291  0.28579712  0.26710797  1
  O2-  O259  1  0.83267999  0.28970050  0.59676553  1
  O2-  O260  1  0.83291451  0.28479182  0.92931268  1
  O2-  O261  1  0.83913483  0.79455366  0.26911620  1
  O2-  O262  1  0.83849107  0.78834538  0.60288221  1
  O2-  O263  1  0.83620016  0.79262688  0.93485980  1
  O2-  O264  1  0.42007253  0.04872743  0.06748350  1
  O2-  O265  1  0.42228206  0.04223762  0.40283280  1
  O2-  O266  1  0.41168273  0.04050657  0.73028129  1
  O2-  O267  1  0.41618818  0.53681239  0.06813696  1
  O2-  O268  1  0.42209685  0.54759006  0.40100528  1
  O2-  O269  1  0.42325473  0.54344145  0.73593221  1
  O2-  O270  1  0.91535611  0.05310208  0.05953299  1
  O2-  O271  1  0.91161005  0.03865194  0.40625101  1
  O2-  O272  1  0.91537968  0.04506234  0.73337142  1
  O2-  O273  1  0.91907943  0.54729167  0.05880604  1
  O2-  O274  1  0.91442248  0.54586527  0.39864511  1
  O2-  O275  1  0.91451912  0.54757858  0.72792811  1
  O2-  O276  1  0.29344847  0.17329265  0.06829924  1
  O2-  O277  1  0.29266952  0.16906287  0.40470880  1
  O2-  O278  1  0.29430623  0.16186986  0.72867491  1
  O2-  O279  1  0.29176691  0.66653709  0.06517137  1
  O2-  O280  1  0.28644167  0.66384286  0.40316000  1
  O2-  O281  1  0.29288009  0.66980640  0.73679787  1
  O2-  O282  1  0.78865009  0.16368383  0.06117948  1
  O2-  O283  1  0.78736169  0.16623542  0.40384437  1
  O2-  O284  1  0.79779840  0.16701116  0.73140698  1
  O2-  O285  1  0.80070908  0.66487779  0.06103929  1
  O2-  O286  1  0.80042247  0.66870764  0.39584220  1
  O2-  O287  1  0.79184559  0.66200562  0.73258321  1
