# generated using pymatgen
data_Ca2Al2SiO7
_symmetry_space_group_name_H-M   'P 1'
_cell_length_a   15.46275397
_cell_length_b   15.46218036
_cell_length_c   15.28750838
_cell_angle_alpha   89.99906852
_cell_angle_beta   89.98252584
_cell_angle_gamma   89.98989040
_symmetry_Int_Tables_number   1
_chemical_formula_structural   Ca2Al2SiO7
_chemical_formula_sum   'Ca48 Al48 Si24 O168'
_cell_volume   3655.05790628
_cell_formula_units_Z   24
loop_
 _symmetry_equiv_pos_site_id
 _symmetry_equiv_pos_as_xyz
  1  'x, y, z'
loop_
 _atom_type_symbol
 _atom_type_oxidation_number
  Ca2+  2.0
  Al0+  0.0
  Si0+  0.0
  O2-  -2.0
loop_
 _atom_site_type_symbol
 _atom_site_label
 _atom_site_symmetry_multiplicity
 _atom_site_fract_x
 _atom_site_fract_y
 _atom_site_fract_z
 _atom_site_occupancy
  Ca2+  Ca0  1  0.17435247  0.08637155  0.17563606  1
  Ca2+  Ca1  1  0.16668324  0.08243859  0.50111371  1
  Ca2+  Ca2  1  0.16526144  0.07394959  0.83509047  1
  Ca2+  Ca3  1  0.17046181  0.58152345  0.16809591  1
  Ca2+  Ca4  1  0.16104630  0.58680012  0.50294395  1
  Ca2+  Ca5  1  0.16965791  0.57800152  0.84203256  1
  Ca2+  Ca6  1  0.67073306  0.08251599  0.17598451  1
  Ca2+  Ca7  1  0.67518785  0.08341455  0.49685624  1
  Ca2+  Ca8  1  0.67738174  0.08780014  0.83885120  1
  Ca2+  Ca9  1  0.67066339  0.57468501  0.17857156  1
  Ca2+  Ca10  1  0.68179880  0.57948776  0.49834907  1
  Ca2+  Ca11  1  0.67263324  0.58464897  0.83345876  1
  Ca2+  Ca12  1  0.08039286  0.32978187  0.17004809  1
  Ca2+  Ca13  1  0.07462491  0.32522705  0.48843830  1
  Ca2+  Ca14  1  0.08761723  0.33261975  0.83272263  1
  Ca2+  Ca15  1  0.07033771  0.83055401  0.16645293  1
  Ca2+  Ca16  1  0.07440705  0.82670367  0.49607102  1
  Ca2+  Ca17  1  0.07526921  0.82986050  0.82366945  1
  Ca2+  Ca18  1  0.58086502  0.32496366  0.16294291  1
  Ca2+  Ca19  1  0.57554982  0.32973648  0.48928074  1
  Ca2+  Ca20  1  0.57419814  0.33116521  0.83122785  1
  Ca2+  Ca21  1  0.58122515  0.83643176  0.16339827  1
  Ca2+  Ca22  1  0.58773495  0.83526966  0.49346761  1
  Ca2+  Ca23  1  0.57498010  0.83505355  0.83462104  1
  Ca2+  Ca24  1  0.33222875  0.41023644  0.16842811  1
  Ca2+  Ca25  1  0.33471509  0.41217806  0.50269409  1
  Ca2+  Ca26  1  0.33107779  0.41842655  0.84419483  1
  Ca2+  Ca27  1  0.33562765  0.92304078  0.17616241  1
  Ca2+  Ca28  1  0.32593610  0.92719308  0.50318678  1
  Ca2+  Ca29  1  0.32453103  0.90969048  0.83884689  1
  Ca2+  Ca30  1  0.82684072  0.42030272  0.18170682  1
  Ca2+  Ca31  1  0.83697350  0.42279118  0.50004454  1
  Ca2+  Ca32  1  0.83737873  0.42780431  0.83730896  1
  Ca2+  Ca33  1  0.83217370  0.92347281  0.17465408  1
  Ca2+  Ca34  1  0.84098202  0.92411774  0.50118686  1
  Ca2+  Ca35  1  0.84194525  0.92513936  0.83740251  1
  Ca2+  Ca36  1  0.42875586  0.17028509  0.16456845  1
  Ca2+  Ca37  1  0.41901532  0.17613490  0.48730219  1
  Ca2+  Ca38  1  0.42089764  0.17723951  0.83037467  1
  Ca2+  Ca39  1  0.41656674  0.67180946  0.15917000  1
  Ca2+  Ca40  1  0.41998481  0.66988578  0.49592763  1
  Ca2+  Ca41  1  0.41193606  0.66732192  0.83552827  1
  Ca2+  Ca42  1  0.91106515  0.16709365  0.16614108  1
  Ca2+  Ca43  1  0.91862722  0.16509693  0.48930295  1
  Ca2+  Ca44  1  0.91287681  0.16422983  0.83030897  1
  Ca2+  Ca45  1  0.91030822  0.67791478  0.16598728  1
  Ca2+  Ca46  1  0.92095826  0.67094980  0.49035667  1
  Ca2+  Ca47  1  0.92020667  0.67835908  0.82131933  1
  Al0+  Al48  1  0.00022650  0.00056338  0.00113990  1
  Al0+  Al49  1  0.00202135  -0.00339752  0.32856685  1
  Al0+  Al50  1  0.00128576  -0.00026161  0.67172108  1
  Al0+  Al51  1  0.00160750  0.49932865  0.00583941  1
  Al0+  Al52  1  0.00367136  0.49912488  0.32895235  1
  Al0+  Al53  1  0.00077053  0.49955961  0.67007166  1
  Al0+  Al54  1  0.50082298  -0.00101695  -0.01176908  1
  Al0+  Al55  1  0.49834053  0.00221618  0.34083668  1
  Al0+  Al56  1  0.50114922  0.00226825  0.66738545  1
  Al0+  Al57  1  0.50085063  0.50110129  -0.00063136  1
  Al0+  Al58  1  0.49858607  0.50172884  0.33466916  1
  Al0+  Al59  1  0.49924994  0.50068585  0.66326835  1
  Al0+  Al60  1  0.24855335  0.24846767  -0.00038506  1
  Al0+  Al61  1  0.24942274  0.25155214  0.33163028  1
  Al0+  Al62  1  0.25069537  0.25056694  0.66430182  1
  Al0+  Al63  1  0.24861106  0.74799803  0.00168923  1
  Al0+  Al64  1  0.24931023  0.74917944  0.33103041  1
  Al0+  Al65  1  0.24997078  0.75001676  0.66718589  1
  Al0+  Al66  1  0.75228209  0.25107032  -0.00209948  1
  Al0+  Al67  1  0.74784032  0.24900958  0.33528704  1
  Al0+  Al68  1  0.74758885  0.25011134  0.67153174  1
  Al0+  Al69  1  0.74978174  0.75279985  -0.00639558  1
  Al0+  Al70  1  0.74878894  0.74882383  0.33536026  1
  Al0+  Al71  1  0.74791599  0.75154012  0.66859325  1
  Al0+  Al72  1  0.42947159  0.32052001  0.65165144  1
  Al0+  Al73  1  0.81977247  0.06999626  0.68118796  1
  Al0+  Al74  1  0.07114743  0.67749767  0.65295833  1
  Al0+  Al75  1  0.92790832  0.82290351  0.65044062  1
  Al0+  Al76  1  0.92719584  0.31950954  0.31990670  1
  Al0+  Al77  1  0.07354651  0.67725618  0.31519174  1
  Al0+  Al78  1  0.67749312  0.92858466  0.34713349  1
  Al0+  Al79  1  0.42861518  0.32068053  0.98467446  1
  Al0+  Al80  1  0.82195686  0.57080845  0.68103160  1
  Al0+  Al81  1  0.17858042  0.42581723  0.01859076  1
  Al0+  Al82  1  0.32184822  0.57078210  0.01627841  1
  Al0+  Al83  1  0.57045985  0.17760768  0.31985697  1
  Al0+  Al84  1  0.31930098  0.07270433  0.34604303  1
  Al0+  Al85  1  0.92946241  0.82165421  0.98404295  1
  Al0+  Al86  1  0.82387467  0.56987027  0.34646350  1
  Al0+  Al87  1  0.57444768  0.17855910  0.98252093  1
  Al0+  Al88  1  0.82326371  0.06986810  0.34716047  1
  Al0+  Al89  1  0.42867680  0.32394338  0.31678237  1
  Al0+  Al90  1  0.82061021  0.07072036  0.01505668  1
  Al0+  Al91  1  0.07075264  0.17654043  0.31891994  1
  Al0+  Al92  1  0.18178921  0.92986847  0.68031171  1
  Al0+  Al93  1  0.42731410  0.82031355  0.98766046  1
  Al0+  Al94  1  0.67654856  0.42719697  0.34825206  1
  Al0+  Al95  1  0.92649999  0.81938245  0.31734980  1
  Si0+  Si96  1  0.17897697  0.92830417  0.01613729  1
  Si0+  Si97  1  0.67644560  0.92807373  0.01424901  1
  Si0+  Si98  1  0.07091083  0.17871135  0.98348037  1
  Si0+  Si99  1  0.68080912  0.43056472  0.01299402  1
  Si0+  Si100  1  0.32194675  0.06857435  0.01219019  1
  Si0+  Si101  1  0.92983988  0.32235687  0.98440415  1
  Si0+  Si102  1  0.92798179  0.32136844  0.65547174  1
  Si0+  Si103  1  0.07029317  0.17958495  0.65408965  1
  Si0+  Si104  1  0.32208577  0.57075985  0.68078076  1
  Si0+  Si105  1  0.17969670  0.42778465  0.68026134  1
  Si0+  Si106  1  0.57368133  0.17843782  0.64770714  1
  Si0+  Si107  1  0.67439038  0.92688107  0.68701119  1
  Si0+  Si108  1  0.32063604  0.57342975  0.35030334  1
  Si0+  Si109  1  0.67674465  0.43003539  0.68470058  1
  Si0+  Si110  1  0.18083176  0.42943266  0.35051168  1
  Si0+  Si111  1  0.82067571  0.57370640  0.01373494  1
  Si0+  Si112  1  0.32251890  0.07405532  0.68497404  1
  Si0+  Si113  1  0.42933613  0.82105662  0.32224241  1
  Si0+  Si114  1  0.57014534  0.67966819  0.65052155  1
  Si0+  Si115  1  0.57281280  0.67743530  0.98269353  1
  Si0+  Si116  1  0.07009569  0.67705028  0.98311168  1
  Si0+  Si117  1  0.57023756  0.67971397  0.31986095  1
  Si0+  Si118  1  0.17909110  0.92553270  0.34920315  1
  Si0+  Si119  1  0.42802822  0.82201146  0.65134070  1
  O2-  O120  1  0.25461718  -0.00497632  0.05659816  1
  O2-  O121  1  0.24253879  -0.00028780  0.39264122  1
  O2-  O122  1  0.25823621  0.00191838  0.73036425  1
  O2-  O123  1  0.25358551  0.49594687  0.06717658  1
  O2-  O124  1  0.25074747  0.50179424  0.39296833  1
  O2-  O125  1  0.25002463  0.50014559  0.72126799  1
  O2-  O126  1  0.74372463  -0.00280308  0.05851446  1
  O2-  O127  1  0.75284959  -0.00354911  0.39792865  1
  O2-  O128  1  0.74569053  -0.00573530  0.72876083  1
  O2-  O129  1  0.75000002  0.50292204  0.05552754  1
  O2-  O130  1  0.75504961  0.49403855  0.39636394  1
  O2-  O131  1  0.74820049  0.49557118  0.73019723  1
  O2-  O132  1  -0.00599042  0.24309763  0.26805956  1
  O2-  O133  1  -0.00322107  0.24840604  0.61359453  1
  O2-  O134  1  0.00069148  0.25113556  0.94151415  1
  O2-  O135  1  -0.00298987  0.74523869  0.26717018  1
  O2-  O136  1  -0.00424097  0.74557403  0.60282244  1
  O2-  O137  1  0.00125800  0.74412592  0.93746657  1
  O2-  O138  1  0.50251705  0.25317094  0.26928251  1
  O2-  O139  1  0.50199494  0.24457585  0.60521941  1
  O2-  O140  1  0.50073410  0.24979355  0.93312818  1
  O2-  O141  1  0.50183066  0.75316066  0.27821066  1
  O2-  O142  1  0.50229562  0.75471961  0.60887120  1
  O2-  O143  1  0.50076366  0.74421740  0.94008620  1
  O2-  O144  1  0.07204546  0.17706076  0.08779804  1
  O2-  O145  1  0.07203974  0.18073554  0.43334120  1
  O2-  O146  1  0.07278328  0.18160329  0.75958013  1
  O2-  O147  1  0.06929854  0.67861500  0.08823032  1
  O2-  O148  1  0.07668693  0.68129406  0.42885844  1
  O2-  O149  1  0.07213479  0.67772423  0.76675426  1
  O2-  O150  1  0.57379842  0.17809197  0.09551893  1
  O2-  O151  1  0.56599536  0.17672853  0.43362294  1
  O2-  O152  1  0.57375041  0.18064982  0.75348349  1
  O2-  O153  1  0.57568476  0.67823140  0.08801597  1
  O2-  O154  1  0.56732788  0.67898935  0.42523567  1
  O2-  O155  1  0.56767921  0.67739498  0.75575204  1
  O2-  O156  1  0.18243443  0.42786882  0.24588151  1
  O2-  O157  1  0.17978067  0.42542126  0.57553144  1
  O2-  O158  1  0.17748781  0.42785240  0.90387048  1
  O2-  O159  1  0.18451633  0.92296234  0.24341517  1
  O2-  O160  1  0.18414806  0.93267508  0.56765618  1
  O2-  O161  1  0.17925709  0.93003117  0.91058351  1
  O2-  O162  1  0.67487701  0.43252524  0.23396163  1
  O2-  O163  1  0.67636997  0.43168402  0.57978510  1
  O2-  O164  1  0.68297555  0.43266811  0.90742365  1
  O2-  O165  1  0.67405083  0.92911946  0.23335031  1
  O2-  O166  1  0.66966469  0.92746100  0.58212342  1
  O2-  O167  1  0.67720637  0.92672686  0.90860940  1
  O2-  O168  1  0.43060765  0.31856922  0.09732040  1
  O2-  O169  1  0.42867507  0.32262013  0.43087323  1
  O2-  O170  1  0.42914590  0.32107395  0.76466361  1
  O2-  O171  1  0.42989175  0.82199418  0.10085982  1
  O2-  O172  1  0.42813794  0.81710116  0.42764255  1
  O2-  O173  1  0.42685996  0.81827214  0.75649997  1
  O2-  O174  1  0.92746629  0.32230948  0.08870099  1
  O2-  O175  1  0.93254738  0.32161759  0.43426274  1
  O2-  O176  1  0.93121442  0.32260031  0.76104546  1
  O2-  O177  1  0.92832266  0.82076600  0.09653918  1
  O2-  O178  1  0.92887223  0.81997814  0.43074263  1
  O2-  O179  1  0.93261189  0.82262389  0.76451483  1
  O2-  O180  1  0.32118655  0.06803692  0.23243421  1
  O2-  O181  1  0.31970479  0.07467556  0.57959736  1
  O2-  O182  1  0.31754733  0.06810435  0.90679888  1
  O2-  O183  1  0.32114250  0.57701121  0.24586316  1
  O2-  O184  1  0.32422079  0.57147985  0.57571150  1
  O2-  O185  1  0.31838680  0.57146327  0.90183947  1
  O2-  O186  1  0.82118321  0.06822834  0.23357798  1
  O2-  O187  1  0.82106092  0.07225828  0.56900044  1
  O2-  O188  1  0.82180722  0.06967737  0.90146721  1
  O2-  O189  1  0.81704994  0.57141638  0.23231965  1
  O2-  O190  1  0.82223591  0.56783974  0.56872442  1
  O2-  O191  1  0.82020862  0.57167842  0.90815416  1
  O2-  O192  1  0.05528114  0.07571191  0.26702672  1
  O2-  O193  1  0.04473101  0.08740648  0.60833631  1
  O2-  O194  1  0.04139157  0.08776553  0.93479352  1
  O2-  O195  1  0.05390624  0.57700155  0.26421636  1
  O2-  O196  1  0.04710975  0.57660959  0.60254485  1
  O2-  O197  1  0.04660297  0.58158684  0.93931838  1
  O2-  O198  1  0.53563570  0.08036516  0.26746870  1
  O2-  O199  1  0.55165319  0.08277496  0.60503506  1
  O2-  O200  1  0.54755367  0.08107137  0.92654777  1
  O2-  O201  1  0.53845418  0.59035662  0.27073830  1
  O2-  O202  1  0.53750937  0.59053544  0.60137861  1
  O2-  O203  1  0.54941837  0.58441314  0.93424464  1
  O2-  O204  1  0.16621630  0.21258384  0.26481553  1
  O2-  O205  1  0.16104493  0.20889519  0.60566856  1
  O2-  O206  1  0.16190715  0.20551713  0.93329849  1
  O2-  O207  1  0.17063411  0.71051795  0.26108525  1
  O2-  O208  1  0.17000506  0.70698964  0.60091552  1
  O2-  O209  1  0.16419400  0.70259019  0.93810880  1
  O2-  O210  1  0.66976697  0.20067407  0.26805500  1
  O2-  O211  1  0.66663530  0.20737539  0.60261632  1
  O2-  O212  1  0.67164062  0.21202452  0.92860404  1
  O2-  O213  1  0.66157773  0.70355919  0.27083210  1
  O2-  O214  1  0.66250251  0.70484027  0.60387375  1
  O2-  O215  1  0.66360616  0.70671297  0.93199881  1
  O2-  O216  1  0.08074708  0.45549282  0.07243703  1
  O2-  O217  1  0.08884552  0.45576915  0.39814067  1
  O2-  O218  1  0.08851926  0.45284664  0.73062645  1
  O2-  O219  1  0.08983436  0.96196038  0.06382093  1
  O2-  O220  1  0.08430678  0.94601479  0.39333461  1
  O2-  O221  1  0.08782879  0.96339515  0.73796491  1
  O2-  O222  1  0.58866151  0.45640212  0.05953309  1
  O2-  O223  1  0.58080723  0.46403563  0.40260158  1
  O2-  O224  1  0.58447073  0.46229028  0.73097696  1
  O2-  O225  1  0.58053590  0.95089130  0.05677557  1
  O2-  O226  1  0.58088180  0.95781609  0.40454232  1
  O2-  O227  1  0.58071632  0.95435784  0.73431866  1
  O2-  O228  1  0.20400163  0.32567335  0.06912440  1
  O2-  O229  1  0.20952220  0.33870792  0.39980417  1
  O2-  O230  1  0.20892583  0.33660222  0.72934932  1
  O2-  O231  1  0.20190846  0.83514367  0.06159473  1
  O2-  O232  1  0.21194457  0.83502163  0.39751892  1
  O2-  O233  1  0.21346226  0.83336024  0.73573331  1
  O2-  O234  1  0.71106161  0.33967862  0.05944900  1
  O2-  O235  1  0.69725857  0.32779123  0.40089488  1
  O2-  O236  1  0.69839111  0.33575386  0.73099860  1
  O2-  O237  1  0.70123492  0.83342502  0.05908197  1
  O2-  O238  1  0.69956907  0.82820255  0.39911421  1
  O2-  O239  1  0.69460165  0.83191086  0.73275933  1
  O2-  O240  1  0.45280684  0.42457151  0.26686744  1
  O2-  O241  1  0.45886837  0.41795763  0.59861486  1
  O2-  O242  1  0.45667435  0.42058624  0.93304604  1
  O2-  O243  1  0.45462986  0.91376580  0.27697357  1
  O2-  O244  1  0.45136124  0.91665588  0.60761115  1
  O2-  O245  1  0.45670850  0.91358194  0.92623075  1
  O2-  O246  1  0.96038051  0.41561106  0.26515324  1
  O2-  O247  1  0.95848064  0.41167302  0.60778019  1
  O2-  O248  1  0.95918770  0.41476116  0.93752293  1
  O2-  O249  1  0.95850551  0.91547868  0.26207073  1
  O2-  O250  1  0.96359159  0.92027979  0.60040883  1
  O2-  O251  1  0.96553138  0.91758443  0.93179657  1
  O2-  O252  1  0.33083628  0.29391276  0.26594572  1
  O2-  O253  1  0.33206805  0.29090404  0.59806660  1
  O2-  O254  1  0.32943787  0.29098778  0.93248657  1
  O2-  O255  1  0.33958981  0.79139973  0.27274987  1
  O2-  O256  1  0.33850918  0.79062764  0.60255097  1
  O2-  O257  1  0.33062136  0.78829736  0.93302864  1
  O2-  O258  1  0.82683424  0.29852495  0.26884546  1
  O2-  O259  1  0.83396384  0.29760286  0.61192717  1
  O2-  O260  1  0.83934525  0.29597197  0.93368897  1
  O2-  O261  1  0.82740722  0.79077622  0.26481450  1
  O2-  O262  1  0.82524279  0.80211993  0.60448051  1
  O2-  O263  1  0.83209274  0.79476058  0.92903147  1
  O2-  O264  1  0.41575551  0.04186111  0.05517498  1
  O2-  O265  1  0.41135781  0.03850360  0.40595395  1
  O2-  O266  1  0.41824404  0.05297122  0.72822548  1
  O2-  O267  1  0.42389498  0.55095906  0.06544670  1
  O2-  O268  1  0.41231806  0.54753983  0.39919375  1
  O2-  O269  1  0.41342600  0.54245127  0.72913737  1
  O2-  O270  1  0.91777615  0.04005047  0.06724127  1
  O2-  O271  1  0.92384783  0.04228640  0.39759631  1
  O2-  O272  1  0.91702292  0.04178370  0.73642171  1
  O2-  O273  1  0.91242559  0.54717071  0.06004681  1
  O2-  O274  1  0.92436177  0.54495908  0.39649554  1
  O2-  O275  1  0.91750395  0.53853319  0.73794827  1
  O2-  O276  1  0.29086877  0.15881681  0.05932313  1
  O2-  O277  1  0.28828450  0.16897882  0.40061658  1
  O2-  O278  1  0.29127012  0.16614033  0.73147335  1
  O2-  O279  1  0.29116868  0.66874494  0.07016230  1
  O2-  O280  1  0.29224311  0.66496641  0.39919341  1
  O2-  O281  1  0.29574054  0.66265867  0.72868875  1
  O2-  O282  1  0.79362193  0.17006157  0.06490657  1
  O2-  O283  1  0.79612397  0.16837161  0.40041639  1
  O2-  O284  1  0.78883571  0.16715810  0.73700071  1
  O2-  O285  1  0.79137150  0.66632330  0.05776190  1
  O2-  O286  1  0.78911236  0.66523556  0.40113876  1
  O2-  O287  1  0.78797944  0.66707624  0.73480312  1
