# generated using pymatgen
data_Ca2Al2SiO7
_symmetry_space_group_name_H-M   'P 1'
_cell_length_a   15.45989816
_cell_length_b   15.45946037
_cell_length_c   15.28493024
_cell_angle_alpha   89.99635132
_cell_angle_beta   89.99928783
_cell_angle_gamma   90.01916367
_symmetry_Int_Tables_number   1
_chemical_formula_structural   Ca2Al2SiO7
_chemical_formula_sum   'Ca48 Al48 Si24 O168'
_cell_volume   3653.12384106
_cell_formula_units_Z   24
loop_
 _symmetry_equiv_pos_site_id
 _symmetry_equiv_pos_as_xyz
  1  'x, y, z'
loop_
 _atom_type_symbol
 _atom_type_oxidation_number
  Ca2+  2.0
  Al0+  0.0
  Si0+  0.0
  O2-  -2.0
loop_
 _atom_site_type_symbol
 _atom_site_label
 _atom_site_symmetry_multiplicity
 _atom_site_fract_x
 _atom_site_fract_y
 _atom_site_fract_z
 _atom_site_occupancy
  Ca2+  Ca0  1  0.17373439  0.07813264  0.16971374  1
  Ca2+  Ca1  1  0.16924927  0.07799062  0.50744104  1
  Ca2+  Ca2  1  0.16649895  0.07683796  0.83903225  1
  Ca2+  Ca3  1  0.17691133  0.59174258  0.16803777  1
  Ca2+  Ca4  1  0.17511754  0.57650499  0.50665534  1
  Ca2+  Ca5  1  0.17205171  0.58195684  0.83879336  1
  Ca2+  Ca6  1  0.67028707  0.07934547  0.17847449  1
  Ca2+  Ca7  1  0.67035976  0.07565258  0.49782475  1
  Ca2+  Ca8  1  0.66896331  0.07819584  0.83341034  1
  Ca2+  Ca9  1  0.66386228  0.57415155  0.16699181  1
  Ca2+  Ca10  1  0.67557036  0.58186807  0.50780825  1
  Ca2+  Ca11  1  0.67489256  0.58037638  0.83688593  1
  Ca2+  Ca12  1  0.07841886  0.32597917  0.16138345  1
  Ca2+  Ca13  1  0.08451641  0.32869561  0.49850174  1
  Ca2+  Ca14  1  0.09789154  0.32032456  0.82846816  1
  Ca2+  Ca15  1  0.08504075  0.83703122  0.16169991  1
  Ca2+  Ca16  1  0.07576652  0.84246906  0.49753162  1
  Ca2+  Ca17  1  0.08547025  0.83180658  0.82786312  1
  Ca2+  Ca18  1  0.57867828  0.32586014  0.15936868  1
  Ca2+  Ca19  1  0.58079023  0.32225503  0.49087551  1
  Ca2+  Ca20  1  0.57740995  0.33768590  0.83473995  1
  Ca2+  Ca21  1  0.57547703  0.83543609  0.16261739  1
  Ca2+  Ca22  1  0.58458295  0.83696600  0.49502401  1
  Ca2+  Ca23  1  0.57371024  0.83884434  0.82849158  1
  Ca2+  Ca24  1  0.34022779  0.42741200  0.16721518  1
  Ca2+  Ca25  1  0.33024283  0.42635411  0.50731881  1
  Ca2+  Ca26  1  0.33135944  0.42458472  0.83665308  1
  Ca2+  Ca27  1  0.32398467  0.92116012  0.17013398  1
  Ca2+  Ca28  1  0.31964764  0.92672630  0.50374420  1
  Ca2+  Ca29  1  0.32352540  0.92603275  0.84165914  1
  Ca2+  Ca30  1  0.82921919  0.41085200  0.17111731  1
  Ca2+  Ca31  1  0.83774677  0.42091540  0.50401778  1
  Ca2+  Ca32  1  0.82921630  0.42086457  0.83734630  1
  Ca2+  Ca33  1  0.82925092  0.92341174  0.17874992  1
  Ca2+  Ca34  1  0.82653706  0.91054728  0.50330110  1
  Ca2+  Ca35  1  0.82846215  0.90853264  0.83142231  1
  Ca2+  Ca36  1  0.41768038  0.16315397  0.16078732  1
  Ca2+  Ca37  1  0.41822179  0.15819974  0.49474397  1
  Ca2+  Ca38  1  0.40448661  0.17060956  0.83084246  1
  Ca2+  Ca39  1  0.41003369  0.67300892  0.15757202  1
  Ca2+  Ca40  1  0.41359574  0.66430480  0.49646322  1
  Ca2+  Ca41  1  0.40834932  0.67132681  0.83307600  1
  Ca2+  Ca42  1  0.91957662  0.16679154  0.16451816  1
  Ca2+  Ca43  1  0.92216147  0.16842241  0.49261675  1
  Ca2+  Ca44  1  0.93260646  0.16580299  0.82803814  1
  Ca2+  Ca45  1  0.92647358  0.67679029  0.16172634  1
  Ca2+  Ca46  1  0.91464029  0.67690498  0.49612651  1
  Ca2+  Ca47  1  0.92330697  0.66963328  0.82626315  1
  Al0+  Al48  1  -0.00260810  0.00062258  -0.00111116  1
  Al0+  Al49  1  -0.00113631  0.00107473  0.33354310  1
  Al0+  Al50  1  -0.00102923  0.00088458  0.66048357  1
  Al0+  Al51  1  -0.00064965  0.50205065  -0.00290778  1
  Al0+  Al52  1  0.00043120  0.49977636  0.32694081  1
  Al0+  Al53  1  0.00045260  0.49933893  0.67517587  1
  Al0+  Al54  1  0.50102763  -0.00019327  -0.00275931  1
  Al0+  Al55  1  0.50024712  -0.00175466  0.33421014  1
  Al0+  Al56  1  0.50109234  0.00041378  0.67241691  1
  Al0+  Al57  1  0.50214955  0.49849047  0.00330031  1
  Al0+  Al58  1  0.50153752  0.49945712  0.33797801  1
  Al0+  Al59  1  0.50058657  0.50013088  0.66748839  1
  Al0+  Al60  1  0.25097406  0.25095018  -0.00282400  1
  Al0+  Al61  1  0.25072595  0.25300132  0.33381509  1
  Al0+  Al62  1  0.25130517  0.25225167  0.66342119  1
  Al0+  Al63  1  0.24909840  0.75072251  -0.00246835  1
  Al0+  Al64  1  0.25092770  0.74956699  0.34348709  1
  Al0+  Al65  1  0.25041506  0.75143929  0.66848612  1
  Al0+  Al66  1  0.74885719  0.25043436  0.00144761  1
  Al0+  Al67  1  0.74847508  0.24876362  0.32970335  1
  Al0+  Al68  1  0.74864391  0.24879577  0.66649524  1
  Al0+  Al69  1  0.75015483  0.74843243  0.00227164  1
  Al0+  Al70  1  0.75056263  0.74799699  0.32840011  1
  Al0+  Al71  1  0.74909316  0.74849154  0.67236638  1
  Al0+  Al72  1  0.32158607  0.07315391  0.01545010  1
  Al0+  Al73  1  0.43040386  0.32132859  0.98589161  1
  Al0+  Al74  1  0.17699795  0.92922432  0.01485098  1
  Al0+  Al75  1  0.32299431  0.57195978  0.68355842  1
  Al0+  Al76  1  0.68052857  0.92895943  0.68143528  1
  Al0+  Al77  1  0.17510525  0.93082422  0.68254139  1
  Al0+  Al78  1  0.32189430  0.56993423  0.34736409  1
  Al0+  Al79  1  0.92882244  0.82189882  0.31875534  1
  Al0+  Al80  1  0.07163054  0.18067328  0.65093566  1
  Al0+  Al81  1  0.82111788  0.57073417  0.67974115  1
  Al0+  Al82  1  0.32137663  0.07326030  0.34693177  1
  Al0+  Al83  1  0.82089618  0.07322357  0.34825629  1
  Al0+  Al84  1  0.56750844  0.17754812  0.31968930  1
  Al0+  Al85  1  0.92836292  0.81815612  0.65271919  1
  Al0+  Al86  1  0.92955758  0.32161972  0.32000646  1
  Al0+  Al87  1  0.17761381  0.92902977  0.34935375  1
  Al0+  Al88  1  0.17908056  0.42924563  0.68190875  1
  Al0+  Al89  1  0.31913833  0.56982841  0.01338771  1
  Al0+  Al90  1  0.67995067  0.92612069  0.34684292  1
  Al0+  Al91  1  0.07134647  0.68037952  0.98574547  1
  Al0+  Al92  1  0.32154541  0.07113282  0.68211667  1
  Al0+  Al93  1  0.42998032  0.82122248  0.98619496  1
  Al0+  Al94  1  0.06964477  0.17996798  0.98734618  1
  Al0+  Al95  1  0.68102403  0.42955912  0.01476497  1
  Si0+  Si96  1  0.57251189  0.67596004  0.31810364  1
  Si0+  Si97  1  0.57297205  0.67733418  0.98316773  1
  Si0+  Si98  1  0.42938627  0.81775358  0.32058341  1
  Si0+  Si99  1  0.82188691  0.56940707  0.34560295  1
  Si0+  Si100  1  0.17545103  0.42870977  0.34788546  1
  Si0+  Si101  1  0.82381627  0.57277670  0.02033479  1
  Si0+  Si102  1  0.07350156  0.67595078  0.64932902  1
  Si0+  Si103  1  0.42942167  0.82248944  0.65042261  1
  Si0+  Si104  1  0.92520803  0.32257426  0.65226610  1
  Si0+  Si105  1  0.17627606  0.42715377  0.01777934  1
  Si0+  Si106  1  0.67829701  0.42590459  0.68188202  1
  Si0+  Si107  1  0.92586830  0.32217608  0.98239701  1
  Si0+  Si108  1  0.67995274  0.42854091  0.34912635  1
  Si0+  Si109  1  0.07396913  0.17817355  0.31600034  1
  Si0+  Si110  1  0.07295317  0.67879608  0.31845557  1
  Si0+  Si111  1  0.82172082  0.07395760  0.68335467  1
  Si0+  Si112  1  0.67868636  0.92756493  0.01498128  1
  Si0+  Si113  1  0.43125831  0.32190655  0.64992979  1
  Si0+  Si114  1  0.57346570  0.17770373  0.98088690  1
  Si0+  Si115  1  0.92591882  0.82223527  0.98293207  1
  Si0+  Si116  1  0.42838848  0.32470670  0.31707241  1
  Si0+  Si117  1  0.81940815  0.07053645  0.01367434  1
  Si0+  Si118  1  0.57241304  0.17758861  0.65062137  1
  Si0+  Si119  1  0.56996984  0.67912329  0.65230194  1
  O2-  O120  1  0.24950437  0.00102104  0.06435975  1
  O2-  O121  1  0.24491645  0.00667447  0.39722568  1
  O2-  O122  1  0.24746618  0.00208206  0.73232965  1
  O2-  O123  1  0.24372198  0.49685770  0.06274150  1
  O2-  O124  1  0.24760548  0.49421462  0.39153324  1
  O2-  O125  1  0.24773420  0.50378361  0.73281328  1
  O2-  O126  1  0.74923869  -0.00132662  0.05618073  1
  O2-  O127  1  0.75402533  -0.00431858  0.39737464  1
  O2-  O128  1  0.75625956  0.00248332  0.72854119  1
  O2-  O129  1  0.75714684  0.50177865  0.06401892  1
  O2-  O130  1  0.75216338  0.49831181  0.39067779  1
  O2-  O131  1  0.74949990  0.49217671  0.72509259  1
  O2-  O132  1  0.00330265  0.24633326  0.27313040  1
  O2-  O133  1  -0.00509594  0.25588609  0.60734450  1
  O2-  O134  1  -0.00194196  0.25791376  0.93833510  1
  O2-  O135  1  0.00812673  0.75116421  0.27372628  1
  O2-  O136  1  0.00533077  0.74535987  0.60499086  1
  O2-  O137  1  -0.00403224  0.75491558  0.93975461  1
  O2-  O138  1  0.49022862  0.24980247  0.27316615  1
  O2-  O139  1  0.50073283  0.24853070  0.60910735  1
  O2-  O140  1  0.50135880  0.24302534  0.93726025  1
  O2-  O141  1  0.50009860  0.74588850  0.27738002  1
  O2-  O142  1  0.49776105  0.74780731  0.60820361  1
  O2-  O143  1  0.50584417  0.74677431  0.93846644  1
  O2-  O144  1  0.06549362  0.18087363  0.10046092  1
  O2-  O145  1  0.07436994  0.18118716  0.42154955  1
  O2-  O146  1  0.07035682  0.18107816  0.76419226  1
  O2-  O147  1  0.06968900  0.68083742  0.09931816  1
  O2-  O148  1  0.06887467  0.67375145  0.42371000  1
  O2-  O149  1  0.07143296  0.67640361  0.75490433  1
  O2-  O150  1  0.57620718  0.17881175  0.08648431  1
  O2-  O151  1  0.56883398  0.18046153  0.43323053  1
  O2-  O152  1  0.57669815  0.17942896  0.75540778  1
  O2-  O153  1  0.57382497  0.67884681  0.08918668  1
  O2-  O154  1  0.57455061  0.67386749  0.42336248  1
  O2-  O155  1  0.57082441  0.67886493  0.75713225  1
  O2-  O156  1  0.17361968  0.42960053  0.24247721  1
  O2-  O157  1  0.18090691  0.43028587  0.56760568  1
  O2-  O158  1  0.17832950  0.42802259  0.91243820  1
  O2-  O159  1  0.18145755  0.92576403  0.23595349  1
  O2-  O160  1  0.17621972  0.93222333  0.56893937  1
  O2-  O161  1  0.17611112  0.93018117  0.90165949  1
  O2-  O162  1  0.67841727  0.43082423  0.24420944  1
  O2-  O163  1  0.67743824  0.42669745  0.57599651  1
  O2-  O164  1  0.68324167  0.43153622  0.90138551  1
  O2-  O165  1  0.67939577  0.92701698  0.23281984  1
  O2-  O166  1  0.67981106  0.92854067  0.56879917  1
  O2-  O167  1  0.68003976  0.92719179  0.90978480  1
  O2-  O168  1  0.43492475  0.32362992  0.09898099  1
  O2-  O169  1  0.43396504  0.32961459  0.42265217  1
  O2-  O170  1  0.43412403  0.32466778  0.75483757  1
  O2-  O171  1  0.43224557  0.81959626  0.09992427  1
  O2-  O172  1  0.43157129  0.81572696  0.42584792  1
  O2-  O173  1  0.43241107  0.82242371  0.75541739  1
  O2-  O174  1  0.92421287  0.31900150  0.08824603  1
  O2-  O175  1  0.93179640  0.32528890  0.43311353  1
  O2-  O176  1  0.91975655  0.31865752  0.75750134  1
  O2-  O177  1  0.92286649  0.82093475  0.08851858  1
  O2-  O178  1  0.92376095  0.81555327  0.43150351  1
  O2-  O179  1  0.92618699  0.81455664  0.76583833  1
  O2-  O180  1  0.32186949  0.07065192  0.23364065  1
  O2-  O181  1  0.32317675  0.06792783  0.56849740  1
  O2-  O182  1  0.31950170  0.07213421  0.90227166  1
  O2-  O183  1  0.32297016  0.57127129  0.23428489  1
  O2-  O184  1  0.32520679  0.56735927  0.56960187  1
  O2-  O185  1  0.31906709  0.56824071  0.90100757  1
  O2-  O186  1  0.81706650  0.07295337  0.23390626  1
  O2-  O187  1  0.81754692  0.07807306  0.57828989  1
  O2-  O188  1  0.81820209  0.07079252  0.90852579  1
  O2-  O189  1  0.81925645  0.56814644  0.24077084  1
  O2-  O190  1  0.81790585  0.57046217  0.56590146  1
  O2-  O191  1  0.82111377  0.57410796  0.91475761  1
  O2-  O192  1  0.04904892  0.08467487  0.27025179  1
  O2-  O193  1  0.03937933  0.08571214  0.59508105  1
  O2-  O194  1  0.03384449  0.08517420  0.93205361  1
  O2-  O195  1  0.04459205  0.58784637  0.26800917  1
  O2-  O196  1  0.04658499  0.58104221  0.60607331  1
  O2-  O197  1  0.04047554  0.58353692  0.93074126  1
  O2-  O198  1  0.54148913  0.07977583  0.26497357  1
  O2-  O199  1  0.54426322  0.08518846  0.60469981  1
  O2-  O200  1  0.55373849  0.08254166  0.93600547  1
  O2-  O201  1  0.54507150  0.58335666  0.27145782  1
  O2-  O202  1  0.54557417  0.58618403  0.60354043  1
  O2-  O203  1  0.54855950  0.58348194  0.93846671  1
  O2-  O204  1  0.16699047  0.20642155  0.26940306  1
  O2-  O205  1  0.16708675  0.21439069  0.59553679  1
  O2-  O206  1  0.16629531  0.20896068  0.93310610  1
  O2-  O207  1  0.16894961  0.70287163  0.27649461  1
  O2-  O208  1  0.16837249  0.69940067  0.60430726  1
  O2-  O209  1  0.16660289  0.70934225  0.92968350  1
  O2-  O210  1  0.66235649  0.21210535  0.26422460  1
  O2-  O211  1  0.66331228  0.20693300  0.60126178  1
  O2-  O212  1  0.66552941  0.20867086  0.93365902  1
  O2-  O213  1  0.66267748  0.70249546  0.26691740  1
  O2-  O214  1  0.66131754  0.70861656  0.60475039  1
  O2-  O215  1  0.66784764  0.70180863  0.93813084  1
  O2-  O216  1  0.08048732  0.45095687  0.06058967  1
  O2-  O217  1  0.08321232  0.45822763  0.39501365  1
  O2-  O218  1  0.07978081  0.44859961  0.73665064  1
  O2-  O219  1  0.07695692  0.95681568  0.06581967  1
  O2-  O220  1  0.07707952  0.95255823  0.39866010  1
  O2-  O221  1  0.07523150  0.95762451  0.73271823  1
  O2-  O222  1  0.58693903  0.46241429  0.07193048  1
  O2-  O223  1  0.59013612  0.45792455  0.39939966  1
  O2-  O224  1  0.58682861  0.45585229  0.72886542  1
  O2-  O225  1  0.58703111  0.95519611  0.06176072  1
  O2-  O226  1  0.58251119  0.95538923  0.40010731  1
  O2-  O227  1  0.58643839  0.96272956  0.73794537  1
  O2-  O228  1  0.20271378  0.33419423  0.06355252  1
  O2-  O229  1  0.19773444  0.33479722  0.39435886  1
  O2-  O230  1  0.21409375  0.33310850  0.73389796  1
  O2-  O231  1  0.20678415  0.83099814  0.06652817  1
  O2-  O232  1  0.20950052  0.83328041  0.40587641  1
  O2-  O233  1  0.20269478  0.83096457  0.73159115  1
  O2-  O234  1  0.70986706  0.33234288  0.06942137  1
  O2-  O235  1  0.70686882  0.33679227  0.39572077  1
  O2-  O236  1  0.70085426  0.33218910  0.72891946  1
  O2-  O237  1  0.70414674  0.83481789  0.06187056  1
  O2-  O238  1  0.70609217  0.82560046  0.39761044  1
  O2-  O239  1  0.70952545  0.83326091  0.73780064  1
  O2-  O240  1  0.46281926  0.41577268  0.26989544  1
  O2-  O241  1  0.46263661  0.41283450  0.60127788  1
  O2-  O242  1  0.46820628  0.41604140  0.93142751  1
  O2-  O243  1  0.45817489  0.90840196  0.27217363  1
  O2-  O244  1  0.46345099  0.91300212  0.60443247  1
  O2-  O245  1  0.46317989  0.91633974  0.92990880  1
  O2-  O246  1  0.95842944  0.41729449  0.26138716  1
  O2-  O247  1  0.94908303  0.41829082  0.60960863  1
  O2-  O248  1  0.94459936  0.41861575  0.94017470  1
  O2-  O249  1  0.95315672  0.92062025  0.26571106  1
  O2-  O250  1  0.95236938  0.91650103  0.59898495  1
  O2-  O251  1  0.94633138  0.91678432  0.93757880  1
  O2-  O252  1  0.33165378  0.30981035  0.27408975  1
  O2-  O253  1  0.33988838  0.29747676  0.60069025  1
  O2-  O254  1  0.33303909  0.29625306  0.93109553  1
  O2-  O255  1  0.33737124  0.78788038  0.27491990  1
  O2-  O256  1  0.33676647  0.79721925  0.60328929  1
  O2-  O257  1  0.33489942  0.78931284  0.93145280  1
  O2-  O258  1  0.83256209  0.29181317  0.26567596  1
  O2-  O259  1  0.83148053  0.29746157  0.60426639  1
  O2-  O260  1  0.83310843  0.29342320  0.93595683  1
  O2-  O261  1  0.83438706  0.78589283  0.26177231  1
  O2-  O262  1  0.83134595  0.78240638  0.60081897  1
  O2-  O263  1  0.83248573  0.79273129  0.93707334  1
  O2-  O264  1  0.42250306  0.04481705  0.06393124  1
  O2-  O265  1  0.41804350  0.03965983  0.39986405  1
  O2-  O266  1  0.41954641  0.04378711  0.73591329  1
  O2-  O267  1  0.41658769  0.53977633  0.06667109  1
  O2-  O268  1  0.41878503  0.53996939  0.40253229  1
  O2-  O269  1  0.42139447  0.54122003  0.73524571  1
  O2-  O270  1  0.91021233  0.04367517  0.06258629  1
  O2-  O271  1  0.92133775  0.05278129  0.39794348  1
  O2-  O272  1  0.91608724  0.04998355  0.72655808  1
  O2-  O273  1  0.91834289  0.54969510  0.06496605  1
  O2-  O274  1  0.91410387  0.54252059  0.39206020  1
  O2-  O275  1  0.91644966  0.54434180  0.73711080  1
  O2-  O276  1  0.29557119  0.17291345  0.06667144  1
  O2-  O277  1  0.30254614  0.17568362  0.39654539  1
  O2-  O278  1  0.29767320  0.17264765  0.72832960  1
  O2-  O279  1  0.28826921  0.66666368  0.06656102  1
  O2-  O280  1  0.29212339  0.66400625  0.40567961  1
  O2-  O281  1  0.29949280  0.67242000  0.73221065  1
  O2-  O282  1  0.79139878  0.16212472  0.06116034  1
  O2-  O283  1  0.78724941  0.16996656  0.40157607  1
  O2-  O284  1  0.79189529  0.16557305  0.73221822  1
  O2-  O285  1  0.79484941  0.66536428  0.06742694  1
  O2-  O286  1  0.79113258  0.66007615  0.39288088  1
  O2-  O287  1  0.78371636  0.66217514  0.73832909  1
