# generated using pymatgen
data_Ca2Al2SiO7
_symmetry_space_group_name_H-M   'P 1'
_cell_length_a   15.45239020
_cell_length_b   15.45218148
_cell_length_c   15.27893202
_cell_angle_alpha   89.98661004
_cell_angle_beta   89.99880637
_cell_angle_gamma   90.00399509
_symmetry_Int_Tables_number   1
_chemical_formula_structural   Ca2Al2SiO7
_chemical_formula_sum   'Ca48 Al48 Si24 O168'
_cell_volume   3648.19842829
_cell_formula_units_Z   24
loop_
 _symmetry_equiv_pos_site_id
 _symmetry_equiv_pos_as_xyz
  1  'x, y, z'
loop_
 _atom_type_symbol
 _atom_type_oxidation_number
  Ca2+  2.0
  Al0+  0.0
  Si0+  0.0
  O2-  -2.0
loop_
 _atom_site_type_symbol
 _atom_site_label
 _atom_site_symmetry_multiplicity
 _atom_site_fract_x
 _atom_site_fract_y
 _atom_site_fract_z
 _atom_site_occupancy
  Ca2+  Ca0  1  0.16705952  0.08434823  0.17240715  1
  Ca2+  Ca1  1  0.17813482  0.09169278  0.50183970  1
  Ca2+  Ca2  1  0.17106130  0.08225973  0.83983867  1
  Ca2+  Ca3  1  0.17385469  0.58119072  0.17493393  1
  Ca2+  Ca4  1  0.17674430  0.57932056  0.50679560  1
  Ca2+  Ca5  1  0.16970278  0.57605579  0.83122642  1
  Ca2+  Ca6  1  0.66495214  0.08131373  0.17302816  1
  Ca2+  Ca7  1  0.67473110  0.08917653  0.50415126  1
  Ca2+  Ca8  1  0.66931613  0.08525898  0.83788488  1
  Ca2+  Ca9  1  0.67058832  0.57909404  0.16761339  1
  Ca2+  Ca10  1  0.67616689  0.58410512  0.50612838  1
  Ca2+  Ca11  1  0.67298211  0.58268631  0.84359414  1
  Ca2+  Ca12  1  0.07965416  0.32215328  0.16544461  1
  Ca2+  Ca13  1  0.07454284  0.33426326  0.49488368  1
  Ca2+  Ca14  1  0.07833384  0.33208445  0.82639747  1
  Ca2+  Ca15  1  0.07577778  0.83838331  0.16419735  1
  Ca2+  Ca16  1  0.07643403  0.83106650  0.49265896  1
  Ca2+  Ca17  1  0.08411458  0.83342553  0.83306273  1
  Ca2+  Ca18  1  0.58920087  0.32282056  0.16239345  1
  Ca2+  Ca19  1  0.58596997  0.31984650  0.49702390  1
  Ca2+  Ca20  1  0.59027364  0.32466084  0.83012929  1
  Ca2+  Ca21  1  0.57809534  0.83156642  0.16068575  1
  Ca2+  Ca22  1  0.57801507  0.82600127  0.49582839  1
  Ca2+  Ca23  1  0.59317175  0.82237557  0.83151519  1
  Ca2+  Ca24  1  0.33418114  0.42272114  0.17377192  1
  Ca2+  Ca25  1  0.32647643  0.42439328  0.50736873  1
  Ca2+  Ca26  1  0.33254423  0.41808764  0.83132219  1
  Ca2+  Ca27  1  0.32804231  0.91902493  0.17422844  1
  Ca2+  Ca28  1  0.33925188  0.92513620  0.50003538  1
  Ca2+  Ca29  1  0.32891545  0.92211739  0.83628172  1
  Ca2+  Ca30  1  0.83187765  0.42284592  0.17024114  1
  Ca2+  Ca31  1  0.84137311  0.42301923  0.50535099  1
  Ca2+  Ca32  1  0.82990945  0.42466628  0.83718538  1
  Ca2+  Ca33  1  0.82554022  0.92031255  0.17325306  1
  Ca2+  Ca34  1  0.84007769  0.93089153  0.50084042  1
  Ca2+  Ca35  1  0.82687318  0.92512476  0.83793071  1
  Ca2+  Ca36  1  0.42683679  0.16140259  0.16493282  1
  Ca2+  Ca37  1  0.42574210  0.15703864  0.49430769  1
  Ca2+  Ca38  1  0.42840610  0.16181542  0.82777402  1
  Ca2+  Ca39  1  0.41920609  0.67072585  0.16198654  1
  Ca2+  Ca40  1  0.41713896  0.66647589  0.49429722  1
  Ca2+  Ca41  1  0.43007012  0.66417379  0.82539421  1
  Ca2+  Ca42  1  0.92319935  0.16562951  0.16647277  1
  Ca2+  Ca43  1  0.91570781  0.17803226  0.48961452  1
  Ca2+  Ca44  1  0.91933512  0.17264351  0.82497777  1
  Ca2+  Ca45  1  0.90544505  0.67010266  0.16647688  1
  Ca2+  Ca46  1  0.91360915  0.66933920  0.49254271  1
  Ca2+  Ca47  1  0.91034178  0.66485120  0.82811827  1
  Al0+  Al48  1  0.00154063  -0.00018490  -0.00245509  1
  Al0+  Al49  1  -0.00194705  -0.00204270  0.32966556  1
  Al0+  Al50  1  -0.00017949  0.00067577  0.67098502  1
  Al0+  Al51  1  0.00173113  0.50173481  0.00468303  1
  Al0+  Al52  1  -0.00046561  0.49977895  0.33169183  1
  Al0+  Al53  1  0.00071748  0.50120002  0.67072808  1
  Al0+  Al54  1  0.49922576  0.00094200  -0.00191536  1
  Al0+  Al55  1  0.49826135  -0.00409901  0.32826768  1
  Al0+  Al56  1  0.49994171  -0.00267417  0.66782271  1
  Al0+  Al57  1  0.50074330  0.50036663  0.00032676  1
  Al0+  Al58  1  0.50114082  0.49813923  0.33898692  1
  Al0+  Al59  1  0.50114343  0.49836468  0.66411077  1
  Al0+  Al60  1  0.24976221  0.25098182  -0.00378904  1
  Al0+  Al61  1  0.25067810  0.24983411  0.33447529  1
  Al0+  Al62  1  0.25094449  0.24888154  0.67659527  1
  Al0+  Al63  1  0.24731546  0.75211532  0.00235981  1
  Al0+  Al64  1  0.24993057  0.75024557  0.33376481  1
  Al0+  Al65  1  0.25017698  0.75002419  0.66990593  1
  Al0+  Al66  1  0.75150690  0.25250128  -0.00111096  1
  Al0+  Al67  1  0.74953544  0.24956423  0.32721318  1
  Al0+  Al68  1  0.75222955  0.25066862  0.66230916  1
  Al0+  Al69  1  0.74941447  0.75397848  0.00351657  1
  Al0+  Al70  1  0.74874771  0.74808615  0.33349005  1
  Al0+  Al71  1  0.74980098  0.75077746  0.66338385  1
  Al0+  Al72  1  0.93158317  0.32154269  0.65381452  1
  Al0+  Al73  1  0.56995733  0.68110613  0.98771873  1
  Al0+  Al74  1  0.42850373  0.81856587  0.31900970  1
  Al0+  Al75  1  0.92773061  0.81996422  0.31956842  1
  Al0+  Al76  1  0.81968443  0.56975978  0.34864505  1
  Al0+  Al77  1  0.81925119  0.57223241  0.67967880  1
  Al0+  Al78  1  0.67823713  0.93157800  0.01354929  1
  Al0+  Al79  1  0.92796812  0.32367084  0.31558183  1
  Al0+  Al80  1  0.67753939  0.42762133  0.01541438  1
  Al0+  Al81  1  0.32294749  0.06970353  0.68157999  1
  Al0+  Al82  1  0.32085672  0.06992162  0.34538888  1
  Al0+  Al83  1  0.32380838  0.57237622  0.68310614  1
  Al0+  Al84  1  0.56990229  0.17810230  0.65251918  1
  Al0+  Al85  1  0.07056447  0.17858943  0.98376199  1
  Al0+  Al86  1  0.82097681  0.07329367  0.67983474  1
  Al0+  Al87  1  0.81997469  0.07017193  0.34518668  1
  Al0+  Al88  1  0.57150318  0.17927172  0.98550581  1
  Al0+  Al89  1  0.32186778  0.57220642  0.34625962  1
  Al0+  Al90  1  0.07282913  0.17891809  0.32016608  1
  Al0+  Al91  1  0.57216443  0.67718281  0.65194123  1
  Al0+  Al92  1  0.56958046  0.17842512  0.31953562  1
  Al0+  Al93  1  0.82172954  0.57219978  0.01626208  1
  Al0+  Al94  1  0.17880047  0.92961645  0.01529893  1
  Al0+  Al95  1  0.17875294  0.42934673  0.68207377  1
  Si0+  Si96  1  0.42621282  0.81972856  0.65040477  1
  Si0+  Si97  1  0.67802532  0.42582333  0.35236997  1
  Si0+  Si98  1  0.32057154  0.57083574  0.01407034  1
  Si0+  Si99  1  0.07259399  0.67824569  0.98434629  1
  Si0+  Si100  1  0.57158158  0.67545136  0.31619985  1
  Si0+  Si101  1  0.17640787  0.92814845  0.35038369  1
  Si0+  Si102  1  0.82249283  0.07288960  0.01551412  1
  Si0+  Si103  1  0.17641456  0.92791751  0.68318009  1
  Si0+  Si104  1  0.42560683  0.32081994  0.64964064  1
  Si0+  Si105  1  0.67634128  0.92718059  0.35048004  1
  Si0+  Si106  1  0.92917129  0.81994229  0.98386833  1
  Si0+  Si107  1  0.32091425  0.07306842  0.01735011  1
  Si0+  Si108  1  0.07328112  0.17618594  0.65104085  1
  Si0+  Si109  1  0.07189860  0.67857837  0.31706537  1
  Si0+  Si110  1  0.17862054  0.42783510  0.34892304  1
  Si0+  Si111  1  0.42489556  0.82182075  0.98192904  1
  Si0+  Si112  1  0.93013543  0.32427765  0.98214095  1
  Si0+  Si113  1  0.67891411  0.92879270  0.68167565  1
  Si0+  Si114  1  0.67873495  0.42700764  0.68135920  1
  Si0+  Si115  1  0.42801746  0.32308565  0.31878809  1
  Si0+  Si116  1  0.42741825  0.32358525  0.98293058  1
  Si0+  Si117  1  0.17926724  0.42824759  0.01685457  1
  Si0+  Si118  1  0.92912302  0.82228418  0.65258270  1
  Si0+  Si119  1  0.07139357  0.68016095  0.65282758  1
  O2-  O120  1  0.25212361  0.00489547  0.06196084  1
  O2-  O121  1  0.24329030  -0.00139295  0.39416585  1
  O2-  O122  1  0.24479502  -0.00258364  0.72632097  1
  O2-  O123  1  0.25114203  0.49899631  0.05799484  1
  O2-  O124  1  0.24718288  0.49739783  0.39203596  1
  O2-  O125  1  0.25354782  0.49872458  0.73318243  1
  O2-  O126  1  0.74890550  0.00985653  0.06018977  1
  O2-  O127  1  0.74479151  -0.00363220  0.39428247  1
  O2-  O128  1  0.74447241  0.00044381  0.72624003  1
  O2-  O129  1  0.75028997  0.49921299  0.06508061  1
  O2-  O130  1  0.74767290  0.49359911  0.39678339  1
  O2-  O131  1  0.74220627  0.50046258  0.72595085  1
  O2-  O132  1  -0.00074332  0.24888705  0.26871146  1
  O2-  O133  1  0.00578158  0.24566420  0.60734705  1
  O2-  O134  1  -0.00398245  0.25316389  0.93705902  1
  O2-  O135  1  0.00123113  0.74441434  0.27159451  1
  O2-  O136  1  0.00059493  0.75131044  0.61086800  1
  O2-  O137  1  -0.00172715  0.74626594  0.94201885  1
  O2-  O138  1  0.49459959  0.25342015  0.27331103  1
  O2-  O139  1  0.49277191  0.25067061  0.60528986  1
  O2-  O140  1  0.49736906  0.25541600  0.93967782  1
  O2-  O141  1  0.50072648  0.74191088  0.27215856  1
  O2-  O142  1  0.49244846  0.74793993  0.60712257  1
  O2-  O143  1  0.49512848  0.75479928  0.93793503  1
  O2-  O144  1  0.07114677  0.17976383  0.09668218  1
  O2-  O145  1  0.07493622  0.18218483  0.43382234  1
  O2-  O146  1  0.07024638  0.17547323  0.75692473  1
  O2-  O147  1  0.07702252  0.67882585  0.08908649  1
  O2-  O148  1  0.07279274  0.68062699  0.42298338  1
  O2-  O149  1  0.07187907  0.68165208  0.75827446  1
  O2-  O150  1  0.56836500  0.17790189  0.09852079  1
  O2-  O151  1  0.56936393  0.17853432  0.43279238  1
  O2-  O152  1  0.57014131  0.17951778  0.76577741  1
  O2-  O153  1  0.56601386  0.68165823  0.10072627  1
  O2-  O154  1  0.57178035  0.67750336  0.42200896  1
  O2-  O155  1  0.57445895  0.68084814  0.76526099  1
  O2-  O156  1  0.18092167  0.42876891  0.24275003  1
  O2-  O157  1  0.17848150  0.43282038  0.56840328  1
  O2-  O158  1  0.17800802  0.42981455  0.91200976  1
  O2-  O159  1  0.17818366  0.92686188  0.24473881  1
  O2-  O160  1  0.17364686  0.92585695  0.57793034  1
  O2-  O161  1  0.18087959  0.92825392  0.90191388  1
  O2-  O162  1  0.67527840  0.42836367  0.24692210  1
  O2-  O163  1  0.68129108  0.42630350  0.57577827  1
  O2-  O164  1  0.67881952  0.42819647  0.90148955  1
  O2-  O165  1  0.67696778  0.92822072  0.24456683  1
  O2-  O166  1  0.68000118  0.92797057  0.57614202  1
  O2-  O167  1  0.68327258  0.92901923  0.90028113  1
  O2-  O168  1  0.42428889  0.32352655  0.08858722  1
  O2-  O169  1  0.42866887  0.32368529  0.42416039  1
  O2-  O170  1  0.42753976  0.32084848  0.75544380  1
  O2-  O171  1  0.42340202  0.81906881  0.08757360  1
  O2-  O172  1  0.43091987  0.81917135  0.43230440  1
  O2-  O173  1  0.42544157  0.82016239  0.75602180  1
  O2-  O174  1  0.93282938  0.32470141  0.08745589  1
  O2-  O175  1  0.93105008  0.32505762  0.42950297  1
  O2-  O176  1  0.93201041  0.32103218  0.76713289  1
  O2-  O177  1  0.93039727  0.82024558  0.08884533  1
  O2-  O178  1  0.93126069  0.82006324  0.43320899  1
  O2-  O179  1  0.92958489  0.82198086  0.75796645  1
  O2-  O180  1  0.32103805  0.06741920  0.23246831  1
  O2-  O181  1  0.32350165  0.06732408  0.56832694  1
  O2-  O182  1  0.32033667  0.07061353  0.91152059  1
  O2-  O183  1  0.31994936  0.57042804  0.23233471  1
  O2-  O184  1  0.31923623  0.57323598  0.56950533  1
  O2-  O185  1  0.31915995  0.57006896  0.90928061  1
  O2-  O186  1  0.81919862  0.06725945  0.23197119  1
  O2-  O187  1  0.82245128  0.07164854  0.56676986  1
  O2-  O188  1  0.82256810  0.06962536  0.90943533  1
  O2-  O189  1  0.81609715  0.57131282  0.23596923  1
  O2-  O190  1  0.82033909  0.57290304  0.56670381  1
  O2-  O191  1  0.82132848  0.57164106  0.90225830  1
  O2-  O192  1  0.04546825  0.07998644  0.26773298  1
  O2-  O193  1  0.04874266  0.08172821  0.60644773  1
  O2-  O194  1  0.04164778  0.08135485  0.92937726  1
  O2-  O195  1  0.05050815  0.58420114  0.27141009  1
  O2-  O196  1  0.04340840  0.58908601  0.60547572  1
  O2-  O197  1  0.04757670  0.58523581  0.93758033  1
  O2-  O198  1  0.53764271  0.08229219  0.26551455  1
  O2-  O199  1  0.54094458  0.07969910  0.60093247  1
  O2-  O200  1  0.53967446  0.08295027  0.93016926  1
  O2-  O201  1  0.54741659  0.58024802  0.27304316  1
  O2-  O202  1  0.54701429  0.57907687  0.59816829  1
  O2-  O203  1  0.54046145  0.58386638  0.93392524  1
  O2-  O204  1  0.17083061  0.20878759  0.26529998  1
  O2-  O205  1  0.16940273  0.20062687  0.61017135  1
  O2-  O206  1  0.16764484  0.20978874  0.93027542  1
  O2-  O207  1  0.16433985  0.70646955  0.26957193  1
  O2-  O208  1  0.16327415  0.70831663  0.60489483  1
  O2-  O209  1  0.16230132  0.71067101  0.93458164  1
  O2-  O210  1  0.66456674  0.20858592  0.26295450  1
  O2-  O211  1  0.66559788  0.21160652  0.59830698  1
  O2-  O212  1  0.66970672  0.20838086  0.93263672  1
  O2-  O213  1  0.66374977  0.70363847  0.26967246  1
  O2-  O214  1  0.66621077  0.71397796  0.59555051  1
  O2-  O215  1  0.66660504  0.71534106  0.93475052  1
  O2-  O216  1  0.08934678  0.45778215  0.06622404  1
  O2-  O217  1  0.08529471  0.45444338  0.39402221  1
  O2-  O218  1  0.08409500  0.46443258  0.73909882  1
  O2-  O219  1  0.08120932  0.95905078  0.06770235  1
  O2-  O220  1  0.08175311  0.94999418  0.39504689  1
  O2-  O221  1  0.08384399  0.95252754  0.73257435  1
  O2-  O222  1  0.57881182  0.45554204  0.06886123  1
  O2-  O223  1  0.58501118  0.45051463  0.40083543  1
  O2-  O224  1  0.58281325  0.44508102  0.72507365  1
  O2-  O225  1  0.57922629  0.95718980  0.06563255  1
  O2-  O226  1  0.58235573  0.95173077  0.39525662  1
  O2-  O227  1  0.58462868  0.94848492  0.72831550  1
  O2-  O228  1  0.20798628  0.33628961  0.06331045  1
  O2-  O229  1  0.20459315  0.33558282  0.39659729  1
  O2-  O230  1  0.20349122  0.33128966  0.73777960  1
  O2-  O231  1  0.20768360  0.83290749  0.07080455  1
  O2-  O232  1  0.20380814  0.83513449  0.39711297  1
  O2-  O233  1  0.20294290  0.83504923  0.73103767  1
  O2-  O234  1  0.70690550  0.32934246  0.06874018  1
  O2-  O235  1  0.70290251  0.33118976  0.39564122  1
  O2-  O236  1  0.71026387  0.33583662  0.72866993  1
  O2-  O237  1  0.71201510  0.83801900  0.07089228  1
  O2-  O238  1  0.70176285  0.83324802  0.39557726  1
  O2-  O239  1  0.71078488  0.83724585  0.72874184  1
  O2-  O240  1  0.45499717  0.41654232  0.27178938  1
  O2-  O241  1  0.45022983  0.41446381  0.60288210  1
  O2-  O242  1  0.45149184  0.41749185  0.93663102  1
  O2-  O243  1  0.46025958  0.91227610  0.26041356  1
  O2-  O244  1  0.45624798  0.91173523  0.60350826  1
  O2-  O245  1  0.44841671  0.91647200  0.93765543  1
  O2-  O246  1  0.95875491  0.42117356  0.26154307  1
  O2-  O247  1  0.96437808  0.41869911  0.60106892  1
  O2-  O248  1  0.95999868  0.41797922  0.93771902  1
  O2-  O249  1  0.95868020  0.91429298  0.26182635  1
  O2-  O250  1  0.95879962  0.91417552  0.60558510  1
  O2-  O251  1  0.96032224  0.91012664  0.93479238  1
  O2-  O252  1  0.33391924  0.30070204  0.27232397  1
  O2-  O253  1  0.33018036  0.29672712  0.60683023  1
  O2-  O254  1  0.33449808  0.29796587  0.93485341  1
  O2-  O255  1  0.33094782  0.79014359  0.26493620  1
  O2-  O256  1  0.33141828  0.79789926  0.60421900  1
  O2-  O257  1  0.33124162  0.79479994  0.93615672  1
  O2-  O258  1  0.82995396  0.29638769  0.26260441  1
  O2-  O259  1  0.83611568  0.29203752  0.59750693  1
  O2-  O260  1  0.83559498  0.30194264  0.93681796  1
  O2-  O261  1  0.83072067  0.78923050  0.26588000  1
  O2-  O262  1  0.83857929  0.79527725  0.60348647  1
  O2-  O263  1  0.83709418  0.79458782  0.93613786  1
  O2-  O264  1  0.41465057  0.04667650  0.06186032  1
  O2-  O265  1  0.41599548  0.03278823  0.39895205  1
  O2-  O266  1  0.41751926  0.03436626  0.73746051  1
  O2-  O267  1  0.41202254  0.54454537  0.06222879  1
  O2-  O268  1  0.41806489  0.54270365  0.40127710  1
  O2-  O269  1  0.42325062  0.54356359  0.73384702  1
  O2-  O270  1  0.91433441  0.04053597  0.06036522  1
  O2-  O271  1  0.91617929  0.03695785  0.39929262  1
  O2-  O272  1  0.91612519  0.04008380  0.73607923  1
  O2-  O273  1  0.92157530  0.54719489  0.06883229  1
  O2-  O274  1  0.91951581  0.54384320  0.39951840  1
  O2-  O275  1  0.91560405  0.54272842  0.73413661  1
  O2-  O276  1  0.29601111  0.16788285  0.06087957  1
  O2-  O277  1  0.29492747  0.16782190  0.40012530  1
  O2-  O278  1  0.29694321  0.16558788  0.73862628  1
  O2-  O279  1  0.29009738  0.66222990  0.06079430  1
  O2-  O280  1  0.28966744  0.66794477  0.40098602  1
  O2-  O281  1  0.29317381  0.66997515  0.73669950  1
  O2-  O282  1  0.80444693  0.16899671  0.05782232  1
  O2-  O283  1  0.78998558  0.16811708  0.39674591  1
  O2-  O284  1  0.79104626  0.16978510  0.73374274  1
  O2-  O285  1  0.79208605  0.67082784  0.06714059  1
  O2-  O286  1  0.78818642  0.66680633  0.40262809  1
  O2-  O287  1  0.79074420  0.67041190  0.73227548  1
