# generated using pymatgen
data_Ca2Al2SiO7
_symmetry_space_group_name_H-M   'P 1'
_cell_length_a   15.45672940
_cell_length_b   15.45727298
_cell_length_c   15.28304740
_cell_angle_alpha   89.99460367
_cell_angle_beta   90.00269270
_cell_angle_gamma   89.97953730
_symmetry_Int_Tables_number   1
_chemical_formula_structural   Ca2Al2SiO7
_chemical_formula_sum   'Ca48 Al48 Si24 O168'
_cell_volume   3651.40840337
_cell_formula_units_Z   24
loop_
 _symmetry_equiv_pos_site_id
 _symmetry_equiv_pos_as_xyz
  1  'x, y, z'
loop_
 _atom_type_symbol
 _atom_type_oxidation_number
  Ca2+  2.0
  Al0+  0.0
  Si0+  0.0
  O2-  -2.0
loop_
 _atom_site_type_symbol
 _atom_site_label
 _atom_site_symmetry_multiplicity
 _atom_site_fract_x
 _atom_site_fract_y
 _atom_site_fract_z
 _atom_site_occupancy
  Ca2+  Ca0  1  0.16708611  0.07400268  0.17851113  1
  Ca2+  Ca1  1  0.16864641  0.08285667  0.50493005  1
  Ca2+  Ca2  1  0.17309268  0.08797522  0.83511651  1
  Ca2+  Ca3  1  0.16774599  0.58523976  0.16425090  1
  Ca2+  Ca4  1  0.16406434  0.58324720  0.50640658  1
  Ca2+  Ca5  1  0.16373719  0.58253505  0.84264473  1
  Ca2+  Ca6  1  0.66916871  0.08192884  0.17035300  1
  Ca2+  Ca7  1  0.65843712  0.07472130  0.50518658  1
  Ca2+  Ca8  1  0.66972845  0.08109418  0.83683424  1
  Ca2+  Ca9  1  0.67283289  0.58697619  0.17876413  1
  Ca2+  Ca10  1  0.67841448  0.58929346  0.50374994  1
  Ca2+  Ca11  1  0.67408339  0.58278937  0.83402377  1
  Ca2+  Ca12  1  0.08116903  0.33168025  0.16764257  1
  Ca2+  Ca13  1  0.07628442  0.32263071  0.49791456  1
  Ca2+  Ca14  1  0.08073098  0.33064654  0.82446795  1
  Ca2+  Ca15  1  0.07909218  0.83060141  0.15765406  1
  Ca2+  Ca16  1  0.07924203  0.83212540  0.49899300  1
  Ca2+  Ca17  1  0.07138939  0.82404766  0.82839826  1
  Ca2+  Ca18  1  0.58883274  0.32101195  0.16349577  1
  Ca2+  Ca19  1  0.58689875  0.31942982  0.49583882  1
  Ca2+  Ca20  1  0.58597462  0.31986758  0.82955708  1
  Ca2+  Ca21  1  0.57579906  0.83526547  0.16847987  1
  Ca2+  Ca22  1  0.57571755  0.83927147  0.49356100  1
  Ca2+  Ca23  1  0.57324061  0.83934787  0.82765919  1
  Ca2+  Ca24  1  0.32854248  0.42209835  0.16676243  1
  Ca2+  Ca25  1  0.33259251  0.41869512  0.50624876  1
  Ca2+  Ca26  1  0.32330226  0.42596444  0.84612761  1
  Ca2+  Ca27  1  0.32899462  0.90928359  0.17252314  1
  Ca2+  Ca28  1  0.33121432  0.91665001  0.50483055  1
  Ca2+  Ca29  1  0.33724352  0.91712018  0.83286640  1
  Ca2+  Ca30  1  0.83598617  0.42460625  0.17515231  1
  Ca2+  Ca31  1  0.84479436  0.42416502  0.50267023  1
  Ca2+  Ca32  1  0.84126910  0.42100117  0.83228190  1
  Ca2+  Ca33  1  0.83158684  0.92220556  0.17288783  1
  Ca2+  Ca34  1  0.81823840  0.91186726  0.50812243  1
  Ca2+  Ca35  1  0.83201576  0.91693410  0.83756133  1
  Ca2+  Ca36  1  0.43049668  0.16180151  0.16366534  1
  Ca2+  Ca37  1  0.42519922  0.15707400  0.50019675  1
  Ca2+  Ca38  1  0.42723066  0.15998313  0.82602455  1
  Ca2+  Ca39  1  0.41634343  0.67674769  0.16145646  1
  Ca2+  Ca40  1  0.42480871  0.67958095  0.49197117  1
  Ca2+  Ca41  1  0.41042375  0.67710065  0.83043157  1
  Ca2+  Ca42  1  0.91792743  0.16791484  0.16348119  1
  Ca2+  Ca43  1  0.92207774  0.17666890  0.49332134  1
  Ca2+  Ca44  1  0.92118697  0.17087672  0.82441071  1
  Ca2+  Ca45  1  0.91922833  0.67420201  0.15991431  1
  Ca2+  Ca46  1  0.91490502  0.66649512  0.50133738  1
  Ca2+  Ca47  1  0.92423253  0.67073755  0.82510011  1
  Al0+  Al48  1  -0.00051150  0.00201185  -0.00019655  1
  Al0+  Al49  1  0.00078449  -0.00000886  0.33645071  1
  Al0+  Al50  1  -0.00053416  -0.00257656  0.66008786  1
  Al0+  Al51  1  -0.00042284  0.49847566  0.00303189  1
  Al0+  Al52  1  0.00131495  0.49979238  0.33391019  1
  Al0+  Al53  1  0.00055731  0.50022966  0.66518261  1
  Al0+  Al54  1  0.50133612  -0.00076582  -0.00676862  1
  Al0+  Al55  1  0.49907407  0.00080898  0.32711230  1
  Al0+  Al56  1  0.49850201  -0.00068107  0.66808315  1
  Al0+  Al57  1  0.49977702  0.49918344  0.00514041  1
  Al0+  Al58  1  0.50139784  0.49964845  0.33268877  1
  Al0+  Al59  1  0.50085744  0.49970818  0.67043870  1
  Al0+  Al60  1  0.25125668  0.25097623  0.00743905  1
  Al0+  Al61  1  0.24986202  0.25024517  0.33074962  1
  Al0+  Al62  1  0.25157395  0.24998548  0.66898537  1
  Al0+  Al63  1  0.25026547  0.75014222  -0.00430911  1
  Al0+  Al64  1  0.24923075  0.75018429  0.33593986  1
  Al0+  Al65  1  0.24957222  0.75113784  0.65962626  1
  Al0+  Al66  1  0.75155758  0.24839070  -0.00070092  1
  Al0+  Al67  1  0.75077142  0.25237743  0.32557447  1
  Al0+  Al68  1  0.74930250  0.24970181  0.65790587  1
  Al0+  Al69  1  0.74636958  0.75133548  -0.00148819  1
  Al0+  Al70  1  0.75006084  0.75089689  0.33811684  1
  Al0+  Al71  1  0.74930106  0.74853038  0.67671398  1
  Al0+  Al72  1  0.57341817  0.67944308  0.32028001  1
  Al0+  Al73  1  0.82123402  0.56839665  0.68294813  1
  Al0+  Al74  1  0.43080596  0.82027010  0.65168864  1
  Al0+  Al75  1  0.82130805  0.57063882  0.34715365  1
  Al0+  Al76  1  0.17768064  0.92729681  0.34779053  1
  Al0+  Al77  1  0.56961229  0.17956049  0.31831000  1
  Al0+  Al78  1  0.92603224  0.82444897  0.98655120  1
  Al0+  Al79  1  0.56959033  0.17930444  0.65290240  1
  Al0+  Al80  1  0.57104529  0.18058130  0.98403597  1
  Al0+  Al81  1  0.92927023  0.32063708  0.65192751  1
  Al0+  Al82  1  0.67840057  0.92987280  0.68232989  1
  Al0+  Al83  1  0.42790311  0.82026329  0.31732334  1
  Al0+  Al84  1  0.07012421  0.67953548  0.65033468  1
  Al0+  Al85  1  0.32089959  0.57390814  0.01610675  1
  Al0+  Al86  1  0.17645418  0.42774855  0.01783075  1
  Al0+  Al87  1  0.07138725  0.17702733  0.31647032  1
  Al0+  Al88  1  0.43001711  0.81886679  0.98431205  1
  Al0+  Al89  1  0.92471287  0.82069795  0.65032494  1
  Al0+  Al90  1  0.93092199  0.32205471  0.31513084  1
  Al0+  Al91  1  0.06827253  0.67873261  0.98655318  1
  Al0+  Al92  1  0.07486428  0.17701186  0.65335369  1
  Al0+  Al93  1  0.82142885  0.07048467  0.01288656  1
  Al0+  Al94  1  0.31844808  0.06929452  0.68061635  1
  Al0+  Al95  1  0.67954451  0.93245310  0.34576746  1
  Si0+  Si96  1  0.67606842  0.92855185  0.01760237  1
  Si0+  Si97  1  0.82220453  0.07462493  0.35056297  1
  Si0+  Si98  1  0.32202182  0.57114681  0.35009254  1
  Si0+  Si99  1  0.17581357  0.92564494  0.68463165  1
  Si0+  Si100  1  0.57211565  0.67504928  0.65264198  1
  Si0+  Si101  1  0.67728614  0.42634430  0.35005640  1
  Si0+  Si102  1  0.81921531  0.57136844  0.01506677  1
  Si0+  Si103  1  0.18112938  0.43045177  0.68057459  1
  Si0+  Si104  1  0.42702085  0.32244194  0.98421266  1
  Si0+  Si105  1  0.67664651  0.42496722  0.68376042  1
  Si0+  Si106  1  0.68024595  0.42733386  0.01457282  1
  Si0+  Si107  1  0.32123013  0.07231744  0.34816382  1
  Si0+  Si108  1  0.92810535  0.82042961  0.32029976  1
  Si0+  Si109  1  0.42634696  0.32497346  0.31570439  1
  Si0+  Si110  1  0.42834950  0.32404109  0.65294890  1
  Si0+  Si111  1  0.17995828  0.93164142  0.01196173  1
  Si0+  Si112  1  0.32372458  0.07080064  0.01547920  1
  Si0+  Si113  1  0.07364192  0.17884612  0.98647654  1
  Si0+  Si114  1  0.32220452  0.57282514  0.68010826  1
  Si0+  Si115  1  0.93010876  0.31987681  0.98517589  1
  Si0+  Si116  1  0.82275975  0.07315334  0.67970213  1
  Si0+  Si117  1  0.18064563  0.42913449  0.35113240  1
  Si0+  Si118  1  0.57282836  0.67366627  0.98262746  1
  Si0+  Si119  1  0.07126061  0.67890359  0.31814587  1
  O2-  O120  1  0.25112181  0.00157046  0.05695058  1
  O2-  O121  1  0.25105487  0.00497503  0.39148197  1
  O2-  O122  1  0.24067301  -0.00169192  0.72925045  1
  O2-  O123  1  0.24856174  0.50143911  0.06602987  1
  O2-  O124  1  0.25356216  0.49810709  0.39392815  1
  O2-  O125  1  0.25141173  0.50200188  0.72261838  1
  O2-  O126  1  0.74973117  -0.00713366  0.06016787  1
  O2-  O127  1  0.75208162  0.00823856  0.39505014  1
  O2-  O128  1  0.75696000  0.00270099  0.72610572  1
  O2-  O129  1  0.74513294  0.50368913  0.05739389  1
  O2-  O130  1  0.74487763  0.49631774  0.39323347  1
  O2-  O131  1  0.74668526  0.49213173  0.72872564  1
  O2-  O132  1  -0.00123345  0.24684138  0.26395425  1
  O2-  O133  1  -0.00196805  0.24433413  0.60424120  1
  O2-  O134  1  0.00433135  0.25155199  0.94444096  1
  O2-  O135  1  0.00133577  0.75158220  0.27730156  1
  O2-  O136  1  -0.00177631  0.75069639  0.59916615  1
  O2-  O137  1  -0.00629677  0.74803460  0.93730056  1
  O2-  O138  1  0.49612606  0.25678027  0.27250504  1
  O2-  O139  1  0.49660987  0.25651207  0.60718133  1
  O2-  O140  1  0.49448629  0.25417604  0.93809327  1
  O2-  O141  1  0.49931161  0.74732176  0.26774776  1
  O2-  O142  1  0.50530102  0.74450392  0.60765606  1
  O2-  O143  1  0.50325729  0.74149290  0.93897287  1
  O2-  O144  1  0.07218216  0.17694296  0.09116516  1
  O2-  O145  1  0.07270473  0.18033413  0.42968908  1
  O2-  O146  1  0.07634173  0.18272162  0.76774151  1
  O2-  O147  1  0.06728125  0.68128560  0.10082119  1
  O2-  O148  1  0.07148731  0.67754829  0.42292966  1
  O2-  O149  1  0.07026841  0.67809316  0.76383833  1
  O2-  O150  1  0.57046932  0.18160699  0.09716994  1
  O2-  O151  1  0.56656416  0.17876060  0.43131331  1
  O2-  O152  1  0.56976903  0.18094486  0.76610862  1
  O2-  O153  1  0.57537277  0.67406339  0.08799287  1
  O2-  O154  1  0.57174155  0.68044121  0.43387931  1
  O2-  O155  1  0.56798785  0.67192528  0.75830854  1
  O2-  O156  1  0.18083281  0.43056366  0.24626409  1
  O2-  O157  1  0.18388959  0.43036922  0.57517720  1
  O2-  O158  1  0.17754771  0.42593904  0.90381193  1
  O2-  O159  1  0.17848421  0.92598957  0.23366068  1
  O2-  O160  1  0.17974754  0.92411555  0.57910265  1
  O2-  O161  1  0.17983062  0.93482962  0.90716597  1
  O2-  O162  1  0.67813990  0.42652893  0.24396931  1
  O2-  O163  1  0.67165222  0.42667893  0.57877341  1
  O2-  O164  1  0.68289566  0.42616128  0.90943469  1
  O2-  O165  1  0.68207530  0.93299871  0.23248285  1
  O2-  O166  1  0.67589979  0.93203841  0.56902157  1
  O2-  O167  1  0.67386406  0.93142359  0.91210605  1
  O2-  O168  1  0.42843756  0.32097749  0.08983657  1
  O2-  O169  1  0.42537981  0.32665897  0.42141417  1
  O2-  O170  1  0.42890304  0.32488990  0.75840789  1
  O2-  O171  1  0.43002596  0.82046773  0.09714656  1
  O2-  O172  1  0.42848970  0.82024426  0.43068704  1
  O2-  O173  1  0.43046229  0.81868767  0.76502028  1
  O2-  O174  1  0.92860176  0.31992983  0.08987223  1
  O2-  O175  1  0.93475630  0.32298190  0.42830740  1
  O2-  O176  1  0.93189257  0.32077556  0.76642074  1
  O2-  O177  1  0.92885179  0.82371922  0.10098887  1
  O2-  O178  1  0.92731720  0.81780886  0.42491808  1
  O2-  O179  1  0.92654250  0.81898531  0.76406157  1
  O2-  O180  1  0.32099696  0.07177765  0.24207484  1
  O2-  O181  1  0.31982539  0.06802053  0.56757529  1
  O2-  O182  1  0.32259968  0.07189556  0.91035904  1
  O2-  O183  1  0.31947517  0.57117646  0.24525149  1
  O2-  O184  1  0.32375848  0.56912686  0.57480382  1
  O2-  O185  1  0.31954145  0.57162726  0.90199039  1
  O2-  O186  1  0.82221874  0.07178708  0.24449845  1
  O2-  O187  1  0.81929790  0.07442384  0.57437471  1
  O2-  O188  1  0.82068023  0.07388617  0.89981205  1
  O2-  O189  1  0.82106556  0.57051302  0.23329286  1
  O2-  O190  1  0.82031797  0.56745601  0.56998736  1
  O2-  O191  1  0.82043919  0.56816838  0.91014893  1
  O2-  O192  1  0.04445596  0.07705237  0.26530252  1
  O2-  O193  1  0.05519295  0.07661185  0.60274369  1
  O2-  O194  1  0.04530765  0.08861984  0.93731302  1
  O2-  O195  1  0.04316480  0.58765574  0.27073924  1
  O2-  O196  1  0.04254441  0.58105684  0.59758382  1
  O2-  O197  1  0.04169954  0.57853481  0.93600978  1
  O2-  O198  1  0.53664399  0.08587362  0.26049687  1
  O2-  O199  1  0.53276496  0.08497924  0.59992464  1
  O2-  O200  1  0.54007848  0.08490120  0.92978873  1
  O2-  O201  1  0.55065237  0.57830238  0.26954458  1
  O2-  O202  1  0.54682105  0.58140544  0.60566019  1
  O2-  O203  1  0.55016591  0.57826109  0.93833987  1
  O2-  O204  1  0.17027906  0.20636320  0.26408790  1
  O2-  O205  1  0.17148009  0.21119123  0.59971689  1
  O2-  O206  1  0.16746280  0.20551956  0.94212734  1
  O2-  O207  1  0.16331154  0.70608454  0.27160003  1
  O2-  O208  1  0.16813403  0.70627525  0.59557565  1
  O2-  O209  1  0.16594607  0.70716005  0.93358091  1
  O2-  O210  1  0.66582864  0.20983814  0.26310019  1
  O2-  O211  1  0.66462337  0.20730765  0.59544994  1
  O2-  O212  1  0.66698603  0.21484377  0.93091403  1
  O2-  O213  1  0.67097193  0.71048636  0.26679409  1
  O2-  O214  1  0.66725588  0.69899776  0.61161702  1
  O2-  O215  1  0.66578669  0.69977199  0.93513403  1
  O2-  O216  1  0.07829433  0.45552686  0.07221512  1
  O2-  O217  1  0.09030275  0.46036651  0.39843077  1
  O2-  O218  1  0.08954580  0.45780945  0.72788869  1
  O2-  O219  1  0.08877853  0.95948401  0.06097161  1
  O2-  O220  1  0.08121886  0.95604827  0.40324667  1
  O2-  O221  1  0.07954613  0.94557229  0.72753820  1
  O2-  O222  1  0.58624705  0.44674529  0.06152389  1
  O2-  O223  1  0.58218177  0.44700495  0.39580575  1
  O2-  O224  1  0.58412730  0.45168529  0.73386268  1
  O2-  O225  1  0.58429318  0.96085907  0.06376622  1
  O2-  O226  1  0.58115963  0.96326876  0.39681654  1
  O2-  O227  1  0.58370296  0.96530385  0.73700183  1
  O2-  O228  1  0.20778437  0.33085984  0.07403798  1
  O2-  O229  1  0.20766515  0.33627577  0.39735636  1
  O2-  O230  1  0.20915312  0.33959058  0.72983155  1
  O2-  O231  1  0.20762927  0.83932460  0.05813995  1
  O2-  O232  1  0.20922585  0.83177923  0.40354928  1
  O2-  O233  1  0.20744371  0.83319644  0.73026348  1
  O2-  O234  1  0.71397968  0.33814543  0.06333454  1
  O2-  O235  1  0.70449126  0.33254921  0.39508489  1
  O2-  O236  1  0.70229918  0.33034771  0.72806052  1
  O2-  O237  1  0.69427402  0.83221746  0.06160553  1
  O2-  O238  1  0.71062847  0.83693299  0.40134036  1
  O2-  O239  1  0.70371114  0.83291859  0.73855125  1
  O2-  O240  1  0.45067529  0.41853476  0.26883312  1
  O2-  O241  1  0.45260584  0.41809671  0.60613086  1
  O2-  O242  1  0.45153459  0.41710065  0.93967221  1
  O2-  O243  1  0.45514702  0.91799530  0.26314454  1
  O2-  O244  1  0.46258941  0.91606307  0.59858459  1
  O2-  O245  1  0.46244721  0.91441455  0.92913176  1
  O2-  O246  1  0.96485602  0.41952922  0.26241937  1
  O2-  O247  1  0.96324646  0.41652614  0.59881959  1
  O2-  O248  1  0.95581315  0.41249931  0.93856272  1
  O2-  O249  1  0.95388866  0.91349027  0.27470735  1
  O2-  O250  1  0.94821719  0.91945149  0.59634770  1
  O2-  O251  1  0.95844654  0.92124574  0.93266488  1
  O2-  O252  1  0.33332045  0.29928437  0.26884689  1
  O2-  O253  1  0.33529598  0.29884525  0.60617802  1
  O2-  O254  1  0.33216890  0.29777428  0.94013679  1
  O2-  O255  1  0.32924205  0.78874866  0.26584792  1
  O2-  O256  1  0.33480959  0.79100254  0.59685396  1
  O2-  O257  1  0.33358551  0.79031538  0.92894847  1
  O2-  O258  1  0.83110993  0.30027532  0.26218402  1
  O2-  O259  1  0.83026259  0.29937213  0.59753328  1
  O2-  O260  1  0.83995535  0.28979862  0.93651612  1
  O2-  O261  1  0.83793987  0.79063908  0.27166035  1
  O2-  O262  1  0.82542819  0.78831018  0.60170609  1
  O2-  O263  1  0.82501645  0.80176329  0.93721728  1
  O2-  O264  1  0.41552875  0.04017084  0.06078931  1
  O2-  O265  1  0.41429862  0.04446123  0.39331468  1
  O2-  O266  1  0.41288921  0.03463792  0.73667155  1
  O2-  O267  1  0.41953266  0.54525795  0.07003047  1
  O2-  O268  1  0.41503235  0.54492688  0.39661242  1
  O2-  O269  1  0.41351309  0.54605776  0.72973180  1
  O2-  O270  1  0.91877606  0.04326579  0.06865831  1
  O2-  O271  1  0.91570172  0.04948463  0.39599937  1
  O2-  O272  1  0.91859962  0.05138587  0.72385766  1
  O2-  O273  1  0.90954854  0.54078912  0.06345542  1
  O2-  O274  1  0.91797408  0.53818075  0.40070984  1
  O2-  O275  1  0.91799398  0.53552637  0.73684950  1
  O2-  O276  1  0.30025662  0.16309672  0.06392668  1
  O2-  O277  1  0.29871199  0.16731795  0.39369578  1
  O2-  O278  1  0.29297058  0.16773241  0.73630051  1
  O2-  O279  1  0.29046171  0.67207574  0.06897800  1
  O2-  O280  1  0.29159125  0.66136351  0.39840063  1
  O2-  O281  1  0.29357330  0.66521047  0.72498084  1
  O2-  O282  1  0.78764484  0.16596506  0.06855295  1
  O2-  O283  1  0.79833883  0.17078296  0.39149836  1
  O2-  O284  1  0.79493992  0.16712914  0.72520752  1
  O2-  O285  1  0.79392507  0.66506268  0.06061727  1
  O2-  O286  1  0.79071820  0.66608468  0.40305525  1
  O2-  O287  1  0.78957416  0.66243226  0.74128932  1
