# generated using pymatgen
data_Ca2Al2SiO7
_symmetry_space_group_name_H-M   'P 1'
_cell_length_a   15.45243219
_cell_length_b   15.45305103
_cell_length_c   15.27994123
_cell_angle_alpha   89.99623716
_cell_angle_beta   90.00921485
_cell_angle_gamma   89.99448274
_symmetry_Int_Tables_number   1
_chemical_formula_structural   Ca2Al2SiO7
_chemical_formula_sum   'Ca48 Al48 Si24 O168'
_cell_volume   3648.65466393
_cell_formula_units_Z   24
loop_
 _symmetry_equiv_pos_site_id
 _symmetry_equiv_pos_as_xyz
  1  'x, y, z'
loop_
 _atom_type_symbol
 _atom_type_oxidation_number
  Ca2+  2.0
  Al0+  0.0
  Si0+  0.0
  O2-  -2.0
loop_
 _atom_site_type_symbol
 _atom_site_label
 _atom_site_symmetry_multiplicity
 _atom_site_fract_x
 _atom_site_fract_y
 _atom_site_fract_z
 _atom_site_occupancy
  Ca2+  Ca0  1  0.16544224  0.07841305  0.17322577  1
  Ca2+  Ca1  1  0.16438377  0.08100161  0.49754466  1
  Ca2+  Ca2  1  0.16055353  0.08173237  0.84069189  1
  Ca2+  Ca3  1  0.16477375  0.57383824  0.16743898  1
  Ca2+  Ca4  1  0.17323537  0.58836459  0.51061323  1
  Ca2+  Ca5  1  0.17125520  0.58286127  0.83998422  1
  Ca2+  Ca6  1  0.66639784  0.07870944  0.17506401  1
  Ca2+  Ca7  1  0.67236702  0.06715006  0.50960616  1
  Ca2+  Ca8  1  0.66982678  0.07959058  0.83632067  1
  Ca2+  Ca9  1  0.66639210  0.58323875  0.16965107  1
  Ca2+  Ca10  1  0.66658365  0.58461728  0.50471380  1
  Ca2+  Ca11  1  0.67615002  0.59157979  0.83810093  1
  Ca2+  Ca12  1  0.08297042  0.32277968  0.15621478  1
  Ca2+  Ca13  1  0.08084291  0.32123388  0.49533275  1
  Ca2+  Ca14  1  0.08353973  0.32794392  0.83277934  1
  Ca2+  Ca15  1  0.07409856  0.84250050  0.16241765  1
  Ca2+  Ca16  1  0.07787715  0.83054813  0.49300833  1
  Ca2+  Ca17  1  0.07710664  0.83270286  0.83041729  1
  Ca2+  Ca18  1  0.57976298  0.32842420  0.15795392  1
  Ca2+  Ca19  1  0.58356878  0.33518865  0.49424032  1
  Ca2+  Ca20  1  0.58095596  0.33013975  0.83578805  1
  Ca2+  Ca21  1  0.58292221  0.82761104  0.16518907  1
  Ca2+  Ca22  1  0.58636393  0.82611807  0.49163438  1
  Ca2+  Ca23  1  0.58649746  0.82329167  0.82808453  1
  Ca2+  Ca24  1  0.33076930  0.41047848  0.16510638  1
  Ca2+  Ca25  1  0.33108151  0.42655392  0.50657538  1
  Ca2+  Ca26  1  0.32958854  0.42022133  0.83962322  1
  Ca2+  Ca27  1  0.32256799  0.92099230  0.17755297  1
  Ca2+  Ca28  1  0.33292041  0.91738497  0.49769567  1
  Ca2+  Ca29  1  0.32257874  0.91732680  0.84127720  1
  Ca2+  Ca30  1  0.83172435  0.42133813  0.16839848  1
  Ca2+  Ca31  1  0.82510199  0.42242859  0.50507909  1
  Ca2+  Ca32  1  0.84123406  0.42917310  0.84102312  1
  Ca2+  Ca33  1  0.83159366  0.91293087  0.17253528  1
  Ca2+  Ca34  1  0.82459397  0.91249875  0.50316847  1
  Ca2+  Ca35  1  0.83174005  0.91767080  0.83482557  1
  Ca2+  Ca36  1  0.42110086  0.16754895  0.15997694  1
  Ca2+  Ca37  1  0.41508160  0.16673035  0.49350420  1
  Ca2+  Ca38  1  0.41839514  0.17177735  0.83640039  1
  Ca2+  Ca39  1  0.42829472  0.67069364  0.16491534  1
  Ca2+  Ca40  1  0.42508830  0.67266891  0.49370408  1
  Ca2+  Ca41  1  0.42765911  0.66128729  0.82679712  1
  Ca2+  Ca42  1  0.92724033  0.17126453  0.15779797  1
  Ca2+  Ca43  1  0.92541158  0.15543258  0.49874767  1
  Ca2+  Ca44  1  0.92565725  0.16822529  0.82915121  1
  Ca2+  Ca45  1  0.91070795  0.67887108  0.16089195  1
  Ca2+  Ca46  1  0.91861652  0.66852511  0.49858327  1
  Ca2+  Ca47  1  0.91664102  0.66807498  0.82932610  1
  Al0+  Al48  1  -0.00248719  -0.00051957  -0.00412114  1
  Al0+  Al49  1  0.00180351  -0.00041664  0.32914313  1
  Al0+  Al50  1  -0.00073489  0.00036772  0.66514687  1
  Al0+  Al51  1  0.00136228  0.50156847  0.00879390  1
  Al0+  Al52  1  -0.00023522  0.49900939  0.33535473  1
  Al0+  Al53  1  -0.00084687  0.49813284  0.66401739  1
  Al0+  Al54  1  0.49977068  -0.00150920  -0.00419274  1
  Al0+  Al55  1  0.49937023  -0.00032083  0.33806776  1
  Al0+  Al56  1  0.49790555  0.00052717  0.67255194  1
  Al0+  Al57  1  0.50152091  0.50049172  -0.00729049  1
  Al0+  Al58  1  0.50019005  0.49925894  0.33325901  1
  Al0+  Al59  1  0.49864982  0.49989109  0.66653716  1
  Al0+  Al60  1  0.25204718  0.25041178  -0.00392371  1
  Al0+  Al61  1  0.24972428  0.24974907  0.33390784  1
  Al0+  Al62  1  0.24915672  0.24940107  0.66142387  1
  Al0+  Al63  1  0.25015095  0.75069331  0.00834945  1
  Al0+  Al64  1  0.25011454  0.74934355  0.33240978  1
  Al0+  Al65  1  0.25076906  0.75035368  0.66898461  1
  Al0+  Al66  1  0.75122911  0.25095190  -0.00746440  1
  Al0+  Al67  1  0.75060575  0.25275217  0.33913132  1
  Al0+  Al68  1  0.74918711  0.24913862  0.66947976  1
  Al0+  Al69  1  0.75068682  0.75122280  -0.00342512  1
  Al0+  Al70  1  0.75238971  0.74900420  0.33028664  1
  Al0+  Al71  1  0.74857461  0.74845788  0.66951952  1
  Al0+  Al72  1  0.42924543  0.32119487  0.98442544  1
  Al0+  Al73  1  0.93139421  0.81855857  0.32073059  1
  Al0+  Al74  1  0.57071786  0.67998959  0.65175373  1
  Al0+  Al75  1  0.68009432  0.92834427  0.34473208  1
  Al0+  Al76  1  0.06995192  0.18102958  0.31791021  1
  Al0+  Al77  1  0.18087624  0.42896375  0.01341451  1
  Al0+  Al78  1  0.17668561  0.92997570  0.01365001  1
  Al0+  Al79  1  0.17703943  0.92776766  0.35006208  1
  Al0+  Al80  1  0.82252516  0.07054847  0.68316431  1
  Al0+  Al81  1  0.82073645  0.57264397  0.01542246  1
  Al0+  Al82  1  0.82073993  0.56854606  0.68016452  1
  Al0+  Al83  1  0.56997639  0.68125602  0.98484550  1
  Al0+  Al84  1  0.57326830  0.17540939  0.98524577  1
  Al0+  Al85  1  0.67766441  0.92759480  0.68406154  1
  Al0+  Al86  1  0.42805762  0.82362109  0.31792414  1
  Al0+  Al87  1  0.32072184  0.07189875  0.34832570  1
  Al0+  Al88  1  0.07203226  0.67807662  0.65576885  1
  Al0+  Al89  1  0.07041865  0.17921297  0.98470182  1
  Al0+  Al90  1  0.07015860  0.17880218  0.65006689  1
  Al0+  Al91  1  0.57141563  0.67814110  0.31769883  1
  Al0+  Al92  1  0.67803506  0.42947268  0.34582235  1
  Al0+  Al93  1  0.92948846  0.82030479  0.98433593  1
  Al0+  Al94  1  0.32036480  0.57209873  0.68038183  1
  Al0+  Al95  1  0.92953359  0.32493850  0.98564230  1
  Si0+  Si96  1  0.32064641  0.56972690  0.34743511  1
  Si0+  Si97  1  0.67587018  0.42674762  0.68557042  1
  Si0+  Si98  1  0.07378837  0.67794963  0.98668582  1
  Si0+  Si99  1  0.42524098  0.82139589  0.98325386  1
  Si0+  Si100  1  0.17860441  0.42816579  0.34958443  1
  Si0+  Si101  1  0.67798037  0.42765096  0.01492156  1
  Si0+  Si102  1  0.92575975  0.32254212  0.64801787  1
  Si0+  Si103  1  0.57219007  0.17944400  0.32341068  1
  Si0+  Si104  1  0.82206785  0.57224131  0.35056691  1
  Si0+  Si105  1  0.42679414  0.82413681  0.65105273  1
  Si0+  Si106  1  0.17911648  0.42697597  0.68137878  1
  Si0+  Si107  1  0.92865953  0.82061737  0.64990146  1
  Si0+  Si108  1  0.81981493  0.07253264  0.01496336  1
  Si0+  Si109  1  0.82239076  0.07349861  0.34751515  1
  Si0+  Si110  1  0.67899846  0.92991444  0.01546966  1
  Si0+  Si111  1  0.57096434  0.17790405  0.65035926  1
  Si0+  Si112  1  0.17945338  0.92972757  0.68124642  1
  Si0+  Si113  1  0.32296434  0.07118184  0.01522019  1
  Si0+  Si114  1  0.32546531  0.57188534  0.01864696  1
  Si0+  Si115  1  0.42937717  0.32104283  0.32003078  1
  Si0+  Si116  1  0.42962718  0.31948865  0.64928463  1
  Si0+  Si117  1  0.07426453  0.67454462  0.31610913  1
  Si0+  Si118  1  0.92629239  0.32418758  0.31700596  1
  Si0+  Si119  1  0.32019972  0.07381052  0.68368046  1
  O2-  O120  1  0.25260116  0.00444731  0.05883949  1
  O2-  O121  1  0.25058280  -0.00137911  0.40021164  1
  O2-  O122  1  0.24878689  0.00254549  0.72402021  1
  O2-  O123  1  0.25648684  0.50278923  0.06225894  1
  O2-  O124  1  0.24549567  0.50315649  0.39130584  1
  O2-  O125  1  0.24290427  0.49981097  0.72611040  1
  O2-  O126  1  0.74538017  0.00529296  0.05791112  1
  O2-  O127  1  0.75331462  0.00486573  0.39121033  1
  O2-  O128  1  0.74942971  0.00016150  0.73411093  1
  O2-  O129  1  0.74696201  0.49547032  0.06012881  1
  O2-  O130  1  0.75220010  0.50395306  0.39347327  1
  O2-  O131  1  0.74628807  0.49397552  0.72842134  1
  O2-  O132  1  -0.00545627  0.25549965  0.27302192  1
  O2-  O133  1  -0.00805403  0.25085429  0.60395141  1
  O2-  O134  1  0.00057984  0.25300694  0.93412869  1
  O2-  O135  1  0.00705103  0.74479522  0.27300646  1
  O2-  O136  1  -0.00279891  0.75111124  0.60666663  1
  O2-  O137  1  0.00650359  0.74656488  0.94049111  1
  O2-  O138  1  0.50071424  0.24941890  0.27990206  1
  O2-  O139  1  0.50143415  0.24966062  0.60620672  1
  O2-  O140  1  0.50178359  0.24876038  0.93552980  1
  O2-  O141  1  0.50169499  0.75293862  0.26834787  1
  O2-  O142  1  0.49803579  0.75776278  0.60719892  1
  O2-  O143  1  0.49223551  0.75249475  0.93734860  1
  O2-  O144  1  0.06906970  0.17951495  0.09833877  1
  O2-  O145  1  0.06894684  0.18249863  0.43135880  1
  O2-  O146  1  0.07298269  0.18094140  0.76259671  1
  O2-  O147  1  0.07299323  0.67853723  0.09237564  1
  O2-  O148  1  0.07310424  0.67261331  0.42210511  1
  O2-  O149  1  0.07312593  0.68070499  0.76868530  1
  O2-  O150  1  0.57224148  0.17490542  0.09971900  1
  O2-  O151  1  0.57120454  0.18204730  0.42862421  1
  O2-  O152  1  0.56849338  0.17907038  0.75516616  1
  O2-  O153  1  0.56975868  0.68218802  0.09783445  1
  O2-  O154  1  0.56915714  0.67725353  0.43142097  1
  O2-  O155  1  0.56915419  0.68010785  0.76482945  1
  O2-  O156  1  0.18057767  0.42710042  0.24461975  1
  O2-  O157  1  0.18362619  0.42613306  0.57524545  1
  O2-  O158  1  0.18188169  0.43171288  0.90016935  1
  O2-  O159  1  0.17604302  0.93212540  0.23663764  1
  O2-  O160  1  0.18024809  0.92911887  0.57647529  1
  O2-  O161  1  0.17878466  0.92947170  0.89966734  1
  O2-  O162  1  0.67786942  0.42658441  0.23309364  1
  O2-  O163  1  0.67562338  0.42711964  0.57939496  1
  O2-  O164  1  0.67710651  0.42927798  0.90943938  1
  O2-  O165  1  0.68112541  0.93102534  0.23122362  1
  O2-  O166  1  0.67853932  0.92762435  0.57004769  1
  O2-  O167  1  0.68061290  0.92960420  0.91057720  1
  O2-  O168  1  0.43080986  0.31966114  0.09868962  1
  O2-  O169  1  0.42968675  0.32237158  0.42551418  1
  O2-  O170  1  0.42839799  0.31816669  0.75386065  1
  O2-  O171  1  0.42725278  0.82214508  0.08855123  1
  O2-  O172  1  0.42831215  0.82005647  0.43185688  1
  O2-  O173  1  0.42452486  0.82297268  0.75675643  1
  O2-  O174  1  0.92916296  0.32096352  0.09968439  1
  O2-  O175  1  0.92782806  0.32642356  0.42265811  1
  O2-  O176  1  0.92899212  0.32539479  0.75311869  1
  O2-  O177  1  0.92812015  0.82077611  0.09750766  1
  O2-  O178  1  0.93038128  0.81566543  0.43406262  1
  O2-  O179  1  0.93091395  0.82129897  0.75551920  1
  O2-  O180  1  0.32004694  0.07513415  0.23494470  1
  O2-  O181  1  0.32203707  0.07498672  0.57890701  1
  O2-  O182  1  0.32330852  0.06891506  0.90905484  1
  O2-  O183  1  0.32171962  0.56567033  0.24249948  1
  O2-  O184  1  0.32023714  0.56971077  0.56670190  1
  O2-  O185  1  0.32366196  0.57259569  0.91290414  1
  O2-  O186  1  0.81913287  0.07634142  0.24171953  1
  O2-  O187  1  0.82096072  0.06754719  0.56895800  1
  O2-  O188  1  0.82048191  0.06974053  0.91014116  1
  O2-  O189  1  0.82304909  0.57107705  0.24513136  1
  O2-  O190  1  0.82000237  0.56721484  0.56682272  1
  O2-  O191  1  0.82011831  0.57285250  0.90212696  1
  O2-  O192  1  0.04104992  0.08455611  0.26426352  1
  O2-  O193  1  0.04024387  0.08138918  0.59623608  1
  O2-  O194  1  0.03773327  0.08297063  0.93055287  1
  O2-  O195  1  0.04727932  0.58036485  0.27098510  1
  O2-  O196  1  0.04473130  0.58080135  0.60011429  1
  O2-  O197  1  0.04873461  0.58421087  0.94217314  1
  O2-  O198  1  0.54594054  0.08769043  0.27605053  1
  O2-  O199  1  0.54053891  0.08563497  0.60510947  1
  O2-  O200  1  0.54308387  0.07849653  0.92928894  1
  O2-  O201  1  0.53849204  0.58048321  0.26484584  1
  O2-  O202  1  0.53834538  0.58250682  0.59964121  1
  O2-  O203  1  0.54346706  0.58451133  0.92969095  1
  O2-  O204  1  0.16659891  0.21445593  0.26578260  1
  O2-  O205  1  0.16587371  0.21205492  0.59459076  1
  O2-  O206  1  0.16998050  0.20414895  0.93323241  1
  O2-  O207  1  0.16876978  0.69506790  0.27082537  1
  O2-  O208  1  0.16843131  0.71039772  0.60118310  1
  O2-  O209  1  0.16926340  0.70165242  0.94308397  1
  O2-  O210  1  0.66421997  0.20788677  0.27652491  1
  O2-  O211  1  0.66379389  0.20366685  0.60384090  1
  O2-  O212  1  0.67004306  0.20346037  0.92947302  1
  O2-  O213  1  0.67073973  0.70323273  0.26638373  1
  O2-  O214  1  0.66837695  0.70833038  0.59855432  1
  O2-  O215  1  0.66450546  0.71664845  0.93072365  1
  O2-  O216  1  0.08711633  0.46010375  0.07315176  1
  O2-  O217  1  0.08507670  0.45101435  0.39644673  1
  O2-  O218  1  0.08328023  0.44629123  0.72351136  1
  O2-  O219  1  0.07950899  0.96181841  0.06565524  1
  O2-  O220  1  0.07920724  0.95934293  0.40314242  1
  O2-  O221  1  0.08690183  0.95639642  0.72719596  1
  O2-  O222  1  0.58383399  0.45439500  0.05997456  1
  O2-  O223  1  0.58123472  0.45823629  0.40181823  1
  O2-  O224  1  0.58195161  0.45242165  0.72999346  1
  O2-  O225  1  0.58462921  0.95329324  0.06039169  1
  O2-  O226  1  0.58442132  0.95706714  0.40082235  1
  O2-  O227  1  0.57885059  0.95642734  0.73693794  1
  O2-  O228  1  0.21380944  0.33214182  0.06726908  1
  O2-  O229  1  0.21094104  0.33886400  0.39874261  1
  O2-  O230  1  0.21115368  0.33520518  0.72743010  1
  O2-  O231  1  0.20506599  0.83371195  0.06998647  1
  O2-  O232  1  0.20243444  0.82692252  0.40046130  1
  O2-  O233  1  0.20901728  0.83954011  0.73080852  1
  O2-  O234  1  0.70166468  0.33241816  0.05932975  1
  O2-  O235  1  0.70850915  0.33450319  0.40551980  1
  O2-  O236  1  0.69777527  0.33187669  0.72993057  1
  O2-  O237  1  0.71201233  0.83997095  0.06259932  1
  O2-  O238  1  0.71374683  0.83220427  0.39827964  1
  O2-  O239  1  0.70738673  0.83007221  0.73691770  1
  O2-  O240  1  0.45715249  0.41143447  0.27095157  1
  O2-  O241  1  0.45695111  0.41154621  0.60164473  1
  O2-  O242  1  0.45662755  0.41847368  0.92890729  1
  O2-  O243  1  0.45452530  0.92339857  0.26669569  1
  O2-  O244  1  0.44845142  0.91998186  0.60745947  1
  O2-  O245  1  0.44984137  0.91451551  0.93577324  1
  O2-  O246  1  0.95190720  0.41800866  0.27124444  1
  O2-  O247  1  0.95394878  0.41390364  0.59814462  1
  O2-  O248  1  0.96086152  0.42402905  0.93605386  1
  O2-  O249  1  0.95914739  0.91541263  0.26545047  1
  O2-  O250  1  0.95513339  0.91345228  0.60333813  1
  O2-  O251  1  0.95933784  0.91570159  0.92840208  1
  O2-  O252  1  0.33783467  0.29344232  0.27254873  1
  O2-  O253  1  0.33870569  0.29086200  0.60003999  1
  O2-  O254  1  0.33302667  0.29227284  0.92764014  1
  O2-  O255  1  0.32962773  0.79358194  0.26535214  1
  O2-  O256  1  0.33453744  0.79557034  0.60396320  1
  O2-  O257  1  0.33033350  0.79645493  0.93921482  1
  O2-  O258  1  0.83166528  0.29949417  0.27265278  1
  O2-  O259  1  0.82987414  0.29971514  0.60443212  1
  O2-  O260  1  0.83132263  0.30096681  0.93115953  1
  O2-  O261  1  0.83646877  0.78729152  0.26356785  1
  O2-  O262  1  0.83483738  0.79352984  0.60586420  1
  O2-  O263  1  0.83470339  0.78815843  0.92881583  1
  O2-  O264  1  0.41685651  0.04444531  0.06094764  1
  O2-  O265  1  0.41911543  0.04644240  0.40397167  1
  O2-  O266  1  0.41127213  0.04770384  0.73328617  1
  O2-  O267  1  0.41920633  0.54380387  0.06285153  1
  O2-  O268  1  0.41018379  0.53682147  0.39653918  1
  O2-  O269  1  0.41514531  0.53625123  0.73458085  1
  O2-  O270  1  0.91009626  0.04047037  0.06266190  1
  O2-  O271  1  0.91573148  0.04545509  0.39150469  1
  O2-  O272  1  0.92116084  0.04159702  0.73566180  1
  O2-  O273  1  0.91683827  0.54555221  0.07212391  1
  O2-  O274  1  0.91580207  0.54561094  0.39740269  1
  O2-  O275  1  0.91854713  0.53848947  0.73332894  1
  O2-  O276  1  0.30204220  0.16657313  0.05860156  1
  O2-  O277  1  0.29100997  0.17030054  0.40313513  1
  O2-  O278  1  0.29095248  0.16588037  0.72967461  1
  O2-  O279  1  0.30062282  0.66479819  0.06651006  1
  O2-  O280  1  0.29706066  0.66247725  0.39451648  1
  O2-  O281  1  0.29288209  0.66859608  0.73614822  1
  O2-  O282  1  0.79608005  0.16650266  0.06034990  1
  O2-  O283  1  0.79957057  0.16661778  0.39630254  1
  O2-  O284  1  0.79576577  0.17021926  0.73436068  1
  O2-  O285  1  0.78560219  0.66882513  0.06809212  1
  O2-  O286  1  0.79732572  0.66529348  0.39708163  1
  O2-  O287  1  0.79114046  0.66495293  0.73425925  1
