# generated using pymatgen
data_Ca2Al2SiO7
_symmetry_space_group_name_H-M   'P 1'
_cell_length_a   15.46404483
_cell_length_b   15.46542122
_cell_length_c   15.28723938
_cell_angle_alpha   90.01295150
_cell_angle_beta   89.99547482
_cell_angle_gamma   90.01074264
_symmetry_Int_Tables_number   1
_chemical_formula_structural   Ca2Al2SiO7
_chemical_formula_sum   'Ca48 Al48 Si24 O168'
_cell_volume   3656.06492382
_cell_formula_units_Z   24
loop_
 _symmetry_equiv_pos_site_id
 _symmetry_equiv_pos_as_xyz
  1  'x, y, z'
loop_
 _atom_type_symbol
 _atom_type_oxidation_number
  Ca2+  2.0
  Al0+  0.0
  Si0+  0.0
  O2-  -2.0
loop_
 _atom_site_type_symbol
 _atom_site_label
 _atom_site_symmetry_multiplicity
 _atom_site_fract_x
 _atom_site_fract_y
 _atom_site_fract_z
 _atom_site_occupancy
  Ca2+  Ca0  1  0.16485864  0.08223515  0.17118080  1
  Ca2+  Ca1  1  0.16900448  0.08321221  0.50135031  1
  Ca2+  Ca2  1  0.15938867  0.07526251  0.83597989  1
  Ca2+  Ca3  1  0.17771908  0.57845853  0.16810885  1
  Ca2+  Ca4  1  0.17552881  0.58801151  0.50069862  1
  Ca2+  Ca5  1  0.17278622  0.57948997  0.84707984  1
  Ca2+  Ca6  1  0.67812851  0.07410643  0.17122080  1
  Ca2+  Ca7  1  0.67171707  0.07680313  0.49700284  1
  Ca2+  Ca8  1  0.67577068  0.07659845  0.84551303  1
  Ca2+  Ca9  1  0.65753796  0.57406434  0.17204996  1
  Ca2+  Ca10  1  0.65564246  0.57514005  0.49804473  1
  Ca2+  Ca11  1  0.66696581  0.57308883  0.83665841  1
  Ca2+  Ca12  1  0.07974557  0.32089609  0.15512407  1
  Ca2+  Ca13  1  0.08471895  0.31941621  0.49110549  1
  Ca2+  Ca14  1  0.08441906  0.32331898  0.83172658  1
  Ca2+  Ca15  1  0.07894196  0.83893636  0.16359582  1
  Ca2+  Ca16  1  0.07339787  0.84373014  0.49900802  1
  Ca2+  Ca17  1  0.08155123  0.83935883  0.82731671  1
  Ca2+  Ca18  1  0.58075592  0.34051621  0.16458473  1
  Ca2+  Ca19  1  0.58159859  0.33561733  0.49156437  1
  Ca2+  Ca20  1  0.58876916  0.33588341  0.83195824  1
  Ca2+  Ca21  1  0.57435899  0.84162419  0.16339558  1
  Ca2+  Ca22  1  0.57458552  0.82900052  0.48519453  1
  Ca2+  Ca23  1  0.57015841  0.84025884  0.83056910  1
  Ca2+  Ca24  1  0.33565744  0.42646948  0.17359738  1
  Ca2+  Ca25  1  0.33963367  0.42233082  0.49726371  1
  Ca2+  Ca26  1  0.32523369  0.42669292  0.84499774  1
  Ca2+  Ca27  1  0.33040188  0.91820139  0.17152184  1
  Ca2+  Ca28  1  0.33443892  0.91943803  0.50379582  1
  Ca2+  Ca29  1  0.32387585  0.91081543  0.83995089  1
  Ca2+  Ca30  1  0.82479226  0.41065866  0.17014971  1
  Ca2+  Ca31  1  0.82029881  0.41576528  0.50347110  1
  Ca2+  Ca32  1  0.82620945  0.41153381  0.84226248  1
  Ca2+  Ca33  1  0.82920741  0.92492999  0.17616819  1
  Ca2+  Ca34  1  0.83532693  0.91436431  0.49840198  1
  Ca2+  Ca35  1  0.83089948  0.92230489  0.84339430  1
  Ca2+  Ca36  1  0.41415831  0.16948248  0.16750553  1
  Ca2+  Ca37  1  0.41524798  0.17345486  0.48754016  1
  Ca2+  Ca38  1  0.42076165  0.16848815  0.83108178  1
  Ca2+  Ca39  1  0.41692107  0.67185569  0.16608444  1
  Ca2+  Ca40  1  0.41921794  0.67716974  0.48992380  1
  Ca2+  Ca41  1  0.41170394  0.67652213  0.83423745  1
  Ca2+  Ca42  1  0.92219117  0.16321768  0.16014052  1
  Ca2+  Ca43  1  0.92832654  0.15891649  0.49365028  1
  Ca2+  Ca44  1  0.92510364  0.16479951  0.83629027  1
  Ca2+  Ca45  1  0.91253727  0.67468920  0.16597132  1
  Ca2+  Ca46  1  0.91761671  0.67827783  0.49396730  1
  Ca2+  Ca47  1  0.91945856  0.67429801  0.82774121  1
  Al0+  Al48  1  0.00091025  0.00071549  0.00279460  1
  Al0+  Al49  1  0.00023063  -0.00076129  0.32842828  1
  Al0+  Al50  1  0.00128061  0.00088771  0.66292238  1
  Al0+  Al51  1  -0.00099589  0.50059328  -0.00000418  1
  Al0+  Al52  1  -0.00069190  0.49799120  0.33482314  1
  Al0+  Al53  1  -0.00069359  0.49965912  0.66510650  1
  Al0+  Al54  1  0.49852074  0.00092331  -0.00359100  1
  Al0+  Al55  1  0.49957577  0.00188179  0.33711286  1
  Al0+  Al56  1  0.50064191  0.00285322  0.66260605  1
  Al0+  Al57  1  0.50093178  0.50289353  0.00351255  1
  Al0+  Al58  1  0.49774013  0.50092216  0.33491670  1
  Al0+  Al59  1  0.49957791  0.50037433  0.67369890  1
  Al0+  Al60  1  0.25000797  0.24939228  -0.00501456  1
  Al0+  Al61  1  0.25031152  0.24863037  0.32804317  1
  Al0+  Al62  1  0.25187528  0.25080724  0.66371474  1
  Al0+  Al63  1  0.24988385  0.75128046  0.00488816  1
  Al0+  Al64  1  0.24874324  0.74841925  0.33518595  1
  Al0+  Al65  1  0.25054154  0.75129175  0.66646361  1
  Al0+  Al66  1  0.75018269  0.24944174  0.00409197  1
  Al0+  Al67  1  0.75112876  0.24829890  0.34387440  1
  Al0+  Al68  1  0.75026268  0.24899590  0.67033045  1
  Al0+  Al69  1  0.74611244  0.74768355  -0.00022581  1
  Al0+  Al70  1  0.75008740  0.74721676  0.32827422  1
  Al0+  Al71  1  0.74890181  0.74790110  0.66396719  1
  Al0+  Al72  1  0.07011873  0.17974688  0.31804291  1
  Al0+  Al73  1  0.31991978  0.07128258  0.34544796  1
  Al0+  Al74  1  0.92870430  0.82017247  0.65488669  1
  Al0+  Al75  1  0.67963408  0.43053554  0.34753538  1
  Al0+  Al76  1  0.42764177  0.82400326  0.31725095  1
  Al0+  Al77  1  0.67564467  0.92671762  0.01288265  1
  Al0+  Al78  1  0.42866365  0.82190258  0.65219445  1
  Al0+  Al79  1  0.92737590  0.32174807  0.98558625  1
  Al0+  Al80  1  0.68037884  0.42961323  0.68199906  1
  Al0+  Al81  1  0.17665863  0.42666021  0.01417988  1
  Al0+  Al82  1  0.67909512  0.92636535  0.34870325  1
  Al0+  Al83  1  0.31917501  0.57065952  0.34961945  1
  Al0+  Al84  1  0.82347464  0.06900938  0.35123513  1
  Al0+  Al85  1  0.07272093  0.17732695  0.98225143  1
  Al0+  Al86  1  0.42899699  0.82151957  0.98567785  1
  Al0+  Al87  1  0.57022507  0.67852388  0.31767143  1
  Al0+  Al88  1  0.82107322  0.06890743  0.01474894  1
  Al0+  Al89  1  0.18116099  0.93176504  0.67905460  1
  Al0+  Al90  1  0.68135094  0.42988546  0.01467751  1
  Al0+  Al91  1  0.43134080  0.32030346  0.31950228  1
  Al0+  Al92  1  0.32055197  0.57127355  0.01639762  1
  Al0+  Al93  1  0.17974692  0.93059101  0.01367765  1
  Al0+  Al94  1  0.07056841  0.18120951  0.65083644  1
  Al0+  Al95  1  0.93083759  0.81872841  0.31781464  1
  Si0+  Si96  1  0.31891797  0.57084837  0.68277858  1
  Si0+  Si97  1  0.07268481  0.67360287  0.31586369  1
  Si0+  Si98  1  0.67713443  0.92752626  0.68031900  1
  Si0+  Si99  1  0.82380239  0.57308239  0.68361059  1
  Si0+  Si100  1  0.82357887  0.57413917  0.01645473  1
  Si0+  Si101  1  0.57355115  0.17982309  0.65121785  1
  Si0+  Si102  1  0.17792115  0.42667331  0.34992908  1
  Si0+  Si103  1  0.57487821  0.17830163  0.31686345  1
  Si0+  Si104  1  0.32436517  0.07486131  0.68377760  1
  Si0+  Si105  1  0.17810923  0.92752089  0.34999674  1
  Si0+  Si106  1  0.92598817  0.32276983  0.64893642  1
  Si0+  Si107  1  0.17839806  0.42725282  0.67981337  1
  Si0+  Si108  1  0.82119550  0.06824499  0.68218943  1
  Si0+  Si109  1  0.56987427  0.18055482  0.98566212  1
  Si0+  Si110  1  0.32371210  0.07355703  0.01424652  1
  Si0+  Si111  1  0.07310937  0.67590865  0.65130631  1
  Si0+  Si112  1  0.92619508  0.32225833  0.31901896  1
  Si0+  Si113  1  0.43127492  0.32156622  0.65330787  1
  Si0+  Si114  1  0.56976473  0.67700477  0.65101908  1
  Si0+  Si115  1  0.42997973  0.32438450  0.98425520  1
  Si0+  Si116  1  0.92765692  0.82065491  0.98622110  1
  Si0+  Si117  1  0.82535161  0.57218056  0.35116789  1
  Si0+  Si118  1  0.57165192  0.67585347  0.97974119  1
  Si0+  Si119  1  0.07048519  0.68074969  0.98674182  1
  O2-  O120  1  0.25235657  0.00792009  0.05755936  1
  O2-  O121  1  0.25033449  -0.00728645  0.39377531  1
  O2-  O122  1  0.25792656  0.00411797  0.72733571  1
  O2-  O123  1  0.25227036  0.49439470  0.06430058  1
  O2-  O124  1  0.24295546  0.49738940  0.39738102  1
  O2-  O125  1  0.24412675  0.50273291  0.72306873  1
  O2-  O126  1  0.75260898  -0.00739473  0.06249147  1
  O2-  O127  1  0.75242702  -0.00420370  0.40154853  1
  O2-  O128  1  0.75022763  -0.00378642  0.72346405  1
  O2-  O129  1  0.75739482  0.50306844  0.06004842  1
  O2-  O130  1  0.75478847  0.50475319  0.39486268  1
  O2-  O131  1  0.75811215  0.50155481  0.72793457  1
  O2-  O132  1  -0.00549172  0.25446919  0.27443480  1
  O2-  O133  1  -0.00278974  0.25754461  0.60404552  1
  O2-  O134  1  0.00202530  0.25263492  0.93430131  1
  O2-  O135  1  0.00464354  0.74268105  0.27156388  1
  O2-  O136  1  0.00304986  0.74394861  0.60872897  1
  O2-  O137  1  -0.00175467  0.74983350  0.94278164  1
  O2-  O138  1  0.50746220  0.24778155  0.27173050  1
  O2-  O139  1  0.50178565  0.25072090  0.61040592  1
  O2-  O140  1  0.50026510  0.25279915  0.94140461  1
  O2-  O141  1  0.50313377  0.75520569  0.26782530  1
  O2-  O142  1  0.50623428  0.74998925  0.60693608  1
  O2-  O143  1  0.50566842  0.74853314  0.93762894  1
  O2-  O144  1  0.07131325  0.17652226  0.09529726  1
  O2-  O145  1  0.07052507  0.18091537  0.43183246  1
  O2-  O146  1  0.06963090  0.18114211  0.76337509  1
  O2-  O147  1  0.06979025  0.68185509  0.09149447  1
  O2-  O148  1  0.07094976  0.67242109  0.42188567  1
  O2-  O149  1  0.07307354  0.67434175  0.75702218  1
  O2-  O150  1  0.56786723  0.18023006  0.09026059  1
  O2-  O151  1  0.57303901  0.18070171  0.42323344  1
  O2-  O152  1  0.57335752  0.17892525  0.75658081  1
  O2-  O153  1  0.57095757  0.67086274  0.08435596  1
  O2-  O154  1  0.56541456  0.67729887  0.43213551  1
  O2-  O155  1  0.56829678  0.67532822  0.75654046  1
  O2-  O156  1  0.17946018  0.42835527  0.24493290  1
  O2-  O157  1  0.18151963  0.42645245  0.57486986  1
  O2-  O158  1  0.17959198  0.43088946  0.89929076  1
  O2-  O159  1  0.17772413  0.92903209  0.24439006  1
  O2-  O160  1  0.18058109  0.93382655  0.56636597  1
  O2-  O161  1  0.17959480  0.92926045  0.90002396  1
  O2-  O162  1  0.68079043  0.43043994  0.23476090  1
  O2-  O163  1  0.67781928  0.43131061  0.56928348  1
  O2-  O164  1  0.68100644  0.43173080  0.90108833  1
  O2-  O165  1  0.67980335  0.93062914  0.23548392  1
  O2-  O166  1  0.67651034  0.92934800  0.57578671  1
  O2-  O167  1  0.67697616  0.93090357  0.89798773  1
  O2-  O168  1  0.43086552  0.32450159  0.08895677  1
  O2-  O169  1  0.43245453  0.31970189  0.43355341  1
  O2-  O170  1  0.43120951  0.32088395  0.75853569  1
  O2-  O171  1  0.42874426  0.82265420  0.09782974  1
  O2-  O172  1  0.42753332  0.82137334  0.43152142  1
  O2-  O173  1  0.42762374  0.81982098  0.76551412  1
  O2-  O174  1  0.92632371  0.31936545  0.09898892  1
  O2-  O175  1  0.92875470  0.32354179  0.42508851  1
  O2-  O176  1  0.92533633  0.32206998  0.75413412  1
  O2-  O177  1  0.92880124  0.81868757  0.09094055  1
  O2-  O178  1  0.93360558  0.81840217  0.43147148  1
  O2-  O179  1  0.92964266  0.81937133  0.76843934  1
  O2-  O180  1  0.31700257  0.07370213  0.23259889  1
  O2-  O181  1  0.32422855  0.07763652  0.57844771  1
  O2-  O182  1  0.32720932  0.07216648  0.90828610  1
  O2-  O183  1  0.31858036  0.56945550  0.23724201  1
  O2-  O184  1  0.32079467  0.56935047  0.57786242  1
  O2-  O185  1  0.31766522  0.57119656  0.90154968  1
  O2-  O186  1  0.82268109  0.06919833  0.23815839  1
  O2-  O187  1  0.82038004  0.06862424  0.57746974  1
  O2-  O188  1  0.81964375  0.06756005  0.89991846  1
  O2-  O189  1  0.82994345  0.56944266  0.24599422  1
  O2-  O190  1  0.82474042  0.57384920  0.57848670  1
  O2-  O191  1  0.82233136  0.57685579  0.91048800  1
  O2-  O192  1  0.04070086  0.08350161  0.26450844  1
  O2-  O193  1  0.03794586  0.08583075  0.59651465  1
  O2-  O194  1  0.03879784  0.07944068  0.92928139  1
  O2-  O195  1  0.04748613  0.57955185  0.27042142  1
  O2-  O196  1  0.05039277  0.58195192  0.60351570  1
  O2-  O197  1  0.04497649  0.58888165  0.93744854  1
  O2-  O198  1  0.54725993  0.08571575  0.27163166  1
  O2-  O199  1  0.54736629  0.08877494  0.60188386  1
  O2-  O200  1  0.54027282  0.09099905  0.93376139  1
  O2-  O201  1  0.53492462  0.58235591  0.26509720  1
  O2-  O202  1  0.53764272  0.58443634  0.60589770  1
  O2-  O203  1  0.54110189  0.58407961  0.93086321  1
  O2-  O204  1  0.16525312  0.21117318  0.26324280  1
  O2-  O205  1  0.16871201  0.21135349  0.59836011  1
  O2-  O206  1  0.17216119  0.20199250  0.92734911  1
  O2-  O207  1  0.16625005  0.69899506  0.27108719  1
  O2-  O208  1  0.16586870  0.70311553  0.60484171  1
  O2-  O209  1  0.16139408  0.71049614  0.93850392  1
  O2-  O210  1  0.66986635  0.20339895  0.27475188  1
  O2-  O211  1  0.66494266  0.20852652  0.60384900  1
  O2-  O212  1  0.66140178  0.20849610  0.93767687  1
  O2-  O213  1  0.67174279  0.69367944  0.26687631  1
  O2-  O214  1  0.66542524  0.69478611  0.60627230  1
  O2-  O215  1  0.66665316  0.69663065  0.93291926  1
  O2-  O216  1  0.07928505  0.45712968  0.06651667  1
  O2-  O217  1  0.08280892  0.44791040  0.39601612  1
  O2-  O218  1  0.08368902  0.44866686  0.72438003  1
  O2-  O219  1  0.08343802  0.95856112  0.06830917  1
  O2-  O220  1  0.08622288  0.95896396  0.39557700  1
  O2-  O221  1  0.08416955  0.96413773  0.73258430  1
  O2-  O222  1  0.58485927  0.46166254  0.06711495  1
  O2-  O223  1  0.58346886  0.46277299  0.40195816  1
  O2-  O224  1  0.58453972  0.46188604  0.73793588  1
  O2-  O225  1  0.57947334  0.96237199  0.06407110  1
  O2-  O226  1  0.58184128  0.95818116  0.40276134  1
  O2-  O227  1  0.58614510  0.95990976  0.72765948  1
  O2-  O228  1  0.20149262  0.32577577  0.06177960  1
  O2-  O229  1  0.20873548  0.33457198  0.39572926  1
  O2-  O230  1  0.21190429  0.33779676  0.72848896  1
  O2-  O231  1  0.21008572  0.83571683  0.06951054  1
  O2-  O232  1  0.19607191  0.83200672  0.39501633  1
  O2-  O233  1  0.20792875  0.83310624  0.73263575  1
  O2-  O234  1  0.70723846  0.33289813  0.06861622  1
  O2-  O235  1  0.70833373  0.33471013  0.40496574  1
  O2-  O236  1  0.70835450  0.33157227  0.73558998  1
  O2-  O237  1  0.69406402  0.82503613  0.06099613  1
  O2-  O238  1  0.70556441  0.82575069  0.39829048  1
  O2-  O239  1  0.70031153  0.83346822  0.72520769  1
  O2-  O240  1  0.46148412  0.41642428  0.26627612  1
  O2-  O241  1  0.45986221  0.41412290  0.60776542  1
  O2-  O242  1  0.45934261  0.41582577  0.93650005  1
  O2-  O243  1  0.45276461  0.92472602  0.26780393  1
  O2-  O244  1  0.45547307  0.92077078  0.60082387  1
  O2-  O245  1  0.45807172  0.91824264  0.92871719  1
  O2-  O246  1  0.94872518  0.41661243  0.27316335  1
  O2-  O247  1  0.94641250  0.41844683  0.60418147  1
  O2-  O248  1  0.95011865  0.42278596  0.93327679  1
  O2-  O249  1  0.96374845  0.91343728  0.26271195  1
  O2-  O250  1  0.96199352  0.91483786  0.59932113  1
  O2-  O251  1  0.95677227  0.91202951  0.93943848  1
  O2-  O252  1  0.33614095  0.28876864  0.26449654  1
  O2-  O253  1  0.33997777  0.29568942  0.60416020  1
  O2-  O254  1  0.33865447  0.29759679  0.93477726  1
  O2-  O255  1  0.32827164  0.79264204  0.26842550  1
  O2-  O256  1  0.33268176  0.78920180  0.59861844  1
  O2-  O257  1  0.33225217  0.78631196  0.93273048  1
  O2-  O258  1  0.83148132  0.29605436  0.27665249  1
  O2-  O259  1  0.83261213  0.29360638  0.60395148  1
  O2-  O260  1  0.82921821  0.28955040  0.93212563  1
  O2-  O261  1  0.83478777  0.78889978  0.26308078  1
  O2-  O262  1  0.83200766  0.79038947  0.59998644  1
  O2-  O263  1  0.83493113  0.79370778  0.93908072  1
  O2-  O264  1  0.41567726  0.04619646  0.06154934  1
  O2-  O265  1  0.41750265  0.04857761  0.40179745  1
  O2-  O266  1  0.41994777  0.05255792  0.72812999  1
  O2-  O267  1  0.41916210  0.54514005  0.06749739  1
  O2-  O268  1  0.41330961  0.53592478  0.40561284  1
  O2-  O269  1  0.40833630  0.53934144  0.73248350  1
  O2-  O270  1  0.91899713  0.04276689  0.06710792  1
  O2-  O271  1  0.92190159  0.03688832  0.40249189  1
  O2-  O272  1  0.91281956  0.03985514  0.72869685  1
  O2-  O273  1  0.91793753  0.55386836  0.06215326  1
  O2-  O274  1  0.91803531  0.54597518  0.40065952  1
  O2-  O275  1  0.91924133  0.55169137  0.72910906  1
  O2-  O276  1  0.30301337  0.16916723  0.05739484  1
  O2-  O277  1  0.28615699  0.16729013  0.40078883  1
  O2-  O278  1  0.29797576  0.16865213  0.72992311  1
  O2-  O279  1  0.28727867  0.66668952  0.06986069  1
  O2-  O280  1  0.28729166  0.66657658  0.40574542  1
  O2-  O281  1  0.29267535  0.66310382  0.72963954  1
  O2-  O282  1  0.78898265  0.16498724  0.06790872  1
  O2-  O283  1  0.79579109  0.16616396  0.40788693  1
  O2-  O284  1  0.79218995  0.15975134  0.72959377  1
  O2-  O285  1  0.79543835  0.66643002  0.06358737  1
  O2-  O286  1  0.80086297  0.66624524  0.39583919  1
  O2-  O287  1  0.79469539  0.66544450  0.73152394  1
