# generated using pymatgen
data_Ca2Al2SiO7
_symmetry_space_group_name_H-M   'P 1'
_cell_length_a   15.46221607
_cell_length_b   15.46520886
_cell_length_c   15.28772751
_cell_angle_alpha   89.99399257
_cell_angle_beta   90.00974442
_cell_angle_gamma   89.99018001
_symmetry_Int_Tables_number   1
_chemical_formula_structural   Ca2Al2SiO7
_chemical_formula_sum   'Ca48 Al48 Si24 O168'
_cell_volume   3655.69913034
_cell_formula_units_Z   24
loop_
 _symmetry_equiv_pos_site_id
 _symmetry_equiv_pos_as_xyz
  1  'x, y, z'
loop_
 _atom_type_symbol
 _atom_type_oxidation_number
  Ca2+  2.0
  Al0+  0.0
  Si0+  0.0
  O2-  -2.0
loop_
 _atom_site_type_symbol
 _atom_site_label
 _atom_site_symmetry_multiplicity
 _atom_site_fract_x
 _atom_site_fract_y
 _atom_site_fract_z
 _atom_site_occupancy
  Ca2+  Ca0  1  0.16363658  0.08487078  0.17436060  1
  Ca2+  Ca1  1  0.16811975  0.07958092  0.50969810  1
  Ca2+  Ca2  1  0.17122720  0.08174469  0.83367983  1
  Ca2+  Ca3  1  0.16703577  0.58421521  0.16648754  1
  Ca2+  Ca4  1  0.17104751  0.58603428  0.50792015  1
  Ca2+  Ca5  1  0.17538462  0.58399023  0.83945152  1
  Ca2+  Ca6  1  0.66188447  0.07797068  0.17050878  1
  Ca2+  Ca7  1  0.66841464  0.09376285  0.50678580  1
  Ca2+  Ca8  1  0.67139915  0.08626215  0.83510616  1
  Ca2+  Ca9  1  0.66891629  0.57548293  0.17665978  1
  Ca2+  Ca10  1  0.66999358  0.57273899  0.50056992  1
  Ca2+  Ca11  1  0.66506651  0.56924194  0.84107648  1
  Ca2+  Ca12  1  0.07086763  0.33974414  0.16137644  1
  Ca2+  Ca13  1  0.06926945  0.32996755  0.49185097  1
  Ca2+  Ca14  1  0.07056907  0.34458108  0.83059466  1
  Ca2+  Ca15  1  0.08028761  0.82032638  0.16235269  1
  Ca2+  Ca16  1  0.08989695  0.82434534  0.49850694  1
  Ca2+  Ca17  1  0.09231232  0.82310503  0.82779720  1
  Ca2+  Ca18  1  0.58424489  0.33831742  0.16653517  1
  Ca2+  Ca19  1  0.57692712  0.33130397  0.49822505  1
  Ca2+  Ca20  1  0.58050332  0.33446803  0.82198416  1
  Ca2+  Ca21  1  0.58919313  0.81983263  0.15981274  1
  Ca2+  Ca22  1  0.58072390  0.82580093  0.49292216  1
  Ca2+  Ca23  1  0.58871199  0.82670465  0.83513946  1
  Ca2+  Ca24  1  0.32891056  0.41862162  0.16791138  1
  Ca2+  Ca25  1  0.33610063  0.41775311  0.50655962  1
  Ca2+  Ca26  1  0.33114424  0.42600892  0.83912046  1
  Ca2+  Ca27  1  0.33300992  0.91900406  0.16935368  1
  Ca2+  Ca28  1  0.32750161  0.92638294  0.51105049  1
  Ca2+  Ca29  1  0.33262119  0.92261505  0.82980898  1
  Ca2+  Ca30  1  0.82534230  0.41543061  0.17354423  1
  Ca2+  Ca31  1  0.82393307  0.40668715  0.50135303  1
  Ca2+  Ca32  1  0.82378658  0.40740016  0.83638987  1
  Ca2+  Ca33  1  0.82834689  0.91516322  0.16866894  1
  Ca2+  Ca34  1  0.83117975  0.92638927  0.50739694  1
  Ca2+  Ca35  1  0.82965201  0.92571279  0.83665410  1
  Ca2+  Ca36  1  0.42016779  0.17634322  0.16908981  1
  Ca2+  Ca37  1  0.42142798  0.17541454  0.49433854  1
  Ca2+  Ca38  1  0.42353944  0.17506575  0.82071528  1
  Ca2+  Ca39  1  0.42957338  0.65875622  0.16240985  1
  Ca2+  Ca40  1  0.42154326  0.66355129  0.49692768  1
  Ca2+  Ca41  1  0.41895008  0.65727298  0.83080822  1
  Ca2+  Ca42  1  0.91811787  0.17976454  0.16667827  1
  Ca2+  Ca43  1  0.91526634  0.17514833  0.49718040  1
  Ca2+  Ca44  1  0.91230783  0.17710918  0.82682988  1
  Ca2+  Ca45  1  0.92652078  0.65279079  0.16477246  1
  Ca2+  Ca46  1  0.92742949  0.66245492  0.49377177  1
  Ca2+  Ca47  1  0.93182989  0.66311499  0.82858927  1
  Al0+  Al48  1  0.00107956  0.00165889  0.00140424  1
  Al0+  Al49  1  -0.00113571  -0.00246962  0.33120726  1
  Al0+  Al50  1  -0.00271532  -0.00192892  0.67777174  1
  Al0+  Al51  1  0.00038630  0.49975587  -0.00813795  1
  Al0+  Al52  1  0.00101963  0.50060264  0.32941538  1
  Al0+  Al53  1  -0.00096856  0.50138074  0.65554345  1
  Al0+  Al54  1  0.50068156  -0.00054346  0.00422676  1
  Al0+  Al55  1  0.49748281  0.00086027  0.33168094  1
  Al0+  Al56  1  0.50058655  -0.00299924  0.66785999  1
  Al0+  Al57  1  0.50016874  0.49995206  0.00303586  1
  Al0+  Al58  1  0.49914451  0.50067216  0.33060228  1
  Al0+  Al59  1  0.50067325  0.49901289  0.66968673  1
  Al0+  Al60  1  0.25031035  0.25020552  0.00376730  1
  Al0+  Al61  1  0.25134635  0.24966917  0.32816587  1
  Al0+  Al62  1  0.24795087  0.25099965  0.66924942  1
  Al0+  Al63  1  0.25254000  0.75346871  0.00139941  1
  Al0+  Al64  1  0.24881815  0.75099953  0.32926271  1
  Al0+  Al65  1  0.25226230  0.74909864  0.66969839  1
  Al0+  Al66  1  0.75120604  0.24927329  0.00243737  1
  Al0+  Al67  1  0.74878769  0.24737911  0.32920041  1
  Al0+  Al68  1  0.74939257  0.24931572  0.66834108  1
  Al0+  Al69  1  0.75065462  0.75155745  -0.00261589  1
  Al0+  Al70  1  0.75032274  0.75000268  0.33595695  1
  Al0+  Al71  1  0.75303400  0.74856987  0.66608994  1
  Al0+  Al72  1  0.57094412  0.67802899  0.98494194  1
  Al0+  Al73  1  0.67991576  0.42835980  0.01407663  1
  Al0+  Al74  1  0.81813656  0.07072083  0.68026673  1
  Al0+  Al75  1  0.17923526  0.92877201  0.68220256  1
  Al0+  Al76  1  0.17771029  0.42991791  0.01490976  1
  Al0+  Al77  1  0.32101813  0.57330493  0.01751214  1
  Al0+  Al78  1  0.92931307  0.31935722  0.98417195  1
  Al0+  Al79  1  0.67802830  0.42712451  0.35057599  1
  Al0+  Al80  1  0.32066052  0.56845926  0.67844849  1
  Al0+  Al81  1  0.42869763  0.32335544  0.31623650  1
  Al0+  Al82  1  0.07165295  0.67942593  0.31852925  1
  Al0+  Al83  1  0.68019729  0.92956668  0.01417252  1
  Al0+  Al84  1  0.68209068  0.43103262  0.67993958  1
  Al0+  Al85  1  0.07149283  0.68125521  0.98435726  1
  Al0+  Al86  1  0.32252369  0.07408592  0.68119669  1
  Al0+  Al87  1  0.57126437  0.68070654  0.32148445  1
  Al0+  Al88  1  0.57074375  0.17775166  0.31674007  1
  Al0+  Al89  1  0.57029848  0.17762409  0.65452296  1
  Al0+  Al90  1  0.42642747  0.32275435  0.65404903  1
  Al0+  Al91  1  0.07222857  0.68184351  0.65192722  1
  Al0+  Al92  1  0.92888937  0.31981367  0.65197936  1
  Al0+  Al93  1  0.07089312  0.17688612  0.32108203  1
  Al0+  Al94  1  0.82335582  0.57152055  0.34912476  1
  Al0+  Al95  1  0.92855359  0.32102174  0.31717220  1
  Si0+  Si96  1  0.82031110  0.06823693  0.34745960  1
  Si0+  Si97  1  0.67665651  0.92853104  0.34877924  1
  Si0+  Si98  1  0.82293373  0.07226475  0.02019297  1
  Si0+  Si99  1  0.17952565  0.42790921  0.34800994  1
  Si0+  Si100  1  0.82456751  0.57372194  0.68370732  1
  Si0+  Si101  1  0.17351052  0.42822452  0.67966558  1
  Si0+  Si102  1  0.92713858  0.82335632  0.65022569  1
  Si0+  Si103  1  0.42964517  0.82481439  0.98175727  1
  Si0+  Si104  1  0.56949800  0.17789599  0.98584194  1
  Si0+  Si105  1  0.32140910  0.07134667  0.01746146  1
  Si0+  Si106  1  0.17865581  0.93040639  0.01786800  1
  Si0+  Si107  1  0.42756792  0.82228954  0.31697534  1
  Si0+  Si108  1  0.07102188  0.17470861  0.65411447  1
  Si0+  Si109  1  0.82211181  0.57254628  0.01254969  1
  Si0+  Si110  1  0.67690904  0.92261116  0.68269936  1
  Si0+  Si111  1  0.43003170  0.81967205  0.65207186  1
  Si0+  Si112  1  0.17887017  0.92885607  0.34731601  1
  Si0+  Si113  1  0.92842968  0.82567774  0.98160844  1
  Si0+  Si114  1  0.07426239  0.17702799  0.98196500  1
  Si0+  Si115  1  0.31912692  0.57237902  0.34810202  1
  Si0+  Si116  1  0.57277856  0.67772573  0.65259616  1
  Si0+  Si117  1  0.92751319  0.82204806  0.31723342  1
  Si0+  Si118  1  0.42869512  0.32046940  0.98464908  1
  Si0+  Si119  1  0.32032919  0.07156119  0.34858213  1
  O2-  O120  1  0.24734068  0.00336274  0.06052839  1
  O2-  O121  1  0.24647908  0.00271971  0.38957278  1
  O2-  O122  1  0.24814267  0.00430989  0.73210618  1
  O2-  O123  1  0.24765268  0.50275346  0.06760217  1
  O2-  O124  1  0.24941492  0.50031847  0.39076713  1
  O2-  O125  1  0.24657689  0.49256887  0.72329298  1
  O2-  O126  1  0.75541490  0.00201703  0.06376354  1
  O2-  O127  1  0.74525942  0.00143670  0.39087020  1
  O2-  O128  1  0.74220398  -0.00447479  0.72476129  1
  O2-  O129  1  0.75229981  0.50628603  0.05826758  1
  O2-  O130  1  0.75348895  0.49722113  0.39936286  1
  O2-  O131  1  0.75628729  0.50553056  0.72827265  1
  O2-  O132  1  0.00389124  0.25134676  0.26829402  1
  O2-  O133  1  0.00613117  0.24573238  0.60840330  1
  O2-  O134  1  0.00646274  0.24598771  0.93790911  1
  O2-  O135  1  -0.00880613  0.74882979  0.27309805  1
  O2-  O136  1  -0.00279103  0.75676210  0.60543759  1
  O2-  O137  1  -0.00283214  0.75704868  0.93785462  1
  O2-  O138  1  0.50445973  0.25459292  0.26613706  1
  O2-  O139  1  0.49364918  0.24522888  0.60554221  1
  O2-  O140  1  0.50187581  0.25133852  0.94306705  1
  O2-  O141  1  0.49757842  0.75568983  0.27296765  1
  O2-  O142  1  0.50394491  0.75137487  0.61057219  1
  O2-  O143  1  0.49441744  0.75196856  0.93815740  1
  O2-  O144  1  0.07248963  0.17430345  0.08741725  1
  O2-  O145  1  0.06882305  0.17495896  0.43480399  1
  O2-  O146  1  0.06911098  0.17463172  0.75973602  1
  O2-  O147  1  0.06937995  0.68299251  0.09756665  1
  O2-  O148  1  0.07754192  0.68461308  0.43124273  1
  O2-  O149  1  0.07253787  0.68251704  0.76497548  1
  O2-  O150  1  0.56614379  0.17603082  0.09070384  1
  O2-  O151  1  0.56605320  0.17234387  0.42968251  1
  O2-  O152  1  0.57095998  0.18013948  0.76879570  1
  O2-  O153  1  0.57145817  0.68056072  0.09800698  1
  O2-  O154  1  0.56827645  0.68274563  0.43508923  1
  O2-  O155  1  0.57214169  0.67862914  0.75762687  1
  O2-  O156  1  0.18017229  0.42920997  0.24311563  1
  O2-  O157  1  0.17237767  0.43064211  0.57380770  1
  O2-  O158  1  0.17966022  0.43018173  0.90109175  1
  O2-  O159  1  0.18107237  0.92851777  0.24206710  1
  O2-  O160  1  0.18189730  0.92882230  0.56794672  1
  O2-  O161  1  0.17940155  0.93061679  0.91317678  1
  O2-  O162  1  0.67899923  0.43053597  0.23673905  1
  O2-  O163  1  0.68021005  0.43174142  0.56735429  1
  O2-  O164  1  0.67965943  0.42663852  0.90074759  1
  O2-  O165  1  0.67846483  0.92786841  0.24373085  1
  O2-  O166  1  0.67888548  0.91779442  0.57705788  1
  O2-  O167  1  0.68072670  0.93242942  0.90112003  1
  O2-  O168  1  0.42757170  0.31811414  0.08960571  1
  O2-  O169  1  0.42500727  0.32059722  0.42955586  1
  O2-  O170  1  0.43031394  0.32472091  0.76809406  1
  O2-  O171  1  0.43137619  0.82862967  0.08740866  1
  O2-  O172  1  0.42705711  0.82222169  0.42282092  1
  O2-  O173  1  0.42938683  0.82034385  0.75696600  1
  O2-  O174  1  0.92867202  0.31789198  0.09688479  1
  O2-  O175  1  0.92851813  0.31692080  0.43082246  1
  O2-  O176  1  0.92894832  0.31913537  0.76513186  1
  O2-  O177  1  0.93029048  0.82797050  0.08735894  1
  O2-  O178  1  0.93102901  0.82717142  0.42253880  1
  O2-  O179  1  0.92445289  0.82120066  0.75556421  1
  O2-  O180  1  0.32141722  0.06801125  0.24313701  1
  O2-  O181  1  0.32178420  0.07011806  0.56735388  1
  O2-  O182  1  0.32207144  0.07010605  0.91268476  1
  O2-  O183  1  0.31732255  0.57476680  0.24339446  1
  O2-  O184  1  0.32043980  0.57090106  0.56485611  1
  O2-  O185  1  0.32075112  0.57056053  0.90377214  1
  O2-  O186  1  0.82220429  0.06365130  0.24252556  1
  O2-  O187  1  0.81866804  0.06895676  0.56678547  1
  O2-  O188  1  0.82150508  0.07249957  0.91459193  1
  O2-  O189  1  0.82118737  0.57251881  0.23510346  1
  O2-  O190  1  0.82236346  0.57713607  0.57853091  1
  O2-  O191  1  0.82051740  0.57144846  0.90678649  1
  O2-  O192  1  0.04063240  0.07907186  0.26621533  1
  O2-  O193  1  0.04309646  0.08043692  0.61061739  1
  O2-  O194  1  0.04873202  0.08271642  0.93654257  1
  O2-  O195  1  0.04618024  0.58246720  0.26372497  1
  O2-  O196  1  0.04193385  0.58711521  0.59448963  1
  O2-  O197  1  0.04122676  0.58596001  0.92830002  1
  O2-  O198  1  0.53636283  0.08047939  0.26246686  1
  O2-  O199  1  0.55156762  0.07512604  0.60504530  1
  O2-  O200  1  0.53906921  0.08666017  0.93898188  1
  O2-  O201  1  0.53919001  0.58598242  0.26641091  1
  O2-  O202  1  0.54053781  0.58817817  0.60487081  1
  O2-  O203  1  0.53917940  0.58118711  0.93160867  1
  O2-  O204  1  0.17047091  0.19888208  0.26849956  1
  O2-  O205  1  0.16641558  0.19483315  0.60978813  1
  O2-  O206  1  0.16968259  0.20008159  0.93855444  1
  O2-  O207  1  0.16510441  0.71673302  0.26181635  1
  O2-  O208  1  0.16922113  0.71447294  0.59902631  1
  O2-  O209  1  0.16928973  0.71499911  0.93409929  1
  O2-  O210  1  0.67082857  0.19641029  0.26419156  1
  O2-  O211  1  0.66641516  0.21044595  0.60098801  1
  O2-  O212  1  0.66399235  0.20133743  0.94275798  1
  O2-  O213  1  0.66761972  0.71244963  0.26787428  1
  O2-  O214  1  0.66549009  0.70377113  0.60603293  1
  O2-  O215  1  0.66692615  0.71172305  0.93063115  1
  O2-  O216  1  0.07801287  0.45925047  0.06475359  1
  O2-  O217  1  0.08706659  0.45450705  0.39406733  1
  O2-  O218  1  0.08143421  0.46032981  0.72522354  1
  O2-  O219  1  0.08587482  0.95586329  0.06522933  1
  O2-  O220  1  0.08567486  0.95236511  0.39371353  1
  O2-  O221  1  0.08046135  0.94973701  0.73728386  1
  O2-  O222  1  0.58312783  0.45716905  0.06730377  1
  O2-  O223  1  0.57896267  0.45970112  0.40059718  1
  O2-  O224  1  0.58652417  0.46328196  0.73519637  1
  O2-  O225  1  0.58425411  0.96043521  0.07001973  1
  O2-  O226  1  0.58278006  0.95310862  0.39393684  1
  O2-  O227  1  0.58209152  0.94167232  0.72805434  1
  O2-  O228  1  0.20575941  0.33092172  0.06820922  1
  O2-  O229  1  0.20813723  0.33562275  0.39411084  1
  O2-  O230  1  0.19015314  0.33306185  0.72562744  1
  O2-  O231  1  0.20939429  0.84044129  0.06700738  1
  O2-  O232  1  0.21091562  0.83841706  0.39519697  1
  O2-  O233  1  0.21607948  0.83377170  0.73643372  1
  O2-  O234  1  0.71152293  0.33213709  0.06823782  1
  O2-  O235  1  0.70443910  0.32571138  0.39907522  1
  O2-  O236  1  0.71279823  0.33502050  0.73454204  1
  O2-  O237  1  0.71163394  0.83267666  0.06819577  1
  O2-  O238  1  0.70553243  0.83838239  0.39851387  1
  O2-  O239  1  0.70787192  0.83127743  0.73140687  1
  O2-  O240  1  0.45208897  0.42243082  0.26328730  1
  O2-  O241  1  0.46062092  0.41913894  0.59978557  1
  O2-  O242  1  0.45502285  0.41315571  0.93959095  1
  O2-  O243  1  0.45055497  0.91596310  0.27045503  1
  O2-  O244  1  0.45505190  0.91139812  0.60252669  1
  O2-  O245  1  0.46056912  0.91675462  0.93445366  1
  O2-  O246  1  0.95605959  0.41935134  0.26466403  1
  O2-  O247  1  0.95624886  0.41564616  0.59526612  1
  O2-  O248  1  0.95766536  0.41542225  0.92790639  1
  O2-  O249  1  0.95770319  0.91205773  0.26612572  1
  O2-  O250  1  0.95100148  0.91854897  0.60663078  1
  O2-  O251  1  0.95460625  0.91991332  0.93643014  1
  O2-  O252  1  0.33311304  0.28896207  0.26042994  1
  O2-  O253  1  0.32491405  0.30156909  0.60372949  1
  O2-  O254  1  0.33698027  0.29039163  0.93847407  1
  O2-  O255  1  0.33507060  0.79621881  0.26905655  1
  O2-  O256  1  0.34013959  0.78903595  0.60299261  1
  O2-  O257  1  0.33419145  0.80497481  0.93783729  1
  O2-  O258  1  0.83199599  0.28863452  0.26392220  1
  O2-  O259  1  0.83421200  0.28336927  0.59923112  1
  O2-  O260  1  0.83302826  0.28372415  0.93128268  1
  O2-  O261  1  0.83189444  0.80226805  0.27353307  1
  O2-  O262  1  0.83417111  0.79784275  0.60167052  1
  O2-  O263  1  0.83456823  0.80230511  0.93580067  1
  O2-  O264  1  0.41095674  0.03867531  0.06634157  1
  O2-  O265  1  0.41047215  0.03974536  0.39688991  1
  O2-  O266  1  0.41950158  0.03963257  0.73510940  1
  O2-  O267  1  0.41832584  0.54134651  0.06988263  1
  O2-  O268  1  0.41177276  0.54675726  0.39436435  1
  O2-  O269  1  0.41649201  0.53948347  0.73473550  1
  O2-  O270  1  0.91750017  0.04741430  0.06500000  1
  O2-  O271  1  0.91048349  0.03548250  0.39590571  1
  O2-  O272  1  0.91194184  0.04011602  0.74006914  1
  O2-  O273  1  0.91573568  0.54468197  0.05642765  1
  O2-  O274  1  0.92483893  0.54795664  0.39868042  1
  O2-  O275  1  0.91936647  0.54710223  0.72606167  1
  O2-  O276  1  0.29606506  0.16312334  0.06582737  1
  O2-  O277  1  0.29566270  0.16436780  0.39439840  1
  O2-  O278  1  0.29675034  0.17254502  0.73602698  1
  O2-  O279  1  0.29759092  0.67421176  0.06810817  1
  O2-  O280  1  0.29019360  0.66503442  0.39449554  1
  O2-  O281  1  0.29115122  0.66420694  0.73412301  1
  O2-  O282  1  0.79434783  0.16382912  0.06745735  1
  O2-  O283  1  0.79583495  0.16097611  0.39344342  1
  O2-  O284  1  0.78551842  0.16467346  0.73780589  1
  O2-  O285  1  0.80180215  0.66794332  0.05696520  1
  O2-  O286  1  0.79487414  0.67067336  0.40256696  1
  O2-  O287  1  0.80120227  0.66773910  0.73064795  1
