# generated using pymatgen
data_Ca2Al2SiO7
_symmetry_space_group_name_H-M   'P 1'
_cell_length_a   15.46145586
_cell_length_b   15.46047852
_cell_length_c   15.28584003
_cell_angle_alpha   89.99035163
_cell_angle_beta   89.98399127
_cell_angle_gamma   90.00954551
_symmetry_Int_Tables_number   1
_chemical_formula_structural   Ca2Al2SiO7
_chemical_formula_sum   'Ca48 Al48 Si24 O168'
_cell_volume   3653.94998120
_cell_formula_units_Z   24
loop_
 _symmetry_equiv_pos_site_id
 _symmetry_equiv_pos_as_xyz
  1  'x, y, z'
loop_
 _atom_type_symbol
 _atom_type_oxidation_number
  Ca2+  2.0
  Al0+  0.0
  Si0+  0.0
  O2-  -2.0
loop_
 _atom_site_type_symbol
 _atom_site_label
 _atom_site_symmetry_multiplicity
 _atom_site_fract_x
 _atom_site_fract_y
 _atom_site_fract_z
 _atom_site_occupancy
  Ca2+  Ca0  1  0.17219706  0.08253539  0.17580554  1
  Ca2+  Ca1  1  0.17285474  0.08238782  0.50507409  1
  Ca2+  Ca2  1  0.17234594  0.07682522  0.82999677  1
  Ca2+  Ca3  1  0.17948807  0.57929326  0.17365180  1
  Ca2+  Ca4  1  0.17296140  0.57466542  0.51131657  1
  Ca2+  Ca5  1  0.17202004  0.58369361  0.83337019  1
  Ca2+  Ca6  1  0.67066033  0.08769606  0.16394254  1
  Ca2+  Ca7  1  0.67340573  0.08317310  0.50918140  1
  Ca2+  Ca8  1  0.67419133  0.09082839  0.83876551  1
  Ca2+  Ca9  1  0.66521170  0.58500131  0.16260206  1
  Ca2+  Ca10  1  0.67409359  0.58137466  0.50712596  1
  Ca2+  Ca11  1  0.67405965  0.58181606  0.84270525  1
  Ca2+  Ca12  1  0.09226248  0.32766819  0.16997284  1
  Ca2+  Ca13  1  0.09305460  0.33045923  0.49428349  1
  Ca2+  Ca14  1  0.08327038  0.33472389  0.82679925  1
  Ca2+  Ca15  1  0.07225124  0.83442932  0.16115220  1
  Ca2+  Ca16  1  0.07749446  0.83485761  0.50219579  1
  Ca2+  Ca17  1  0.07536040  0.82694357  0.82316582  1
  Ca2+  Ca18  1  0.57924635  0.33129805  0.15928416  1
  Ca2+  Ca19  1  0.56984100  0.32756551  0.49993619  1
  Ca2+  Ca20  1  0.58470084  0.32719094  0.82693785  1
  Ca2+  Ca21  1  0.57350076  0.82518035  0.15588485  1
  Ca2+  Ca22  1  0.58206863  0.83099790  0.49865919  1
  Ca2+  Ca23  1  0.57874233  0.82783113  0.83555945  1
  Ca2+  Ca24  1  0.33519746  0.42644071  0.17568018  1
  Ca2+  Ca25  1  0.32813925  0.41935811  0.50467718  1
  Ca2+  Ca26  1  0.33435127  0.42341984  0.83121713  1
  Ca2+  Ca27  1  0.33653733  0.92173972  0.17196244  1
  Ca2+  Ca28  1  0.32770298  0.93054302  0.51113872  1
  Ca2+  Ca29  1  0.32852915  0.91256052  0.83592551  1
  Ca2+  Ca30  1  0.82469535  0.42030106  0.16360341  1
  Ca2+  Ca31  1  0.83240883  0.42313061  0.50895226  1
  Ca2+  Ca32  1  0.82981747  0.43155297  0.84080606  1
  Ca2+  Ca33  1  0.83693630  0.91608656  0.16665766  1
  Ca2+  Ca34  1  0.83752416  0.91771057  0.50742409  1
  Ca2+  Ca35  1  0.84091038  0.92470804  0.83692900  1
  Ca2+  Ca36  1  0.41716141  0.17432327  0.16161471  1
  Ca2+  Ca37  1  0.40298741  0.17769670  0.49822624  1
  Ca2+  Ca38  1  0.42956714  0.17160675  0.82083964  1
  Ca2+  Ca39  1  0.41576835  0.66752892  0.15489918  1
  Ca2+  Ca40  1  0.41219478  0.66135350  0.49822405  1
  Ca2+  Ca41  1  0.41583383  0.66202755  0.83258201  1
  Ca2+  Ca42  1  0.92329419  0.16516061  0.16169850  1
  Ca2+  Ca43  1  0.92397231  0.16548289  0.49658472  1
  Ca2+  Ca44  1  0.91212303  0.16583425  0.82756368  1
  Ca2+  Ca45  1  0.91462956  0.67693394  0.15774242  1
  Ca2+  Ca46  1  0.92280203  0.67260232  0.49928000  1
  Ca2+  Ca47  1  0.91511448  0.67316578  0.82277946  1
  Al0+  Al48  1  0.00142738  0.00011517  0.00025690  1
  Al0+  Al49  1  -0.00020655  0.00124943  0.32490453  1
  Al0+  Al50  1  -0.00062978  0.00065627  0.67058903  1
  Al0+  Al51  1  0.00032895  0.49810305  0.00714646  1
  Al0+  Al52  1  -0.00150350  0.50018589  0.33343141  1
  Al0+  Al53  1  -0.00015716  0.50128679  0.67018128  1
  Al0+  Al54  1  0.50049477  0.00122429  -0.00740702  1
  Al0+  Al55  1  0.50328023  -0.00054100  0.33811755  1
  Al0+  Al56  1  0.50361497  -0.00160339  0.66570626  1
  Al0+  Al57  1  0.49899400  0.49960775  0.00312082  1
  Al0+  Al58  1  0.50247165  0.49824401  0.33368475  1
  Al0+  Al59  1  0.49925326  0.49737734  0.66413032  1
  Al0+  Al60  1  0.24992122  0.24800613  -0.00280193  1
  Al0+  Al61  1  0.25097337  0.25025982  0.32873221  1
  Al0+  Al62  1  0.25007141  0.24998316  0.67283409  1
  Al0+  Al63  1  0.24616076  0.75035598  0.00239488  1
  Al0+  Al64  1  0.24887911  0.75123814  0.33625252  1
  Al0+  Al65  1  0.24931785  0.74916246  0.66811112  1
  Al0+  Al66  1  0.75230191  0.25048035  0.00625333  1
  Al0+  Al67  1  0.75063523  0.25014888  0.33433687  1
  Al0+  Al68  1  0.74977876  0.24874744  0.66374182  1
  Al0+  Al69  1  0.74832364  0.75332523  -0.00416203  1
  Al0+  Al70  1  0.74905195  0.75134919  0.32931103  1
  Al0+  Al71  1  0.74870851  0.75165377  0.66547128  1
  Al0+  Al72  1  0.07242230  0.67719131  0.65104028  1
  Al0+  Al73  1  0.43069210  0.31941177  0.31790306  1
  Al0+  Al74  1  0.82012753  0.57229192  0.67809303  1
  Al0+  Al75  1  0.92932915  0.82109865  0.98430276  1
  Al0+  Al76  1  0.56903867  0.67707025  0.98429821  1
  Al0+  Al77  1  0.42523554  0.82131889  0.98518717  1
  Al0+  Al78  1  0.67894557  0.42923816  0.01435620  1
  Al0+  Al79  1  0.31795035  0.57009605  0.01367640  1
  Al0+  Al80  1  0.17908908  0.42971081  0.34724031  1
  Al0+  Al81  1  0.32241882  0.06952130  0.34499787  1
  Al0+  Al82  1  0.42811242  0.31958341  0.65063869  1
  Al0+  Al83  1  0.32355560  0.07186138  0.68321164  1
  Al0+  Al84  1  0.82198128  0.07001216  0.01582374  1
  Al0+  Al85  1  0.32341121  0.57288572  0.34882479  1
  Al0+  Al86  1  0.32289943  0.57109423  0.68272712  1
  Al0+  Al87  1  0.92984568  0.81934946  0.31775282  1
  Al0+  Al88  1  0.57358916  0.17646365  0.64962513  1
  Al0+  Al89  1  0.92877572  0.82212140  0.65114302  1
  Al0+  Al90  1  0.57225850  0.18169401  0.98708530  1
  Al0+  Al91  1  0.17904346  0.92922779  0.68151653  1
  Al0+  Al92  1  0.06990405  0.18157419  0.32013070  1
  Al0+  Al93  1  0.17773015  0.42800980  0.68287209  1
  Al0+  Al94  1  0.82150610  0.57537481  0.01583209  1
  Al0+  Al95  1  0.81936387  0.06990379  0.67866335  1
  Si0+  Si96  1  0.42792122  0.82080062  0.65066343  1
  Si0+  Si97  1  0.42637677  0.32214660  0.98245355  1
  Si0+  Si98  1  0.17525910  0.92940164  0.34876938  1
  Si0+  Si99  1  0.82201864  0.07038152  0.34741570  1
  Si0+  Si100  1  0.17735497  0.42377286  0.01893380  1
  Si0+  Si101  1  0.07224609  0.17858666  0.98249372  1
  Si0+  Si102  1  0.67692806  0.92550840  0.68541768  1
  Si0+  Si103  1  0.06977468  0.17993641  0.65394278  1
  Si0+  Si104  1  0.68002721  0.42726718  0.35071232  1
  Si0+  Si105  1  0.92860393  0.32206751  0.65365681  1
  Si0+  Si106  1  0.57034611  0.67967028  0.31963127  1
  Si0+  Si107  1  0.68090108  0.92790211  0.34832229  1
  Si0+  Si108  1  0.07285962  0.67605164  0.31562969  1
  Si0+  Si109  1  0.07005735  0.67588773  0.98528176  1
  Si0+  Si110  1  0.67911849  0.42841627  0.68079868  1
  Si0+  Si111  1  0.32237499  0.07031882  0.01424551  1
  Si0+  Si112  1  0.57502040  0.17639220  0.31598392  1
  Si0+  Si113  1  0.81851643  0.57338890  0.34769238  1
  Si0+  Si114  1  0.92416926  0.32434397  0.31537600  1
  Si0+  Si115  1  0.93046998  0.32013621  0.98607106  1
  Si0+  Si116  1  0.67568514  0.92987669  0.01721586  1
  Si0+  Si117  1  0.42882707  0.82257907  0.32237333  1
  Si0+  Si118  1  0.17951739  0.93032786  0.01678674  1
  Si0+  Si119  1  0.57023850  0.67848685  0.65107670  1
  O2-  O120  1  0.25364796  -0.00172563  0.05895400  1
  O2-  O121  1  0.24887210  -0.00670375  0.39139305  1
  O2-  O122  1  0.25540072  -0.00391590  0.73340692  1
  O2-  O123  1  0.24604085  0.49297763  0.06112288  1
  O2-  O124  1  0.24795496  0.50409178  0.39762373  1
  O2-  O125  1  0.24892204  0.50085861  0.73202669  1
  O2-  O126  1  0.74666881  -0.00412528  0.06297802  1
  O2-  O127  1  0.75108739  -0.00003330  0.38981073  1
  O2-  O128  1  0.74399955  -0.00298231  0.72666272  1
  O2-  O129  1  0.74696402  0.50534077  0.06583953  1
  O2-  O130  1  0.75255159  0.49796327  0.39107279  1
  O2-  O131  1  0.74593993  0.49802856  0.72522262  1
  O2-  O132  1  -0.00378862  0.25788737  0.27297106  1
  O2-  O133  1  0.00171343  0.25357750  0.61084578  1
  O2-  O134  1  0.00274962  0.25148568  0.94182792  1
  O2-  O135  1  0.00472447  0.74514204  0.27056256  1
  O2-  O136  1  0.00073242  0.75023239  0.60107735  1
  O2-  O137  1  -0.00382457  0.73853991  0.94062083  1
  O2-  O138  1  0.50481671  0.24303593  0.27205849  1
  O2-  O139  1  0.49558293  0.24226728  0.60040046  1
  O2-  O140  1  0.49791514  0.25579635  0.93987325  1
  O2-  O141  1  0.49219831  0.74457606  0.28002448  1
  O2-  O142  1  0.49730821  0.74759766  0.60812799  1
  O2-  O143  1  0.49430146  0.74665259  0.93473402  1
  O2-  O144  1  0.07350404  0.17873777  0.08780994  1
  O2-  O145  1  0.06691265  0.17903054  0.43326366  1
  O2-  O146  1  0.06680432  0.17980482  0.75926393  1
  O2-  O147  1  0.07149940  0.68042900  0.09120756  1
  O2-  O148  1  0.07069685  0.67545068  0.42073518  1
  O2-  O149  1  0.06932723  0.67750885  0.76482725  1
  O2-  O150  1  0.56871452  0.18154710  0.10079652  1
  O2-  O151  1  0.57992831  0.17809456  0.42085963  1
  O2-  O152  1  0.57779551  0.18304734  0.76314124  1
  O2-  O153  1  0.56731652  0.68043147  0.09884726  1
  O2-  O154  1  0.57545562  0.68288259  0.42486513  1
  O2-  O155  1  0.57197967  0.67945219  0.75552370  1
  O2-  O156  1  0.18229341  0.43070358  0.23335447  1
  O2-  O157  1  0.17794032  0.42680687  0.56945645  1
  O2-  O158  1  0.17550479  0.42198400  0.91387008  1
  O2-  O159  1  0.17510591  0.93111430  0.24269995  1
  O2-  O160  1  0.17861065  0.93362113  0.56740487  1
  O2-  O161  1  0.17834907  0.93196525  0.91226532  1
  O2-  O162  1  0.67999877  0.42624485  0.24591043  1
  O2-  O163  1  0.68169650  0.43041805  0.57446829  1
  O2-  O164  1  0.68451048  0.42769291  0.90091282  1
  O2-  O165  1  0.67919372  0.92635836  0.24358882  1
  O2-  O166  1  0.67804176  0.92271164  0.57907147  1
  O2-  O167  1  0.67430749  0.93145471  0.91208422  1
  O2-  O168  1  0.42428704  0.31867728  0.08840209  1
  O2-  O169  1  0.43085456  0.31933182  0.43046345  1
  O2-  O170  1  0.43273449  0.32151143  0.76422676  1
  O2-  O171  1  0.42729441  0.82251783  0.09986747  1
  O2-  O172  1  0.43345672  0.82549056  0.42724397  1
  O2-  O173  1  0.42984513  0.82164773  0.75539805  1
  O2-  O174  1  0.93106715  0.31813430  0.09128624  1
  O2-  O175  1  0.91883829  0.32217975  0.42091518  1
  O2-  O176  1  0.92691989  0.31972620  0.75886329  1
  O2-  O177  1  0.93348347  0.82262480  0.09797773  1
  O2-  O178  1  0.92847795  0.81972191  0.43025307  1
  O2-  O179  1  0.92967939  0.82204940  0.76442042  1
  O2-  O180  1  0.32245915  0.06667367  0.23116183  1
  O2-  O181  1  0.31758149  0.07179972  0.56915971  1
  O2-  O182  1  0.31934954  0.07100117  0.90988734  1
  O2-  O183  1  0.32387568  0.57273408  0.23492007  1
  O2-  O184  1  0.32375304  0.56888470  0.56925462  1
  O2-  O185  1  0.31607118  0.56985397  0.90127017  1
  O2-  O186  1  0.82090563  0.07032508  0.24239063  1
  O2-  O187  1  0.82073289  0.06938410  0.56487556  1
  O2-  O188  1  0.82222895  0.07068955  0.90306531  1
  O2-  O189  1  0.81466911  0.57517113  0.24289734  1
  O2-  O190  1  0.81769635  0.57014981  0.56405753  1
  O2-  O191  1  0.82262837  0.57204643  0.90242906  1
  O2-  O192  1  0.03754944  0.08744717  0.26110239  1
  O2-  O193  1  0.03828059  0.09005833  0.60554299  1
  O2-  O194  1  0.04214458  0.08777011  0.93601339  1
  O2-  O195  1  0.04706896  0.58256679  0.26903602  1
  O2-  O196  1  0.04068401  0.57923069  0.59805097  1
  O2-  O197  1  0.05221990  0.57852155  0.94423922  1
  O2-  O198  1  0.55240316  0.08057137  0.27271658  1
  O2-  O199  1  0.55622262  0.07396295  0.60039891  1
  O2-  O200  1  0.54421439  0.08569141  0.93175182  1
  O2-  O201  1  0.55117264  0.58543062  0.27426043  1
  O2-  O202  1  0.54599578  0.58612157  0.60274834  1
  O2-  O203  1  0.54497353  0.57707859  0.93340689  1
  O2-  O204  1  0.16518403  0.21069421  0.26203645  1
  O2-  O205  1  0.16267593  0.20497456  0.60827829  1
  O2-  O206  1  0.16413989  0.20437929  0.93405042  1
  O2-  O207  1  0.16745495  0.70227168  0.27062413  1
  O2-  O208  1  0.17133460  0.70451580  0.59821335  1
  O2-  O209  1  0.16065500  0.70824033  0.93816576  1
  O2-  O210  1  0.66826760  0.20475490  0.26920880  1
  O2-  O211  1  0.66983958  0.21042542  0.59360297  1
  O2-  O212  1  0.67078645  0.21206342  0.93685935  1
  O2-  O213  1  0.65801778  0.71498608  0.26876902  1
  O2-  O214  1  0.66002725  0.71019379  0.60066807  1
  O2-  O215  1  0.66619439  0.70883623  0.93109797  1
  O2-  O216  1  0.08369441  0.44604909  0.06670775  1
  O2-  O217  1  0.07627537  0.44931119  0.39642446  1
  O2-  O218  1  0.07905991  0.45475408  0.73652974  1
  O2-  O219  1  0.09022303  0.96389738  0.06599909  1
  O2-  O220  1  0.08326890  0.96174793  0.39366196  1
  O2-  O221  1  0.08363254  0.96324557  0.73671590  1
  O2-  O222  1  0.57973086  0.45267477  0.06843252  1
  O2-  O223  1  0.58989689  0.45718012  0.39909285  1
  O2-  O224  1  0.58548998  0.45207511  0.72535059  1
  O2-  O225  1  0.58252510  0.95838025  0.06406118  1
  O2-  O226  1  0.59033857  0.95402339  0.39942070  1
  O2-  O227  1  0.58278298  0.94678082  0.73110215  1
  O2-  O228  1  0.20436781  0.32911019  0.06339682  1
  O2-  O229  1  0.20901300  0.33075758  0.39721196  1
  O2-  O230  1  0.20437696  0.33047938  0.73813481  1
  O2-  O231  1  0.20232861  0.83819107  0.06600839  1
  O2-  O232  1  0.19405758  0.83413164  0.39322696  1
  O2-  O233  1  0.20344426  0.83011169  0.73361160  1
  O2-  O234  1  0.71393176  0.33473321  0.07246880  1
  O2-  O235  1  0.70824845  0.33562569  0.39854509  1
  O2-  O236  1  0.70693862  0.33540629  0.72527703  1
  O2-  O237  1  0.69941620  0.83575587  0.06311449  1
  O2-  O238  1  0.71000519  0.83677586  0.39708787  1
  O2-  O239  1  0.70361404  0.83317221  0.73248859  1
  O2-  O240  1  0.46533514  0.41580996  0.26446652  1
  O2-  O241  1  0.46102720  0.41599844  0.59501436  1
  O2-  O242  1  0.44908603  0.41685158  0.93964664  1
  O2-  O243  1  0.46410497  0.91154193  0.27286448  1
  O2-  O244  1  0.45900085  0.91130142  0.60167603  1
  O2-  O245  1  0.45569065  0.91809242  0.93058986  1
  O2-  O246  1  0.94497397  0.41936604  0.27012695  1
  O2-  O247  1  0.95271504  0.41450033  0.60635286  1
  O2-  O248  1  0.95621229  0.41351918  0.94019832  1
  O2-  O249  1  0.95970773  0.91574255  0.26232656  1
  O2-  O250  1  0.95962268  0.92111253  0.59921794  1
  O2-  O251  1  0.96720127  0.91644703  0.93262449  1
  O2-  O252  1  0.33565735  0.28879260  0.26133384  1
  O2-  O253  1  0.32777622  0.29146330  0.60052601  1
  O2-  O254  1  0.33376806  0.29353762  0.93593540  1
  O2-  O255  1  0.33353335  0.80504007  0.27712255  1
  O2-  O256  1  0.33575227  0.79652194  0.60310147  1
  O2-  O257  1  0.32506678  0.79564591  0.93537736  1
  O2-  O258  1  0.83271426  0.29340261  0.26703872  1
  O2-  O259  1  0.83889939  0.29235918  0.60291864  1
  O2-  O260  1  0.83992298  0.28977837  0.93913223  1
  O2-  O261  1  0.83280859  0.78849532  0.26345084  1
  O2-  O262  1  0.82928591  0.79488183  0.59862279  1
  O2-  O263  1  0.82955885  0.80215189  0.93341428  1
  O2-  O264  1  0.41524664  0.04485193  0.06034025  1
  O2-  O265  1  0.41919094  0.04137862  0.40003719  1
  O2-  O266  1  0.42517549  0.04753797  0.72997287  1
  O2-  O267  1  0.41548063  0.54311720  0.06764689  1
  O2-  O268  1  0.42286179  0.54365010  0.39924888  1
  O2-  O269  1  0.42158307  0.54002657  0.73430587  1
  O2-  O270  1  0.91910674  0.03833650  0.06940182  1
  O2-  O271  1  0.91426826  0.04179253  0.39272038  1
  O2-  O272  1  0.91474659  0.04118537  0.73527173  1
  O2-  O273  1  0.91860087  0.54344023  0.07091290  1
  O2-  O274  1  0.91222125  0.55006304  0.39272666  1
  O2-  O275  1  0.91471889  0.54184127  0.73385371  1
  O2-  O276  1  0.29128405  0.16183440  0.06155756  1
  O2-  O277  1  0.28729486  0.16509716  0.39608701  1
  O2-  O278  1  0.29182318  0.16717640  0.73861343  1
  O2-  O279  1  0.28560396  0.66671834  0.06868620  1
  O2-  O280  1  0.30050572  0.67418012  0.39905821  1
  O2-  O281  1  0.29852065  0.67074999  0.73364081  1
  O2-  O282  1  0.79247392  0.16559659  0.07237444  1
  O2-  O283  1  0.79612621  0.16301971  0.39443095  1
  O2-  O284  1  0.79029457  0.16774216  0.73210981  1
  O2-  O285  1  0.79318568  0.67513013  0.06642308  1
  O2-  O286  1  0.78437263  0.66317877  0.39522302  1
  O2-  O287  1  0.78805498  0.66838627  0.73060910  1
