# generated using pymatgen
data_Ca2Al2SiO7
_symmetry_space_group_name_H-M   'P 1'
_cell_length_a   15.46607681
_cell_length_b   15.46812168
_cell_length_c   15.28877262
_cell_angle_alpha   90.02075249
_cell_angle_beta   89.98374689
_cell_angle_gamma   90.00315496
_symmetry_Int_Tables_number   1
_chemical_formula_structural   Ca2Al2SiO7
_chemical_formula_sum   'Ca48 Al48 Si24 O168'
_cell_volume   3657.55038451
_cell_formula_units_Z   24
loop_
 _symmetry_equiv_pos_site_id
 _symmetry_equiv_pos_as_xyz
  1  'x, y, z'
loop_
 _atom_type_symbol
 _atom_type_oxidation_number
  Ca2+  2.0
  Al0+  0.0
  Si0+  0.0
  O2-  -2.0
loop_
 _atom_site_type_symbol
 _atom_site_label
 _atom_site_symmetry_multiplicity
 _atom_site_fract_x
 _atom_site_fract_y
 _atom_site_fract_z
 _atom_site_occupancy
  Ca2+  Ca0  1  0.17495147  0.07546975  0.17835484  1
  Ca2+  Ca1  1  0.17816259  0.08305502  0.50420255  1
  Ca2+  Ca2  1  0.17262353  0.09466717  0.82940027  1
  Ca2+  Ca3  1  0.16960551  0.57378079  0.17434995  1
  Ca2+  Ca4  1  0.17108276  0.57777358  0.50730587  1
  Ca2+  Ca5  1  0.17027842  0.58835413  0.82949488  1
  Ca2+  Ca6  1  0.66906323  0.07532697  0.17610260  1
  Ca2+  Ca7  1  0.66845217  0.08060842  0.50375646  1
  Ca2+  Ca8  1  0.66940226  0.07440564  0.83159948  1
  Ca2+  Ca9  1  0.66835656  0.58176056  0.16853503  1
  Ca2+  Ca10  1  0.67081110  0.57574898  0.51099281  1
  Ca2+  Ca11  1  0.66817945  0.57724585  0.82832187  1
  Ca2+  Ca12  1  0.08071204  0.33119230  0.16247776  1
  Ca2+  Ca13  1  0.08167053  0.32757525  0.50137084  1
  Ca2+  Ca14  1  0.07179970  0.32755064  0.82351749  1
  Ca2+  Ca15  1  0.07778986  0.83803228  0.16213633  1
  Ca2+  Ca16  1  0.08956095  0.82769473  0.49698363  1
  Ca2+  Ca17  1  0.07501887  0.82927573  0.82471090  1
  Ca2+  Ca18  1  0.57397476  0.32314466  0.16444494  1
  Ca2+  Ca19  1  0.57379991  0.33168981  0.49349359  1
  Ca2+  Ca20  1  0.57494976  0.33584712  0.82426988  1
  Ca2+  Ca21  1  0.57522567  0.84527995  0.16520171  1
  Ca2+  Ca22  1  0.57617240  0.84359352  0.49760858  1
  Ca2+  Ca23  1  0.57674053  0.84232226  0.82881471  1
  Ca2+  Ca24  1  0.33032369  0.41102070  0.17483619  1
  Ca2+  Ca25  1  0.33189256  0.41532765  0.50832177  1
  Ca2+  Ca26  1  0.34111496  0.42238850  0.83551517  1
  Ca2+  Ca27  1  0.33209901  0.91876939  0.17740267  1
  Ca2+  Ca28  1  0.33862469  0.92537977  0.50452097  1
  Ca2+  Ca29  1  0.33861233  0.92098035  0.83340962  1
  Ca2+  Ca30  1  0.83606415  0.41627232  0.17010408  1
  Ca2+  Ca31  1  0.82511280  0.41839982  0.51411237  1
  Ca2+  Ca32  1  0.83577991  0.41460149  0.83143462  1
  Ca2+  Ca33  1  0.82414056  0.91921503  0.17578038  1
  Ca2+  Ca34  1  0.81999951  0.92823091  0.50730096  1
  Ca2+  Ca35  1  0.82328413  0.91479840  0.83933711  1
  Ca2+  Ca36  1  0.41756659  0.16844540  0.16914371  1
  Ca2+  Ca37  1  0.41843143  0.16987073  0.49399360  1
  Ca2+  Ca38  1  0.41568567  0.17711067  0.82387975  1
  Ca2+  Ca39  1  0.41856434  0.68046509  0.16397305  1
  Ca2+  Ca40  1  0.41181522  0.67692614  0.50030110  1
  Ca2+  Ca41  1  0.41498603  0.67869593  0.82339228  1
  Ca2+  Ca42  1  0.91633764  0.16745994  0.16293755  1
  Ca2+  Ca43  1  0.91305229  0.16373521  0.50012396  1
  Ca2+  Ca44  1  0.91896492  0.17288437  0.82126885  1
  Ca2+  Ca45  1  0.91985144  0.67581301  0.15965752  1
  Ca2+  Ca46  1  0.91974878  0.66204575  0.50198037  1
  Ca2+  Ca47  1  0.91905988  0.66953460  0.82530621  1
  Al0+  Al48  1  0.00210238  -0.00050453  -0.00541313  1
  Al0+  Al49  1  -0.00024922  -0.00082364  0.33904286  1
  Al0+  Al50  1  0.00009933  -0.00060920  0.66427831  1
  Al0+  Al51  1  0.00181222  0.49888138  -0.00163912  1
  Al0+  Al52  1  0.00236656  0.50002058  0.33558668  1
  Al0+  Al53  1  -0.00025926  0.50030795  0.66281428  1
  Al0+  Al54  1  0.50112077  0.00112641  0.00041088  1
  Al0+  Al55  1  0.49991268  0.00113244  0.33095430  1
  Al0+  Al56  1  0.49712708  0.00267184  0.67198035  1
  Al0+  Al57  1  0.50171201  0.50141724  0.00079773  1
  Al0+  Al58  1  0.50018737  0.50271850  0.32764279  1
  Al0+  Al59  1  0.49843439  0.50344409  0.67053541  1
  Al0+  Al60  1  0.25132485  0.25140400  -0.00148161  1
  Al0+  Al61  1  0.24590334  0.24991914  0.33697565  1
  Al0+  Al62  1  0.24781539  0.25017694  0.66430971  1
  Al0+  Al63  1  0.25216247  0.74962773  -0.00104668  1
  Al0+  Al64  1  0.24981443  0.74630572  0.32928661  1
  Al0+  Al65  1  0.24899436  0.74969846  0.66278198  1
  Al0+  Al66  1  0.75013867  0.24989426  -0.00237447  1
  Al0+  Al67  1  0.74906921  0.25198418  0.33067869  1
  Al0+  Al68  1  0.74758640  0.24819957  0.67206434  1
  Al0+  Al69  1  0.75010561  0.74846621  0.00176291  1
  Al0+  Al70  1  0.75131613  0.74948195  0.33657090  1
  Al0+  Al71  1  0.74806649  0.74788089  0.67374812  1
  Al0+  Al72  1  0.92647621  0.31914458  0.65013330  1
  Al0+  Al73  1  0.43039567  0.82124371  0.98541699  1
  Al0+  Al74  1  0.17827007  0.92497318  0.34748276  1
  Al0+  Al75  1  0.31921978  0.57201486  0.68040270  1
  Al0+  Al76  1  0.68011432  0.92866448  0.01660171  1
  Al0+  Al77  1  0.06968266  0.68046952  0.65174123  1
  Al0+  Al78  1  0.42578564  0.32228800  0.31911826  1
  Al0+  Al79  1  0.67769334  0.92937286  0.68293010  1
  Al0+  Al80  1  0.92927689  0.32079527  0.98706509  1
  Al0+  Al81  1  0.82105812  0.07429322  0.34722291  1
  Al0+  Al82  1  0.57224759  0.17948133  0.31823144  1
  Al0+  Al83  1  0.67704657  0.42769570  0.68097550  1
  Al0+  Al84  1  0.17880942  0.42867198  0.34800871  1
  Al0+  Al85  1  0.67813481  0.92806054  0.34873237  1
  Al0+  Al86  1  0.07087140  0.17637535  0.64868169  1
  Al0+  Al87  1  0.43029463  0.82263564  0.65266237  1
  Al0+  Al88  1  0.43002596  0.82010132  0.32056275  1
  Al0+  Al89  1  0.31846150  0.07217364  0.68191841  1
  Al0+  Al90  1  0.42959508  0.32425225  0.65368946  1
  Al0+  Al91  1  0.82312087  0.07090715  0.68367026  1
  Al0+  Al92  1  0.32081324  0.07014756  0.34783915  1
  Al0+  Al93  1  0.82310324  0.56964336  0.68264926  1
  Al0+  Al94  1  0.92886480  0.82092375  0.98740961  1
  Al0+  Al95  1  0.42964438  0.32077970  0.98580248  1
  Si0+  Si96  1  0.57173553  0.67869329  0.65034366  1
  Si0+  Si97  1  0.32324132  0.57069900  0.34866693  1
  Si0+  Si98  1  0.17943304  0.92699875  0.01314226  1
  Si0+  Si99  1  0.06932365  0.17742477  0.31772465  1
  Si0+  Si100  1  0.07315576  0.17799819  0.98471848  1
  Si0+  Si101  1  0.82236928  0.57051948  0.34672208  1
  Si0+  Si102  1  0.07214358  0.67760456  0.98427903  1
  Si0+  Si103  1  0.57622848  0.67806045  0.31598254  1
  Si0+  Si104  1  0.82313696  0.56842717  0.01646712  1
  Si0+  Si105  1  0.82449987  0.07171629  0.01576042  1
  Si0+  Si106  1  0.92989338  0.32233548  0.31880974  1
  Si0+  Si107  1  0.17876827  0.92628671  0.68333612  1
  Si0+  Si108  1  0.57322789  0.67682324  0.98209993  1
  Si0+  Si109  1  0.92954138  0.82011772  0.32007816  1
  Si0+  Si110  1  0.67837600  0.42786240  0.01730794  1
  Si0+  Si111  1  0.32293260  0.57281189  0.01680287  1
  Si0+  Si112  1  0.31975452  0.07197844  0.01479535  1
  Si0+  Si113  1  0.56933605  0.17856810  0.65173316  1
  Si0+  Si114  1  0.67871896  0.43115514  0.34490817  1
  Si0+  Si115  1  0.92412506  0.82143150  0.64880725  1
  Si0+  Si116  1  0.07020884  0.67701740  0.31631696  1
  Si0+  Si117  1  0.57214489  0.17824213  0.98138430  1
  Si0+  Si118  1  0.17826375  0.42835203  0.68497095  1
  Si0+  Si119  1  0.18089044  0.43053681  0.01434257  1
  O2-  O120  1  0.25015850  -0.00164834  0.05529580  1
  O2-  O121  1  0.25247941  -0.00594307  0.39723036  1
  O2-  O122  1  0.24230450  -0.00124099  0.72960208  1
  O2-  O123  1  0.25374746  0.49926133  0.05816291  1
  O2-  O124  1  0.26028378  0.49678639  0.39218636  1
  O2-  O125  1  0.24826692  0.49520016  0.73041348  1
  O2-  O126  1  0.75781374  0.00196017  0.06120314  1
  O2-  O127  1  0.74732934  0.00372943  0.39587800  1
  O2-  O128  1  0.75501478  -0.00461154  0.73382470  1
  O2-  O129  1  0.75275504  0.49663252  0.05932540  1
  O2-  O130  1  0.74941938  0.50179782  0.38744066  1
  O2-  O131  1  0.75360120  0.49499497  0.73232802  1
  O2-  O132  1  -0.00277625  0.24809175  0.27541220  1
  O2-  O133  1  -0.00482692  0.24500690  0.59870119  1
  O2-  O134  1  -0.00031813  0.24208698  0.94226067  1
  O2-  O135  1  0.00277360  0.75170683  0.27510684  1
  O2-  O136  1  -0.00588678  0.75390957  0.60394284  1
  O2-  O137  1  0.00502575  0.74769118  0.94100632  1
  O2-  O138  1  0.49669971  0.24925859  0.26879870  1
  O2-  O139  1  0.50569139  0.25185759  0.60748467  1
  O2-  O140  1  0.50485287  0.24845688  0.93759097  1
  O2-  O141  1  0.50888565  0.74898036  0.27330054  1
  O2-  O142  1  0.50782975  0.75107498  0.60586246  1
  O2-  O143  1  0.50600027  0.74731067  0.93921793  1
  O2-  O144  1  0.07500810  0.17897535  0.09066262  1
  O2-  O145  1  0.07001161  0.17856085  0.42191626  1
  O2-  O146  1  0.07263985  0.18238573  0.76308112  1
  O2-  O147  1  0.07036856  0.67586494  0.09032538  1
  O2-  O148  1  0.06822640  0.67410666  0.42080847  1
  O2-  O149  1  0.07036972  0.68389961  0.76544389  1
  O2-  O150  1  0.57166920  0.17948870  0.08702693  1
  O2-  O151  1  0.57523551  0.18456173  0.43137396  1
  O2-  O152  1  0.56511602  0.17798034  0.75776063  1
  O2-  O153  1  0.57139529  0.67340271  0.08801990  1
  O2-  O154  1  0.57815193  0.67297391  0.42074326  1
  O2-  O155  1  0.56913814  0.67634672  0.75601405  1
  O2-  O156  1  0.17447436  0.43235697  0.23388591  1
  O2-  O157  1  0.17912253  0.43024703  0.57928022  1
  O2-  O158  1  0.17954971  0.43175900  0.90995345  1
  O2-  O159  1  0.17686712  0.92835714  0.23270051  1
  O2-  O160  1  0.18347212  0.92399665  0.57809400  1
  O2-  O161  1  0.17865608  0.92438141  0.90863524  1
  O2-  O162  1  0.68143544  0.43263734  0.23927370  1
  O2-  O163  1  0.67595480  0.43206513  0.56676228  1
  O2-  O164  1  0.67600542  0.43000603  0.91297328  1
  O2-  O165  1  0.68269597  0.92657596  0.23466710  1
  O2-  O166  1  0.67663514  0.93189981  0.56966567  1
  O2-  O167  1  0.67989491  0.92991710  0.90406030  1
  O2-  O168  1  0.42754425  0.31862788  0.09867366  1
  O2-  O169  1  0.42976999  0.32575681  0.43209310  1
  O2-  O170  1  0.43093122  0.32268066  0.76735577  1
  O2-  O171  1  0.42825966  0.81925072  0.09865025  1
  O2-  O172  1  0.42847811  0.81698030  0.43313694  1
  O2-  O173  1  0.43052699  0.82045552  0.76615821  1
  O2-  O174  1  0.93304836  0.32308989  0.10090022  1
  O2-  O175  1  0.93047197  0.32574548  0.42292485  1
  O2-  O176  1  0.93117205  0.31969604  0.76412605  1
  O2-  O177  1  0.93158838  0.81906249  0.10116888  1
  O2-  O178  1  0.92835029  0.81530453  0.42441527  1
  O2-  O179  1  0.92651762  0.81910569  0.75494154  1
  O2-  O180  1  0.31695653  0.06989166  0.23304907  1
  O2-  O181  1  0.32064994  0.07123783  0.56950670  1
  O2-  O182  1  0.31739590  0.07425378  0.90991389  1
  O2-  O183  1  0.31932965  0.57226138  0.24240407  1
  O2-  O184  1  0.31680435  0.57189814  0.56741952  1
  O2-  O185  1  0.32111167  0.57440868  0.91205653  1
  O2-  O186  1  0.82356849  0.07131837  0.23278622  1
  O2-  O187  1  0.81923691  0.07047890  0.57025646  1
  O2-  O188  1  0.82417209  0.07099539  0.91088286  1
  O2-  O189  1  0.82388330  0.56945638  0.24094312  1
  O2-  O190  1  0.82009308  0.56950136  0.56837393  1
  O2-  O191  1  0.82502005  0.56800722  0.91229828  1
  O2-  O192  1  0.04261786  0.08485748  0.26999306  1
  O2-  O193  1  0.05053021  0.07552420  0.59759932  1
  O2-  O194  1  0.05532239  0.08338739  0.93809279  1
  O2-  O195  1  0.03704572  0.58727812  0.26646119  1
  O2-  O196  1  0.04102125  0.58407026  0.59657899  1
  O2-  O197  1  0.04512558  0.58526504  0.93738297  1
  O2-  O198  1  0.54569027  0.08137019  0.26351937  1
  O2-  O199  1  0.53684920  0.08794928  0.60497945  1
  O2-  O200  1  0.54431332  0.08567775  0.93577795  1
  O2-  O201  1  0.54812285  0.58682158  0.26470710  1
  O2-  O202  1  0.54093130  0.58760424  0.60240809  1
  O2-  O203  1  0.54640978  0.58397614  0.93558816  1
  O2-  O204  1  0.15953620  0.20763042  0.26821077  1
  O2-  O205  1  0.16702082  0.21073883  0.59496833  1
  O2-  O206  1  0.16402556  0.21029928  0.93738332  1
  O2-  O207  1  0.16251666  0.69907718  0.26708162  1
  O2-  O208  1  0.16448217  0.71227498  0.59529432  1
  O2-  O209  1  0.16655793  0.70160482  0.94009593  1
  O2-  O210  1  0.66855457  0.21273286  0.26089615  1
  O2-  O211  1  0.66503878  0.19755764  0.60914296  1
  O2-  O212  1  0.66641347  0.20203582  0.93658315  1
  O2-  O213  1  0.67092485  0.70094825  0.26917442  1
  O2-  O214  1  0.66781856  0.69794028  0.60694505  1
  O2-  O215  1  0.66816412  0.69870664  0.93852590  1
  O2-  O216  1  0.08989005  0.46062332  0.06369230  1
  O2-  O217  1  0.08548730  0.46670116  0.40323409  1
  O2-  O218  1  0.08535388  0.45776232  0.72962348  1
  O2-  O219  1  0.08698982  0.95496862  0.06059459  1
  O2-  O220  1  0.08060936  0.95143822  0.40096755  1
  O2-  O221  1  0.08232261  0.94576113  0.72585721  1
  O2-  O222  1  0.58850324  0.46004745  0.06694237  1
  O2-  O223  1  0.58656971  0.45954098  0.39059109  1
  O2-  O224  1  0.58224045  0.46416009  0.73699150  1
  O2-  O225  1  0.58329163  0.96299680  0.06919046  1
  O2-  O226  1  0.57852482  0.95359854  0.39754657  1
  O2-  O227  1  0.58202384  0.96475492  0.73753022  1
  O2-  O228  1  0.20731024  0.33807680  0.06220234  1
  O2-  O229  1  0.20038554  0.33120253  0.40199749  1
  O2-  O230  1  0.20117209  0.33441310  0.73012888  1
  O2-  O231  1  0.20613085  0.83500878  0.06184442  1
  O2-  O232  1  0.20156623  0.82338297  0.39505446  1
  O2-  O233  1  0.20813534  0.83468092  0.73110634  1
  O2-  O234  1  0.70478958  0.33511634  0.06380125  1
  O2-  O235  1  0.70629544  0.34028422  0.39198733  1
  O2-  O236  1  0.69828070  0.32906670  0.73532253  1
  O2-  O237  1  0.70778013  0.82986850  0.06875524  1
  O2-  O238  1  0.70843712  0.82996308  0.40132809  1
  O2-  O239  1  0.69949135  0.82905333  0.73513812  1
  O2-  O240  1  0.45474844  0.42100936  0.26476068  1
  O2-  O241  1  0.45731716  0.42240463  0.60194038  1
  O2-  O242  1  0.45927684  0.41964750  0.93611033  1
  O2-  O243  1  0.45638331  0.91705112  0.26504251  1
  O2-  O244  1  0.45962820  0.92057071  0.60181284  1
  O2-  O245  1  0.45934267  0.91915638  0.93374689  1
  O2-  O246  1  0.96252537  0.41300031  0.27004233  1
  O2-  O247  1  0.95583721  0.41770449  0.59840504  1
  O2-  O248  1  0.96379748  0.41594286  0.93305803  1
  O2-  O249  1  0.95566340  0.91255390  0.27276178  1
  O2-  O250  1  0.94761837  0.91542461  0.60421294  1
  O2-  O251  1  0.95835337  0.91663602  0.93153705  1
  O2-  O252  1  0.32545104  0.29455631  0.26847109  1
  O2-  O253  1  0.33255013  0.29369535  0.60268352  1
  O2-  O254  1  0.33262423  0.29179287  0.93193486  1
  O2-  O255  1  0.33473741  0.78476917  0.26389784  1
  O2-  O256  1  0.33545508  0.78754065  0.59934376  1
  O2-  O257  1  0.33363908  0.78932576  0.93212268  1
  O2-  O258  1  0.83748184  0.29938651  0.26995046  1
  O2-  O259  1  0.82494707  0.29489782  0.60197933  1
  O2-  O260  1  0.83067897  0.29714611  0.93482276  1
  O2-  O261  1  0.83916485  0.78846017  0.27075117  1
  O2-  O262  1  0.83057556  0.79246736  0.60524326  1
  O2-  O263  1  0.83330556  0.78680971  0.93479035  1
  O2-  O264  1  0.41226370  0.04581867  0.06073720  1
  O2-  O265  1  0.42064418  0.04735596  0.39797705  1
  O2-  O266  1  0.41250953  0.04054934  0.73969935  1
  O2-  O267  1  0.41578736  0.54803971  0.06341327  1
  O2-  O268  1  0.41983330  0.55393269  0.39116541  1
  O2-  O269  1  0.41531978  0.54575184  0.73705631  1
  O2-  O270  1  0.92064918  0.04903266  0.05933814  1
  O2-  O271  1  0.91811729  0.04493001  0.40058983  1
  O2-  O272  1  0.92474105  0.04822979  0.73308062  1
  O2-  O273  1  0.91530337  0.54062732  0.06495532  1
  O2-  O274  1  0.91300175  0.54106565  0.39415321  1
  O2-  O275  1  0.92272805  0.54440438  0.73455743  1
  O2-  O276  1  0.28950115  0.16306214  0.06291649  1
  O2-  O277  1  0.28848163  0.16692594  0.40019514  1
  O2-  O278  1  0.28596983  0.16893845  0.73639108  1
  O2-  O279  1  0.29195688  0.66329610  0.06598327  1
  O2-  O280  1  0.29044845  0.66134549  0.39514252  1
  O2-  O281  1  0.28335730  0.66713906  0.73522241  1
  O2-  O282  1  0.79832839  0.16630548  0.06087200  1
  O2-  O283  1  0.79550823  0.17450228  0.39733535  1
  O2-  O284  1  0.79240348  0.16758046  0.73853959  1
  O2-  O285  1  0.79376481  0.65929127  0.06570546  1
  O2-  O286  1  0.79793863  0.66204112  0.39490918  1
  O2-  O287  1  0.79300975  0.66616371  0.73848704  1
