# generated using pymatgen
data_Ca2Al2SiO7
_symmetry_space_group_name_H-M   'P 1'
_cell_length_a   15.46216392
_cell_length_b   15.46266609
_cell_length_c   15.28723338
_cell_angle_alpha   90.01351337
_cell_angle_beta   89.99566055
_cell_angle_gamma   89.99715505
_symmetry_Int_Tables_number   1
_chemical_formula_structural   Ca2Al2SiO7
_chemical_formula_sum   'Ca48 Al48 Si24 O168'
_cell_volume   3654.96760733
_cell_formula_units_Z   24
loop_
 _symmetry_equiv_pos_site_id
 _symmetry_equiv_pos_as_xyz
  1  'x, y, z'
loop_
 _atom_type_symbol
 _atom_type_oxidation_number
  Ca2+  2.0
  Al0+  0.0
  Si0+  0.0
  O2-  -2.0
loop_
 _atom_site_type_symbol
 _atom_site_label
 _atom_site_symmetry_multiplicity
 _atom_site_fract_x
 _atom_site_fract_y
 _atom_site_fract_z
 _atom_site_occupancy
  Ca2+  Ca0  1  0.16210430  0.06827895  0.16864633  1
  Ca2+  Ca1  1  0.17201930  0.07514104  0.50475593  1
  Ca2+  Ca2  1  0.17426934  0.07554106  0.83807771  1
  Ca2+  Ca3  1  0.16662428  0.58536218  0.16763238  1
  Ca2+  Ca4  1  0.17381646  0.58399942  0.50992978  1
  Ca2+  Ca5  1  0.17178947  0.59699098  0.83481172  1
  Ca2+  Ca6  1  0.67255365  0.07130037  0.16602160  1
  Ca2+  Ca7  1  0.66298627  0.07404010  0.50217931  1
  Ca2+  Ca8  1  0.67176889  0.07184871  0.84402019  1
  Ca2+  Ca9  1  0.67718388  0.59073106  0.16595479  1
  Ca2+  Ca10  1  0.66586018  0.58562592  0.50247128  1
  Ca2+  Ca11  1  0.66369439  0.57833968  0.84026656  1
  Ca2+  Ca12  1  0.07558028  0.32872809  0.15738399  1
  Ca2+  Ca13  1  0.08469127  0.33013184  0.49682822  1
  Ca2+  Ca14  1  0.07394328  0.33406774  0.83433363  1
  Ca2+  Ca15  1  0.07555715  0.83276567  0.15740858  1
  Ca2+  Ca16  1  0.07560323  0.83112792  0.49683021  1
  Ca2+  Ca17  1  0.07555568  0.82796643  0.83085773  1
  Ca2+  Ca18  1  0.57469922  0.33882989  0.15824821  1
  Ca2+  Ca19  1  0.57311089  0.34059634  0.49944857  1
  Ca2+  Ca20  1  0.57763530  0.34053814  0.82863518  1
  Ca2+  Ca21  1  0.59441589  0.82559029  0.16313120  1
  Ca2+  Ca22  1  0.58191591  0.82315280  0.49411602  1
  Ca2+  Ca23  1  0.58783240  0.82168578  0.82793710  1
  Ca2+  Ca24  1  0.33761114  0.41462668  0.16834021  1
  Ca2+  Ca25  1  0.33842265  0.42060304  0.50863664  1
  Ca2+  Ca26  1  0.33916300  0.42183857  0.83449837  1
  Ca2+  Ca27  1  0.31785799  0.90944153  0.17095108  1
  Ca2+  Ca28  1  0.32982004  0.91684184  0.51047798  1
  Ca2+  Ca29  1  0.33354383  0.91689138  0.83788828  1
  Ca2+  Ca30  1  0.83542014  0.43043983  0.16722610  1
  Ca2+  Ca31  1  0.82619213  0.42886048  0.50812600  1
  Ca2+  Ca32  1  0.82049675  0.42275139  0.84614727  1
  Ca2+  Ca33  1  0.82610666  0.90590492  0.16783591  1
  Ca2+  Ca34  1  0.83096232  0.90671491  0.49851390  1
  Ca2+  Ca35  1  0.83372514  0.91614564  0.84336152  1
  Ca2+  Ca36  1  0.41729381  0.17779860  0.16168306  1
  Ca2+  Ca37  1  0.40992508  0.17649637  0.49777254  1
  Ca2+  Ca38  1  0.41348392  0.17639034  0.82761832  1
  Ca2+  Ca39  1  0.43337563  0.66529480  0.16107831  1
  Ca2+  Ca40  1  0.42734485  0.66267850  0.50208548  1
  Ca2+  Ca41  1  0.42702111  0.67070127  0.82516471  1
  Ca2+  Ca42  1  0.91122880  0.17224839  0.15717730  1
  Ca2+  Ca43  1  0.91712514  0.16955948  0.49763700  1
  Ca2+  Ca44  1  0.90635796  0.17132500  0.83538561  1
  Ca2+  Ca45  1  0.91681393  0.67332516  0.15766027  1
  Ca2+  Ca46  1  0.91477442  0.67638177  0.49593189  1
  Ca2+  Ca47  1  0.92052199  0.67453231  0.83088644  1
  Al0+  Al48  1  0.00284744  0.00146737  0.00297201  1
  Al0+  Al49  1  0.00053246  0.00013096  0.33537276  1
  Al0+  Al50  1  -0.00045594  0.00179487  0.66306877  1
  Al0+  Al51  1  0.00223510  0.49771646  -0.00479611  1
  Al0+  Al52  1  0.00046041  0.50037005  0.34025084  1
  Al0+  Al53  1  -0.00031835  0.49920129  0.66341936  1
  Al0+  Al54  1  0.49941280  0.00242272  0.00719613  1
  Al0+  Al55  1  0.49932460  0.00183071  0.33611491  1
  Al0+  Al56  1  0.50031719  0.00124692  0.67024973  1
  Al0+  Al57  1  0.49860697  0.50136180  -0.00374217  1
  Al0+  Al58  1  0.50030807  0.50032483  0.32438009  1
  Al0+  Al59  1  0.49808484  0.49964410  0.66683194  1
  Al0+  Al60  1  0.25038495  0.25164200  -0.00383277  1
  Al0+  Al61  1  0.24866358  0.25015293  0.32775448  1
  Al0+  Al62  1  0.24872691  0.24869438  0.66751661  1
  Al0+  Al63  1  0.25190503  0.74990678  0.00352502  1
  Al0+  Al64  1  0.25027667  0.74845399  0.34060152  1
  Al0+  Al65  1  0.24842790  0.74944279  0.66534106  1
  Al0+  Al66  1  0.74629679  0.24882020  0.00365839  1
  Al0+  Al67  1  0.74796630  0.25001588  0.33341741  1
  Al0+  Al68  1  0.74814310  0.24992883  0.66782317  1
  Al0+  Al69  1  0.75131555  0.74788311  -0.00323914  1
  Al0+  Al70  1  0.75119300  0.74987986  0.33543018  1
  Al0+  Al71  1  0.75141679  0.74909394  0.66013982  1
  Al0+  Al72  1  0.42899554  0.82412437  0.65402190  1
  Al0+  Al73  1  0.67923052  0.92594615  0.01366799  1
  Al0+  Al74  1  0.92989611  0.82313911  0.64959664  1
  Al0+  Al75  1  0.82384392  0.56941337  0.01292785  1
  Al0+  Al76  1  0.42931613  0.31859371  0.65310725  1
  Al0+  Al77  1  0.93191655  0.81978565  0.31748456  1
  Al0+  Al78  1  0.57148779  0.68176869  0.98588595  1
  Al0+  Al79  1  0.67928337  0.43059574  0.67949598  1
  Al0+  Al80  1  0.07135468  0.67719987  0.64974494  1
  Al0+  Al81  1  0.57005808  0.68162702  0.31754261  1
  Al0+  Al82  1  0.92980150  0.82161836  0.98598692  1
  Al0+  Al83  1  0.57023981  0.67829161  0.65090155  1
  Al0+  Al84  1  0.17831768  0.92785826  0.35005903  1
  Al0+  Al85  1  0.31864557  0.57067335  0.68089430  1
  Al0+  Al86  1  0.82129442  0.57060777  0.34887370  1
  Al0+  Al87  1  0.67528344  0.43011536  0.01613760  1
  Al0+  Al88  1  0.18181162  0.92844373  0.01246036  1
  Al0+  Al89  1  0.92663499  0.31954366  0.98742801  1
  Al0+  Al90  1  0.82244928  0.07124696  0.01427468  1
  Al0+  Al91  1  0.67970856  0.92948836  0.34889260  1
  Al0+  Al92  1  0.07434490  0.67750758  0.98637118  1
  Al0+  Al93  1  0.32187101  0.07116869  0.68076126  1
  Al0+  Al94  1  0.43032505  0.31927218  0.31851970  1
  Al0+  Al95  1  0.42959305  0.32034259  0.98306758  1
  Si0+  Si96  1  0.17558203  0.42592453  0.68441540  1
  Si0+  Si97  1  0.07027548  0.18062785  0.65116956  1
  Si0+  Si98  1  0.07266186  0.17798070  0.98239979  1
  Si0+  Si99  1  0.57350211  0.17484564  0.31459208  1
  Si0+  Si100  1  0.92594361  0.32021731  0.65118822  1
  Si0+  Si101  1  0.82332082  0.57292884  0.68424062  1
  Si0+  Si102  1  0.07445937  0.67603808  0.31768526  1
  Si0+  Si103  1  0.31936831  0.07360891  0.34894127  1
  Si0+  Si104  1  0.68062249  0.92791544  0.68014995  1
  Si0+  Si105  1  0.32302855  0.56826152  0.34760134  1
  Si0+  Si106  1  0.67661918  0.42761126  0.34923197  1
  Si0+  Si107  1  0.57073966  0.17591997  0.98277926  1
  Si0+  Si108  1  0.17970408  0.42700400  0.01466623  1
  Si0+  Si109  1  0.06964796  0.18040271  0.31809930  1
  Si0+  Si110  1  0.82184859  0.07501826  0.35167692  1
  Si0+  Si111  1  0.32038177  0.57046503  0.01597552  1
  Si0+  Si112  1  0.32125592  0.07552373  0.01867492  1
  Si0+  Si113  1  0.57388100  0.17750298  0.64993836  1
  Si0+  Si114  1  0.42737037  0.82366085  0.98774348  1
  Si0+  Si115  1  0.17934230  0.42782943  0.34753329  1
  Si0+  Si116  1  0.17693498  0.92901750  0.68376950  1
  Si0+  Si117  1  0.42599931  0.82442401  0.31802855  1
  Si0+  Si118  1  0.92822802  0.32242112  0.32074500  1
  Si0+  Si119  1  0.82174621  0.07180953  0.68037535  1
  O2-  O120  1  0.25644709  0.00300148  0.06188081  1
  O2-  O121  1  0.25742804  -0.00032899  0.39457201  1
  O2-  O122  1  0.25163857  -0.00792833  0.72719644  1
  O2-  O123  1  0.24835780  0.49966376  0.05782973  1
  O2-  O124  1  0.25012546  0.49844557  0.38940995  1
  O2-  O125  1  0.24082239  0.49797706  0.72773061  1
  O2-  O126  1  0.75515862  -0.00518151  0.06374971  1
  O2-  O127  1  0.75349884  0.00618756  0.39596697  1
  O2-  O128  1  0.75362915  -0.00208556  0.72092344  1
  O2-  O129  1  0.75086332  0.49870481  0.06522215  1
  O2-  O130  1  0.74683802  0.49413456  0.39394215  1
  O2-  O131  1  0.75351017  0.50496924  0.72680380  1
  O2-  O132  1  -0.00416675  0.24890951  0.27706850  1
  O2-  O133  1  -0.00040338  0.25204245  0.60811278  1
  O2-  O134  1  -0.00143740  0.24178586  0.93932167  1
  O2-  O135  1  0.00812848  0.74561207  0.27271824  1
  O2-  O136  1  -0.00021079  0.74893651  0.59939476  1
  O2-  O137  1  0.00086336  0.74805388  0.93714581  1
  O2-  O138  1  0.50576926  0.24557169  0.27196967  1
  O2-  O139  1  0.50344462  0.24418733  0.60488454  1
  O2-  O140  1  0.50430208  0.24589459  0.93714599  1
  O2-  O141  1  0.49673642  0.75917925  0.27220901  1
  O2-  O142  1  0.50017991  0.75301935  0.60130281  1
  O2-  O143  1  0.50180751  0.76271981  0.94287470  1
  O2-  O144  1  0.07597477  0.18203528  0.08830201  1
  O2-  O145  1  0.07163563  0.18378355  0.42356868  1
  O2-  O146  1  0.06957339  0.18006244  0.75578273  1
  O2-  O147  1  0.07582303  0.67897347  0.10040760  1
  O2-  O148  1  0.07439433  0.67498201  0.42292523  1
  O2-  O149  1  0.06984812  0.67923681  0.76300712  1
  O2-  O150  1  0.56721292  0.17501757  0.08843014  1
  O2-  O151  1  0.57366383  0.17393891  0.42026915  1
  O2-  O152  1  0.57613318  0.17853348  0.75507132  1
  O2-  O153  1  0.56976890  0.68097086  0.09920966  1
  O2-  O154  1  0.56650856  0.67866749  0.43039355  1
  O2-  O155  1  0.57026649  0.67921551  0.76426669  1
  O2-  O156  1  0.17738652  0.42663517  0.24257395  1
  O2-  O157  1  0.17725701  0.42297169  0.57814468  1
  O2-  O158  1  0.18109161  0.42235610  0.91014852  1
  O2-  O159  1  0.17788499  0.92977348  0.23690129  1
  O2-  O160  1  0.17578611  0.93414582  0.57794031  1
  O2-  O161  1  0.18483112  0.93047912  0.89946564  1
  O2-  O162  1  0.67771801  0.42646971  0.24421294  1
  O2-  O163  1  0.68212891  0.42893576  0.56586587  1
  O2-  O164  1  0.67543626  0.43248497  0.90230089  1
  O2-  O165  1  0.68207636  0.92996308  0.23637466  1
  O2-  O166  1  0.67986428  0.93051653  0.57492570  1
  O2-  O167  1  0.67744879  0.92879508  0.89966116  1
  O2-  O168  1  0.42770320  0.31808216  0.09654464  1
  O2-  O169  1  0.42858528  0.31932831  0.43162150  1
  O2-  O170  1  0.42937028  0.31790088  0.76560952  1
  O2-  O171  1  0.42272366  0.81786163  0.09336755  1
  O2-  O172  1  0.42627078  0.82287491  0.42342707  1
  O2-  O173  1  0.43273929  0.82406656  0.76784775  1
  O2-  O174  1  0.93230625  0.32005477  0.10111773  1
  O2-  O175  1  0.93126916  0.32074555  0.42626635  1
  O2-  O176  1  0.92527717  0.31780821  0.75587978  1
  O2-  O177  1  0.93149272  0.82033152  0.09965440  1
  O2-  O178  1  0.93325639  0.81882267  0.43048201  1
  O2-  O179  1  0.93086821  0.82753027  0.76261778  1
  O2-  O180  1  0.31459363  0.07653901  0.24357667  1
  O2-  O181  1  0.31590989  0.07482926  0.56751435  1
  O2-  O182  1  0.31938615  0.07721970  0.91306194  1
  O2-  O183  1  0.32207998  0.56719553  0.24233318  1
  O2-  O184  1  0.32019404  0.56503292  0.56719041  1
  O2-  O185  1  0.32022335  0.57056858  0.91118333  1
  O2-  O186  1  0.82158999  0.07913153  0.24687063  1
  O2-  O187  1  0.82103479  0.07586552  0.57529375  1
  O2-  O188  1  0.81869807  0.07134829  0.90000569  1
  O2-  O189  1  0.82532096  0.56868353  0.23631360  1
  O2-  O190  1  0.82343470  0.57008358  0.57814643  1
  O2-  O191  1  0.82380661  0.56766845  0.89955775  1
  O2-  O192  1  0.04413186  0.08797925  0.27210735  1
  O2-  O193  1  0.04121312  0.09079037  0.60048445  1
  O2-  O194  1  0.05398136  0.08328329  0.93721834  1
  O2-  O195  1  0.04893166  0.58073887  0.27421360  1
  O2-  O196  1  0.04799893  0.57615728  0.59763893  1
  O2-  O197  1  0.05408743  0.57731816  0.93426809  1
  O2-  O198  1  0.54589249  0.08229312  0.26736278  1
  O2-  O199  1  0.54895959  0.08355538  0.60481228  1
  O2-  O200  1  0.54349650  0.08234454  0.93647026  1
  O2-  O201  1  0.53685230  0.58685657  0.26174252  1
  O2-  O202  1  0.53701039  0.58157274  0.59737983  1
  O2-  O203  1  0.53308506  0.58815934  0.93194065  1
  O2-  O204  1  0.15856226  0.21138685  0.26733507  1
  O2-  O205  1  0.16046024  0.20976404  0.60114133  1
  O2-  O206  1  0.16301786  0.21054772  0.93390808  1
  O2-  O207  1  0.17030881  0.69864514  0.27446541  1
  O2-  O208  1  0.17007275  0.70401573  0.59687755  1
  O2-  O209  1  0.17251604  0.70983793  0.93464511  1
  O2-  O210  1  0.66794070  0.19923937  0.26955266  1
  O2-  O211  1  0.66645052  0.20402116  0.60106828  1
  O2-  O212  1  0.66528714  0.19783555  0.93800534  1
  O2-  O213  1  0.66734052  0.71260520  0.26665386  1
  O2-  O214  1  0.66889756  0.70419500  0.59774959  1
  O2-  O215  1  0.66805418  0.70618083  0.93018624  1
  O2-  O216  1  0.08770277  0.45165511  0.06301652  1
  O2-  O217  1  0.08869500  0.45303949  0.39895297  1
  O2-  O218  1  0.07944063  0.44657295  0.72759457  1
  O2-  O219  1  0.08721057  0.96149948  0.06903187  1
  O2-  O220  1  0.08418801  0.96543362  0.40481452  1
  O2-  O221  1  0.08584368  0.96431440  0.72915504  1
  O2-  O222  1  0.57711691  0.46162985  0.06782063  1
  O2-  O223  1  0.58285797  0.45742861  0.39315900  1
  O2-  O224  1  0.58234407  0.45944601  0.73221307  1
  O2-  O225  1  0.58153564  0.95622813  0.06910100  1
  O2-  O226  1  0.58169942  0.95956059  0.40227377  1
  O2-  O227  1  0.59017459  0.95665207  0.72889079  1
  O2-  O228  1  0.21009784  0.33649206  0.06460840  1
  O2-  O229  1  0.20722919  0.33536988  0.39451259  1
  O2-  O230  1  0.20284502  0.33339001  0.73091427  1
  O2-  O231  1  0.21358614  0.83363119  0.07042204  1
  O2-  O232  1  0.20548606  0.83050694  0.40449875  1
  O2-  O233  1  0.19535765  0.83326793  0.72611442  1
  O2-  O234  1  0.69694325  0.32931857  0.06598651  1
  O2-  O235  1  0.69812429  0.33249310  0.39514685  1
  O2-  O236  1  0.70980164  0.33316786  0.73279071  1
  O2-  O237  1  0.70729072  0.82767701  0.06601242  1
  O2-  O238  1  0.71259713  0.83443676  0.40382464  1
  O2-  O239  1  0.70818236  0.83520262  0.72511186  1
  O2-  O240  1  0.45927359  0.41477636  0.26209140  1
  O2-  O241  1  0.46087992  0.41427157  0.59848242  1
  O2-  O242  1  0.45829997  0.41746667  0.93047186  1
  O2-  O243  1  0.44507335  0.92064861  0.27474236  1
  O2-  O244  1  0.45404838  0.92419779  0.60182162  1
  O2-  O245  1  0.44338597  0.92177569  0.94804215  1
  O2-  O246  1  0.96077234  0.41316802  0.27481827  1
  O2-  O247  1  0.95196063  0.41190330  0.60289490  1
  O2-  O248  1  0.96273475  0.41202020  0.92967419  1
  O2-  O249  1  0.95992369  0.91922509  0.26782302  1
  O2-  O250  1  0.95813065  0.92203938  0.59563035  1
  O2-  O251  1  0.95943618  0.92128725  0.93578278  1
  O2-  O252  1  0.33319460  0.28868992  0.26385791  1
  O2-  O253  1  0.33140474  0.28829433  0.59999429  1
  O2-  O254  1  0.33272732  0.28978716  0.92937604  1
  O2-  O255  1  0.33234447  0.79408811  0.27382916  1
  O2-  O256  1  0.32929379  0.79860065  0.60327955  1
  O2-  O257  1  0.33741735  0.79172275  0.93875011  1
  O2-  O258  1  0.83498311  0.29826376  0.27522865  1
  O2-  O259  1  0.83643136  0.28809875  0.60160737  1
  O2-  O260  1  0.82912397  0.28971871  0.93459159  1
  O2-  O261  1  0.83496508  0.78721014  0.26708403  1
  O2-  O262  1  0.83218080  0.79398569  0.59543479  1
  O2-  O263  1  0.83215501  0.79473523  0.93174798  1
  O2-  O264  1  0.41565644  0.05659010  0.06518880  1
  O2-  O265  1  0.41566449  0.05780190  0.39257627  1
  O2-  O266  1  0.41977331  0.04801353  0.73616167  1
  O2-  O267  1  0.41033851  0.53881194  0.06426738  1
  O2-  O268  1  0.41390421  0.53610521  0.39390255  1
  O2-  O269  1  0.41353551  0.53652401  0.73548207  1
  O2-  O270  1  0.92428790  0.05487359  0.06456646  1
  O2-  O271  1  0.91622723  0.05078623  0.39708504  1
  O2-  O272  1  0.91525104  0.04878722  0.72640995  1
  O2-  O273  1  0.92243420  0.53805015  0.06553201  1
  O2-  O274  1  0.91700416  0.53865042  0.40587724  1
  O2-  O275  1  0.91729984  0.54534861  0.72758743  1
  O2-  O276  1  0.28982500  0.16782505  0.06458274  1
  O2-  O277  1  0.28544552  0.16527649  0.39574688  1
  O2-  O278  1  0.28427676  0.16538517  0.73598338  1
  O2-  O279  1  0.29390607  0.66095974  0.06652792  1
  O2-  O280  1  0.29861030  0.65985806  0.39669223  1
  O2-  O281  1  0.29060005  0.66831332  0.73494073  1
  O2-  O282  1  0.78956274  0.16723842  0.07012403  1
  O2-  O283  1  0.79634063  0.16897944  0.39956073  1
  O2-  O284  1  0.79153679  0.16233456  0.72906908  1
  O2-  O285  1  0.79472879  0.66745177  0.06535634  1
  O2-  O286  1  0.78800506  0.66525381  0.40377202  1
  O2-  O287  1  0.79952708  0.66814849  0.72655615  1
