# generated using pymatgen
data_Ca2Al2SiO7
_symmetry_space_group_name_H-M   'P 1'
_cell_length_a   15.47742741
_cell_length_b   15.47183765
_cell_length_c   15.29620104
_cell_angle_alpha   89.99833815
_cell_angle_beta   89.99139431
_cell_angle_gamma   90.01077033
_symmetry_Int_Tables_number   1
_chemical_formula_structural   Ca2Al2SiO7
_chemical_formula_sum   'Ca48 Al48 Si24 O168'
_cell_volume   3662.89311382
_cell_formula_units_Z   24
loop_
 _symmetry_equiv_pos_site_id
 _symmetry_equiv_pos_as_xyz
  1  'x, y, z'
loop_
 _atom_type_symbol
 _atom_type_oxidation_number
  Ca2+  2.0
  Al0+  0.0
  Si0+  0.0
  O2-  -2.0
loop_
 _atom_site_type_symbol
 _atom_site_label
 _atom_site_symmetry_multiplicity
 _atom_site_fract_x
 _atom_site_fract_y
 _atom_site_fract_z
 _atom_site_occupancy
  Ca2+  Ca0  1  0.17674089  0.07888459  0.17909889  1
  Ca2+  Ca1  1  0.18001863  0.07950903  0.49972482  1
  Ca2+  Ca2  1  0.17496116  0.08525555  0.83185827  1
  Ca2+  Ca3  1  0.18190757  0.57837275  0.17419495  1
  Ca2+  Ca4  1  0.17486029  0.58092638  0.49447922  1
  Ca2+  Ca5  1  0.17824694  0.57990631  0.83966217  1
  Ca2+  Ca6  1  0.66173674  0.07825942  0.17630645  1
  Ca2+  Ca7  1  0.65384972  0.07467676  0.50165715  1
  Ca2+  Ca8  1  0.64993987  0.07430762  0.83323533  1
  Ca2+  Ca9  1  0.66831336  0.57664009  0.17496803  1
  Ca2+  Ca10  1  0.66326185  0.58085297  0.50431724  1
  Ca2+  Ca11  1  0.67604444  0.58901411  0.83594652  1
  Ca2+  Ca12  1  0.07973439  0.34128612  0.17076959  1
  Ca2+  Ca13  1  0.07074654  0.34078667  0.49329123  1
  Ca2+  Ca14  1  0.07674517  0.33440089  0.82592154  1
  Ca2+  Ca15  1  0.08319613  0.83745957  0.16573640  1
  Ca2+  Ca16  1  0.08132233  0.83674090  0.49125725  1
  Ca2+  Ca17  1  0.07785492  0.82953657  0.82817668  1
  Ca2+  Ca18  1  0.58437914  0.32199002  0.16385650  1
  Ca2+  Ca19  1  0.58525667  0.32265375  0.49287920  1
  Ca2+  Ca20  1  0.57459388  0.32255695  0.82782461  1
  Ca2+  Ca21  1  0.58368192  0.83466099  0.17023189  1
  Ca2+  Ca22  1  0.58307754  0.82597011  0.49545925  1
  Ca2+  Ca23  1  0.58341394  0.83055301  0.82299419  1
  Ca2+  Ca24  1  0.33737055  0.42451229  0.17485275  1
  Ca2+  Ca25  1  0.33475740  0.41785656  0.50396638  1
  Ca2+  Ca26  1  0.34253232  0.41818034  0.84010457  1
  Ca2+  Ca27  1  0.33086456  0.92206090  0.18122377  1
  Ca2+  Ca28  1  0.34890532  0.92647265  0.49949340  1
  Ca2+  Ca29  1  0.34514274  0.92359425  0.82968678  1
  Ca2+  Ca30  1  0.82801962  0.41904150  0.17483490  1
  Ca2+  Ca31  1  0.82680070  0.41424392  0.50201254  1
  Ca2+  Ca32  1  0.83371629  0.42415962  0.83323484  1
  Ca2+  Ca33  1  0.81889746  0.92579236  0.17460941  1
  Ca2+  Ca34  1  0.82029838  0.92390506  0.50066616  1
  Ca2+  Ca35  1  0.81580135  0.91674016  0.83831453  1
  Ca2+  Ca36  1  0.42693907  0.16654448  0.16371905  1
  Ca2+  Ca37  1  0.42252126  0.16476953  0.49818852  1
  Ca2+  Ca38  1  0.42254411  0.17386972  0.82621469  1
  Ca2+  Ca39  1  0.41724380  0.66622338  0.16837263  1
  Ca2+  Ca40  1  0.42324683  0.67767172  0.48998927  1
  Ca2+  Ca41  1  0.42465364  0.67225242  0.82380961  1
  Ca2+  Ca42  1  0.91136195  0.17034560  0.17038882  1
  Ca2+  Ca43  1  0.91259512  0.17558000  0.49009855  1
  Ca2+  Ca44  1  0.92067818  0.17323232  0.82476084  1
  Ca2+  Ca45  1  0.91745572  0.66560761  0.16207850  1
  Ca2+  Ca46  1  0.91623475  0.66346434  0.49720250  1
  Ca2+  Ca47  1  0.91344360  0.66167124  0.82633549  1
  Al0+  Al48  1  -0.00246162  -0.00057582  -0.00393099  1
  Al0+  Al49  1  -0.00004515  0.00228143  0.33822978  1
  Al0+  Al50  1  0.00039550  -0.00088349  0.66782143  1
  Al0+  Al51  1  0.00208342  0.50148421  0.00198582  1
  Al0+  Al52  1  0.00103076  0.50152460  0.32990925  1
  Al0+  Al53  1  0.00026504  0.50002986  0.66710325  1
  Al0+  Al54  1  0.49786841  -0.00213923  0.00268781  1
  Al0+  Al55  1  0.49980340  -0.00134017  0.33205869  1
  Al0+  Al56  1  0.49811031  0.00028030  0.67084269  1
  Al0+  Al57  1  0.50257008  0.50132013  0.00089178  1
  Al0+  Al58  1  0.50245260  0.50124180  0.33907679  1
  Al0+  Al59  1  0.50081189  0.49866506  0.66459241  1
  Al0+  Al60  1  0.24706788  0.24964257  -0.00220945  1
  Al0+  Al61  1  0.24621187  0.25017045  0.34056762  1
  Al0+  Al62  1  0.24812039  0.24847961  0.66898341  1
  Al0+  Al63  1  0.24869931  0.74801502  0.00147721  1
  Al0+  Al64  1  0.24814786  0.74857136  0.33531970  1
  Al0+  Al65  1  0.24786801  0.74889123  0.66415159  1
  Al0+  Al66  1  0.75200810  0.24876795  -0.00804659  1
  Al0+  Al67  1  0.75078976  0.25368337  0.32908804  1
  Al0+  Al68  1  0.75106614  0.24988282  0.66200454  1
  Al0+  Al69  1  0.75068718  0.75210853  0.00913771  1
  Al0+  Al70  1  0.75209789  0.75179469  0.33087228  1
  Al0+  Al71  1  0.75195992  0.75081652  0.67029755  1
  Al0+  Al72  1  0.17798788  0.42967950  0.34875537  1
  Al0+  Al73  1  0.93124975  0.32102871  0.65253184  1
  Al0+  Al74  1  0.57388161  0.67750249  0.31638950  1
  Al0+  Al75  1  0.56919688  0.18015444  0.31997773  1
  Al0+  Al76  1  0.32297365  0.07133850  0.34797659  1
  Al0+  Al77  1  0.56963952  0.17937676  0.65060098  1
  Al0+  Al78  1  0.32340600  0.57041412  0.01260008  1
  Al0+  Al79  1  0.57117501  0.17582616  0.98458022  1
  Al0+  Al80  1  0.32360909  0.57020819  0.35060173  1
  Al0+  Al81  1  0.67955938  0.43003867  0.34586172  1
  Al0+  Al82  1  0.42595214  0.32184328  0.65126793  1
  Al0+  Al83  1  0.17803135  0.92790837  0.34706583  1
  Al0+  Al84  1  0.57516264  0.67931082  0.65399361  1
  Al0+  Al85  1  0.67714266  0.93166548  0.01566549  1
  Al0+  Al86  1  0.68041708  0.93161087  0.68068689  1
  Al0+  Al87  1  0.42885903  0.81941832  0.31669316  1
  Al0+  Al88  1  0.42783884  0.81953188  0.65245451  1
  Al0+  Al89  1  0.67829810  0.92906787  0.35021868  1
  Al0+  Al90  1  0.82189646  0.57022996  0.01454949  1
  Al0+  Al91  1  0.92962669  0.32212389  0.31718111  1
  Al0+  Al92  1  0.81942287  0.56826391  0.67865022  1
  Al0+  Al93  1  0.81944327  0.07390666  0.34708717  1
  Al0+  Al94  1  0.42857411  0.32238508  0.98843570  1
  Al0+  Al95  1  0.31924193  0.06979476  0.68294965  1
  Si0+  Si96  1  0.42604955  0.81850019  0.98600221  1
  Si0+  Si97  1  0.06972142  0.67951604  0.31571178  1
  Si0+  Si98  1  0.17815036  0.42697870  0.01576390  1
  Si0+  Si99  1  0.67657083  0.42451493  0.68491387  1
  Si0+  Si100  1  0.07077260  0.67946370  0.98340414  1
  Si0+  Si101  1  0.07145579  0.17794688  0.31619375  1
  Si0+  Si102  1  0.92949848  0.82123460  0.65195541  1
  Si0+  Si103  1  0.68054705  0.42614379  0.01477911  1
  Si0+  Si104  1  0.17494320  0.92545770  0.68579385  1
  Si0+  Si105  1  0.82274689  0.57270016  0.34798167  1
  Si0+  Si106  1  0.07156825  0.17571251  0.64851558  1
  Si0+  Si107  1  0.17627602  0.92861971  0.01220820  1
  Si0+  Si108  1  0.93118856  0.32326612  0.98373762  1
  Si0+  Si109  1  0.92853619  0.81982296  0.98412630  1
  Si0+  Si110  1  0.82450249  0.07369731  0.68411741  1
  Si0+  Si111  1  0.93025728  0.82432773  0.31695347  1
  Si0+  Si112  1  0.57342154  0.68054302  0.98656491  1
  Si0+  Si113  1  0.31783154  0.07034416  0.01458800  1
  Si0+  Si114  1  0.42479734  0.32259243  0.32002470  1
  Si0+  Si115  1  0.17920613  0.43078906  0.68213907  1
  Si0+  Si116  1  0.07017506  0.67864716  0.65091056  1
  Si0+  Si117  1  0.32154399  0.57159099  0.68181100  1
  Si0+  Si118  1  0.07028493  0.17647544  0.98404154  1
  Si0+  Si119  1  0.82494780  0.07275539  0.01478115  1
  O2-  O120  1  0.24641430  -0.00107580  0.05511392  1
  O2-  O121  1  0.25439649  -0.00561807  0.39658952  1
  O2-  O122  1  0.24548011  -0.00785379  0.72980481  1
  O2-  O123  1  0.25394405  0.48906304  0.05661742  1
  O2-  O124  1  0.25569119  0.49378097  0.40040659  1
  O2-  O125  1  0.25550034  0.49565933  0.72532366  1
  O2-  O126  1  0.74884248  0.01201849  0.05715189  1
  O2-  O127  1  0.74579224  0.00580279  0.39925283  1
  O2-  O128  1  0.75309695  0.00857433  0.72916096  1
  O2-  O129  1  0.74973017  0.49405481  0.06012767  1
  O2-  O130  1  0.75051850  0.50904495  0.39185660  1
  O2-  O131  1  0.74277552  0.49713773  0.72807268  1
  O2-  O132  1  0.00422540  0.24720175  0.26993387  1
  O2-  O133  1  0.00119846  0.24242093  0.60537203  1
  O2-  O134  1  0.00063707  0.24969828  0.94275456  1
  O2-  O135  1  0.00102784  0.75307978  0.27355606  1
  O2-  O136  1  0.00220769  0.75244473  0.60920461  1
  O2-  O137  1  -0.00232403  0.74757382  0.93980797  1
  O2-  O138  1  0.49163553  0.25312096  0.27432907  1
  O2-  O139  1  0.50065190  0.25403703  0.60062905  1
  O2-  O140  1  0.49914805  0.24960468  0.93754151  1
  O2-  O141  1  0.50048761  0.74769483  0.26492156  1
  O2-  O142  1  0.49904942  0.74639854  0.60424883  1
  O2-  O143  1  0.49986649  0.74954205  0.94504749  1
  O2-  O144  1  0.07126092  0.17254322  0.08829192  1
  O2-  O145  1  0.06900247  0.17652874  0.42127181  1
  O2-  O146  1  0.07033719  0.17720524  0.75530005  1
  O2-  O147  1  0.07136664  0.68150588  0.08795940  1
  O2-  O148  1  0.06612126  0.67724157  0.42093407  1
  O2-  O149  1  0.06992636  0.67862898  0.75659205  1
  O2-  O150  1  0.57019454  0.17619034  0.09806185  1
  O2-  O151  1  0.56965744  0.18089790  0.43232819  1
  O2-  O152  1  0.56649646  0.17950811  0.76457596  1
  O2-  O153  1  0.57412373  0.68002457  0.09095547  1
  O2-  O154  1  0.57543502  0.67946102  0.42959656  1
  O2-  O155  1  0.57502227  0.68245046  0.76886924  1
  O2-  O156  1  0.17704909  0.43430711  0.23474174  1
  O2-  O157  1  0.17580918  0.43511692  0.57794524  1
  O2-  O158  1  0.17261937  0.43033004  0.90995573  1
  O2-  O159  1  0.17647223  0.93190610  0.23230278  1
  O2-  O160  1  0.16815260  0.92655421  0.58148046  1
  O2-  O161  1  0.17446239  0.92847550  0.90726794  1
  O2-  O162  1  0.68315554  0.42843967  0.23215391  1
  O2-  O163  1  0.67960338  0.42294476  0.57973748  1
  O2-  O164  1  0.68246595  0.42758379  0.90923226  1
  O2-  O165  1  0.68128409  0.92987385  0.23632067  1
  O2-  O166  1  0.68352990  0.92952794  0.56872632  1
  O2-  O167  1  0.67943058  0.92784749  0.90242665  1
  O2-  O168  1  0.42760799  0.32085296  0.10179076  1
  O2-  O169  1  0.42640081  0.32071518  0.42527470  1
  O2-  O170  1  0.42621284  0.32034592  0.76535452  1
  O2-  O171  1  0.42189085  0.81835948  0.09027104  1
  O2-  O172  1  0.42982602  0.81867787  0.42968870  1
  O2-  O173  1  0.42816088  0.81694606  0.76748713  1
  O2-  O174  1  0.93230317  0.32480759  0.08830978  1
  O2-  O175  1  0.93216685  0.32403549  0.42989247  1
  O2-  O176  1  0.93603221  0.32205268  0.76666699  1
  O2-  O177  1  0.93278742  0.82120155  0.08877458  1
  O2-  O178  1  0.93098182  0.82236229  0.42216202  1
  O2-  O179  1  0.93107600  0.81963170  0.75760407  1
  O2-  O180  1  0.31957695  0.07171842  0.23332341  1
  O2-  O181  1  0.31780595  0.06941779  0.57091539  1
  O2-  O182  1  0.31641773  0.06966825  0.90950547  1
  O2-  O183  1  0.32039041  0.57009589  0.23641632  1
  O2-  O184  1  0.31670007  0.57421159  0.57773022  1
  O2-  O185  1  0.31882322  0.57397490  0.89913863  1
  O2-  O186  1  0.81995434  0.07018308  0.23273969  1
  O2-  O187  1  0.82996876  0.07040560  0.57950473  1
  O2-  O188  1  0.83425331  0.06775794  0.90977645  1
  O2-  O189  1  0.82450665  0.56984706  0.24198929  1
  O2-  O190  1  0.82329653  0.56744775  0.56630082  1
  O2-  O191  1  0.82252091  0.56966040  0.90133077  1
  O2-  O192  1  0.04417377  0.08478597  0.26889371  1
  O2-  O193  1  0.04924524  0.08050341  0.60544341  1
  O2-  O194  1  0.04089577  0.08616457  0.93326940  1
  O2-  O195  1  0.03831596  0.59068790  0.26472723  1
  O2-  O196  1  0.03762231  0.58918745  0.60337372  1
  O2-  O197  1  0.04509657  0.58683287  0.93595450  1
  O2-  O198  1  0.54004913  0.08338871  0.26561973  1
  O2-  O199  1  0.53671575  0.08138372  0.60152561  1
  O2-  O200  1  0.53741409  0.07769071  0.93355877  1
  O2-  O201  1  0.54696356  0.57710599  0.26561437  1
  O2-  O202  1  0.55427493  0.57788477  0.60651791  1
  O2-  O203  1  0.54964758  0.58801787  0.93868808  1
  O2-  O204  1  0.16522167  0.20371638  0.26971327  1
  O2-  O205  1  0.16438557  0.20270127  0.60458446  1
  O2-  O206  1  0.16118037  0.20375801  0.93400676  1
  O2-  O207  1  0.16168969  0.70442718  0.26779367  1
  O2-  O208  1  0.16155993  0.70323770  0.60247142  1
  O2-  O209  1  0.16108699  0.71020581  0.93377646  1
  O2-  O210  1  0.66435420  0.21429082  0.26478072  1
  O2-  O211  1  0.67052473  0.20118279  0.60086228  1
  O2-  O212  1  0.67130690  0.19926056  0.93131218  1
  O2-  O213  1  0.67330396  0.70619598  0.26361094  1
  O2-  O214  1  0.67260565  0.71030736  0.60152351  1
  O2-  O215  1  0.66551326  0.71195504  0.94104308  1
  O2-  O216  1  0.08837139  0.46067913  0.06441511  1
  O2-  O217  1  0.08237631  0.46874602  0.40124826  1
  O2-  O218  1  0.09072416  0.46580258  0.73280688  1
  O2-  O219  1  0.08357462  0.95570203  0.05826813  1
  O2-  O220  1  0.08224383  0.95993108  0.40256105  1
  O2-  O221  1  0.08240207  0.95366040  0.73532585  1
  O2-  O222  1  0.58788730  0.45273390  0.06100975  1
  O2-  O223  1  0.58406251  0.45467237  0.40310690  1
  O2-  O224  1  0.58168554  0.44649474  0.73022769  1
  O2-  O225  1  0.57912452  0.95640268  0.06932911  1
  O2-  O226  1  0.57902660  0.95321970  0.40020512  1
  O2-  O227  1  0.58375134  0.95974544  0.73628509  1
  O2-  O228  1  0.19327005  0.33042750  0.05924648  1
  O2-  O229  1  0.19183252  0.32891197  0.40057333  1
  O2-  O230  1  0.19793412  0.33632890  0.72844884  1
  O2-  O231  1  0.20209701  0.83623406  0.05888085  1
  O2-  O232  1  0.19443863  0.82657207  0.39662538  1
  O2-  O233  1  0.19746531  0.82987927  0.73033653  1
  O2-  O234  1  0.70741714  0.33148023  0.05827806  1
  O2-  O235  1  0.71681563  0.33674325  0.40035540  1
  O2-  O236  1  0.70798790  0.33272002  0.73197599  1
  O2-  O237  1  0.71456395  0.83860977  0.07162391  1
  O2-  O238  1  0.71449352  0.83200517  0.40074581  1
  O2-  O239  1  0.71632525  0.83681678  0.73678020  1
  O2-  O240  1  0.45187580  0.41682794  0.27683775  1
  O2-  O241  1  0.44716160  0.42284619  0.60202113  1
  O2-  O242  1  0.45764303  0.42133278  0.93477512  1
  O2-  O243  1  0.45616493  0.91795126  0.26310088  1
  O2-  O244  1  0.45663219  0.91848081  0.60471484  1
  O2-  O245  1  0.45282494  0.91119992  0.94004639  1
  O2-  O246  1  0.96389733  0.41788861  0.26191342  1
  O2-  O247  1  0.96775558  0.41586966  0.59955656  1
  O2-  O248  1  0.96343614  0.41432423  0.93634351  1
  O2-  O249  1  0.96042665  0.91544593  0.26944228  1
  O2-  O250  1  0.95631714  0.91346968  0.60560183  1
  O2-  O251  1  0.95778904  0.91018136  0.93391777  1
  O2-  O252  1  0.32869195  0.30082588  0.27690168  1
  O2-  O253  1  0.32620077  0.29338530  0.60202570  1
  O2-  O254  1  0.32776265  0.29730142  0.93627819  1
  O2-  O255  1  0.32778913  0.79199255  0.26646756  1
  O2-  O256  1  0.32776678  0.79487269  0.60182098  1
  O2-  O257  1  0.33485510  0.78955854  0.93723332  1
  O2-  O258  1  0.83532932  0.29178114  0.25904476  1
  O2-  O259  1  0.83377961  0.29600582  0.59958745  1
  O2-  O260  1  0.83983451  0.29874234  0.93413043  1
  O2-  O261  1  0.83992712  0.79645562  0.26722186  1
  O2-  O262  1  0.83990010  0.79057298  0.60433874  1
  O2-  O263  1  0.83618557  0.79131595  0.93875111  1
  O2-  O264  1  0.40856299  0.04155036  0.06191116  1
  O2-  O265  1  0.42044437  0.04323369  0.40074450  1
  O2-  O266  1  0.41376240  0.03833029  0.74071762  1
  O2-  O267  1  0.42150527  0.54686229  0.06621574  1
  O2-  O268  1  0.42241249  0.54939287  0.40341817  1
  O2-  O269  1  0.41530706  0.54918784  0.72830159  1
  O2-  O270  1  0.91529837  0.03965256  0.06402921  1
  O2-  O271  1  0.91638137  0.04335025  0.40092465  1
  O2-  O272  1  0.91751207  0.04518230  0.73214396  1
  O2-  O273  1  0.92024439  0.54274879  0.06700759  1
  O2-  O274  1  0.91515899  0.54380761  0.39352381  1
  O2-  O275  1  0.91591806  0.53553224  0.73486170  1
  O2-  O276  1  0.28821845  0.16197350  0.06061069  1
  O2-  O277  1  0.29032700  0.16702655  0.40256653  1
  O2-  O278  1  0.28378496  0.16498740  0.73923389  1
  O2-  O279  1  0.28346575  0.66372362  0.06754011  1
  O2-  O280  1  0.28555531  0.66539714  0.40289091  1
  O2-  O281  1  0.28681936  0.66133215  0.73058272  1
  O2-  O282  1  0.80794767  0.17043365  0.05493611  1
  O2-  O283  1  0.79845078  0.17480192  0.39499664  1
  O2-  O284  1  0.80352685  0.16944662  0.72789142  1
  O2-  O285  1  0.79401100  0.66661619  0.06931814  1
  O2-  O286  1  0.80507026  0.66880900  0.39079344  1
  O2-  O287  1  0.79361796  0.66574843  0.73492800  1
