# generated using pymatgen
data_Ca2Al2SiO7
_symmetry_space_group_name_H-M   'P 1'
_cell_length_a   15.45843403
_cell_length_b   15.45930337
_cell_length_c   15.28386011
_cell_angle_alpha   90.00439205
_cell_angle_beta   90.01341713
_cell_angle_gamma   89.98932240
_symmetry_Int_Tables_number   1
_chemical_formula_structural   Ca2Al2SiO7
_chemical_formula_sum   'Ca48 Al48 Si24 O168'
_cell_volume   3652.48507449
_cell_formula_units_Z   24
loop_
 _symmetry_equiv_pos_site_id
 _symmetry_equiv_pos_as_xyz
  1  'x, y, z'
loop_
 _atom_type_symbol
 _atom_type_oxidation_number
  Ca2+  2.0
  Al0+  0.0
  Si0+  0.0
  O2-  -2.0
loop_
 _atom_site_type_symbol
 _atom_site_label
 _atom_site_symmetry_multiplicity
 _atom_site_fract_x
 _atom_site_fract_y
 _atom_site_fract_z
 _atom_site_occupancy
  Ca2+  Ca0  1  0.16534884  0.07961460  0.16518721  1
  Ca2+  Ca1  1  0.16941484  0.07690863  0.51132193  1
  Ca2+  Ca2  1  0.16025297  0.07343714  0.83809357  1
  Ca2+  Ca3  1  0.17432902  0.59106479  0.16491830  1
  Ca2+  Ca4  1  0.16672806  0.57841128  0.51033213  1
  Ca2+  Ca5  1  0.17071567  0.58520680  0.84054236  1
  Ca2+  Ca6  1  0.65500372  0.07475886  0.17027275  1
  Ca2+  Ca7  1  0.66271780  0.07314018  0.50289337  1
  Ca2+  Ca8  1  0.66206081  0.07179756  0.83975555  1
  Ca2+  Ca9  1  0.67162754  0.58778188  0.16877316  1
  Ca2+  Ca10  1  0.67284056  0.59653713  0.49743408  1
  Ca2+  Ca11  1  0.67268636  0.58173946  0.84811476  1
  Ca2+  Ca12  1  0.08097811  0.32630844  0.15804609  1
  Ca2+  Ca13  1  0.08869971  0.32920519  0.50255895  1
  Ca2+  Ca14  1  0.09233226  0.32163725  0.82756231  1
  Ca2+  Ca15  1  0.07390974  0.83109771  0.15721366  1
  Ca2+  Ca16  1  0.07313080  0.83523488  0.50003227  1
  Ca2+  Ca17  1  0.08376223  0.82450839  0.82468367  1
  Ca2+  Ca18  1  0.58488141  0.32388059  0.15398169  1
  Ca2+  Ca19  1  0.57893473  0.32662019  0.49498931  1
  Ca2+  Ca20  1  0.57384983  0.33882757  0.83314078  1
  Ca2+  Ca21  1  0.58645779  0.82701564  0.16364227  1
  Ca2+  Ca22  1  0.57584233  0.83778162  0.49152817  1
  Ca2+  Ca23  1  0.58483529  0.83056994  0.82915630  1
  Ca2+  Ca24  1  0.34091313  0.42203444  0.16144763  1
  Ca2+  Ca25  1  0.33022242  0.41834534  0.50960370  1
  Ca2+  Ca26  1  0.33368767  0.41814293  0.83854863  1
  Ca2+  Ca27  1  0.32559478  0.90861981  0.16862792  1
  Ca2+  Ca28  1  0.33332491  0.91511688  0.50906163  1
  Ca2+  Ca29  1  0.32162564  0.90831604  0.83628704  1
  Ca2+  Ca30  1  0.82988999  0.42862816  0.16785618  1
  Ca2+  Ca31  1  0.83257505  0.42529331  0.50261587  1
  Ca2+  Ca32  1  0.82628301  0.42426128  0.84387582  1
  Ca2+  Ca33  1  0.82092901  0.91198643  0.17062730  1
  Ca2+  Ca34  1  0.82352778  0.90553541  0.50323283  1
  Ca2+  Ca35  1  0.82444336  0.91087741  0.83593102  1
  Ca2+  Ca36  1  0.42758085  0.17255493  0.15976141  1
  Ca2+  Ca37  1  0.41982001  0.17189907  0.49719238  1
  Ca2+  Ca38  1  0.41855748  0.17736107  0.83352119  1
  Ca2+  Ca39  1  0.42693747  0.66852301  0.16090487  1
  Ca2+  Ca40  1  0.42201755  0.68136540  0.49495513  1
  Ca2+  Ca41  1  0.42153967  0.66784727  0.83202118  1
  Ca2+  Ca42  1  0.92090365  0.16783322  0.15901944  1
  Ca2+  Ca43  1  0.92354499  0.16337404  0.50064477  1
  Ca2+  Ca44  1  0.92677650  0.16463631  0.83114794  1
  Ca2+  Ca45  1  0.91536183  0.66714020  0.16284950  1
  Ca2+  Ca46  1  0.91860263  0.67564058  0.49734160  1
  Ca2+  Ca47  1  0.92521009  0.66841592  0.82909628  1
  Al0+  Al48  1  -0.00212613  -0.00033756  0.00083647  1
  Al0+  Al49  1  -0.00064166  -0.00077096  0.32919759  1
  Al0+  Al50  1  -0.00028597  0.00032498  0.66212750  1
  Al0+  Al51  1  0.00048721  0.50012446  0.00075218  1
  Al0+  Al52  1  -0.00060433  0.49855271  0.33835417  1
  Al0+  Al53  1  0.00120493  0.49762331  0.66861318  1
  Al0+  Al54  1  0.49648452  0.00127452  0.00015650  1
  Al0+  Al55  1  0.49566368  0.00252739  0.33039358  1
  Al0+  Al56  1  0.50097787  0.00061574  0.66966135  1
  Al0+  Al57  1  0.49961622  0.50106260  0.00066975  1
  Al0+  Al58  1  0.49865054  0.50056794  0.33385270  1
  Al0+  Al59  1  0.50102609  0.49942112  0.65946736  1
  Al0+  Al60  1  0.25044229  0.24857154  -0.00543510  1
  Al0+  Al61  1  0.25004818  0.24880311  0.33315345  1
  Al0+  Al62  1  0.25158197  0.25082435  0.66173333  1
  Al0+  Al63  1  0.24779955  0.74925934  0.00656621  1
  Al0+  Al64  1  0.24880789  0.74860987  0.33424142  1
  Al0+  Al65  1  0.25280180  0.74878328  0.66244295  1
  Al0+  Al66  1  0.75087369  0.24819780  -0.00241058  1
  Al0+  Al67  1  0.75210121  0.24994971  0.33098109  1
  Al0+  Al68  1  0.75136138  0.25003883  0.66727656  1
  Al0+  Al69  1  0.74927434  0.75132605  0.00336266  1
  Al0+  Al70  1  0.75098528  0.75061070  0.33519792  1
  Al0+  Al71  1  0.75231401  0.74916427  0.66998044  1
  Al0+  Al72  1  0.43092994  0.82170235  0.65595718  1
  Al0+  Al73  1  0.42569404  0.82311829  0.31677267  1
  Al0+  Al74  1  0.57339808  0.17599259  0.98261494  1
  Al0+  Al75  1  0.57128909  0.68177596  0.98664957  1
  Al0+  Al76  1  0.07058770  0.17932839  0.65202055  1
  Al0+  Al77  1  0.67931811  0.92908313  0.68066015  1
  Al0+  Al78  1  0.06989280  0.17849954  0.98628045  1
  Al0+  Al79  1  0.67859493  0.93196308  0.34686383  1
  Al0+  Al80  1  0.32063323  0.57122658  0.01351669  1
  Al0+  Al81  1  0.57082496  0.68052255  0.31819978  1
  Al0+  Al82  1  0.92994825  0.82065268  0.31775751  1
  Al0+  Al83  1  0.18015992  0.42863487  0.68119612  1
  Al0+  Al84  1  0.43056673  0.32141174  0.65073126  1
  Al0+  Al85  1  0.82284167  0.57182206  0.01535756  1
  Al0+  Al86  1  0.17767278  0.92909587  0.01406229  1
  Al0+  Al87  1  0.43080174  0.32226069  0.98491454  1
  Al0+  Al88  1  0.07283476  0.67656399  0.65182827  1
  Al0+  Al89  1  0.67791998  0.42824216  0.01420467  1
  Al0+  Al90  1  0.67650816  0.93053048  0.01448156  1
  Al0+  Al91  1  0.17957726  0.92863318  0.67880987  1
  Al0+  Al92  1  0.82048595  0.57052358  0.35001793  1
  Al0+  Al93  1  0.57128522  0.18100819  0.32072060  1
  Al0+  Al94  1  0.07145330  0.67919585  0.98764987  1
  Al0+  Al95  1  0.92851809  0.82029740  0.65210978  1
  Si0+  Si96  1  0.31781247  0.07209617  0.34935293  1
  Si0+  Si97  1  0.92628699  0.32197651  0.64921717  1
  Si0+  Si98  1  0.82472876  0.07399321  0.35032550  1
  Si0+  Si99  1  0.42622139  0.32215303  0.31643015  1
  Si0+  Si100  1  0.82075188  0.56982223  0.68268064  1
  Si0+  Si101  1  0.57372559  0.67797616  0.65104724  1
  Si0+  Si102  1  0.57371465  0.17815493  0.65021632  1
  Si0+  Si103  1  0.82208295  0.07122848  0.01636024  1
  Si0+  Si104  1  0.17918600  0.42547409  0.01623735  1
  Si0+  Si105  1  0.31949561  0.07369932  0.01756360  1
  Si0+  Si106  1  0.92738392  0.82131733  0.98319841  1
  Si0+  Si107  1  0.32277648  0.07305431  0.68409429  1
  Si0+  Si108  1  0.92841040  0.32286034  0.98315757  1
  Si0+  Si109  1  0.32155643  0.57142585  0.35080710  1
  Si0+  Si110  1  0.17991525  0.42759941  0.34824110  1
  Si0+  Si111  1  0.67771480  0.42591215  0.35050661  1
  Si0+  Si112  1  0.82242664  0.07395879  0.68332224  1
  Si0+  Si113  1  0.07045837  0.67503620  0.31725981  1
  Si0+  Si114  1  0.67873995  0.42745451  0.68006162  1
  Si0+  Si115  1  0.17727040  0.92868209  0.34911849  1
  Si0+  Si116  1  0.42566934  0.82170688  0.98431905  1
  Si0+  Si117  1  0.93030295  0.32232820  0.31842904  1
  Si0+  Si118  1  0.07148414  0.17941547  0.31798453  1
  Si0+  Si119  1  0.32379527  0.57124114  0.68231100  1
  O2-  O120  1  0.25259773  0.00310118  0.06244854  1
  O2-  O121  1  0.25009321  -0.00220712  0.39148306  1
  O2-  O122  1  0.25468661  0.00286125  0.72692578  1
  O2-  O123  1  0.24571616  0.49561960  0.06130427  1
  O2-  O124  1  0.25042206  0.49897659  0.39080967  1
  O2-  O125  1  0.25293513  0.50499701  0.72700924  1
  O2-  O126  1  0.74834155  0.00862883  0.06083423  1
  O2-  O127  1  0.75378349  0.00742497  0.39374022  1
  O2-  O128  1  0.75412032  0.00465485  0.72646171  1
  O2-  O129  1  0.74915857  0.50069080  0.06478675  1
  O2-  O130  1  0.74219818  0.49803830  0.39662570  1
  O2-  O131  1  0.74830558  0.49930102  0.72252253  1
  O2-  O132  1  -0.00056847  0.24925230  0.27627455  1
  O2-  O133  1  -0.00421629  0.25396015  0.60440891  1
  O2-  O134  1  -0.00190475  0.25534790  0.93887553  1
  O2-  O135  1  0.00455275  0.74545595  0.27219584  1
  O2-  O136  1  0.00252985  0.74997280  0.60161338  1
  O2-  O137  1  -0.00325487  0.75290735  0.94029459  1
  O2-  O138  1  0.50136325  0.26036944  0.27411443  1
  O2-  O139  1  0.50549595  0.24677567  0.60490015  1
  O2-  O140  1  0.50522778  0.25260292  0.93446994  1
  O2-  O141  1  0.49942208  0.75287921  0.26747608  1
  O2-  O142  1  0.50769321  0.74975731  0.60839383  1
  O2-  O143  1  0.49813414  0.75765050  0.93930987  1
  O2-  O144  1  0.06800397  0.18056190  0.10028803  1
  O2-  O145  1  0.07267265  0.18052478  0.42292796  1
  O2-  O146  1  0.06901236  0.17937031  0.76477260  1
  O2-  O147  1  0.07169528  0.68205921  0.10109244  1
  O2-  O148  1  0.07002713  0.67407381  0.42278295  1
  O2-  O149  1  0.07119721  0.67691258  0.76540857  1
  O2-  O150  1  0.56953742  0.17670754  0.09659719  1
  O2-  O151  1  0.56798786  0.18188171  0.43430440  1
  O2-  O152  1  0.57378321  0.17931185  0.75516080  1
  O2-  O153  1  0.57140615  0.68238683  0.09934284  1
  O2-  O154  1  0.56837696  0.68257507  0.43241817  1
  O2-  O155  1  0.57285378  0.67519412  0.75656726  1
  O2-  O156  1  0.17919478  0.42485457  0.24341081  1
  O2-  O157  1  0.18268598  0.42880362  0.56715524  1
  O2-  O158  1  0.18079201  0.42438595  0.91088924  1
  O2-  O159  1  0.17651399  0.93146648  0.24398714  1
  O2-  O160  1  0.18084097  0.93200824  0.56513850  1
  O2-  O161  1  0.17829357  0.92868784  0.90094696  1
  O2-  O162  1  0.68136434  0.42299116  0.24560441  1
  O2-  O163  1  0.68091853  0.42510554  0.57480922  1
  O2-  O164  1  0.67988249  0.43160610  0.89972139  1
  O2-  O165  1  0.67987250  0.93325945  0.23402668  1
  O2-  O166  1  0.67790546  0.93068702  0.56735265  1
  O2-  O167  1  0.67977171  0.92889897  0.90121369  1
  O2-  O168  1  0.42901814  0.31872952  0.09890372  1
  O2-  O169  1  0.42286392  0.31870776  0.42216836  1
  O2-  O170  1  0.43191185  0.32337278  0.76302930  1
  O2-  O171  1  0.42518372  0.81876098  0.08989357  1
  O2-  O172  1  0.42545268  0.82237776  0.43072837  1
  O2-  O173  1  0.42978546  0.81863175  0.76880867  1
  O2-  O174  1  0.93066994  0.32147271  0.08937180  1
  O2-  O175  1  0.93183545  0.32296519  0.42350393  1
  O2-  O176  1  0.92355756  0.32091473  0.75428870  1
  O2-  O177  1  0.92876159  0.82190101  0.08913158  1
  O2-  O178  1  0.93211229  0.82109376  0.43068518  1
  O2-  O179  1  0.92634263  0.81694529  0.76548826  1
  O2-  O180  1  0.31319026  0.07843303  0.24489242  1
  O2-  O181  1  0.32186635  0.07262982  0.57765823  1
  O2-  O182  1  0.31773664  0.07503306  0.91216644  1
  O2-  O183  1  0.32121759  0.57157213  0.24585683  1
  O2-  O184  1  0.32400525  0.56852600  0.57627736  1
  O2-  O185  1  0.31901759  0.57242300  0.90051135  1
  O2-  O186  1  0.82836536  0.07487075  0.24509666  1
  O2-  O187  1  0.82018916  0.07810198  0.57768408  1
  O2-  O188  1  0.82656223  0.06792149  0.91094763  1
  O2-  O189  1  0.82431938  0.56662041  0.23777165  1
  O2-  O190  1  0.81950329  0.56985728  0.57724098  1
  O2-  O191  1  0.82257426  0.56991656  0.90122682  1
  O2-  O192  1  0.04489482  0.08786335  0.27014819  1
  O2-  O193  1  0.03936352  0.08471637  0.59450142  1
  O2-  O194  1  0.03575513  0.08277946  0.93286451  1
  O2-  O195  1  0.04390303  0.58116090  0.27238704  1
  O2-  O196  1  0.04291986  0.57747393  0.60009496  1
  O2-  O197  1  0.04512699  0.58073903  0.93515170  1
  O2-  O198  1  0.53385769  0.08796321  0.26557334  1
  O2-  O199  1  0.54633561  0.08498550  0.60448921  1
  O2-  O200  1  0.53835706  0.07949161  0.92936577  1
  O2-  O201  1  0.54308729  0.58004865  0.26851102  1
  O2-  O202  1  0.54767390  0.58619564  0.60124249  1
  O2-  O203  1  0.54021787  0.58535355  0.93344897  1
  O2-  O204  1  0.16223618  0.20980664  0.26997538  1
  O2-  O205  1  0.16608241  0.21123865  0.59615153  1
  O2-  O206  1  0.16593039  0.20663114  0.93149021  1
  O2-  O207  1  0.16540887  0.69890482  0.27390772  1
  O2-  O208  1  0.17198085  0.70086730  0.59890646  1
  O2-  O209  1  0.16791568  0.71127742  0.93466366  1
  O2-  O210  1  0.67034090  0.20481223  0.26808039  1
  O2-  O211  1  0.66748992  0.20407701  0.60402348  1
  O2-  O212  1  0.67455951  0.19638496  0.93236285  1
  O2-  O213  1  0.67029032  0.70677472  0.26819390  1
  O2-  O214  1  0.66826555  0.70222083  0.60734760  1
  O2-  O215  1  0.66831286  0.71168644  0.93265261  1
  O2-  O216  1  0.08461711  0.44820404  0.06157573  1
  O2-  O217  1  0.08841663  0.45359013  0.39734064  1
  O2-  O218  1  0.08143156  0.45173882  0.73445879  1
  O2-  O219  1  0.08155591  0.96215295  0.06866078  1
  O2-  O220  1  0.08604513  0.96046633  0.39545564  1
  O2-  O221  1  0.08206074  0.96003073  0.73035875  1
  O2-  O222  1  0.57937998  0.45319940  0.06686142  1
  O2-  O223  1  0.58132695  0.44641552  0.39396422  1
  O2-  O224  1  0.58567111  0.45517400  0.72417977  1
  O2-  O225  1  0.57801765  0.95803837  0.06668967  1
  O2-  O226  1  0.58014913  0.96431450  0.39803346  1
  O2-  O227  1  0.58327860  0.95952298  0.73616046  1
  O2-  O228  1  0.20651642  0.33221643  0.06311433  1
  O2-  O229  1  0.20874494  0.33561888  0.39630316  1
  O2-  O230  1  0.21367363  0.33177677  0.73261879  1
  O2-  O231  1  0.20819044  0.83457654  0.07194646  1
  O2-  O232  1  0.20112609  0.83510094  0.39467649  1
  O2-  O233  1  0.21139709  0.83104630  0.73065856  1
  O2-  O234  1  0.70784540  0.32860502  0.06466792  1
  O2-  O235  1  0.70871133  0.33383629  0.39835505  1
  O2-  O236  1  0.70655624  0.33624648  0.72858012  1
  O2-  O237  1  0.71135894  0.83612845  0.06969593  1
  O2-  O238  1  0.71022072  0.83582739  0.40094952  1
  O2-  O239  1  0.71099917  0.83246029  0.73484639  1
  O2-  O240  1  0.44420739  0.41861381  0.27475556  1
  O2-  O241  1  0.46143983  0.41658771  0.59267704  1
  O2-  O242  1  0.45573765  0.42103870  0.93159023  1
  O2-  O243  1  0.44595708  0.92367002  0.26617454  1
  O2-  O244  1  0.45811339  0.91999030  0.60223302  1
  O2-  O245  1  0.44349813  0.91768568  0.94129631  1
  O2-  O246  1  0.96220268  0.41229699  0.27014171  1
  O2-  O247  1  0.95331459  0.41478286  0.60247669  1
  O2-  O248  1  0.95225574  0.41656592  0.93753900  1
  O2-  O249  1  0.96063489  0.91703680  0.26248655  1
  O2-  O250  1  0.95274747  0.91922436  0.59844363  1
  O2-  O251  1  0.95203370  0.91517417  0.93833285  1
  O2-  O252  1  0.33489432  0.28989060  0.26937167  1
  O2-  O253  1  0.33555261  0.28944088  0.59442765  1
  O2-  O254  1  0.33349455  0.29063085  0.93111213  1
  O2-  O255  1  0.32686048  0.79128419  0.26587162  1
  O2-  O256  1  0.33684059  0.79004446  0.59740553  1
  O2-  O257  1  0.33317809  0.79043962  0.93973782  1
  O2-  O258  1  0.83881264  0.29667775  0.27001533  1
  O2-  O259  1  0.83350921  0.29572374  0.60041764  1
  O2-  O260  1  0.83592795  0.29670102  0.93577531  1
  O2-  O261  1  0.83349357  0.78975388  0.26562097  1
  O2-  O262  1  0.83133474  0.78669819  0.59840529  1
  O2-  O263  1  0.83429771  0.79477654  0.93782542  1
  O2-  O264  1  0.41327839  0.05036737  0.06388347  1
  O2-  O265  1  0.41005733  0.04803249  0.39724090  1
  O2-  O266  1  0.41670763  0.05077299  0.72992597  1
  O2-  O267  1  0.41555012  0.53952190  0.06993107  1
  O2-  O268  1  0.41308948  0.54461941  0.39971569  1
  O2-  O269  1  0.41787295  0.54248115  0.72612463  1
  O2-  O270  1  0.91304602  0.04187922  0.06679433  1
  O2-  O271  1  0.91842060  0.04608865  0.39640156  1
  O2-  O272  1  0.91675886  0.04874546  0.72736121  1
  O2-  O273  1  0.92077780  0.54160118  0.06968423  1
  O2-  O274  1  0.91551642  0.53450083  0.40581477  1
  O2-  O275  1  0.91206303  0.54002796  0.72917278  1
  O2-  O276  1  0.28994650  0.16577030  0.06549818  1
  O2-  O277  1  0.28638943  0.16236418  0.40003684  1
  O2-  O278  1  0.29504726  0.16653063  0.72779863  1
  O2-  O279  1  0.28726006  0.66460820  0.07250482  1
  O2-  O280  1  0.29219781  0.66266158  0.39925623  1
  O2-  O281  1  0.30129513  0.66545848  0.72730056  1
  O2-  O282  1  0.80457449  0.16751565  0.06029832  1
  O2-  O283  1  0.80294472  0.16910663  0.39611080  1
  O2-  O284  1  0.79843928  0.16767183  0.73110555  1
  O2-  O285  1  0.79447831  0.66979032  0.06801751  1
  O2-  O286  1  0.79081789  0.66696341  0.40492666  1
  O2-  O287  1  0.79436649  0.66072671  0.73160724  1
