# generated using pymatgen
data_Ca2Al2SiO7
_symmetry_space_group_name_H-M   'P 1'
_cell_length_a   15.45273059
_cell_length_b   15.45281387
_cell_length_c   15.28015588
_cell_angle_alpha   89.99764730
_cell_angle_beta   89.99604488
_cell_angle_gamma   90.00073087
_symmetry_Int_Tables_number   1
_chemical_formula_structural   Ca2Al2SiO7
_chemical_formula_sum   'Ca48 Al48 Si24 O168'
_cell_volume   3648.72044231
_cell_formula_units_Z   24
loop_
 _symmetry_equiv_pos_site_id
 _symmetry_equiv_pos_as_xyz
  1  'x, y, z'
loop_
 _atom_type_symbol
 _atom_type_oxidation_number
  Ca2+  2.0
  Al0+  0.0
  Si0+  0.0
  O2-  -2.0
loop_
 _atom_site_type_symbol
 _atom_site_label
 _atom_site_symmetry_multiplicity
 _atom_site_fract_x
 _atom_site_fract_y
 _atom_site_fract_z
 _atom_site_occupancy
  Ca2+  Ca0  1  0.17457595  0.07361274  0.17720773  1
  Ca2+  Ca1  1  0.16882722  0.07573371  0.50564271  1
  Ca2+  Ca2  1  0.16258186  0.07840501  0.83290445  1
  Ca2+  Ca3  1  0.16614273  0.58275036  0.16446604  1
  Ca2+  Ca4  1  0.17071909  0.58321590  0.50581131  1
  Ca2+  Ca5  1  0.17790037  0.58238721  0.84308197  1
  Ca2+  Ca6  1  0.66361282  0.07552059  0.16464865  1
  Ca2+  Ca7  1  0.66396557  0.07985434  0.50162512  1
  Ca2+  Ca8  1  0.66523853  0.08126039  0.84422358  1
  Ca2+  Ca9  1  0.68036191  0.59601445  0.16768214  1
  Ca2+  Ca10  1  0.67932876  0.58581776  0.50607183  1
  Ca2+  Ca11  1  0.67709035  0.58841344  0.84022764  1
  Ca2+  Ca12  1  0.07800046  0.33496446  0.15686142  1
  Ca2+  Ca13  1  0.08904990  0.32450086  0.49943932  1
  Ca2+  Ca14  1  0.08181758  0.33224733  0.83472994  1
  Ca2+  Ca15  1  0.08919503  0.82093045  0.16328012  1
  Ca2+  Ca16  1  0.08076050  0.83254619  0.49626051  1
  Ca2+  Ca17  1  0.07772844  0.82915401  0.82610852  1
  Ca2+  Ca18  1  0.57829071  0.32699625  0.16004217  1
  Ca2+  Ca19  1  0.57256030  0.33108414  0.49805850  1
  Ca2+  Ca20  1  0.58410101  0.32125083  0.82617015  1
  Ca2+  Ca21  1  0.58078899  0.83534555  0.15653494  1
  Ca2+  Ca22  1  0.57801372  0.83609599  0.49849287  1
  Ca2+  Ca23  1  0.57351968  0.83295267  0.83413680  1
  Ca2+  Ca24  1  0.33211764  0.41942111  0.16767639  1
  Ca2+  Ca25  1  0.33964702  0.42038459  0.50792931  1
  Ca2+  Ca26  1  0.33283849  0.42521107  0.83891127  1
  Ca2+  Ca27  1  0.33282357  0.92094058  0.17314122  1
  Ca2+  Ca28  1  0.32157570  0.91673670  0.50582516  1
  Ca2+  Ca29  1  0.33065877  0.90811078  0.83511145  1
  Ca2+  Ca30  1  0.83582468  0.42514798  0.16589325  1
  Ca2+  Ca31  1  0.83562821  0.43032504  0.50478328  1
  Ca2+  Ca32  1  0.83768405  0.42582128  0.84134471  1
  Ca2+  Ca33  1  0.81954796  0.91686847  0.16700011  1
  Ca2+  Ca34  1  0.82668481  0.91029641  0.50565610  1
  Ca2+  Ca35  1  0.82851662  0.92265872  0.84175834  1
  Ca2+  Ca36  1  0.41755932  0.16791916  0.16271640  1
  Ca2+  Ca37  1  0.41446760  0.17536276  0.49616433  1
  Ca2+  Ca38  1  0.42958203  0.17105862  0.82524600  1
  Ca2+  Ca39  1  0.42368233  0.67615445  0.15207681  1
  Ca2+  Ca40  1  0.40946947  0.67226655  0.50013840  1
  Ca2+  Ca41  1  0.41426765  0.67129106  0.83128346  1
  Ca2+  Ca42  1  0.91302143  0.17343851  0.15626097  1
  Ca2+  Ca43  1  0.92453866  0.16448542  0.50054362  1
  Ca2+  Ca44  1  0.91645251  0.17207922  0.82958923  1
  Ca2+  Ca45  1  0.92631310  0.65846219  0.16062630  1
  Ca2+  Ca46  1  0.91876976  0.66823776  0.49512988  1
  Ca2+  Ca47  1  0.91941271  0.66680568  0.83007389  1
  Al0+  Al48  1  0.00024113  0.00030513  0.00713368  1
  Al0+  Al49  1  -0.00184612  -0.00099966  0.33315869  1
  Al0+  Al50  1  -0.00124103  -0.00130204  0.66228214  1
  Al0+  Al51  1  0.00123099  0.49860932  -0.00250032  1
  Al0+  Al52  1  0.00106456  0.50030051  0.33593245  1
  Al0+  Al53  1  0.00088422  0.49997145  0.67081223  1
  Al0+  Al54  1  0.49810013  0.00070846  -0.00485890  1
  Al0+  Al55  1  0.50051265  0.00175048  0.34247278  1
  Al0+  Al56  1  0.49883197  -0.00115013  0.65780786  1
  Al0+  Al57  1  0.50096042  0.50138506  0.00049659  1
  Al0+  Al58  1  0.50068725  0.49924625  0.32760012  1
  Al0+  Al59  1  0.50296283  0.49965480  0.66827700  1
  Al0+  Al60  1  0.24839787  0.24946338  0.00302974  1
  Al0+  Al61  1  0.25016990  0.25093929  0.33087568  1
  Al0+  Al62  1  0.24950501  0.24853294  0.66066744  1
  Al0+  Al63  1  0.24932654  0.74872847  -0.00299226  1
  Al0+  Al64  1  0.24923223  0.74927179  0.33171781  1
  Al0+  Al65  1  0.24937336  0.74900344  0.67069215  1
  Al0+  Al66  1  0.75124124  0.25182980  -0.00473399  1
  Al0+  Al67  1  0.74866453  0.25000824  0.33410712  1
  Al0+  Al68  1  0.75101174  0.25013510  0.65853720  1
  Al0+  Al69  1  0.75011105  0.75139635  0.00472870  1
  Al0+  Al70  1  0.75074523  0.75127443  0.34280146  1
  Al0+  Al71  1  0.75012128  0.75132557  0.66898379  1
  Al0+  Al72  1  0.42836874  0.32175604  0.31605891  1
  Al0+  Al73  1  0.56920889  0.18096553  0.98787269  1
  Al0+  Al74  1  0.68011824  0.93005850  0.34975834  1
  Al0+  Al75  1  0.06941484  0.67877782  0.98449746  1
  Al0+  Al76  1  0.82123293  0.57175988  0.68285505  1
  Al0+  Al77  1  0.57342947  0.17714737  0.64806649  1
  Al0+  Al78  1  0.67718008  0.93088757  0.01268635  1
  Al0+  Al79  1  0.92823996  0.82003620  0.65413578  1
  Al0+  Al80  1  0.42998123  0.32223539  0.65344519  1
  Al0+  Al81  1  0.07015674  0.67933751  0.31969229  1
  Al0+  Al82  1  0.32185146  0.56983419  0.67983130  1
  Al0+  Al83  1  0.93024882  0.32006323  0.98657751  1
  Al0+  Al84  1  0.42709472  0.81796589  0.65039915  1
  Al0+  Al85  1  0.18042653  0.42876135  0.01542744  1
  Al0+  Al86  1  0.42845028  0.82160234  0.98557278  1
  Al0+  Al87  1  0.82218727  0.07395623  0.01369475  1
  Al0+  Al88  1  0.17793645  0.93017326  0.68184931  1
  Al0+  Al89  1  0.17865504  0.92620614  0.34850764  1
  Al0+  Al90  1  0.57459069  0.67804496  0.98568912  1
  Al0+  Al91  1  0.82046431  0.57081164  0.01329206  1
  Al0+  Al92  1  0.06941025  0.17846132  0.65339064  1
  Al0+  Al93  1  0.32306203  0.57261497  0.01747149  1
  Al0+  Al94  1  0.32037731  0.07291215  0.35009016  1
  Al0+  Al95  1  0.82143277  0.56841926  0.34803891  1
  Si0+  Si96  1  0.17884812  0.42972992  0.34899897  1
  Si0+  Si97  1  0.42524222  0.32250789  0.98382208  1
  Si0+  Si98  1  0.57272313  0.68013068  0.32073133  1
  Si0+  Si99  1  0.57177310  0.17731130  0.31484804  1
  Si0+  Si100  1  0.68017021  0.42696471  0.68294538  1
  Si0+  Si101  1  0.82062529  0.07101251  0.67940472  1
  Si0+  Si102  1  0.42989579  0.82078301  0.32052559  1
  Si0+  Si103  1  0.17772007  0.92792059  0.01465717  1
  Si0+  Si104  1  0.17827522  0.42460304  0.68302196  1
  Si0+  Si105  1  0.32165518  0.07212742  0.68388883  1
  Si0+  Si106  1  0.07351715  0.17508646  0.98535547  1
  Si0+  Si107  1  0.67633783  0.42644884  0.34997644  1
  Si0+  Si108  1  0.92856292  0.82371550  0.98602747  1
  Si0+  Si109  1  0.32020911  0.07052194  0.01213127  1
  Si0+  Si110  1  0.07121560  0.67771645  0.65104466  1
  Si0+  Si111  1  0.32269829  0.56983875  0.34666758  1
  Si0+  Si112  1  0.07041392  0.17792748  0.31723121  1
  Si0+  Si113  1  0.67675159  0.93061496  0.68279947  1
  Si0+  Si114  1  0.82205858  0.07509814  0.35155552  1
  Si0+  Si115  1  0.57331955  0.67871860  0.64963644  1
  Si0+  Si116  1  0.92501337  0.82210456  0.31507888  1
  Si0+  Si117  1  0.92889272  0.32436483  0.64776478  1
  Si0+  Si118  1  0.92981450  0.32046355  0.31997935  1
  Si0+  Si119  1  0.67777371  0.42670501  0.01559486  1
  O2-  O120  1  0.24940754  -0.00069533  0.05476829  1
  O2-  O121  1  0.24825109  0.00023800  0.39902007  1
  O2-  O122  1  0.25439611  0.00290743  0.72996278  1
  O2-  O123  1  0.25308216  0.49866591  0.06803324  1
  O2-  O124  1  0.25238907  0.49850756  0.39039813  1
  O2-  O125  1  0.24860575  0.49242324  0.72460893  1
  O2-  O126  1  0.74985222  0.00236567  0.06336585  1
  O2-  O127  1  0.75600858  0.00433833  0.39615871  1
  O2-  O128  1  0.74487249  0.00577855  0.72243879  1
  O2-  O129  1  0.74118120  0.50050432  0.06039466  1
  O2-  O130  1  0.74521489  0.49489788  0.39449846  1
  O2-  O131  1  0.74876677  0.49462899  0.72845920  1
  O2-  O132  1  -0.00342559  0.24623644  0.27607019  1
  O2-  O133  1  -0.00204934  0.25578263  0.60412767  1
  O2-  O134  1  0.00293411  0.24208250  0.94197255  1
  O2-  O135  1  -0.00374722  0.75541399  0.27219980  1
  O2-  O136  1  0.00093801  0.74394756  0.60601871  1
  O2-  O137  1  -0.00461285  0.75479480  0.93953803  1
  O2-  O138  1  0.50255736  0.24561297  0.27087208  1
  O2-  O139  1  0.49944059  0.24881978  0.60094123  1
  O2-  O140  1  0.49703687  0.25744146  0.94011939  1
  O2-  O141  1  0.50163177  0.75088370  0.27829897  1
  O2-  O142  1  0.50124480  0.74265207  0.60299716  1
  O2-  O143  1  0.49897743  0.74688234  0.93675873  1
  O2-  O144  1  0.07454811  0.17557706  0.09114592  1
  O2-  O145  1  0.07007888  0.17951275  0.42252740  1
  O2-  O146  1  0.06607780  0.17834519  0.76639446  1
  O2-  O147  1  0.06904970  0.67984127  0.09806637  1
  O2-  O148  1  0.06939667  0.67718109  0.43290735  1
  O2-  O149  1  0.06999676  0.67902956  0.75636882  1
  O2-  O150  1  0.56598688  0.18022651  0.10120834  1
  O2-  O151  1  0.57325621  0.18025023  0.42013887  1
  O2-  O152  1  0.57445676  0.17802201  0.76192009  1
  O2-  O153  1  0.57526513  0.68291355  0.10021387  1
  O2-  O154  1  0.57140821  0.67949041  0.42601107  1
  O2-  O155  1  0.57536911  0.68190932  0.75471017  1
  O2-  O156  1  0.17599015  0.43003189  0.24442545  1
  O2-  O157  1  0.17607075  0.42638000  0.57679565  1
  O2-  O158  1  0.18264165  0.42699347  0.90180709  1
  O2-  O159  1  0.18288497  0.92659338  0.23438124  1
  O2-  O160  1  0.17803010  0.93115507  0.56885680  1
  O2-  O161  1  0.17432945  0.92998469  0.90967248  1
  O2-  O162  1  0.67782925  0.42418871  0.24460714  1
  O2-  O163  1  0.68140185  0.42945903  0.57692757  1
  O2-  O164  1  0.68191439  0.42395640  0.91012712  1
  O2-  O165  1  0.67874141  0.93037707  0.23698513  1
  O2-  O166  1  0.67963005  0.92913313  0.57736154  1
  O2-  O167  1  0.67752969  0.93308739  0.89892410  1
  O2-  O168  1  0.42496976  0.31829771  0.08970039  1
  O2-  O169  1  0.43011451  0.32413589  0.42892448  1
  O2-  O170  1  0.43192827  0.32039238  0.76698192  1
  O2-  O171  1  0.42968806  0.82448939  0.10006959  1
  O2-  O172  1  0.42865582  0.81692164  0.42567750  1
  O2-  O173  1  0.42856131  0.81821579  0.76284991  1
  O2-  O174  1  0.93172340  0.31985663  0.10048321  1
  O2-  O175  1  0.93289324  0.32041343  0.42516197  1
  O2-  O176  1  0.92738325  0.32378722  0.75302100  1
  O2-  O177  1  0.93085287  0.82376832  0.09165358  1
  O2-  O178  1  0.92422701  0.81993701  0.42093993  1
  O2-  O179  1  0.92895280  0.82166179  0.76717794  1
  O2-  O180  1  0.31999606  0.07051571  0.23552306  1
  O2-  O181  1  0.31806990  0.07203852  0.57836956  1
  O2-  O182  1  0.31902510  0.07249572  0.90732907  1
  O2-  O183  1  0.32253927  0.56980164  0.24223987  1
  O2-  O184  1  0.31845163  0.57002461  0.56561164  1
  O2-  O185  1  0.32070639  0.57146067  0.90379742  1
  O2-  O186  1  0.82070018  0.07842582  0.24642927  1
  O2-  O187  1  0.82133342  0.06848700  0.57401704  1
  O2-  O188  1  0.82339134  0.07217641  0.89965063  1
  O2-  O189  1  0.82212167  0.56691372  0.23515641  1
  O2-  O190  1  0.82102633  0.57022926  0.56918550  1
  O2-  O191  1  0.82097658  0.56928497  0.90030485  1
  O2-  O192  1  0.04628480  0.08445559  0.27084856  1
  O2-  O193  1  0.03407429  0.08521289  0.59571675  1
  O2-  O194  1  0.04923107  0.08059640  0.94061332  1
  O2-  O195  1  0.03776167  0.58224078  0.26665227  1
  O2-  O196  1  0.04805495  0.58239806  0.60627989  1
  O2-  O197  1  0.03906509  0.58307109  0.93020794  1
  O2-  O198  1  0.54511847  0.08261183  0.27197010  1
  O2-  O199  1  0.54565758  0.07948863  0.59425597  1
  O2-  O200  1  0.53615883  0.08693463  0.93119841  1
  O2-  O201  1  0.54829365  0.58824189  0.27244620  1
  O2-  O202  1  0.55420073  0.58283307  0.60575693  1
  O2-  O203  1  0.55258473  0.57723181  0.93435687  1
  O2-  O204  1  0.16087850  0.20818547  0.26945345  1
  O2-  O205  1  0.16509728  0.20707666  0.59593255  1
  O2-  O206  1  0.16594512  0.20254536  0.93752705  1
  O2-  O207  1  0.16699158  0.70924584  0.26429033  1
  O2-  O208  1  0.16400652  0.70504372  0.60510509  1
  O2-  O209  1  0.16547662  0.70948198  0.93080174  1
  O2-  O210  1  0.66607131  0.20331096  0.26938650  1
  O2-  O211  1  0.67127201  0.20578431  0.59271616  1
  O2-  O212  1  0.66574192  0.20982460  0.93306833  1
  O2-  O213  1  0.66521317  0.71024263  0.27622568  1
  O2-  O214  1  0.66487499  0.71018139  0.60199035  1
  O2-  O215  1  0.67246251  0.70935250  0.93311367  1
  O2-  O216  1  0.08258691  0.45952732  0.06813969  1
  O2-  O217  1  0.08909075  0.45886909  0.39971775  1
  O2-  O218  1  0.08495638  0.45010785  0.72971836  1
  O2-  O219  1  0.08788549  0.95487528  0.06667572  1
  O2-  O220  1  0.07744109  0.95182461  0.39726372  1
  O2-  O221  1  0.08122906  0.96390965  0.73421650  1
  O2-  O222  1  0.58196248  0.44449717  0.06016957  1
  O2-  O223  1  0.58280599  0.45440480  0.39512408  1
  O2-  O224  1  0.58691105  0.45008779  0.72998247  1
  O2-  O225  1  0.57902097  0.96218717  0.06558441  1
  O2-  O226  1  0.58483792  0.96041906  0.40652821  1
  O2-  O227  1  0.58284822  0.95590418  0.72641408  1
  O2-  O228  1  0.20454526  0.32895723  0.06997239  1
  O2-  O229  1  0.20480438  0.33680783  0.39489198  1
  O2-  O230  1  0.20106839  0.32965594  0.72724076  1
  O2-  O231  1  0.20660020  0.83651480  0.06105530  1
  O2-  O232  1  0.20910735  0.82840297  0.40201968  1
  O2-  O233  1  0.20759954  0.83342554  0.73536052  1
  O2-  O234  1  0.70958427  0.33606350  0.06432946  1
  O2-  O235  1  0.70133853  0.33296418  0.39723955  1
  O2-  O236  1  0.70632119  0.33173390  0.72579909  1
  O2-  O237  1  0.70624808  0.83428516  0.06915988  1
  O2-  O238  1  0.71053348  0.83509408  0.40801225  1
  O2-  O239  1  0.70760468  0.84017852  0.72997194  1
  O2-  O240  1  0.46040404  0.41753898  0.26018661  1
  O2-  O241  1  0.46112490  0.42010120  0.59873549  1
  O2-  O242  1  0.44640973  0.41827825  0.94191423  1
  O2-  O243  1  0.45750830  0.91467429  0.27765497  1
  O2-  O244  1  0.45704531  0.91381296  0.59484345  1
  O2-  O245  1  0.45668339  0.91833747  0.92925569  1
  O2-  O246  1  0.96150983  0.41086028  0.27283182  1
  O2-  O247  1  0.95655730  0.41800668  0.60222738  1
  O2-  O248  1  0.96537957  0.41318376  0.92955064  1
  O2-  O249  1  0.94540518  0.91798381  0.27096729  1
  O2-  O250  1  0.95898107  0.91451095  0.59628465  1
  O2-  O251  1  0.95577008  0.91778705  0.94083303  1
  O2-  O252  1  0.33101955  0.29207078  0.26251536  1
  O2-  O253  1  0.33098300  0.29688198  0.59920121  1
  O2-  O254  1  0.33243132  0.29338593  0.93842363  1
  O2-  O255  1  0.33879683  0.79312304  0.27212574  1
  O2-  O256  1  0.33020181  0.78521712  0.59724229  1
  O2-  O257  1  0.33029851  0.79384971  0.93240388  1
  O2-  O258  1  0.83583463  0.29661337  0.27439959  1
  O2-  O259  1  0.83667285  0.29903721  0.59869918  1
  O2-  O260  1  0.83491483  0.29266623  0.92894391  1
  O2-  O261  1  0.83124936  0.79339347  0.27128465  1
  O2-  O262  1  0.83159812  0.78940093  0.59931495  1
  O2-  O263  1  0.83399895  0.80071909  0.94189110  1
  O2-  O264  1  0.41080049  0.04199262  0.06095365  1
  O2-  O265  1  0.41850709  0.04832585  0.40377972  1
  O2-  O266  1  0.41730258  0.04671736  0.72527872  1
  O2-  O267  1  0.42358175  0.54867395  0.06907872  1
  O2-  O268  1  0.41537960  0.54288022  0.39332384  1
  O2-  O269  1  0.42032702  0.54331048  0.73230951  1
  O2-  O270  1  0.91991764  0.04723597  0.07043612  1
  O2-  O271  1  0.91718421  0.05164564  0.39565712  1
  O2-  O272  1  0.91025583  0.03915916  0.72728416  1
  O2-  O273  1  0.91529920  0.53351182  0.06609173  1
  O2-  O274  1  0.91657365  0.53478392  0.40388080  1
  O2-  O275  1  0.91884146  0.54228425  0.73546686  1
  O2-  O276  1  0.29288034  0.16123890  0.06266544  1
  O2-  O277  1  0.28936282  0.17168124  0.40101291  1
  O2-  O278  1  0.29456288  0.16596132  0.72875933  1
  O2-  O279  1  0.29105988  0.67096786  0.06919971  1
  O2-  O280  1  0.29341338  0.66140306  0.39375987  1
  O2-  O281  1  0.28834891  0.66419370  0.73547315  1
  O2-  O282  1  0.79348713  0.17272335  0.06555670  1
  O2-  O283  1  0.79527657  0.16802814  0.39985729  1
  O2-  O284  1  0.79935483  0.16674080  0.72227747  1
  O2-  O285  1  0.79466171  0.66786156  0.06939150  1
  O2-  O286  1  0.79111415  0.66432037  0.40344593  1
  O2-  O287  1  0.78858270  0.66802099  0.73586046  1
