# generated using pymatgen
data_Ca2Al2SiO7
_symmetry_space_group_name_H-M   'P 1'
_cell_length_a   15.46613196
_cell_length_b   15.46542470
_cell_length_c   15.28892376
_cell_angle_alpha   89.99541383
_cell_angle_beta   90.00800878
_cell_angle_gamma   89.99935400
_symmetry_Int_Tables_number   1
_chemical_formula_structural   Ca2Al2SiO7
_chemical_formula_sum   'Ca48 Al48 Si24 O168'
_cell_volume   3656.96220028
_cell_formula_units_Z   24
loop_
 _symmetry_equiv_pos_site_id
 _symmetry_equiv_pos_as_xyz
  1  'x, y, z'
loop_
 _atom_type_symbol
 _atom_type_oxidation_number
  Ca2+  2.0
  Al0+  0.0
  Si0+  0.0
  O2-  -2.0
loop_
 _atom_site_type_symbol
 _atom_site_label
 _atom_site_symmetry_multiplicity
 _atom_site_fract_x
 _atom_site_fract_y
 _atom_site_fract_z
 _atom_site_occupancy
  Ca2+  Ca0  1  0.16832537  0.09149842  0.16866178  1
  Ca2+  Ca1  1  0.16989713  0.07972381  0.51469306  1
  Ca2+  Ca2  1  0.17438967  0.09020837  0.83858151  1
  Ca2+  Ca3  1  0.15461797  0.57819904  0.17198693  1
  Ca2+  Ca4  1  0.15522630  0.57350628  0.50490274  1
  Ca2+  Ca5  1  0.15673347  0.58055012  0.83312896  1
  Ca2+  Ca6  1  0.67512691  0.09036798  0.16214343  1
  Ca2+  Ca7  1  0.67419546  0.08179119  0.51358267  1
  Ca2+  Ca8  1  0.67631046  0.08699144  0.83463938  1
  Ca2+  Ca9  1  0.67544432  0.57879118  0.16595800  1
  Ca2+  Ca10  1  0.67085658  0.57488289  0.50929879  1
  Ca2+  Ca11  1  0.67090886  0.57066317  0.84303097  1
  Ca2+  Ca12  1  0.07605807  0.32806236  0.16337813  1
  Ca2+  Ca13  1  0.08591571  0.32349613  0.49400884  1
  Ca2+  Ca14  1  0.07897811  0.32382639  0.82935775  1
  Ca2+  Ca15  1  0.07964965  0.81985611  0.15766358  1
  Ca2+  Ca16  1  0.09431016  0.82230463  0.49972363  1
  Ca2+  Ca17  1  0.08259608  0.82527544  0.82877148  1
  Ca2+  Ca18  1  0.58200473  0.32915430  0.15558244  1
  Ca2+  Ca19  1  0.58675426  0.32854756  0.50290032  1
  Ca2+  Ca20  1  0.59082689  0.32526693  0.82902941  1
  Ca2+  Ca21  1  0.57694733  0.83575852  0.16386745  1
  Ca2+  Ca22  1  0.57150918  0.84545199  0.50026559  1
  Ca2+  Ca23  1  0.57785622  0.84020835  0.82396663  1
  Ca2+  Ca24  1  0.32301359  0.42005379  0.17348584  1
  Ca2+  Ca25  1  0.31829668  0.41768203  0.50625488  1
  Ca2+  Ca26  1  0.32317026  0.41240626  0.83446916  1
  Ca2+  Ca27  1  0.33339320  0.92211695  0.16804097  1
  Ca2+  Ca28  1  0.33039895  0.91902091  0.51067148  1
  Ca2+  Ca29  1  0.32831727  0.92379794  0.83046759  1
  Ca2+  Ca30  1  0.83919149  0.41278234  0.16375178  1
  Ca2+  Ca31  1  0.83292245  0.41399822  0.50514421  1
  Ca2+  Ca32  1  0.82631184  0.41690587  0.84233117  1
  Ca2+  Ca33  1  0.84470672  0.92355072  0.16314712  1
  Ca2+  Ca34  1  0.82660426  0.92555669  0.51191436  1
  Ca2+  Ca35  1  0.83593922  0.92669979  0.83801111  1
  Ca2+  Ca36  1  0.42233967  0.16638871  0.15723594  1
  Ca2+  Ca37  1  0.42156474  0.15959350  0.50445683  1
  Ca2+  Ca38  1  0.42642936  0.15545711  0.82921672  1
  Ca2+  Ca39  1  0.41424028  0.67437879  0.16361753  1
  Ca2+  Ca40  1  0.41396827  0.68177324  0.49755124  1
  Ca2+  Ca41  1  0.41867921  0.67466459  0.82409441  1
  Ca2+  Ca42  1  0.92561928  0.17503349  0.15700468  1
  Ca2+  Ca43  1  0.92656334  0.16859913  0.49704124  1
  Ca2+  Ca44  1  0.91745214  0.16740459  0.82938912  1
  Ca2+  Ca45  1  0.92391707  0.66861552  0.15578422  1
  Ca2+  Ca46  1  0.92639958  0.66793631  0.49804070  1
  Ca2+  Ca47  1  0.91984282  0.66797170  0.83367926  1
  Al0+  Al48  1  0.00191602  -0.00299397  -0.00047589  1
  Al0+  Al49  1  0.00206355  -0.00075883  0.33309296  1
  Al0+  Al50  1  0.00006468  -0.00159309  0.66931196  1
  Al0+  Al51  1  -0.00127165  0.49859577  -0.00355373  1
  Al0+  Al52  1  -0.00188156  0.49950908  0.33271921  1
  Al0+  Al53  1  -0.00073044  0.50041661  0.66753529  1
  Al0+  Al54  1  0.49800166  0.00109628  0.00156509  1
  Al0+  Al55  1  0.49994789  -0.00012766  0.32808868  1
  Al0+  Al56  1  0.49996430  0.00093136  0.66372028  1
  Al0+  Al57  1  0.49731909  0.50057597  0.00499964  1
  Al0+  Al58  1  0.50088886  0.50139001  0.33537635  1
  Al0+  Al59  1  0.49939443  0.49973167  0.66834623  1
  Al0+  Al60  1  0.25169131  0.25144163  0.00403368  1
  Al0+  Al61  1  0.25368014  0.25101452  0.33549138  1
  Al0+  Al62  1  0.25096820  0.25189077  0.67124248  1
  Al0+  Al63  1  0.25060148  0.75056009  -0.00373020  1
  Al0+  Al64  1  0.25204827  0.75171580  0.32298408  1
  Al0+  Al65  1  0.25120385  0.74993364  0.66157176  1
  Al0+  Al66  1  0.74877356  0.24738648  0.00193979  1
  Al0+  Al67  1  0.75032989  0.24948776  0.33189220  1
  Al0+  Al68  1  0.74951444  0.25098686  0.66773095  1
  Al0+  Al69  1  0.74827380  0.74831685  0.00137864  1
  Al0+  Al70  1  0.74790585  0.74956073  0.33573349  1
  Al0+  Al71  1  0.74991479  0.74932102  0.66820206  1
  Al0+  Al72  1  0.92851473  0.31881582  0.98302028  1
  Al0+  Al73  1  0.07470563  0.17709859  0.31980065  1
  Al0+  Al74  1  0.17757080  0.42953618  0.68170279  1
  Al0+  Al75  1  0.56899697  0.17974857  0.98600056  1
  Al0+  Al76  1  0.82139954  0.57040130  0.01618908  1
  Al0+  Al77  1  0.06892887  0.68003088  0.65135781  1
  Al0+  Al78  1  0.82325422  0.06908071  0.01505226  1
  Al0+  Al79  1  0.67839167  0.42989458  0.67983520  1
  Al0+  Al80  1  0.92632665  0.82120222  0.98431725  1
  Al0+  Al81  1  0.06887406  0.68023630  0.32027685  1
  Al0+  Al82  1  0.67815595  0.92869625  0.68000736  1
  Al0+  Al83  1  0.82253950  0.07146995  0.68103445  1
  Al0+  Al84  1  0.57047848  0.18152449  0.65278538  1
  Al0+  Al85  1  0.43091145  0.82110531  0.31636597  1
  Al0+  Al86  1  0.17830647  0.92547790  0.68101654  1
  Al0+  Al87  1  0.17871938  0.43105437  0.34715295  1
  Al0+  Al88  1  0.67822198  0.42707366  0.01720953  1
  Al0+  Al89  1  0.07165589  0.67803126  0.98281001  1
  Al0+  Al90  1  0.43181745  0.82049647  0.65330689  1
  Al0+  Al91  1  0.31960306  0.07020507  0.01578883  1
  Al0+  Al92  1  0.92766306  0.31935542  0.31891134  1
  Al0+  Al93  1  0.07416596  0.17859099  0.98504589  1
  Al0+  Al94  1  0.31977258  0.07176878  0.68126162  1
  Al0+  Al95  1  0.07284860  0.17818122  0.65480912  1
  Si0+  Si96  1  0.32284165  0.07057274  0.34858482  1
  Si0+  Si97  1  0.42695033  0.32529439  0.64896327  1
  Si0+  Si98  1  0.82178423  0.07042403  0.34771872  1
  Si0+  Si99  1  0.43011834  0.32374037  0.31950418  1
  Si0+  Si100  1  0.56979806  0.18026356  0.31818942  1
  Si0+  Si101  1  0.92520294  0.82280149  0.64899874  1
  Si0+  Si102  1  0.43049048  0.82113416  0.98290916  1
  Si0+  Si103  1  0.67753226  0.42785494  0.34953543  1
  Si0+  Si104  1  0.17940571  0.92529673  0.01839523  1
  Si0+  Si105  1  0.67761509  0.92993560  0.34706712  1
  Si0+  Si106  1  0.18028128  0.92828747  0.34628929  1
  Si0+  Si107  1  0.92881637  0.32092264  0.65060987  1
  Si0+  Si108  1  0.56925996  0.67732576  0.98585739  1
  Si0+  Si109  1  0.42783296  0.32488792  0.98406098  1
  Si0+  Si110  1  0.17956766  0.43044353  0.01575361  1
  Si0+  Si111  1  0.32088814  0.57384706  0.01526392  1
  Si0+  Si112  1  0.32326149  0.57456678  0.35005516  1
  Si0+  Si113  1  0.81983922  0.57176543  0.35000080  1
  Si0+  Si114  1  0.57324004  0.67604298  0.31550790  1
  Si0+  Si115  1  0.92398722  0.82189424  0.31883873  1
  Si0+  Si116  1  0.67626289  0.92781538  0.01738905  1
  Si0+  Si117  1  0.57356054  0.67524594  0.65056524  1
  Si0+  Si118  1  0.32116989  0.57217927  0.68176875  1
  Si0+  Si119  1  0.82248486  0.57221585  0.68324540  1
  O2-  O120  1  0.24229823  -0.00085892  0.06418725  1
  O2-  O121  1  0.24661818  0.00423783  0.38849380  1
  O2-  O122  1  0.24266745  0.00473606  0.73060314  1
  O2-  O123  1  0.24758918  0.50543521  0.05738053  1
  O2-  O124  1  0.25247008  0.50820100  0.39381465  1
  O2-  O125  1  0.25295632  0.50441166  0.72769624  1
  O2-  O126  1  0.74916685  -0.00799551  0.06222406  1
  O2-  O127  1  0.75261249  -0.00339321  0.38841073  1
  O2-  O128  1  0.75266636  -0.00340322  0.73021727  1
  O2-  O129  1  0.75209134  0.49644133  0.06864009  1
  O2-  O130  1  0.74955982  0.49857580  0.39080767  1
  O2-  O131  1  0.75013468  0.50676624  0.72543477  1
  O2-  O132  1  0.00109815  0.24779577  0.27092363  1
  O2-  O133  1  -0.00162529  0.25289205  0.60682639  1
  O2-  O134  1  -0.00185275  0.24476851  0.93318733  1
  O2-  O135  1  -0.00658855  0.75418332  0.27484611  1
  O2-  O136  1  -0.00352980  0.75686583  0.60385266  1
  O2-  O137  1  -0.00114247  0.74979034  0.93451891  1
  O2-  O138  1  0.50143159  0.25385047  0.27663203  1
  O2-  O139  1  0.49545399  0.25587419  0.60480049  1
  O2-  O140  1  0.49782512  0.25823423  0.94024611  1
  O2-  O141  1  0.50466585  0.74468792  0.27070037  1
  O2-  O142  1  0.50869346  0.74728991  0.60571100  1
  O2-  O143  1  0.50207935  0.75058142  0.94176660  1
  O2-  O144  1  0.07510958  0.18440416  0.09896990  1
  O2-  O145  1  0.07413373  0.17633574  0.43352677  1
  O2-  O146  1  0.07380493  0.18204321  0.76712631  1
  O2-  O147  1  0.07239205  0.67946080  0.09694775  1
  O2-  O148  1  0.06869445  0.68102973  0.43334983  1
  O2-  O149  1  0.06713240  0.67920551  0.76365233  1
  O2-  O150  1  0.56591516  0.17995358  0.10026393  1
  O2-  O151  1  0.56985898  0.17950343  0.42319577  1
  O2-  O152  1  0.57020790  0.18207383  0.76517150  1
  O2-  O153  1  0.56562561  0.67791557  0.09130872  1
  O2-  O154  1  0.57359410  0.67435015  0.42077867  1
  O2-  O155  1  0.56961429  0.67276595  0.75600069  1
  O2-  O156  1  0.18187085  0.43227596  0.23389487  1
  O2-  O157  1  0.17800226  0.43020536  0.56822190  1
  O2-  O158  1  0.18285245  0.42938870  0.91081519  1
  O2-  O159  1  0.18250855  0.92660738  0.24141269  1
  O2-  O160  1  0.18405254  0.92419105  0.56638564  1
  O2-  O161  1  0.18520220  0.91956974  0.91363616  1
  O2-  O162  1  0.67339411  0.42865766  0.24522063  1
  O2-  O163  1  0.68073166  0.43069101  0.56564567  1
  O2-  O164  1  0.67579375  0.43107283  0.90392829  1
  O2-  O165  1  0.67471857  0.93084091  0.24222224  1
  O2-  O166  1  0.67892179  0.93231290  0.56532700  1
  O2-  O167  1  0.67258522  0.92982850  0.91244268  1
  O2-  O168  1  0.42768311  0.32437799  0.09050821  1
  O2-  O169  1  0.43048271  0.32435111  0.42424717  1
  O2-  O170  1  0.42771668  0.32916301  0.75405633  1
  O2-  O171  1  0.43125839  0.81997031  0.08849000  1
  O2-  O172  1  0.43255230  0.82290348  0.42905203  1
  O2-  O173  1  0.43241373  0.81777923  0.76644983  1
  O2-  O174  1  0.93299351  0.31938594  0.09682176  1
  O2-  O175  1  0.92405520  0.31673469  0.43263413  1
  O2-  O176  1  0.92828068  0.32157929  0.75572830  1
  O2-  O177  1  0.92967710  0.81914587  0.09898992  1
  O2-  O178  1  0.92101756  0.82040091  0.42418980  1
  O2-  O179  1  0.92172442  0.81917862  0.75384418  1
  O2-  O180  1  0.32603020  0.06908035  0.24349030  1
  O2-  O181  1  0.32101743  0.06920657  0.56664537  1
  O2-  O182  1  0.32284367  0.06683584  0.90360636  1
  O2-  O183  1  0.32623619  0.57155646  0.24427598  1
  O2-  O184  1  0.32148697  0.57085088  0.57600306  1
  O2-  O185  1  0.32489876  0.57362227  0.91061265  1
  O2-  O186  1  0.82058170  0.07065707  0.24278044  1
  O2-  O187  1  0.81982633  0.07196326  0.56619410  1
  O2-  O188  1  0.82026380  0.07019832  0.90284207  1
  O2-  O189  1  0.81796337  0.57528046  0.24561723  1
  O2-  O190  1  0.82238564  0.57093382  0.57678580  1
  O2-  O191  1  0.81661514  0.57093919  0.90281429  1
  O2-  O192  1  0.04940737  0.07726083  0.26784656  1
  O2-  O193  1  0.04493984  0.07967087  0.60200503  1
  O2-  O194  1  0.05678979  0.07560143  0.93994632  1
  O2-  O195  1  0.03723848  0.58409866  0.26731165  1
  O2-  O196  1  0.03447552  0.58373539  0.59745377  1
  O2-  O197  1  0.04455396  0.57948926  0.93159820  1
  O2-  O198  1  0.53897765  0.09046761  0.26928971  1
  O2-  O199  1  0.53884474  0.08621755  0.59604460  1
  O2-  O200  1  0.53360821  0.08411382  0.93397556  1
  O2-  O201  1  0.54747673  0.58250478  0.26906219  1
  O2-  O202  1  0.54452223  0.58320987  0.60204103  1
  O2-  O203  1  0.53707615  0.58665906  0.93896837  1
  O2-  O204  1  0.17429071  0.20658099  0.26945633  1
  O2-  O205  1  0.17016366  0.21050616  0.60177981  1
  O2-  O206  1  0.17217514  0.21288631  0.93479271  1
  O2-  O207  1  0.16538906  0.70852344  0.26482133  1
  O2-  O208  1  0.16640911  0.70790212  0.59701567  1
  O2-  O209  1  0.17094127  0.70622436  0.93105539  1
  O2-  O210  1  0.66201881  0.20633895  0.27132163  1
  O2-  O211  1  0.66602463  0.21476668  0.59646721  1
  O2-  O212  1  0.66628994  0.20643568  0.93389192  1
  O2-  O213  1  0.66623903  0.70379900  0.26914428  1
  O2-  O214  1  0.66887288  0.69549904  0.60545755  1
  O2-  O215  1  0.66208014  0.69966847  0.93990769  1
  O2-  O216  1  0.08709664  0.45647504  0.06166120  1
  O2-  O217  1  0.08144827  0.46021727  0.40067575  1
  O2-  O218  1  0.08193050  0.46201935  0.73531233  1
  O2-  O219  1  0.08387930  0.94263910  0.06282497  1
  O2-  O220  1  0.08639460  0.94790162  0.39373364  1
  O2-  O221  1  0.07663743  0.94115987  0.72941294  1
  O2-  O222  1  0.57939490  0.45896956  0.07022055  1
  O2-  O223  1  0.58639393  0.45667508  0.39869997  1
  O2-  O224  1  0.58080690  0.45706632  0.73318888  1
  O2-  O225  1  0.58475828  0.95895765  0.06603708  1
  O2-  O226  1  0.58712726  0.96342075  0.39422963  1
  O2-  O227  1  0.58081888  0.95913631  0.73165559  1
  O2-  O228  1  0.21231713  0.34175021  0.06629179  1
  O2-  O229  1  0.21482885  0.33547182  0.40116611  1
  O2-  O230  1  0.21125818  0.33579104  0.73806088  1
  O2-  O231  1  0.21320313  0.83395958  0.06660481  1
  O2-  O232  1  0.21457605  0.83732260  0.39200802  1
  O2-  O233  1  0.21556143  0.82985708  0.73366346  1
  O2-  O234  1  0.70287647  0.32799624  0.06970501  1
  O2-  O235  1  0.70508002  0.33522319  0.39596519  1
  O2-  O236  1  0.71023602  0.33484429  0.73359105  1
  O2-  O237  1  0.69487957  0.83200164  0.06228209  1
  O2-  O238  1  0.69833270  0.83587593  0.39386161  1
  O2-  O239  1  0.69796216  0.82711189  0.73006077  1
  O2-  O240  1  0.45613542  0.41638329  0.27210935  1
  O2-  O241  1  0.45344558  0.41819212  0.60057462  1
  O2-  O242  1  0.44916828  0.41995485  0.93944287  1
  O2-  O243  1  0.46508095  0.91607552  0.26030646  1
  O2-  O244  1  0.46200139  0.91577118  0.59603944  1
  O2-  O245  1  0.45909179  0.91265291  0.93758055  1
  O2-  O246  1  0.95403557  0.41853500  0.26771757  1
  O2-  O247  1  0.95327180  0.41513596  0.60493822  1
  O2-  O248  1  0.95617642  0.41700803  0.93063206  1
  O2-  O249  1  0.95044959  0.91568401  0.27407956  1
  O2-  O250  1  0.94673132  0.91746047  0.60377149  1
  O2-  O251  1  0.95410310  0.91928989  0.93221881  1
  O2-  O252  1  0.33963728  0.29508161  0.27039254  1
  O2-  O253  1  0.33380636  0.29858123  0.60283332  1
  O2-  O254  1  0.33494085  0.29775357  0.93915054  1
  O2-  O255  1  0.33676061  0.79096468  0.25762165  1
  O2-  O256  1  0.33779369  0.78649926  0.59570412  1
  O2-  O257  1  0.33976018  0.79184670  0.93598262  1
  O2-  O258  1  0.82918826  0.29150735  0.26486769  1
  O2-  O259  1  0.83563425  0.29484388  0.60366657  1
  O2-  O260  1  0.82817754  0.29301445  0.93463286  1
  O2-  O261  1  0.83006201  0.79722964  0.27269483  1
  O2-  O262  1  0.83224736  0.79427774  0.60056040  1
  O2-  O263  1  0.82629515  0.79411878  0.93414245  1
  O2-  O264  1  0.41457620  0.03480090  0.07210930  1
  O2-  O265  1  0.41365856  0.03678640  0.39511380  1
  O2-  O266  1  0.41662852  0.03682148  0.73206621  1
  O2-  O267  1  0.41029035  0.54492940  0.06757868  1
  O2-  O268  1  0.41671240  0.54886576  0.39700915  1
  O2-  O269  1  0.41486473  0.54816522  0.72859013  1
  O2-  O270  1  0.92016495  0.03849696  0.07032975  1
  O2-  O271  1  0.91459688  0.04484239  0.39477067  1
  O2-  O272  1  0.92064126  0.04620932  0.73420339  1
  O2-  O273  1  0.92119755  0.54312858  0.06765443  1
  O2-  O274  1  0.91102415  0.54401726  0.39806549  1
  O2-  O275  1  0.91365587  0.54338190  0.73049354  1
  O2-  O276  1  0.29443049  0.16883420  0.07048797  1
  O2-  O277  1  0.30393951  0.16468891  0.39466965  1
  O2-  O278  1  0.30090331  0.17187143  0.73363638  1
  O2-  O279  1  0.29598156  0.66674663  0.06260716  1
  O2-  O280  1  0.29953710  0.67065142  0.39100181  1
  O2-  O281  1  0.29635185  0.66559503  0.72718308  1
  O2-  O282  1  0.78788781  0.16332088  0.07120307  1
  O2-  O283  1  0.78965349  0.16093147  0.39495299  1
  O2-  O284  1  0.78957322  0.16824294  0.73297810  1
  O2-  O285  1  0.78906115  0.66782344  0.07102505  1
  O2-  O286  1  0.78988090  0.66258630  0.39975211  1
  O2-  O287  1  0.80081080  0.66665427  0.72799120  1
