# generated using pymatgen
data_Ca2Al2SiO7
_symmetry_space_group_name_H-M   'P 1'
_cell_length_a   15.45280965
_cell_length_b   15.45280611
_cell_length_c   15.27986472
_cell_angle_alpha   89.99873907
_cell_angle_beta   90.00108148
_cell_angle_gamma   89.99519464
_symmetry_Int_Tables_number   1
_chemical_formula_structural   Ca2Al2SiO7
_chemical_formula_sum   'Ca48 Al48 Si24 O168'
_cell_volume   3648.66774897
_cell_formula_units_Z   24
loop_
 _symmetry_equiv_pos_site_id
 _symmetry_equiv_pos_as_xyz
  1  'x, y, z'
loop_
 _atom_type_symbol
 _atom_type_oxidation_number
  Ca2+  2.0
  Al0+  0.0
  Si0+  0.0
  O2-  -2.0
loop_
 _atom_site_type_symbol
 _atom_site_label
 _atom_site_symmetry_multiplicity
 _atom_site_fract_x
 _atom_site_fract_y
 _atom_site_fract_z
 _atom_site_occupancy
  Ca2+  Ca0  1  0.16932551  0.07996115  0.17458602  1
  Ca2+  Ca1  1  0.17024074  0.08604307  0.50646666  1
  Ca2+  Ca2  1  0.16028896  0.07248910  0.83576941  1
  Ca2+  Ca3  1  0.16572650  0.57742763  0.17111789  1
  Ca2+  Ca4  1  0.17431854  0.58465409  0.50087801  1
  Ca2+  Ca5  1  0.17186456  0.57922985  0.84102803  1
  Ca2+  Ca6  1  0.66594375  0.08634337  0.17148307  1
  Ca2+  Ca7  1  0.67122382  0.09573257  0.50008149  1
  Ca2+  Ca8  1  0.65896651  0.08053224  0.83866665  1
  Ca2+  Ca9  1  0.68097959  0.57570790  0.17659917  1
  Ca2+  Ca10  1  0.66571981  0.57439498  0.49846433  1
  Ca2+  Ca11  1  0.67593640  0.58234715  0.84139186  1
  Ca2+  Ca12  1  0.08156871  0.33003639  0.16011619  1
  Ca2+  Ca13  1  0.08660270  0.31992549  0.49566424  1
  Ca2+  Ca14  1  0.08117211  0.33256444  0.83465433  1
  Ca2+  Ca15  1  0.08682784  0.82005768  0.16149348  1
  Ca2+  Ca16  1  0.08170359  0.83150239  0.49710969  1
  Ca2+  Ca17  1  0.08394794  0.83144702  0.82742368  1
  Ca2+  Ca18  1  0.57742090  0.32898281  0.16242518  1
  Ca2+  Ca19  1  0.57634695  0.32832961  0.49295681  1
  Ca2+  Ca20  1  0.57472407  0.32443689  0.82737610  1
  Ca2+  Ca21  1  0.58346786  0.83574585  0.16140955  1
  Ca2+  Ca22  1  0.57462623  0.83229634  0.49918344  1
  Ca2+  Ca23  1  0.57767970  0.83409208  0.82806666  1
  Ca2+  Ca24  1  0.33212150  0.41453273  0.17218546  1
  Ca2+  Ca25  1  0.34465269  0.42534177  0.50315508  1
  Ca2+  Ca26  1  0.33229405  0.41482978  0.83585209  1
  Ca2+  Ca27  1  0.32806118  0.92612773  0.17104489  1
  Ca2+  Ca28  1  0.32785218  0.92353901  0.50689145  1
  Ca2+  Ca29  1  0.32258993  0.91400526  0.83712089  1
  Ca2+  Ca30  1  0.83379238  0.42176703  0.17311140  1
  Ca2+  Ca31  1  0.82800260  0.41637868  0.49774876  1
  Ca2+  Ca32  1  0.83638999  0.42161646  0.84387724  1
  Ca2+  Ca33  1  0.82499461  0.92341285  0.17096500  1
  Ca2+  Ca34  1  0.83674761  0.92123242  0.50260139  1
  Ca2+  Ca35  1  0.82826129  0.91722845  0.83913137  1
  Ca2+  Ca36  1  0.42230434  0.17484907  0.16297453  1
  Ca2+  Ca37  1  0.42204664  0.17709289  0.48797927  1
  Ca2+  Ca38  1  0.42384524  0.17544858  0.82767731  1
  Ca2+  Ca39  1  0.41559070  0.66457895  0.16677626  1
  Ca2+  Ca40  1  0.40339446  0.67134690  0.49752750  1
  Ca2+  Ca41  1  0.41372175  0.67188733  0.82540498  1
  Ca2+  Ca42  1  0.91751962  0.17063108  0.16602772  1
  Ca2+  Ca43  1  0.92892874  0.15927195  0.49372544  1
  Ca2+  Ca44  1  0.92067709  0.17337783  0.82958897  1
  Ca2+  Ca45  1  0.92630407  0.65503737  0.16144261  1
  Ca2+  Ca46  1  0.92067069  0.67279945  0.49205044  1
  Ca2+  Ca47  1  0.92258934  0.67008181  0.83191213  1
  Al0+  Al48  1  -0.00106198  -0.00231626  0.00702026  1
  Al0+  Al49  1  -0.00316541  -0.00272441  0.33027153  1
  Al0+  Al50  1  -0.00083753  -0.00027304  0.66492609  1
  Al0+  Al51  1  0.00395365  0.49977486  -0.00226755  1
  Al0+  Al52  1  0.00107941  0.50074676  0.33748495  1
  Al0+  Al53  1  0.00034595  0.50050278  0.66617028  1
  Al0+  Al54  1  0.49949671  -0.00094654  0.00068031  1
  Al0+  Al55  1  0.49730890  0.00004689  0.33440623  1
  Al0+  Al56  1  0.50102885  -0.00094822  0.65864602  1
  Al0+  Al57  1  0.50143101  0.50131283  -0.00492022  1
  Al0+  Al58  1  0.49947903  0.50238507  0.33667855  1
  Al0+  Al59  1  0.50257903  0.50024020  0.67177399  1
  Al0+  Al60  1  0.25035580  0.24998162  -0.00098019  1
  Al0+  Al61  1  0.24951127  0.24835531  0.32885069  1
  Al0+  Al62  1  0.25047924  0.25210907  0.66130726  1
  Al0+  Al63  1  0.24967935  0.74956264  0.00081882  1
  Al0+  Al64  1  0.24731566  0.74938684  0.33061349  1
  Al0+  Al65  1  0.25018195  0.74945331  0.67112285  1
  Al0+  Al66  1  0.75063669  0.25003856  -0.00941946  1
  Al0+  Al67  1  0.75021260  0.24871082  0.33918850  1
  Al0+  Al68  1  0.75070487  0.25153867  0.66686061  1
  Al0+  Al69  1  0.75125940  0.75134137  0.00966625  1
  Al0+  Al70  1  0.74873892  0.75113289  0.33775356  1
  Al0+  Al71  1  0.75119689  0.75094949  0.66227782  1
  Al0+  Al72  1  0.42721830  0.81875495  0.65341032  1
  Al0+  Al73  1  0.81988928  0.06946577  0.34735630  1
  Al0+  Al74  1  0.06948843  0.67997225  0.31965050  1
  Al0+  Al75  1  0.31950831  0.07170495  0.34710302  1
  Al0+  Al76  1  0.07142480  0.67961337  0.98478027  1
  Al0+  Al77  1  0.31901037  0.57059732  0.34541198  1
  Al0+  Al78  1  0.17905213  0.93148299  0.67957266  1
  Al0+  Al79  1  0.32064624  0.56979691  0.68177089  1
  Al0+  Al80  1  0.42914361  0.32274038  0.64971539  1
  Al0+  Al81  1  0.67889569  0.42871112  0.34778905  1
  Al0+  Al82  1  0.57247037  0.17864344  0.31680680  1
  Al0+  Al83  1  0.92874202  0.82041111  0.65382585  1
  Al0+  Al84  1  0.57087612  0.17782006  0.98409682  1
  Al0+  Al85  1  0.42968269  0.32451369  0.31683070  1
  Al0+  Al86  1  0.93102623  0.32068535  0.98833493  1
  Al0+  Al87  1  0.07105863  0.17658194  0.31848563  1
  Al0+  Al88  1  0.17741657  0.92742366  0.01561665  1
  Al0+  Al89  1  0.06859687  0.17975529  0.65539848  1
  Al0+  Al90  1  0.82198589  0.56976195  0.01261566  1
  Al0+  Al91  1  0.42707542  0.32360496  0.98293550  1
  Al0+  Al92  1  0.82420642  0.57192965  0.35114551  1
  Al0+  Al93  1  0.57190876  0.17803670  0.64921773  1
  Al0+  Al94  1  0.18154514  0.42850163  0.01318367  1
  Al0+  Al95  1  0.67800534  0.93051820  0.01240573  1
  Si0+  Si96  1  0.32108060  0.07076338  0.01514437  1
  Si0+  Si97  1  0.57418558  0.68052521  0.98741138  1
  Si0+  Si98  1  0.07216799  0.67751596  0.65020359  1
  Si0+  Si99  1  0.32412498  0.57227831  0.01637247  1
  Si0+  Si100  1  0.57155621  0.68031429  0.31850250  1
  Si0+  Si101  1  0.68123262  0.42917487  0.68526959  1
  Si0+  Si102  1  0.17609497  0.42631817  0.68364082  1
  Si0+  Si103  1  0.92708399  0.82217844  0.98529889  1
  Si0+  Si104  1  0.92758447  0.32487979  0.64907154  1
  Si0+  Si105  1  0.82106676  0.07052174  0.68243152  1
  Si0+  Si106  1  0.17842243  0.92790762  0.34926907  1
  Si0+  Si107  1  0.42770404  0.82044685  0.31732974  1
  Si0+  Si108  1  0.92931229  0.32134981  0.31952814  1
  Si0+  Si109  1  0.17755483  0.42604114  0.35056088  1
  Si0+  Si110  1  0.92457192  0.82120401  0.31354409  1
  Si0+  Si111  1  0.82152606  0.57277405  0.68222166  1
  Si0+  Si112  1  0.67870911  0.92804466  0.68025207  1
  Si0+  Si113  1  0.67518035  0.92752182  0.35327570  1
  Si0+  Si114  1  0.32367688  0.07357769  0.68237415  1
  Si0+  Si115  1  0.57369691  0.67854822  0.65044771  1
  Si0+  Si116  1  0.67794545  0.42736956  0.01409176  1
  Si0+  Si117  1  0.42971706  0.81968238  0.98646608  1
  Si0+  Si118  1  0.82184412  0.07460351  0.01541083  1
  Si0+  Si119  1  0.07196564  0.17446289  0.98483882  1
  O2-  O120  1  0.24848283  0.00600913  0.06024750  1
  O2-  O121  1  0.24160389  0.00046575  0.39463889  1
  O2-  O122  1  0.25416800  0.00576461  0.72800689  1
  O2-  O123  1  0.26000221  0.49951128  0.05971041  1
  O2-  O124  1  0.24906510  0.49249299  0.39381861  1
  O2-  O125  1  0.24637656  0.49428429  0.72695015  1
  O2-  O126  1  0.75011603  0.00791427  0.05788847  1
  O2-  O127  1  0.74294586  -0.00244792  0.39632213  1
  O2-  O128  1  0.74618001  0.00242645  0.72324659  1
  O2-  O129  1  0.74780372  0.49442582  0.05884840  1
  O2-  O130  1  0.75173164  0.50003712  0.40001883  1
  O2-  O131  1  0.75373625  0.49985252  0.72639451  1
  O2-  O132  1  -0.00199877  0.25362973  0.27369549  1
  O2-  O133  1  -0.00334498  0.25635419  0.60655159  1
  O2-  O134  1  0.00314569  0.24329293  0.94107766  1
  O2-  O135  1  -0.00966324  0.74926573  0.27081340  1
  O2-  O136  1  0.00294298  0.74572999  0.60669667  1
  O2-  O137  1  -0.00213021  0.75658389  0.93953246  1
  O2-  O138  1  0.50151192  0.25175304  0.26763469  1
  O2-  O139  1  0.49737950  0.24729541  0.60014886  1
  O2-  O140  1  0.50006976  0.25128179  0.93505030  1
  O2-  O141  1  0.50125391  0.75175936  0.27523680  1
  O2-  O142  1  0.50049419  0.74254911  0.60609435  1
  O2-  O143  1  0.50055543  0.74822308  0.94406849  1
  O2-  O144  1  0.07042133  0.17470141  0.09032184  1
  O2-  O145  1  0.06972951  0.17653001  0.43189475  1
  O2-  O146  1  0.06427370  0.17809624  0.76867963  1
  O2-  O147  1  0.07103219  0.67931845  0.09779958  1
  O2-  O148  1  0.07176099  0.68488196  0.43293029  1
  O2-  O149  1  0.07024516  0.67701527  0.75598508  1
  O2-  O150  1  0.57057558  0.17757421  0.09723311  1
  O2-  O151  1  0.57049805  0.18003065  0.43009634  1
  O2-  O152  1  0.57160510  0.17874868  0.76298495  1
  O2-  O153  1  0.57359622  0.68134345  0.09245260  1
  O2-  O154  1  0.57190497  0.68214016  0.42365389  1
  O2-  O155  1  0.57735753  0.68290353  0.75648979  1
  O2-  O156  1  0.17494086  0.42856851  0.24481744  1
  O2-  O157  1  0.17144430  0.42757886  0.57847603  1
  O2-  O158  1  0.17999440  0.43133121  0.89989922  1
  O2-  O159  1  0.18306124  0.92661347  0.24349907  1
  O2-  O160  1  0.17942897  0.93166254  0.56656695  1
  O2-  O161  1  0.17848959  0.92730053  0.90213428  1
  O2-  O162  1  0.68061508  0.43144372  0.23380042  1
  O2-  O163  1  0.68131927  0.42990516  0.58047461  1
  O2-  O164  1  0.67973225  0.43189877  0.90811115  1
  O2-  O165  1  0.67651312  0.92521719  0.24746249  1
  O2-  O166  1  0.68091839  0.92410343  0.57570857  1
  O2-  O167  1  0.67905634  0.92764531  0.89884425  1
  O2-  O168  1  0.42850934  0.32427570  0.09616238  1
  O2-  O169  1  0.43182732  0.32507935  0.43024455  1
  O2-  O170  1  0.43115048  0.32174300  0.76338670  1
  O2-  O171  1  0.43067978  0.81930512  0.09174895  1
  O2-  O172  1  0.42675512  0.81863157  0.42249551  1
  O2-  O173  1  0.42970989  0.81826835  0.76705482  1
  O2-  O174  1  0.93111327  0.31983899  0.10135720  1
  O2-  O175  1  0.93164995  0.32044114  0.42535997  1
  O2-  O176  1  0.92722287  0.32529725  0.75496913  1
  O2-  O177  1  0.92618942  0.82146117  0.09042735  1
  O2-  O178  1  0.92685944  0.82231508  0.41949591  1
  O2-  O179  1  0.92637138  0.81862709  0.76710394  1
  O2-  O180  1  0.31963492  0.06753129  0.23370460  1
  O2-  O181  1  0.32105183  0.07086156  0.57683307  1
  O2-  O182  1  0.32206776  0.06682537  0.90940031  1
  O2-  O183  1  0.31736074  0.57310104  0.23242862  1
  O2-  O184  1  0.31719493  0.57177225  0.56870721  1
  O2-  O185  1  0.32213420  0.57546809  0.91077614  1
  O2-  O186  1  0.82007713  0.06745568  0.23409341  1
  O2-  O187  1  0.82278086  0.06845272  0.57754410  1
  O2-  O188  1  0.82511151  0.07165626  0.90954284  1
  O2-  O189  1  0.82383780  0.56926803  0.23733841  1
  O2-  O190  1  0.82016936  0.57279581  0.57771669  1
  O2-  O191  1  0.81905380  0.57164939  0.89870254  1
  O2-  O192  1  0.03826111  0.08032103  0.26485308  1
  O2-  O193  1  0.03513993  0.08531129  0.59931024  1
  O2-  O194  1  0.04448243  0.08013553  0.94037101  1
  O2-  O195  1  0.04269125  0.58084450  0.26810522  1
  O2-  O196  1  0.04715004  0.58386317  0.60385371  1
  O2-  O197  1  0.03940738  0.58498176  0.92868595  1
  O2-  O198  1  0.54339392  0.07827701  0.26731621  1
  O2-  O199  1  0.55268808  0.07753716  0.59747533  1
  O2-  O200  1  0.54016420  0.07865007  0.93194395  1
  O2-  O201  1  0.54286495  0.58981333  0.27035599  1
  O2-  O202  1  0.55257924  0.58304333  0.60852252  1
  O2-  O203  1  0.55153008  0.58873001  0.93721345  1
  O2-  O204  1  0.16672589  0.20511451  0.26266630  1
  O2-  O205  1  0.16548690  0.20742155  0.60066215  1
  O2-  O206  1  0.16527445  0.19897669  0.93861071  1
  O2-  O207  1  0.16362691  0.71454409  0.26242813  1
  O2-  O208  1  0.16534592  0.70517872  0.60602150  1
  O2-  O209  1  0.16858562  0.71056497  0.93137836  1
  O2-  O210  1  0.67323994  0.20481668  0.26763777  1
  O2-  O211  1  0.67120547  0.21029424  0.60000174  1
  O2-  O212  1  0.66958876  0.20176731  0.92885638  1
  O2-  O213  1  0.66383156  0.70826005  0.27135648  1
  O2-  O214  1  0.66416374  0.70860473  0.60076472  1
  O2-  O215  1  0.66520782  0.71217664  0.94026064  1
  O2-  O216  1  0.08697808  0.46340399  0.06806386  1
  O2-  O217  1  0.08614207  0.45400392  0.39973843  1
  O2-  O218  1  0.08235788  0.45370632  0.73081106  1
  O2-  O219  1  0.08013501  0.95233281  0.07113601  1
  O2-  O220  1  0.08153711  0.94679382  0.39009203  1
  O2-  O221  1  0.08223669  0.96268235  0.73430726  1
  O2-  O222  1  0.58465935  0.45519577  0.05917754  1
  O2-  O223  1  0.58336271  0.46354100  0.40316789  1
  O2-  O224  1  0.59116153  0.45855660  0.73502682  1
  O2-  O225  1  0.58077114  0.95643000  0.06796523  1
  O2-  O226  1  0.58017479  0.94938463  0.39734875  1
  O2-  O227  1  0.58502789  0.95240334  0.72649563  1
  O2-  O228  1  0.20539818  0.32968982  0.06677125  1
  O2-  O229  1  0.20012156  0.33098126  0.39374720  1
  O2-  O230  1  0.20098757  0.33228592  0.72967001  1
  O2-  O231  1  0.21374486  0.83256735  0.06961341  1
  O2-  O232  1  0.20963836  0.83654044  0.39612528  1
  O2-  O233  1  0.20979013  0.83511312  0.73463811  1
  O2-  O234  1  0.70235033  0.33215360  0.05578565  1
  O2-  O235  1  0.70749489  0.33207755  0.40390720  1
  O2-  O236  1  0.70984142  0.33752696  0.73311590  1
  O2-  O237  1  0.71018524  0.83690005  0.07204882  1
  O2-  O238  1  0.70179626  0.83479885  0.40102555  1
  O2-  O239  1  0.70968149  0.83693451  0.72862491  1
  O2-  O240  1  0.45693557  0.42446257  0.26590452  1
  O2-  O241  1  0.46295863  0.42187429  0.60127036  1
  O2-  O242  1  0.45476376  0.42292782  0.92979229  1
  O2-  O243  1  0.45452097  0.91207619  0.26956003  1
  O2-  O244  1  0.45872993  0.91339164  0.59656272  1
  O2-  O245  1  0.45753124  0.91042237  0.93779986  1
  O2-  O246  1  0.95407589  0.41579428  0.27509271  1
  O2-  O247  1  0.95118723  0.41903472  0.60303568  1
  O2-  O248  1  0.96570108  0.41435649  0.93069749  1
  O2-  O249  1  0.95147418  0.91320772  0.26554121  1
  O2-  O250  1  0.95987308  0.91577891  0.59845762  1
  O2-  O251  1  0.94960341  0.91741527  0.94050072  1
  O2-  O252  1  0.33078568  0.29531643  0.26569103  1
  O2-  O253  1  0.32868374  0.30270540  0.59805002  1
  O2-  O254  1  0.32852973  0.29396564  0.93005750  1
  O2-  O255  1  0.33769783  0.78952159  0.26854248  1
  O2-  O256  1  0.33088947  0.78753105  0.59923785  1
  O2-  O257  1  0.33844804  0.79118863  0.93849995  1
  O2-  O258  1  0.83579119  0.29488352  0.27488112  1
  O2-  O259  1  0.83427050  0.29871709  0.60410372  1
  O2-  O260  1  0.83561560  0.29406168  0.92887089  1
  O2-  O261  1  0.82832137  0.79991897  0.27104102  1
  O2-  O262  1  0.83368629  0.79017826  0.59621370  1
  O2-  O263  1  0.83349592  0.79374948  0.93977622  1
  O2-  O264  1  0.41186531  0.03888362  0.06326720  1
  O2-  O265  1  0.41437168  0.03730656  0.40233479  1
  O2-  O266  1  0.41807243  0.04528777  0.72544807  1
  O2-  O267  1  0.42096854  0.55300664  0.05911574  1
  O2-  O268  1  0.41688105  0.54857122  0.40085444  1
  O2-  O269  1  0.41952317  0.54494295  0.73558762  1
  O2-  O270  1  0.91327850  0.04697787  0.06500327  1
  O2-  O271  1  0.91572594  0.03371807  0.40197303  1
  O2-  O272  1  0.91031734  0.03842178  0.73179631  1
  O2-  O273  1  0.91833764  0.53704451  0.06402613  1
  O2-  O274  1  0.92197730  0.54469648  0.40598067  1
  O2-  O275  1  0.91502644  0.54738668  0.72854646  1
  O2-  O276  1  0.29943393  0.16541662  0.05978646  1
  O2-  O277  1  0.29037900  0.16889518  0.40021218  1
  O2-  O278  1  0.29905458  0.16844355  0.72596134  1
  O2-  O279  1  0.29550866  0.66453048  0.06342440  1
  O2-  O280  1  0.28294686  0.66639835  0.39950773  1
  O2-  O281  1  0.28922262  0.66549737  0.73789588  1
  O2-  O282  1  0.79804858  0.16949096  0.05911788  1
  O2-  O283  1  0.79515859  0.16574367  0.40461512  1
  O2-  O284  1  0.79767016  0.16461193  0.72824220  1
  O2-  O285  1  0.79170233  0.66461598  0.06959559  1
  O2-  O286  1  0.79408230  0.67094087  0.40216366  1
  O2-  O287  1  0.79044597  0.66424103  0.72917291  1
