# generated using pymatgen
data_Ca2Al2SiO7
_symmetry_space_group_name_H-M   'P 1'
_cell_length_a   15.45507812
_cell_length_b   15.45574057
_cell_length_c   15.28221068
_cell_angle_alpha   89.99486703
_cell_angle_beta   90.00420547
_cell_angle_gamma   89.99929347
_symmetry_Int_Tables_number   1
_chemical_formula_structural   Ca2Al2SiO7
_chemical_formula_sum   'Ca48 Al48 Si24 O168'
_cell_volume   3650.45671802
_cell_formula_units_Z   24
loop_
 _symmetry_equiv_pos_site_id
 _symmetry_equiv_pos_as_xyz
  1  'x, y, z'
loop_
 _atom_type_symbol
 _atom_type_oxidation_number
  Ca2+  2.0
  Al0+  0.0
  Si0+  0.0
  O2-  -2.0
loop_
 _atom_site_type_symbol
 _atom_site_label
 _atom_site_symmetry_multiplicity
 _atom_site_fract_x
 _atom_site_fract_y
 _atom_site_fract_z
 _atom_site_occupancy
  Ca2+  Ca0  1  0.17292137  0.07572919  0.16910176  1
  Ca2+  Ca1  1  0.16714737  0.08484561  0.49768514  1
  Ca2+  Ca2  1  0.16781429  0.08062968  0.84671695  1
  Ca2+  Ca3  1  0.16631066  0.57909297  0.17032127  1
  Ca2+  Ca4  1  0.17759588  0.58896675  0.50077117  1
  Ca2+  Ca5  1  0.16187717  0.57410493  0.84480667  1
  Ca2+  Ca6  1  0.67387004  0.07824277  0.17140446  1
  Ca2+  Ca7  1  0.66037571  0.06964024  0.50668630  1
  Ca2+  Ca8  1  0.67094817  0.07892617  0.83825646  1
  Ca2+  Ca9  1  0.67477034  0.58643832  0.17073703  1
  Ca2+  Ca10  1  0.66814172  0.58250929  0.50161000  1
  Ca2+  Ca11  1  0.66876061  0.59145183  0.84028826  1
  Ca2+  Ca12  1  0.09146041  0.32185247  0.16002223  1
  Ca2+  Ca13  1  0.08420665  0.32092798  0.49445643  1
  Ca2+  Ca14  1  0.08804050  0.32148715  0.83310866  1
  Ca2+  Ca15  1  0.08385369  0.82918508  0.15578298  1
  Ca2+  Ca16  1  0.07543556  0.83987022  0.49444340  1
  Ca2+  Ca17  1  0.07111055  0.84069097  0.83654400  1
  Ca2+  Ca18  1  0.57696749  0.33763055  0.16122838  1
  Ca2+  Ca19  1  0.58923033  0.32603731  0.49539884  1
  Ca2+  Ca20  1  0.57674716  0.32657077  0.83040166  1
  Ca2+  Ca21  1  0.57186291  0.83485654  0.16155333  1
  Ca2+  Ca22  1  0.58274984  0.83257259  0.49353848  1
  Ca2+  Ca23  1  0.58402999  0.82615757  0.83132181  1
  Ca2+  Ca24  1  0.33145392  0.42104730  0.16632075  1
  Ca2+  Ca25  1  0.33652089  0.42448283  0.49883368  1
  Ca2+  Ca26  1  0.32900259  0.41541823  0.84316128  1
  Ca2+  Ca27  1  0.32655458  0.91708685  0.17336626  1
  Ca2+  Ca28  1  0.33002152  0.91734338  0.49694551  1
  Ca2+  Ca29  1  0.32725340  0.92360624  0.84569284  1
  Ca2+  Ca30  1  0.82965864  0.43133591  0.17343286  1
  Ca2+  Ca31  1  0.83150851  0.42167334  0.49784385  1
  Ca2+  Ca32  1  0.83080024  0.42468117  0.84399215  1
  Ca2+  Ca33  1  0.83140272  0.91759076  0.16667515  1
  Ca2+  Ca34  1  0.82151715  0.91086347  0.50545733  1
  Ca2+  Ca35  1  0.83142437  0.91395819  0.83851166  1
  Ca2+  Ca36  1  0.41108232  0.16773452  0.16039085  1
  Ca2+  Ca37  1  0.42055414  0.16262574  0.49568781  1
  Ca2+  Ca38  1  0.41407023  0.17080884  0.83346742  1
  Ca2+  Ca39  1  0.41754116  0.67704132  0.15962294  1
  Ca2+  Ca40  1  0.42137953  0.67260186  0.49074755  1
  Ca2+  Ca41  1  0.42652298  0.67273193  0.83303383  1
  Ca2+  Ca42  1  0.92789237  0.16187112  0.15947150  1
  Ca2+  Ca43  1  0.92929818  0.16243129  0.49456995  1
  Ca2+  Ca44  1  0.92905364  0.15498266  0.83346750  1
  Ca2+  Ca45  1  0.91685288  0.67048874  0.15592241  1
  Ca2+  Ca46  1  0.91424272  0.67136508  0.49803099  1
  Ca2+  Ca47  1  0.91688224  0.67584805  0.83626536  1
  Al0+  Al48  1  -0.00036415  -0.00085350  0.00082666  1
  Al0+  Al49  1  0.00070110  -0.00015713  0.33028478  1
  Al0+  Al50  1  -0.00037342  -0.00047782  0.65641896  1
  Al0+  Al51  1  -0.00134173  0.49833644  0.00664891  1
  Al0+  Al52  1  -0.00075538  0.49928367  0.33996400  1
  Al0+  Al53  1  0.00088644  0.50028485  0.66612627  1
  Al0+  Al54  1  0.50035222  0.00127384  -0.00123254  1
  Al0+  Al55  1  0.49979931  0.00014198  0.33514878  1
  Al0+  Al56  1  0.49858283  0.00031534  0.67007015  1
  Al0+  Al57  1  0.49874808  0.49823895  -0.00950956  1
  Al0+  Al58  1  0.50115541  0.49857079  0.34090061  1
  Al0+  Al59  1  0.50045993  0.50140825  0.66413006  1
  Al0+  Al60  1  0.25075333  0.25076715  -0.00088104  1
  Al0+  Al61  1  0.25164030  0.24895169  0.33322996  1
  Al0+  Al62  1  0.24979950  0.25166526  0.66062791  1
  Al0+  Al63  1  0.25048437  0.74831652  -0.00734104  1
  Al0+  Al64  1  0.24895774  0.75060278  0.33869291  1
  Al0+  Al65  1  0.25036003  0.75086646  0.67051619  1
  Al0+  Al66  1  0.75031097  0.24957785  0.00530693  1
  Al0+  Al67  1  0.75233139  0.25104223  0.33516153  1
  Al0+  Al68  1  0.75037469  0.25094363  0.66367955  1
  Al0+  Al69  1  0.74972595  0.74992663  -0.00136451  1
  Al0+  Al70  1  0.75071353  0.74992118  0.33994758  1
  Al0+  Al71  1  0.74922634  0.74982609  0.66310534  1
  Al0+  Al72  1  0.93049743  0.81899062  0.65099573  1
  Al0+  Al73  1  0.82227866  0.57256118  0.35147610  1
  Al0+  Al74  1  0.67963957  0.93148366  0.34586642  1
  Al0+  Al75  1  0.17930145  0.92638785  0.01320684  1
  Al0+  Al76  1  0.17881720  0.42913053  0.01320650  1
  Al0+  Al77  1  0.67850022  0.42842516  0.34914953  1
  Al0+  Al78  1  0.42969677  0.31909967  0.98710448  1
  Al0+  Al79  1  0.82148493  0.07129321  0.01282326  1
  Al0+  Al80  1  0.81895442  0.57150155  0.01242609  1
  Al0+  Al81  1  0.07060389  0.17988409  0.65150026  1
  Al0+  Al82  1  0.17755341  0.92836399  0.34956745  1
  Al0+  Al83  1  0.42662285  0.82472040  0.98432254  1
  Al0+  Al84  1  0.42888698  0.82084685  0.32052505  1
  Al0+  Al85  1  0.06960363  0.18048061  0.98787019  1
  Al0+  Al86  1  0.32005347  0.57154454  0.34506412  1
  Al0+  Al87  1  0.57089483  0.17887168  0.65373246  1
  Al0+  Al88  1  0.32102591  0.07190872  0.34988508  1
  Al0+  Al89  1  0.32220741  0.07163942  0.01372981  1
  Al0+  Al90  1  0.07205049  0.67477317  0.98720729  1
  Al0+  Al91  1  0.57027487  0.68000790  0.98741455  1
  Al0+  Al92  1  0.56987922  0.68032803  0.64976164  1
  Al0+  Al93  1  0.67829072  0.92841632  0.68255014  1
  Al0+  Al94  1  0.92933455  0.82125780  0.98659416  1
  Al0+  Al95  1  0.07133642  0.17952181  0.31512318  1
  Si0+  Si96  1  0.43097243  0.32213894  0.31867987  1
  Si0+  Si97  1  0.31922999  0.07258287  0.68204262  1
  Si0+  Si98  1  0.67804334  0.92754424  0.01629112  1
  Si0+  Si99  1  0.07103993  0.67831502  0.32105177  1
  Si0+  Si100  1  0.82293215  0.07183119  0.68083596  1
  Si0+  Si101  1  0.92747962  0.81922945  0.31803289  1
  Si0+  Si102  1  0.92784000  0.32581956  0.64946326  1
  Si0+  Si103  1  0.32263147  0.57199228  0.68393050  1
  Si0+  Si104  1  0.17672891  0.93013776  0.68201123  1
  Si0+  Si105  1  0.42830637  0.32188247  0.64704275  1
  Si0+  Si106  1  0.07320096  0.67570924  0.64950948  1
  Si0+  Si107  1  0.82329866  0.07219213  0.35054381  1
  Si0+  Si108  1  0.57610792  0.17746226  0.98514280  1
  Si0+  Si109  1  0.42604243  0.82254435  0.64895304  1
  Si0+  Si110  1  0.92585900  0.32180463  0.98576519  1
  Si0+  Si111  1  0.32381882  0.57106005  0.01324848  1
  Si0+  Si112  1  0.17872053  0.42683329  0.35125114  1
  Si0+  Si113  1  0.67560950  0.42731245  0.01417911  1
  Si0+  Si114  1  0.18084799  0.42978572  0.68077153  1
  Si0+  Si115  1  0.67844175  0.42744909  0.68358038  1
  Si0+  Si116  1  0.57221862  0.17823070  0.31850313  1
  Si0+  Si117  1  0.92813032  0.32341337  0.31498401  1
  Si0+  Si118  1  0.57219641  0.67705873  0.31790215  1
  Si0+  Si119  1  0.82046991  0.57001382  0.68333787  1
  O2-  O120  1  0.25544380  -0.00557372  0.06270030  1
  O2-  O121  1  0.24846638  0.00104648  0.40102650  1
  O2-  O122  1  0.24738889  0.00203168  0.72327374  1
  O2-  O123  1  0.24979227  0.50838592  0.05816863  1
  O2-  O124  1  0.24504728  0.49790511  0.39536012  1
  O2-  O125  1  0.24984282  0.50190446  0.72454686  1
  O2-  O126  1  0.74533846  -0.00177446  0.05947037  1
  O2-  O127  1  0.75304996  0.00625386  0.39573340  1
  O2-  O128  1  0.75269262  0.00543489  0.72620163  1
  O2-  O129  1  0.74303818  0.49707779  0.05763621  1
  O2-  O130  1  0.74921447  0.50087697  0.40082718  1
  O2-  O131  1  0.74975125  0.49818555  0.72559690  1
  O2-  O132  1  -0.00326205  0.25561090  0.27015312  1
  O2-  O133  1  -0.00607619  0.25399204  0.60629515  1
  O2-  O134  1  -0.00733152  0.25261407  0.93921443  1
  O2-  O135  1  -0.00137278  0.74725619  0.27818526  1
  O2-  O136  1  0.00709258  0.74571714  0.60412896  1
  O2-  O137  1  0.00325178  0.75004347  0.93706672  1
  O2-  O138  1  0.50261970  0.25119951  0.27716223  1
  O2-  O139  1  0.49785739  0.25392601  0.60356813  1
  O2-  O140  1  0.50466794  0.24402893  0.94164553  1
  O2-  O141  1  0.50315676  0.74504868  0.27420724  1
  O2-  O142  1  0.49486432  0.75465632  0.60354209  1
  O2-  O143  1  0.49999206  0.75296954  0.93571146  1
  O2-  O144  1  0.06994638  0.18156657  0.10044198  1
  O2-  O145  1  0.06947455  0.18211848  0.42898191  1
  O2-  O146  1  0.07195944  0.18033661  0.76444336  1
  O2-  O147  1  0.06929247  0.67366756  0.10131221  1
  O2-  O148  1  0.07078851  0.67956592  0.42658176  1
  O2-  O149  1  0.07101909  0.67072994  0.75441291  1
  O2-  O150  1  0.57896741  0.17980482  0.09072838  1
  O2-  O151  1  0.57071984  0.17869681  0.42390445  1
  O2-  O152  1  0.57012801  0.18204916  0.76664141  1
  O2-  O153  1  0.56950965  0.67899741  0.10107654  1
  O2-  O154  1  0.57041609  0.67865928  0.42385684  1
  O2-  O155  1  0.56887693  0.67954246  0.76254613  1
  O2-  O156  1  0.17974218  0.42717787  0.24581268  1
  O2-  O157  1  0.18289142  0.43018973  0.57569365  1
  O2-  O158  1  0.18115887  0.42730917  0.89932267  1
  O2-  O159  1  0.17737672  0.92568439  0.23672911  1
  O2-  O160  1  0.17749134  0.92940023  0.57709439  1
  O2-  O161  1  0.17669514  0.93267176  0.89877440  1
  O2-  O162  1  0.67765896  0.43016901  0.23554507  1
  O2-  O163  1  0.67951643  0.42701816  0.57879547  1
  O2-  O164  1  0.67800475  0.42503282  0.90821281  1
  O2-  O165  1  0.68074289  0.93274662  0.23290226  1
  O2-  O166  1  0.67890586  0.92930139  0.56918212  1
  O2-  O167  1  0.67937767  0.92781171  0.91042441  1
  O2-  O168  1  0.43171203  0.32223092  0.10033927  1
  O2-  O169  1  0.43110911  0.32219195  0.42401139  1
  O2-  O170  1  0.42620434  0.32095287  0.75257772  1
  O2-  O171  1  0.42795210  0.82314468  0.09825890  1
  O2-  O172  1  0.43077895  0.81901440  0.43403567  1
  O2-  O173  1  0.42487447  0.82023927  0.75417001  1
  O2-  O174  1  0.92623876  0.32062567  0.09100717  1
  O2-  O175  1  0.92936010  0.32222294  0.42112377  1
  O2-  O176  1  0.92918871  0.33100150  0.75478688  1
  O2-  O177  1  0.92718855  0.81916040  0.10033663  1
  O2-  O178  1  0.92780938  0.81836237  0.42348487  1
  O2-  O179  1  0.93113654  0.81945744  0.76360887  1
  O2-  O180  1  0.32063105  0.07324164  0.23709461  1
  O2-  O181  1  0.31947023  0.07267693  0.57713737  1
  O2-  O182  1  0.31812660  0.07391744  0.89922951  1
  O2-  O183  1  0.31907411  0.56984159  0.23227207  1
  O2-  O184  1  0.32165246  0.57154923  0.57855381  1
  O2-  O185  1  0.32537090  0.56545782  0.90730929  1
  O2-  O186  1  0.82199652  0.07112643  0.24490078  1
  O2-  O187  1  0.82282277  0.07014047  0.57518031  1
  O2-  O188  1  0.81988066  0.07170793  0.89934056  1
  O2-  O189  1  0.82226606  0.57328651  0.23809827  1
  O2-  O190  1  0.82072904  0.56778616  0.57840714  1
  O2-  O191  1  0.81817632  0.56981690  0.89868432  1
  O2-  O192  1  0.03919922  0.08272513  0.26290065  1
  O2-  O193  1  0.04038728  0.08518214  0.59398437  1
  O2-  O194  1  0.03814349  0.08446214  0.93334657  1
  O2-  O195  1  0.04662059  0.58362414  0.27759882  1
  O2-  O196  1  0.04726415  0.58281239  0.60093911  1
  O2-  O197  1  0.03897471  0.57675245  0.93449012  1
  O2-  O198  1  0.54341453  0.08787775  0.27020978  1
  O2-  O199  1  0.53750355  0.08242738  0.60051287  1
  O2-  O200  1  0.55445970  0.08358923  0.93872489  1
  O2-  O201  1  0.54802040  0.58166533  0.27597641  1
  O2-  O202  1  0.53966544  0.58265179  0.59646581  1
  O2-  O203  1  0.54305801  0.58261918  0.93041853  1
  O2-  O204  1  0.16893935  0.21215964  0.26483123  1
  O2-  O205  1  0.16543923  0.21458480  0.59549652  1
  O2-  O206  1  0.16418506  0.21494623  0.93239867  1
  O2-  O207  1  0.16251543  0.70583144  0.27413807  1
  O2-  O208  1  0.16877351  0.70108196  0.60681751  1
  O2-  O209  1  0.17137778  0.69370535  0.93255345  1
  O2-  O210  1  0.66602682  0.20396332  0.27361165  1
  O2-  O211  1  0.66781499  0.20831205  0.59848623  1
  O2-  O212  1  0.66814474  0.20638758  0.93671626  1
  O2-  O213  1  0.66709708  0.70333146  0.27552381  1
  O2-  O214  1  0.66634823  0.70962974  0.59576928  1
  O2-  O215  1  0.66744942  0.70914010  0.93208738  1
  O2-  O216  1  0.08253019  0.45386167  0.07017038  1
  O2-  O217  1  0.08463248  0.44847283  0.39801151  1
  O2-  O218  1  0.08780233  0.45525222  0.72718707  1
  O2-  O219  1  0.08185975  0.95625675  0.06618458  1
  O2-  O220  1  0.07866924  0.95901883  0.40153222  1
  O2-  O221  1  0.08383295  0.95945312  0.72582630  1
  O2-  O222  1  0.58085625  0.45229949  0.05741708  1
  O2-  O223  1  0.58113315  0.45281609  0.40651574  1
  O2-  O224  1  0.58505641  0.45488887  0.72833336  1
  O2-  O225  1  0.58426498  0.95292356  0.06149886  1
  O2-  O226  1  0.58445721  0.96258163  0.40200056  1
  O2-  O227  1  0.58128017  0.95856451  0.73613874  1
  O2-  O228  1  0.21644527  0.33603305  0.06826004  1
  O2-  O229  1  0.20921936  0.33536503  0.39849408  1
  O2-  O230  1  0.21072275  0.33789855  0.72738436  1
  O2-  O231  1  0.20269033  0.82466676  0.06171616  1
  O2-  O232  1  0.20520597  0.83122296  0.40615318  1
  O2-  O233  1  0.20280668  0.83742103  0.72899086  1
  O2-  O234  1  0.69976164  0.33481983  0.06294350  1
  O2-  O235  1  0.70939298  0.33009215  0.40324022  1
  O2-  O236  1  0.70563459  0.33528004  0.73109525  1
  O2-  O237  1  0.70553800  0.83542530  0.06311793  1
  O2-  O238  1  0.71039548  0.83581602  0.40172098  1
  O2-  O239  1  0.71231877  0.83171967  0.73412799  1
  O2-  O240  1  0.45963146  0.41408611  0.27173493  1
  O2-  O241  1  0.45380082  0.41613445  0.60254070  1
  O2-  O242  1  0.45947922  0.41269910  0.92617455  1
  O2-  O243  1  0.46089929  0.91731680  0.26750329  1
  O2-  O244  1  0.45010365  0.91744962  0.60590438  1
  O2-  O245  1  0.45448948  0.92348806  0.93092268  1
  O2-  O246  1  0.95291778  0.41883119  0.27218040  1
  O2-  O247  1  0.95783634  0.41717851  0.59994196  1
  O2-  O248  1  0.95233063  0.41492600  0.93974669  1
  O2-  O249  1  0.95321125  0.91178645  0.27206064  1
  O2-  O250  1  0.95937709  0.91431294  0.59328068  1
  O2-  O251  1  0.95690264  0.91884324  0.93118969  1
  O2-  O252  1  0.33884153  0.29548735  0.27207356  1
  O2-  O253  1  0.33568322  0.29652321  0.59876832  1
  O2-  O254  1  0.33504330  0.28761851  0.92949618  1
  O2-  O255  1  0.33121014  0.78875637  0.26990084  1
  O2-  O256  1  0.33187990  0.79523474  0.60362928  1
  O2-  O257  1  0.33023891  0.79630251  0.92748818  1
  O2-  O258  1  0.83365120  0.29959162  0.26988950  1
  O2-  O259  1  0.83341104  0.30331349  0.60373006  1
  O2-  O260  1  0.83114802  0.29898266  0.93985819  1
  O2-  O261  1  0.83542221  0.79081959  0.27178319  1
  O2-  O262  1  0.83528502  0.78513925  0.59657893  1
  O2-  O263  1  0.83240683  0.79057973  0.93209050  1
  O2-  O264  1  0.42436609  0.05339306  0.06339676  1
  O2-  O265  1  0.41913454  0.04287931  0.40316256  1
  O2-  O266  1  0.41047088  0.04593330  0.73063769  1
  O2-  O267  1  0.41498627  0.53790595  0.05977735  1
  O2-  O268  1  0.41457050  0.53904760  0.40283452  1
  O2-  O269  1  0.41415391  0.54155491  0.73006082  1
  O2-  O270  1  0.91589073  0.03865896  0.06875732  1
  O2-  O271  1  0.91621466  0.04413227  0.39569270  1
  O2-  O272  1  0.91681885  0.04261865  0.72480570  1
  O2-  O273  1  0.91304252  0.53915928  0.06971167  1
  O2-  O274  1  0.91967079  0.54231390  0.40760733  1
  O2-  O275  1  0.91378384  0.54288661  0.72861408  1
  O2-  O276  1  0.28999700  0.16845822  0.06661667  1
  O2-  O277  1  0.29377553  0.17097686  0.40385617  1
  O2-  O278  1  0.29208185  0.16667483  0.72581589  1
  O2-  O279  1  0.30540805  0.66710542  0.05523839  1
  O2-  O280  1  0.28819682  0.66502415  0.40476126  1
  O2-  O281  1  0.29726054  0.66456620  0.73084914  1
  O2-  O282  1  0.79291660  0.16741294  0.07014157  1
  O2-  O283  1  0.80271936  0.16738170  0.39523088  1
  O2-  O284  1  0.80161070  0.16770008  0.72448314  1
  O2-  O285  1  0.78811939  0.66739586  0.06754938  1
  O2-  O286  1  0.79361621  0.66938216  0.40693937  1
  O2-  O287  1  0.79052256  0.66161381  0.72843266  1
