# generated using pymatgen
data_Ca2Al2SiO7
_symmetry_space_group_name_H-M   'P 1'
_cell_length_a   15.46573028
_cell_length_b   15.46452244
_cell_length_c   15.28871026
_cell_angle_alpha   90.01163586
_cell_angle_beta   90.01451593
_cell_angle_gamma   90.03424484
_symmetry_Int_Tables_number   1
_chemical_formula_structural   Ca2Al2SiO7
_chemical_formula_sum   'Ca48 Al48 Si24 O168'
_cell_volume   3656.60202020
_cell_formula_units_Z   24
loop_
 _symmetry_equiv_pos_site_id
 _symmetry_equiv_pos_as_xyz
  1  'x, y, z'
loop_
 _atom_type_symbol
 _atom_type_oxidation_number
  Ca2+  2.0
  Al0+  0.0
  Si0+  0.0
  O2-  -2.0
loop_
 _atom_site_type_symbol
 _atom_site_label
 _atom_site_symmetry_multiplicity
 _atom_site_fract_x
 _atom_site_fract_y
 _atom_site_fract_z
 _atom_site_occupancy
  Ca2+  Ca0  1  0.16607032  0.07494114  0.17150379  1
  Ca2+  Ca1  1  0.17269071  0.07145514  0.50017298  1
  Ca2+  Ca2  1  0.16104647  0.07218545  0.83979666  1
  Ca2+  Ca3  1  0.17235599  0.57961695  0.17141052  1
  Ca2+  Ca4  1  0.17324480  0.58128591  0.50182911  1
  Ca2+  Ca5  1  0.17934545  0.57926874  0.84234650  1
  Ca2+  Ca6  1  0.67233697  0.07416366  0.17428567  1
  Ca2+  Ca7  1  0.66822953  0.07164554  0.49828898  1
  Ca2+  Ca8  1  0.66387091  0.06987363  0.83833094  1
  Ca2+  Ca9  1  0.66448234  0.57937842  0.16874046  1
  Ca2+  Ca10  1  0.67213824  0.58094643  0.50258215  1
  Ca2+  Ca11  1  0.67370728  0.59274707  0.83864599  1
  Ca2+  Ca12  1  0.08461714  0.32912176  0.15476121  1
  Ca2+  Ca13  1  0.08733090  0.33769286  0.49480427  1
  Ca2+  Ca14  1  0.08803339  0.33439910  0.83379432  1
  Ca2+  Ca15  1  0.09420235  0.82402887  0.16346053  1
  Ca2+  Ca16  1  0.08951068  0.82843786  0.49082621  1
  Ca2+  Ca17  1  0.09340975  0.82802390  0.83178458  1
  Ca2+  Ca18  1  0.57728894  0.33363590  0.15871243  1
  Ca2+  Ca19  1  0.58403085  0.33284561  0.49168265  1
  Ca2+  Ca20  1  0.57387551  0.33376933  0.83283605  1
  Ca2+  Ca21  1  0.57840219  0.83392424  0.16191688  1
  Ca2+  Ca22  1  0.57325961  0.83902813  0.49444109  1
  Ca2+  Ca23  1  0.57904127  0.83232464  0.82741930  1
  Ca2+  Ca24  1  0.32730412  0.42555593  0.17060182  1
  Ca2+  Ca25  1  0.32284194  0.43017251  0.50471511  1
  Ca2+  Ca26  1  0.32731703  0.42483949  0.84229439  1
  Ca2+  Ca27  1  0.32450138  0.91838198  0.17444577  1
  Ca2+  Ca28  1  0.32709744  0.90900952  0.50083377  1
  Ca2+  Ca29  1  0.32501462  0.91169710  0.83512305  1
  Ca2+  Ca30  1  0.82986385  0.41345122  0.17080049  1
  Ca2+  Ca31  1  0.82812747  0.42295283  0.50203042  1
  Ca2+  Ca32  1  0.83604773  0.42082131  0.83551938  1
  Ca2+  Ca33  1  0.82197013  0.91861244  0.17302479  1
  Ca2+  Ca34  1  0.82331544  0.91670538  0.50250547  1
  Ca2+  Ca35  1  0.81961100  0.91037431  0.83961998  1
  Ca2+  Ca36  1  0.40898168  0.17454272  0.16230618  1
  Ca2+  Ca37  1  0.41446321  0.16665095  0.49254988  1
  Ca2+  Ca38  1  0.40870007  0.17622036  0.83295721  1
  Ca2+  Ca39  1  0.41725675  0.66681093  0.16321300  1
  Ca2+  Ca40  1  0.40609270  0.67564467  0.49579362  1
  Ca2+  Ca41  1  0.41791439  0.66666820  0.83003686  1
  Ca2+  Ca42  1  0.92059453  0.17116861  0.15805100  1
  Ca2+  Ca43  1  0.91640050  0.16626487  0.49301831  1
  Ca2+  Ca44  1  0.92213592  0.17149322  0.83568735  1
  Ca2+  Ca45  1  0.93393942  0.66487494  0.16204707  1
  Ca2+  Ca46  1  0.92345500  0.66557875  0.49485804  1
  Ca2+  Ca47  1  0.92466403  0.66267610  0.83104912  1
  Al0+  Al48  1  -0.00280042  0.00004389  -0.00007171  1
  Al0+  Al49  1  -0.00106102  0.00064102  0.33879576  1
  Al0+  Al50  1  -0.00051351  0.00110544  0.66881113  1
  Al0+  Al51  1  0.00024711  0.50118746  -0.00524240  1
  Al0+  Al52  1  -0.00093321  0.49951517  0.33077128  1
  Al0+  Al53  1  -0.00216680  0.49861917  0.67092854  1
  Al0+  Al54  1  0.49939277  -0.00043138  0.00385692  1
  Al0+  Al55  1  0.50099967  0.00160147  0.33281945  1
  Al0+  Al56  1  0.50036324  0.00080814  0.66651865  1
  Al0+  Al57  1  0.50181932  0.50120783  -0.00662212  1
  Al0+  Al58  1  0.49960857  0.50032542  0.34151924  1
  Al0+  Al59  1  0.50098387  0.49903976  0.66642113  1
  Al0+  Al60  1  0.24919032  0.24981354  -0.00807050  1
  Al0+  Al61  1  0.24880734  0.24961478  0.33846492  1
  Al0+  Al62  1  0.24909491  0.24928042  0.66519492  1
  Al0+  Al63  1  0.25184647  0.75073130  0.00282829  1
  Al0+  Al64  1  0.25114330  0.74969260  0.32918415  1
  Al0+  Al65  1  0.25124589  0.74916951  0.66976641  1
  Al0+  Al66  1  0.75012705  0.24960220  -0.00706995  1
  Al0+  Al67  1  0.74958828  0.24987746  0.33974428  1
  Al0+  Al68  1  0.75105607  0.24983541  0.66546363  1
  Al0+  Al69  1  0.74952933  0.74890240  0.00395956  1
  Al0+  Al70  1  0.74968145  0.74920918  0.33557727  1
  Al0+  Al71  1  0.75092564  0.74970698  0.67264831  1
  Al0+  Al72  1  0.17898119  0.92959842  0.68049580  1
  Al0+  Al73  1  0.07034621  0.67933988  0.32017590  1
  Al0+  Al74  1  0.17773851  0.92965191  0.01395911  1
  Al0+  Al75  1  0.43006881  0.81959855  0.65285193  1
  Al0+  Al76  1  0.67791413  0.92736107  0.01552331  1
  Al0+  Al77  1  0.67914348  0.93100332  0.68138528  1
  Al0+  Al78  1  0.32162399  0.57182176  0.34851707  1
  Al0+  Al79  1  0.07118032  0.17694808  0.98440664  1
  Al0+  Al80  1  0.92753198  0.32242171  0.98362262  1
  Al0+  Al81  1  0.18009165  0.92794212  0.34717463  1
  Al0+  Al82  1  0.42915198  0.32100432  0.98687005  1
  Al0+  Al83  1  0.81894370  0.57041253  0.68074000  1
  Al0+  Al84  1  0.32182887  0.57171434  0.68346183  1
  Al0+  Al85  1  0.17823964  0.42881017  0.01496904  1
  Al0+  Al86  1  0.82123563  0.07126753  0.34764508  1
  Al0+  Al87  1  0.57152562  0.68028477  0.98712127  1
  Al0+  Al88  1  0.07317057  0.68125548  0.98483639  1
  Al0+  Al89  1  0.32150068  0.07263803  0.34641015  1
  Al0+  Al90  1  0.67878926  0.42950159  0.34431595  1
  Al0+  Al91  1  0.17852872  0.42780530  0.68317964  1
  Al0+  Al92  1  0.67807708  0.92649959  0.34868626  1
  Al0+  Al93  1  0.43068158  0.82188915  0.31802398  1
  Al0+  Al94  1  0.17657334  0.42866832  0.34639601  1
  Al0+  Al95  1  0.32458763  0.57082113  0.01668402  1
  Si0+  Si96  1  0.32261420  0.07223652  0.68340646  1
  Si0+  Si97  1  0.82313984  0.57139110  0.34768268  1
  Si0+  Si98  1  0.57193266  0.17686069  0.98325280  1
  Si0+  Si99  1  0.42904221  0.82374628  0.98321241  1
  Si0+  Si100  1  0.92753206  0.31984974  0.31987638  1
  Si0+  Si101  1  0.92699086  0.82047834  0.98464679  1
  Si0+  Si102  1  0.06939268  0.67997991  0.65283245  1
  Si0+  Si103  1  0.68031305  0.42798822  0.01159936  1
  Si0+  Si104  1  0.82247572  0.07362151  0.68597843  1
  Si0+  Si105  1  0.92736652  0.82188362  0.65283224  1
  Si0+  Si106  1  0.92903119  0.32065691  0.64824361  1
  Si0+  Si107  1  0.57265237  0.18075917  0.31795441  1
  Si0+  Si108  1  0.92624434  0.82366141  0.31784419  1
  Si0+  Si109  1  0.82183176  0.57074295  0.01626506  1
  Si0+  Si110  1  0.57511605  0.67761720  0.64909539  1
  Si0+  Si111  1  0.32172774  0.07301716  0.01453271  1
  Si0+  Si112  1  0.57137597  0.18027318  0.65012227  1
  Si0+  Si113  1  0.57368973  0.67605266  0.31815534  1
  Si0+  Si114  1  0.67839857  0.42573033  0.68471709  1
  Si0+  Si115  1  0.07065120  0.17746862  0.64815766  1
  Si0+  Si116  1  0.81938550  0.07308789  0.01539629  1
  Si0+  Si117  1  0.07081662  0.17887572  0.31981142  1
  Si0+  Si118  1  0.42905316  0.32111089  0.32035771  1
  Si0+  Si119  1  0.42831457  0.32115000  0.64841804  1
  O2-  O120  1  0.25141225  0.00641628  0.05828730  1
  O2-  O121  1  0.25453507  -0.00289572  0.39786777  1
  O2-  O122  1  0.25372207  0.00417545  0.72749263  1
  O2-  O123  1  0.25007551  0.50037903  0.06513346  1
  O2-  O124  1  0.24686354  0.50159075  0.39646784  1
  O2-  O125  1  0.25167674  0.49801711  0.73278535  1
  O2-  O126  1  0.75163016  0.00400490  0.05962846  1
  O2-  O127  1  0.75301737  -0.00396829  0.39791192  1
  O2-  O128  1  0.75525055  0.00367884  0.72986763  1
  O2-  O129  1  0.75327761  0.49581076  0.05569414  1
  O2-  O130  1  0.75117422  0.50589700  0.39137591  1
  O2-  O131  1  0.74199261  0.49856353  0.72898839  1
  O2-  O132  1  0.00011397  0.25077740  0.27817760  1
  O2-  O133  1  0.00107724  0.25069374  0.60602893  1
  O2-  O134  1  0.00282436  0.25315801  0.93412660  1
  O2-  O135  1  -0.00354419  0.75651635  0.27416333  1
  O2-  O136  1  0.00086449  0.75380559  0.60986080  1
  O2-  O137  1  0.00010479  0.75818021  0.93792278  1
  O2-  O138  1  0.49953626  0.24985898  0.27621069  1
  O2-  O139  1  0.50074646  0.25109211  0.60621877  1
  O2-  O140  1  0.50153325  0.24346548  0.93866820  1
  O2-  O141  1  0.50750378  0.74703667  0.27435809  1
  O2-  O142  1  0.50407488  0.74343935  0.60518458  1
  O2-  O143  1  0.49799791  0.75510228  0.93951794  1
  O2-  O144  1  0.06805135  0.17601944  0.09843940  1
  O2-  O145  1  0.06946560  0.17956443  0.42511854  1
  O2-  O146  1  0.06879147  0.17555186  0.75277811  1
  O2-  O147  1  0.07071806  0.68049171  0.09791852  1
  O2-  O148  1  0.06662011  0.67853467  0.43401760  1
  O2-  O149  1  0.06768965  0.68145553  0.75775925  1
  O2-  O150  1  0.57474670  0.18003128  0.08870661  1
  O2-  O151  1  0.57394928  0.18347632  0.42335878  1
  O2-  O152  1  0.57134055  0.18185237  0.75527636  1
  O2-  O153  1  0.57287773  0.67952319  0.10015666  1
  O2-  O154  1  0.57628360  0.67497781  0.42362955  1
  O2-  O155  1  0.57695711  0.68044841  0.75469009  1
  O2-  O156  1  0.17738669  0.42592391  0.23338248  1
  O2-  O157  1  0.17873213  0.42980730  0.56941950  1
  O2-  O158  1  0.18118335  0.43084557  0.90155267  1
  O2-  O159  1  0.17948316  0.93103323  0.23378035  1
  O2-  O160  1  0.17817980  0.92985186  0.56782610  1
  O2-  O161  1  0.18058144  0.92986559  0.90048183  1
  O2-  O162  1  0.67991368  0.42791299  0.23094089  1
  O2-  O163  1  0.68139690  0.42380225  0.57891505  1
  O2-  O164  1  0.68101163  0.42853295  0.90661262  1
  O2-  O165  1  0.67962206  0.92901186  0.23511745  1
  O2-  O166  1  0.68049383  0.93232682  0.56879523  1
  O2-  O167  1  0.67888008  0.92887520  0.90204981  1
  O2-  O168  1  0.43241193  0.32046617  0.10034952  1
  O2-  O169  1  0.43215484  0.31885164  0.42555375  1
  O2-  O170  1  0.42961656  0.31933446  0.75353296  1
  O2-  O171  1  0.43097621  0.82593113  0.08850772  1
  O2-  O172  1  0.43094578  0.82056215  0.43145026  1
  O2-  O173  1  0.43218919  0.82101150  0.76590442  1
  O2-  O174  1  0.92157768  0.31823943  0.09742381  1
  O2-  O175  1  0.92655809  0.31970498  0.42519065  1
  O2-  O176  1  0.92581250  0.31886016  0.75268389  1
  O2-  O177  1  0.92449422  0.81666098  0.09004532  1
  O2-  O178  1  0.92464292  0.82101939  0.42388100  1
  O2-  O179  1  0.92557663  0.82045159  0.75771419  1
  O2-  O180  1  0.31649016  0.07709173  0.23304575  1
  O2-  O181  1  0.32195111  0.07341167  0.57810958  1
  O2-  O182  1  0.32461252  0.07047827  0.90873790  1
  O2-  O183  1  0.32491230  0.56815538  0.23543164  1
  O2-  O184  1  0.31823655  0.57247996  0.57002054  1
  O2-  O185  1  0.32507165  0.56937559  0.90312403  1
  O2-  O186  1  0.81833491  0.07418382  0.23412410  1
  O2-  O187  1  0.82151428  0.07431966  0.58059513  1
  O2-  O188  1  0.81724313  0.07312673  0.90961610  1
  O2-  O189  1  0.82472440  0.56899000  0.24223602  1
  O2-  O190  1  0.81951864  0.56776019  0.56727514  1
  O2-  O191  1  0.81961751  0.57281147  0.91115487  1
  O2-  O192  1  0.04229317  0.08677754  0.27319961  1
  O2-  O193  1  0.03989778  0.08627510  0.60028123  1
  O2-  O194  1  0.03643129  0.08024316  0.92933499  1
  O2-  O195  1  0.03579182  0.58396720  0.26460917  1
  O2-  O196  1  0.03664365  0.58858330  0.60730445  1
  O2-  O197  1  0.03882820  0.58674524  0.92960636  1
  O2-  O198  1  0.54935722  0.08848111  0.27031886  1
  O2-  O199  1  0.54351647  0.08880084  0.60251388  1
  O2-  O200  1  0.54643630  0.08242741  0.93853496  1
  O2-  O201  1  0.54534280  0.58208945  0.27314075  1
  O2-  O202  1  0.55543491  0.58079274  0.60623803  1
  O2-  O203  1  0.54568505  0.58445436  0.92895124  1
  O2-  O204  1  0.16275153  0.20626834  0.27281830  1
  O2-  O205  1  0.16352737  0.20307359  0.60141600  1
  O2-  O206  1  0.16962052  0.19899765  0.92865464  1
  O2-  O207  1  0.16584107  0.70878817  0.26460415  1
  O2-  O208  1  0.16176751  0.70666274  0.60683177  1
  O2-  O209  1  0.17007339  0.71253138  0.93165245  1
  O2-  O210  1  0.66349772  0.21261499  0.27075602  1
  O2-  O211  1  0.66356406  0.20855090  0.60279482  1
  O2-  O212  1  0.66322904  0.20360320  0.93301209  1
  O2-  O213  1  0.66914938  0.69690261  0.27235886  1
  O2-  O214  1  0.66904261  0.70494850  0.60401333  1
  O2-  O215  1  0.66868049  0.71175362  0.93336750  1
  O2-  O216  1  0.07739281  0.45491961  0.06360812  1
  O2-  O217  1  0.07703212  0.45512739  0.39863548  1
  O2-  O218  1  0.07868497  0.45260420  0.73304443  1
  O2-  O219  1  0.07894716  0.95654311  0.06538894  1
  O2-  O220  1  0.08189925  0.95565885  0.40053325  1
  O2-  O221  1  0.08174099  0.95967038  0.73398549  1
  O2-  O222  1  0.58993008  0.45851477  0.05896517  1
  O2-  O223  1  0.58447681  0.45687571  0.40364962  1
  O2-  O224  1  0.58253511  0.44521097  0.72737323  1
  O2-  O225  1  0.58152297  0.95793693  0.06901353  1
  O2-  O226  1  0.58241154  0.96165268  0.40169230  1
  O2-  O227  1  0.58379156  0.96527560  0.73562562  1
  O2-  O228  1  0.20536235  0.32741060  0.06207713  1
  O2-  O229  1  0.20550730  0.33190961  0.40161557  1
  O2-  O230  1  0.20542528  0.32730929  0.73213078  1
  O2-  O231  1  0.21146765  0.83487308  0.06816864  1
  O2-  O232  1  0.20811097  0.82958441  0.39877101  1
  O2-  O233  1  0.21089279  0.83398778  0.73447637  1
  O2-  O234  1  0.70491365  0.33448461  0.05760439  1
  O2-  O235  1  0.71171831  0.33612318  0.40310334  1
  O2-  O236  1  0.70868740  0.33362165  0.73099330  1
  O2-  O237  1  0.71187137  0.83262615  0.07042359  1
  O2-  O238  1  0.70305282  0.82734708  0.40181589  1
  O2-  O239  1  0.70985949  0.83474831  0.73537522  1
  O2-  O240  1  0.45871942  0.41314115  0.27506309  1
  O2-  O241  1  0.45602169  0.41336701  0.60153444  1
  O2-  O242  1  0.46609704  0.41346138  0.92899127  1
  O2-  O243  1  0.46039201  0.91964023  0.26458660  1
  O2-  O244  1  0.46097108  0.91750887  0.60032410  1
  O2-  O245  1  0.45442612  0.91777258  0.93689614  1
  O2-  O246  1  0.95027675  0.41230680  0.27181157  1
  O2-  O247  1  0.95474362  0.41360208  0.60155216  1
  O2-  O248  1  0.95105193  0.42148456  0.93041841  1
  O2-  O249  1  0.94855153  0.91891254  0.27397393  1
  O2-  O250  1  0.95077499  0.91585712  0.60728136  1
  O2-  O251  1  0.94354034  0.91658800  0.94051912  1
  O2-  O252  1  0.33708061  0.29193221  0.27417241  1
  O2-  O253  1  0.33683823  0.29160803  0.60127337  1
  O2-  O254  1  0.33498809  0.29087807  0.92787349  1
  O2-  O255  1  0.33491146  0.79138580  0.26292995  1
  O2-  O256  1  0.33259053  0.78824108  0.59952321  1
  O2-  O257  1  0.33586454  0.79721416  0.93757438  1
  O2-  O258  1  0.83579572  0.28980010  0.27309014  1
  O2-  O259  1  0.83704810  0.29143385  0.60013419  1
  O2-  O260  1  0.83083887  0.29101282  0.92619987  1
  O2-  O261  1  0.83268889  0.79666929  0.27140782  1
  O2-  O262  1  0.83681678  0.79012669  0.60456653  1
  O2-  O263  1  0.83566068  0.78792579  0.93728794  1
  O2-  O264  1  0.41493502  0.04911034  0.06254158  1
  O2-  O265  1  0.42256575  0.05263474  0.39633014  1
  O2-  O266  1  0.41658083  0.04940540  0.72922404  1
  O2-  O267  1  0.42395802  0.53977743  0.06625811  1
  O2-  O268  1  0.41784847  0.54311216  0.40542500  1
  O2-  O269  1  0.42317148  0.54565658  0.73168226  1
  O2-  O270  1  0.91283870  0.04927608  0.06136629  1
  O2-  O271  1  0.91900226  0.04732253  0.40351350  1
  O2-  O272  1  0.91637857  0.04995928  0.73127760  1
  O2-  O273  1  0.91398907  0.54445452  0.06244444  1
  O2-  O274  1  0.91353656  0.54097684  0.39690220  1
  O2-  O275  1  0.91315738  0.53664019  0.73663366  1
  O2-  O276  1  0.29849579  0.16803715  0.05738044  1
  O2-  O277  1  0.29006169  0.16777864  0.40453595  1
  O2-  O278  1  0.29606961  0.16595791  0.72847099  1
  O2-  O279  1  0.29824651  0.67019368  0.06699252  1
  O2-  O280  1  0.29143314  0.66981543  0.39928691  1
  O2-  O281  1  0.29226017  0.66859647  0.73754521  1
  O2-  O282  1  0.79192724  0.16677171  0.06047171  1
  O2-  O283  1  0.78891995  0.16674070  0.40485305  1
  O2-  O284  1  0.79452941  0.16709963  0.73093182  1
  O2-  O285  1  0.79031219  0.65959127  0.06623387  1
  O2-  O286  1  0.80134453  0.66521459  0.39464548  1
  O2-  O287  1  0.79225916  0.66636034  0.73781714  1
