# generated using pymatgen
data_Ca2Al2SiO7
_symmetry_space_group_name_H-M   'P 1'
_cell_length_a   15.46769902
_cell_length_b   15.46518756
_cell_length_c   15.29009953
_cell_angle_alpha   89.98799737
_cell_angle_beta   90.00211055
_cell_angle_gamma   90.00419788
_symmetry_Int_Tables_number   1
_chemical_formula_structural   Ca2Al2SiO7
_chemical_formula_sum   'Ca48 Al48 Si24 O168'
_cell_volume   3657.55786481
_cell_formula_units_Z   24
loop_
 _symmetry_equiv_pos_site_id
 _symmetry_equiv_pos_as_xyz
  1  'x, y, z'
loop_
 _atom_type_symbol
 _atom_type_oxidation_number
  Ca2+  2.0
  Al0+  0.0
  Si0+  0.0
  O2-  -2.0
loop_
 _atom_site_type_symbol
 _atom_site_label
 _atom_site_symmetry_multiplicity
 _atom_site_fract_x
 _atom_site_fract_y
 _atom_site_fract_z
 _atom_site_occupancy
  Ca2+  Ca0  1  0.16730127  0.07817167  0.17061030  1
  Ca2+  Ca1  1  0.17231488  0.08262284  0.51005603  1
  Ca2+  Ca2  1  0.15032711  0.07215436  0.83513097  1
  Ca2+  Ca3  1  0.15701823  0.57734339  0.17429848  1
  Ca2+  Ca4  1  0.15606390  0.57431472  0.50428913  1
  Ca2+  Ca5  1  0.15400515  0.57781112  0.83274619  1
  Ca2+  Ca6  1  0.67404638  0.08819566  0.17471002  1
  Ca2+  Ca7  1  0.67438947  0.07763281  0.50125837  1
  Ca2+  Ca8  1  0.67761019  0.08451212  0.83511489  1
  Ca2+  Ca9  1  0.67558565  0.57670424  0.17468506  1
  Ca2+  Ca10  1  0.68177394  0.58684934  0.50561217  1
  Ca2+  Ca11  1  0.67695669  0.58179752  0.83328464  1
  Ca2+  Ca12  1  0.07913685  0.32578731  0.16057917  1
  Ca2+  Ca13  1  0.08284842  0.33340988  0.50231198  1
  Ca2+  Ca14  1  0.07665332  0.32059612  0.82605793  1
  Ca2+  Ca15  1  0.08890238  0.82146599  0.16064209  1
  Ca2+  Ca16  1  0.08151063  0.82534838  0.50016039  1
  Ca2+  Ca17  1  0.08406036  0.82741126  0.82318717  1
  Ca2+  Ca18  1  0.58532749  0.31819610  0.16197606  1
  Ca2+  Ca19  1  0.57611454  0.32816996  0.49564486  1
  Ca2+  Ca20  1  0.57799910  0.32769876  0.82803186  1
  Ca2+  Ca21  1  0.57741988  0.84649822  0.17052693  1
  Ca2+  Ca22  1  0.58067944  0.84538151  0.49246784  1
  Ca2+  Ca23  1  0.58264492  0.83784752  0.82662545  1
  Ca2+  Ca24  1  0.32302922  0.41899989  0.17439591  1
  Ca2+  Ca25  1  0.32099677  0.41256355  0.50765972  1
  Ca2+  Ca26  1  0.32835722  0.41214602  0.83028819  1
  Ca2+  Ca27  1  0.32825926  0.92032582  0.17205177  1
  Ca2+  Ca28  1  0.33072491  0.92018242  0.50095339  1
  Ca2+  Ca29  1  0.31818381  0.91670069  0.83537512  1
  Ca2+  Ca30  1  0.83994500  0.42043080  0.17235049  1
  Ca2+  Ca31  1  0.84162061  0.42752412  0.50607174  1
  Ca2+  Ca32  1  0.85052150  0.42002793  0.83256032  1
  Ca2+  Ca33  1  0.82850351  0.93350537  0.17476370  1
  Ca2+  Ca34  1  0.82728102  0.92350540  0.51165136  1
  Ca2+  Ca35  1  0.84374687  0.93059576  0.83176093  1
  Ca2+  Ca36  1  0.42769201  0.15579653  0.16643439  1
  Ca2+  Ca37  1  0.41933660  0.16676139  0.49282144  1
  Ca2+  Ca38  1  0.42572884  0.16670360  0.82758824  1
  Ca2+  Ca39  1  0.41628268  0.67543899  0.16590588  1
  Ca2+  Ca40  1  0.42049772  0.67526239  0.49392269  1
  Ca2+  Ca41  1  0.42123348  0.66682278  0.82807704  1
  Ca2+  Ca42  1  0.91450336  0.17148708  0.15607042  1
  Ca2+  Ca43  1  0.91557215  0.16527773  0.50128891  1
  Ca2+  Ca44  1  0.91885436  0.17116428  0.82571353  1
  Ca2+  Ca45  1  0.92404950  0.66640196  0.16540488  1
  Ca2+  Ca46  1  0.91974518  0.66788683  0.49866054  1
  Ca2+  Ca47  1  0.92592203  0.67415554  0.82239616  1
  Al0+  Al48  1  -0.00119349  -0.00255828  0.01161873  1
  Al0+  Al49  1  0.00017568  -0.00112908  0.33599989  1
  Al0+  Al50  1  0.00060970  -0.00120541  0.66495087  1
  Al0+  Al51  1  0.00129916  0.50129955  -0.00367123  1
  Al0+  Al52  1  -0.00044199  0.49934961  0.33652347  1
  Al0+  Al53  1  0.00185583  0.49787006  0.67045457  1
  Al0+  Al54  1  0.49849517  -0.00009654  -0.00780282  1
  Al0+  Al55  1  0.49784761  0.00161216  0.33140165  1
  Al0+  Al56  1  0.50041908  -0.00014249  0.67004486  1
  Al0+  Al57  1  0.50070915  0.50183894  0.00240340  1
  Al0+  Al58  1  0.49781804  0.50077777  0.33116495  1
  Al0+  Al59  1  0.50001589  0.50030150  0.66143823  1
  Al0+  Al60  1  0.25078282  0.25069618  -0.00126711  1
  Al0+  Al61  1  0.24819856  0.25038086  0.33958319  1
  Al0+  Al62  1  0.25229071  0.25148253  0.66635545  1
  Al0+  Al63  1  0.25188298  0.74962642  -0.00058642  1
  Al0+  Al64  1  0.25133819  0.74820725  0.32419719  1
  Al0+  Al65  1  0.25360743  0.74947913  0.66525010  1
  Al0+  Al66  1  0.74723745  0.25232871  -0.00610630  1
  Al0+  Al67  1  0.74902475  0.25119201  0.33400957  1
  Al0+  Al68  1  0.74840294  0.25064466  0.66424564  1
  Al0+  Al69  1  0.74856276  0.74952365  0.00274903  1
  Al0+  Al70  1  0.74963719  0.74950109  0.33699372  1
  Al0+  Al71  1  0.75018191  0.74837430  0.67322711  1
  Al0+  Al72  1  0.17967945  0.43040182  0.34725456  1
  Al0+  Al73  1  0.82365379  0.07462227  0.34957466  1
  Al0+  Al74  1  0.07102547  0.17729121  0.65090606  1
  Al0+  Al75  1  0.07229593  0.17551285  0.98826906  1
  Al0+  Al76  1  0.56984710  0.17864167  0.98406136  1
  Al0+  Al77  1  0.92892655  0.32079329  0.98634017  1
  Al0+  Al78  1  0.82219316  0.56874005  0.68288971  1
  Al0+  Al79  1  0.56882975  0.18205699  0.32048205  1
  Al0+  Al80  1  0.17869238  0.92801793  0.01482565  1
  Al0+  Al81  1  0.07306183  0.67888560  0.65091500  1
  Al0+  Al82  1  0.82133878  0.07251189  0.68263966  1
  Al0+  Al83  1  0.92758054  0.82110138  0.65216896  1
  Al0+  Al84  1  0.18017153  0.42871289  0.68371221  1
  Al0+  Al85  1  0.43025672  0.32130183  0.65215768  1
  Al0+  Al86  1  0.82007789  0.56957115  0.34633500  1
  Al0+  Al87  1  0.18090227  0.92849261  0.67740804  1
  Al0+  Al88  1  0.67791638  0.92840722  0.68335851  1
  Al0+  Al89  1  0.31809136  0.06932523  0.34566742  1
  Al0+  Al90  1  0.81865860  0.07263886  0.01368562  1
  Al0+  Al91  1  0.92810684  0.32028175  0.64936889  1
  Al0+  Al92  1  0.07159336  0.68109668  0.98553672  1
  Al0+  Al93  1  0.67910956  0.93155879  0.34568021  1
  Al0+  Al94  1  0.06741436  0.67957657  0.31941859  1
  Al0+  Al95  1  0.43059836  0.82072611  0.31874745  1
  Si0+  Si96  1  0.82147761  0.57012676  0.01565504  1
  Si0+  Si97  1  0.67527064  0.42764525  0.34904807  1
  Si0+  Si98  1  0.32228231  0.07294673  0.68421225  1
  Si0+  Si99  1  0.17985364  0.43052533  0.01520604  1
  Si0+  Si100  1  0.42409523  0.32306459  0.31570307  1
  Si0+  Si101  1  0.57436094  0.67605697  0.31561941  1
  Si0+  Si102  1  0.93079759  0.31932167  0.32004993  1
  Si0+  Si103  1  0.67602275  0.43077919  0.01496887  1
  Si0+  Si104  1  0.57172088  0.67864144  0.65218247  1
  Si0+  Si105  1  0.67515919  0.92784067  0.01683304  1
  Si0+  Si106  1  0.67537150  0.42955633  0.68238670  1
  Si0+  Si107  1  0.32423574  0.57124184  0.01622285  1
  Si0+  Si108  1  0.57162845  0.67761230  0.98491929  1
  Si0+  Si109  1  0.07331264  0.17697370  0.31990944  1
  Si0+  Si110  1  0.92543110  0.82077558  0.98637829  1
  Si0+  Si111  1  0.32425048  0.57160678  0.68292431  1
  Si0+  Si112  1  0.43112447  0.82143854  0.65164250  1
  Si0+  Si113  1  0.17837943  0.92372182  0.34932693  1
  Si0+  Si114  1  0.57094917  0.17623426  0.64742379  1
  Si0+  Si115  1  0.42842239  0.32559431  0.98480421  1
  Si0+  Si116  1  0.32341832  0.07206433  0.01478284  1
  Si0+  Si117  1  0.32311098  0.57368934  0.34956332  1
  Si0+  Si118  1  0.92497997  0.82357434  0.31571635  1
  Si0+  Si119  1  0.43032953  0.81994138  0.98216036  1
  O2-  O120  1  0.24998544  0.00809270  0.05862498  1
  O2-  O121  1  0.24139637  -0.00249912  0.39319344  1
  O2-  O122  1  0.24989219  0.00772890  0.72712220  1
  O2-  O123  1  0.25144329  0.50162143  0.05747950  1
  O2-  O124  1  0.25618594  0.50416479  0.39324681  1
  O2-  O125  1  0.25356359  0.50637877  0.72905189  1
  O2-  O126  1  0.74300870  -0.00250465  0.05963056  1
  O2-  O127  1  0.75596015  -0.00310121  0.39651822  1
  O2-  O128  1  0.75096768  -0.00140398  0.73340340  1
  O2-  O129  1  0.75243374  0.49645382  0.05713253  1
  O2-  O130  1  0.74066118  0.49926932  0.39232479  1
  O2-  O131  1  0.74939440  0.49097575  0.72924243  1
  O2-  O132  1  -0.00335834  0.24298821  0.27863568  1
  O2-  O133  1  -0.00185316  0.24709070  0.59842453  1
  O2-  O134  1  -0.00308321  0.24402895  0.93856533  1
  O2-  O135  1  -0.00358860  0.75715523  0.27098442  1
  O2-  O136  1  -0.00026290  0.74940424  0.60145689  1
  O2-  O137  1  -0.00213375  0.75681393  0.94104651  1
  O2-  O138  1  0.49479131  0.25729806  0.27088390  1
  O2-  O139  1  0.50231969  0.24548994  0.60429501  1
  O2-  O140  1  0.49299064  0.25319575  0.94078940  1
  O2-  O141  1  0.50707495  0.74665516  0.27153780  1
  O2-  O142  1  0.50635814  0.75475719  0.61014870  1
  O2-  O143  1  0.50392603  0.75083871  0.94132983  1
  O2-  O144  1  0.07423974  0.18058056  0.10261492  1
  O2-  O145  1  0.07738285  0.17923303  0.42420703  1
  O2-  O146  1  0.07002864  0.17774677  0.76463501  1
  O2-  O147  1  0.06926719  0.67799609  0.09901295  1
  O2-  O148  1  0.06711807  0.67864255  0.43163408  1
  O2-  O149  1  0.07252287  0.68197433  0.76483109  1
  O2-  O150  1  0.56868389  0.17886926  0.09744688  1
  O2-  O151  1  0.56584976  0.18428923  0.43302211  1
  O2-  O152  1  0.56855538  0.17684485  0.75339567  1
  O2-  O153  1  0.56974202  0.67458313  0.08972709  1
  O2-  O154  1  0.57197132  0.67232011  0.42085231  1
  O2-  O155  1  0.56728517  0.67545923  0.75772260  1
  O2-  O156  1  0.17964223  0.43119814  0.23320330  1
  O2-  O157  1  0.18191366  0.43006234  0.57062249  1
  O2-  O158  1  0.18150237  0.43099546  0.91072176  1
  O2-  O159  1  0.18152810  0.92379114  0.24333360  1
  O2-  O160  1  0.18727355  0.92571774  0.56455815  1
  O2-  O161  1  0.18210720  0.92432695  0.90191552  1
  O2-  O162  1  0.67713041  0.42743961  0.24283493  1
  O2-  O163  1  0.67144136  0.43573781  0.57704024  1
  O2-  O164  1  0.66784977  0.43651884  0.91075016  1
  O2-  O165  1  0.67919678  0.93564711  0.23156102  1
  O2-  O166  1  0.67402185  0.93171615  0.57010516  1
  O2-  O167  1  0.67447988  0.92582812  0.91194721  1
  O2-  O168  1  0.43031947  0.32936009  0.09029959  1
  O2-  O169  1  0.42533189  0.32279279  0.42096208  1
  O2-  O170  1  0.43376309  0.32147556  0.76584094  1
  O2-  O171  1  0.43079233  0.81988593  0.08730671  1
  O2-  O172  1  0.43078035  0.81892615  0.43188828  1
  O2-  O173  1  0.43023592  0.81867660  0.75699870  1
  O2-  O174  1  0.93168818  0.32391716  0.10090522  1
  O2-  O175  1  0.93220314  0.32256853  0.42434851  1
  O2-  O176  1  0.93180494  0.31977497  0.76286923  1
  O2-  O177  1  0.92291170  0.81565586  0.09203248  1
  O2-  O178  1  0.92432182  0.82206096  0.42071506  1
  O2-  O179  1  0.92994249  0.82002416  0.76639205  1
  O2-  O180  1  0.31740498  0.06794257  0.23207654  1
  O2-  O181  1  0.32512323  0.06970041  0.57848797  1
  O2-  O182  1  0.32885010  0.06838960  0.90974069  1
  O2-  O183  1  0.32393810  0.57250996  0.24341958  1
  O2-  O184  1  0.32784896  0.57119881  0.57768938  1
  O2-  O185  1  0.33032906  0.57031750  0.91166852  1
  O2-  O186  1  0.82042105  0.07805736  0.23546117  1
  O2-  O187  1  0.81802512  0.07182913  0.56940437  1
  O2-  O188  1  0.81945573  0.07227713  0.90129881  1
  O2-  O189  1  0.82081859  0.56545736  0.23235445  1
  O2-  O190  1  0.81924294  0.56943645  0.56976676  1
  O2-  O191  1  0.81938990  0.57123308  0.91106506  1
  O2-  O192  1  0.05320974  0.08206363  0.27465429  1
  O2-  O193  1  0.04847778  0.07800919  0.59793854  1
  O2-  O194  1  0.04748030  0.07329422  0.94296495  1
  O2-  O195  1  0.03243806  0.58320066  0.26546129  1
  O2-  O196  1  0.04449456  0.57919971  0.60321538  1
  O2-  O197  1  0.03915249  0.58561368  0.93184922  1
  O2-  O198  1  0.53540199  0.08727829  0.26471657  1
  O2-  O199  1  0.54206107  0.08295888  0.60307829  1
  O2-  O200  1  0.53890898  0.08328766  0.92775329  1
  O2-  O201  1  0.54608397  0.58324355  0.26700649  1
  O2-  O202  1  0.53892012  0.59069004  0.60100131  1
  O2-  O203  1  0.53970817  0.58782136  0.93583331  1
  O2-  O204  1  0.16273349  0.21108519  0.27092074  1
  O2-  O205  1  0.17068118  0.20751582  0.60152478  1
  O2-  O206  1  0.17078802  0.20445074  0.93537062  1
  O2-  O207  1  0.16544754  0.70491817  0.26394640  1
  O2-  O208  1  0.17286807  0.70596522  0.59956658  1
  O2-  O209  1  0.17045456  0.70695590  0.93417011  1
  O2-  O210  1  0.66522145  0.21474280  0.26521931  1
  O2-  O211  1  0.66387766  0.20185152  0.60193452  1
  O2-  O212  1  0.66292480  0.21351239  0.92733909  1
  O2-  O213  1  0.66873825  0.69820211  0.26964409  1
  O2-  O214  1  0.66537617  0.70058761  0.60786820  1
  O2-  O215  1  0.66464090  0.70226735  0.93846723  1
  O2-  O216  1  0.08874120  0.46128182  0.06272685  1
  O2-  O217  1  0.08503078  0.46346243  0.40175089  1
  O2-  O218  1  0.08481663  0.45812568  0.73968348  1
  O2-  O219  1  0.08264592  0.95009254  0.07390855  1
  O2-  O220  1  0.08235055  0.94157439  0.39164475  1
  O2-  O221  1  0.08348766  0.95375454  0.73174033  1
  O2-  O222  1  0.58797462  0.46421351  0.06752904  1
  O2-  O223  1  0.57933345  0.44972247  0.39203504  1
  O2-  O224  1  0.58462442  0.46297427  0.73081864  1
  O2-  O225  1  0.57968884  0.95363298  0.05930920  1
  O2-  O226  1  0.58162562  0.96352854  0.39768941  1
  O2-  O227  1  0.57940529  0.95783869  0.73765931  1
  O2-  O228  1  0.20737933  0.33838029  0.06323492  1
  O2-  O229  1  0.20928967  0.33521180  0.40325371  1
  O2-  O230  1  0.21621960  0.33368578  0.73806478  1
  O2-  O231  1  0.21790541  0.83308217  0.06877212  1
  O2-  O232  1  0.21150799  0.83162909  0.39285335  1
  O2-  O233  1  0.21883850  0.83403564  0.73290653  1
  O2-  O234  1  0.69918996  0.33715969  0.05983317  1
  O2-  O235  1  0.70222294  0.33612510  0.39653374  1
  O2-  O236  1  0.69199431  0.33278181  0.72410973  1
  O2-  O237  1  0.69828817  0.83296987  0.06318599  1
  O2-  O238  1  0.69560530  0.82910351  0.39475664  1
  O2-  O239  1  0.69879329  0.82791130  0.73514720  1
  O2-  O240  1  0.44561036  0.41863969  0.27062466  1
  O2-  O241  1  0.46163167  0.41689107  0.59588871  1
  O2-  O242  1  0.45896781  0.41762400  0.93778475  1
  O2-  O243  1  0.46082845  0.91629449  0.26214696  1
  O2-  O244  1  0.45563486  0.91470656  0.60567190  1
  O2-  O245  1  0.45495871  0.91092239  0.93234887  1
  O2-  O246  1  0.96370973  0.40904170  0.27090488  1
  O2-  O247  1  0.96105845  0.41846023  0.59910019  1
  O2-  O248  1  0.96253175  0.41739415  0.93358446  1
  O2-  O249  1  0.94861848  0.91866850  0.27070277  1
  O2-  O250  1  0.95466843  0.91846710  0.59834593  1
  O2-  O251  1  0.94855168  0.91657621  0.94610158  1
  O2-  O252  1  0.33073554  0.29522459  0.27039441  1
  O2-  O253  1  0.33410831  0.29257091  0.59805931  1
  O2-  O254  1  0.33372990  0.30421285  0.93993090  1
  O2-  O255  1  0.33700512  0.78735744  0.25936015  1
  O2-  O256  1  0.34258641  0.78954890  0.60142374  1
  O2-  O257  1  0.34073772  0.78717885  0.93409296  1
  O2-  O258  1  0.83679562  0.29805825  0.27315540  1
  O2-  O259  1  0.82663509  0.29974950  0.59860199  1
  O2-  O260  1  0.82802158  0.30398437  0.93476107  1
  O2-  O261  1  0.83213343  0.79488591  0.26921277  1
  O2-  O262  1  0.82792615  0.79081248  0.60264882  1
  O2-  O263  1  0.83272849  0.79237527  0.93965888  1
  O2-  O264  1  0.41496873  0.03851251  0.06194842  1
  O2-  O265  1  0.41300239  0.03622937  0.40025733  1
  O2-  O266  1  0.41362354  0.04207598  0.73204532  1
  O2-  O267  1  0.41463456  0.54282894  0.06728986  1
  O2-  O268  1  0.41807025  0.55174302  0.39494398  1
  O2-  O269  1  0.41692742  0.54211228  0.73047463  1
  O2-  O270  1  0.91342852  0.04271492  0.07243695  1
  O2-  O271  1  0.92452724  0.05186351  0.39920300  1
  O2-  O272  1  0.92048090  0.04354768  0.73388925  1
  O2-  O273  1  0.91382979  0.54251859  0.06236655  1
  O2-  O274  1  0.91324094  0.53367566  0.40159009  1
  O2-  O275  1  0.91811929  0.53912885  0.73799951  1
  O2-  O276  1  0.30577205  0.16854533  0.05872871  1
  O2-  O277  1  0.29170877  0.16598298  0.40100480  1
  O2-  O278  1  0.30392944  0.16807319  0.72859731  1
  O2-  O279  1  0.29812068  0.66365318  0.06275895  1
  O2-  O280  1  0.29770118  0.66787521  0.39322926  1
  O2-  O281  1  0.30331582  0.66626237  0.72896109  1
  O2-  O282  1  0.78648493  0.17123656  0.06430427  1
  O2-  O283  1  0.79053813  0.17168776  0.40175406  1
  O2-  O284  1  0.79021082  0.17156323  0.73384171  1
  O2-  O285  1  0.79015250  0.66052187  0.06440337  1
  O2-  O286  1  0.79279049  0.66631245  0.40083742  1
  O2-  O287  1  0.78766613  0.66263390  0.73988487  1
