# generated using pymatgen
data_Ca2Al2SiO7
_symmetry_space_group_name_H-M   'P 1'
_cell_length_a   15.45804995
_cell_length_b   15.45857246
_cell_length_c   15.28433606
_cell_angle_alpha   90.00335996
_cell_angle_beta   89.99678661
_cell_angle_gamma   90.00716481
_symmetry_Int_Tables_number   1
_chemical_formula_structural   Ca2Al2SiO7
_chemical_formula_sum   'Ca48 Al48 Si24 O168'
_cell_volume   3652.33550830
_cell_formula_units_Z   24
loop_
 _symmetry_equiv_pos_site_id
 _symmetry_equiv_pos_as_xyz
  1  'x, y, z'
loop_
 _atom_type_symbol
 _atom_type_oxidation_number
  Ca2+  2.0
  Al0+  0.0
  Si0+  0.0
  O2-  -2.0
loop_
 _atom_site_type_symbol
 _atom_site_label
 _atom_site_symmetry_multiplicity
 _atom_site_fract_x
 _atom_site_fract_y
 _atom_site_fract_z
 _atom_site_occupancy
  Ca2+  Ca0  1  0.16527250  0.07630324  0.16997955  1
  Ca2+  Ca1  1  0.17372215  0.07051806  0.50847843  1
  Ca2+  Ca2  1  0.17713713  0.07801074  0.84100565  1
  Ca2+  Ca3  1  0.16995237  0.58654326  0.17041934  1
  Ca2+  Ca4  1  0.17998125  0.58080188  0.50673888  1
  Ca2+  Ca5  1  0.16851041  0.58089996  0.83285322  1
  Ca2+  Ca6  1  0.67075324  0.08387923  0.17760637  1
  Ca2+  Ca7  1  0.67398932  0.08550755  0.49861119  1
  Ca2+  Ca8  1  0.67139357  0.09093528  0.83504242  1
  Ca2+  Ca9  1  0.66449885  0.57596285  0.17798118  1
  Ca2+  Ca10  1  0.65794078  0.57370348  0.50148796  1
  Ca2+  Ca11  1  0.66582755  0.57363218  0.83358099  1
  Ca2+  Ca12  1  0.07491259  0.32414478  0.15410333  1
  Ca2+  Ca13  1  0.08010889  0.33585080  0.50065056  1
  Ca2+  Ca14  1  0.07553202  0.33182574  0.82423907  1
  Ca2+  Ca15  1  0.08376080  0.83555195  0.16460703  1
  Ca2+  Ca16  1  0.08304142  0.83979015  0.49345492  1
  Ca2+  Ca17  1  0.09671794  0.83181868  0.83262691  1
  Ca2+  Ca18  1  0.58721664  0.32206505  0.16571503  1
  Ca2+  Ca19  1  0.58248743  0.33274999  0.49604557  1
  Ca2+  Ca20  1  0.57724748  0.32738633  0.82598752  1
  Ca2+  Ca21  1  0.58023678  0.83548084  0.16865858  1
  Ca2+  Ca22  1  0.57065070  0.83013355  0.48784138  1
  Ca2+  Ca23  1  0.57373757  0.83024734  0.82386351  1
  Ca2+  Ca24  1  0.33214503  0.42448169  0.17404797  1
  Ca2+  Ca25  1  0.33486582  0.42727797  0.51044551  1
  Ca2+  Ca26  1  0.33299858  0.41660507  0.83011258  1
  Ca2+  Ca27  1  0.32415789  0.91832289  0.17003919  1
  Ca2+  Ca28  1  0.32851346  0.91334718  0.50712792  1
  Ca2+  Ca29  1  0.32966853  0.92456015  0.83502903  1
  Ca2+  Ca30  1  0.83005950  0.41529890  0.17194958  1
  Ca2+  Ca31  1  0.82049560  0.41194809  0.50643488  1
  Ca2+  Ca32  1  0.83113038  0.40529611  0.83308798  1
  Ca2+  Ca33  1  0.82876061  0.92426144  0.18158268  1
  Ca2+  Ca34  1  0.83133571  0.92540009  0.50045481  1
  Ca2+  Ca35  1  0.83251297  0.92452106  0.83385291  1
  Ca2+  Ca36  1  0.42977059  0.15651686  0.16240483  1
  Ca2+  Ca37  1  0.41611753  0.17211706  0.49667723  1
  Ca2+  Ca38  1  0.41892682  0.16279413  0.82609432  1
  Ca2+  Ca39  1  0.41564445  0.67119123  0.17347242  1
  Ca2+  Ca40  1  0.41316023  0.67297894  0.49321500  1
  Ca2+  Ca41  1  0.41153411  0.67357120  0.82388474  1
  Ca2+  Ca42  1  0.92020161  0.16874987  0.16000946  1
  Ca2+  Ca43  1  0.91124651  0.16531727  0.49927508  1
  Ca2+  Ca44  1  0.92271790  0.17218331  0.82879639  1
  Ca2+  Ca45  1  0.92133831  0.67684859  0.16167747  1
  Ca2+  Ca46  1  0.92021540  0.67645257  0.49247449  1
  Ca2+  Ca47  1  0.92612910  0.66782258  0.83020542  1
  Al0+  Al48  1  -0.00153279  0.00077850  -0.00084369  1
  Al0+  Al49  1  0.00084298  0.00106164  0.33671281  1
  Al0+  Al50  1  -0.00099475  -0.00067935  0.67556520  1
  Al0+  Al51  1  -0.00157065  0.50346015  -0.00618179  1
  Al0+  Al52  1  -0.00082335  0.49996790  0.33225844  1
  Al0+  Al53  1  -0.00067713  0.50060362  0.66229806  1
  Al0+  Al54  1  0.50061815  -0.00121911  -0.00301104  1
  Al0+  Al55  1  0.49949877  0.00111180  0.32844924  1
  Al0+  Al56  1  0.50131367  -0.00292902  0.66286628  1
  Al0+  Al57  1  0.50093077  0.49962263  0.00217228  1
  Al0+  Al58  1  0.49846020  0.50111270  0.33657640  1
  Al0+  Al59  1  0.50148087  0.49778490  0.67380567  1
  Al0+  Al60  1  0.25240290  0.25151915  0.00354833  1
  Al0+  Al61  1  0.24795381  0.25019965  0.33134403  1
  Al0+  Al62  1  0.25036080  0.24942347  0.66718141  1
  Al0+  Al63  1  0.24992442  0.75061076  0.00050874  1
  Al0+  Al64  1  0.25001998  0.74921899  0.33604942  1
  Al0+  Al65  1  0.25052151  0.74829820  0.66842380  1
  Al0+  Al66  1  0.74713860  0.24957296  -0.00596864  1
  Al0+  Al67  1  0.74948615  0.25183475  0.33670939  1
  Al0+  Al68  1  0.75158206  0.24977896  0.67122099  1
  Al0+  Al69  1  0.74983399  0.74803297  -0.00175951  1
  Al0+  Al70  1  0.75012014  0.75027171  0.32886206  1
  Al0+  Al71  1  0.75177192  0.74866314  0.66655083  1
  Al0+  Al72  1  0.82128253  0.07184191  0.34750246  1
  Al0+  Al73  1  0.67621344  0.92692445  0.34748043  1
  Al0+  Al74  1  0.32144625  0.56965102  0.68373352  1
  Al0+  Al75  1  0.32399745  0.07356003  0.01673182  1
  Al0+  Al76  1  0.56814162  0.17811112  0.98511864  1
  Al0+  Al77  1  0.68044778  0.42929651  0.68257677  1
  Al0+  Al78  1  0.68048644  0.43071960  0.34608938  1
  Al0+  Al79  1  0.32409915  0.07142085  0.67922203  1
  Al0+  Al80  1  0.07141252  0.68222367  0.98564770  1
  Al0+  Al81  1  0.81921600  0.07028756  0.68318403  1
  Al0+  Al82  1  0.57059692  0.67767652  0.31881131  1
  Al0+  Al83  1  0.57056786  0.18152413  0.32127456  1
  Al0+  Al84  1  0.42625621  0.82233144  0.31614245  1
  Al0+  Al85  1  0.31846809  0.56882405  0.34658383  1
  Al0+  Al86  1  0.17893816  0.92834161  0.68255225  1
  Al0+  Al87  1  0.17661549  0.42862220  0.68105841  1
  Al0+  Al88  1  0.92931161  0.32094494  0.98448741  1
  Al0+  Al89  1  0.07375810  0.17700775  0.98441240  1
  Al0+  Al90  1  0.17926290  0.92967575  0.01745660  1
  Al0+  Al91  1  0.92970874  0.82300889  0.32104372  1
  Al0+  Al92  1  0.42832590  0.31994281  0.65339320  1
  Al0+  Al93  1  0.42926781  0.81926158  0.65277830  1
  Al0+  Al94  1  0.18109167  0.93065622  0.34697436  1
  Al0+  Al95  1  0.92958990  0.32014704  0.64954056  1
  Si0+  Si96  1  0.82291023  0.57395473  0.68364742  1
  Si0+  Si97  1  0.81771407  0.07114220  0.01459983  1
  Si0+  Si98  1  0.68020212  0.42956393  0.01629788  1
  Si0+  Si99  1  0.17499869  0.42549153  0.34827019  1
  Si0+  Si100  1  0.32318597  0.07445034  0.34912517  1
  Si0+  Si101  1  0.42605131  0.32277294  0.31701787  1
  Si0+  Si102  1  0.17617469  0.43077556  0.01439515  1
  Si0+  Si103  1  0.42872998  0.32592497  0.98489079  1
  Si0+  Si104  1  0.57273398  0.67623124  0.98406227  1
  Si0+  Si105  1  0.07107015  0.67781428  0.31767685  1
  Si0+  Si106  1  0.67869619  0.92529005  0.68256915  1
  Si0+  Si107  1  0.07130668  0.17922839  0.31960748  1
  Si0+  Si108  1  0.92534523  0.82244459  0.98201518  1
  Si0+  Si109  1  0.82153055  0.57231300  0.01573381  1
  Si0+  Si110  1  0.32144441  0.57106019  0.01633135  1
  Si0+  Si111  1  0.82453316  0.57331667  0.34891196  1
  Si0+  Si112  1  0.67946911  0.92594682  0.01347000  1
  Si0+  Si113  1  0.57398288  0.67691184  0.65179389  1
  Si0+  Si114  1  0.92810814  0.82233304  0.65181552  1
  Si0+  Si115  1  0.07069310  0.67990614  0.64978284  1
  Si0+  Si116  1  0.57310575  0.17760716  0.64888033  1
  Si0+  Si117  1  0.07171741  0.17607733  0.64926149  1
  Si0+  Si118  1  0.43088884  0.81806219  0.98441958  1
  Si0+  Si119  1  0.92895014  0.32120356  0.31951697  1
  O2-  O120  1  0.24737028  0.00596661  0.06687337  1
  O2-  O121  1  0.25850987  0.00229188  0.39305659  1
  O2-  O122  1  0.25056258  0.00159048  0.73013899  1
  O2-  O123  1  0.24987928  0.49939278  0.05732288  1
  O2-  O124  1  0.24502277  0.49240933  0.39152349  1
  O2-  O125  1  0.25030578  0.49704842  0.73425078  1
  O2-  O126  1  0.75067200  -0.00355862  0.05626506  1
  O2-  O127  1  0.74903278  -0.00113164  0.39633314  1
  O2-  O128  1  0.74351329  -0.00389655  0.72957016  1
  O2-  O129  1  0.75196093  0.50000923  0.05817940  1
  O2-  O130  1  0.75302364  0.50784840  0.39288436  1
  O2-  O131  1  0.75604856  0.50394630  0.72886900  1
  O2-  O132  1  0.00168717  0.25239184  0.27780569  1
  O2-  O133  1  0.00493468  0.24616705  0.60255342  1
  O2-  O134  1  0.00462904  0.25233377  0.93477981  1
  O2-  O135  1  0.00224537  0.74630028  0.27356289  1
  O2-  O136  1  0.00136444  0.75357126  0.60965676  1
  O2-  O137  1  -0.00101532  0.75901028  0.93772081  1
  O2-  O138  1  0.49281628  0.25265009  0.27232589  1
  O2-  O139  1  0.50090207  0.24331970  0.60588500  1
  O2-  O140  1  0.48975818  0.25016048  0.94135472  1
  O2-  O141  1  0.50267254  0.75308731  0.26690139  1
  O2-  O142  1  0.50537784  0.74495195  0.60816023  1
  O2-  O143  1  0.50189233  0.74653988  0.94202455  1
  O2-  O144  1  0.06805515  0.17886165  0.09898202  1
  O2-  O145  1  0.07345272  0.18023659  0.42434139  1
  O2-  O146  1  0.06900517  0.17708473  0.75466290  1
  O2-  O147  1  0.06862402  0.68052203  0.09886103  1
  O2-  O148  1  0.06898014  0.67572700  0.42315427  1
  O2-  O149  1  0.06914195  0.67912358  0.75515269  1
  O2-  O150  1  0.57296184  0.18109713  0.09819479  1
  O2-  O151  1  0.57207129  0.18521131  0.43393263  1
  O2-  O152  1  0.57278252  0.17975240  0.75493760  1
  O2-  O153  1  0.57411844  0.67469847  0.08867650  1
  O2-  O154  1  0.56680556  0.67486865  0.43214880  1
  O2-  O155  1  0.57578150  0.68015311  0.75825519  1
  O2-  O156  1  0.17382026  0.42594533  0.24223656  1
  O2-  O157  1  0.17601885  0.43385372  0.56723844  1
  O2-  O158  1  0.17550947  0.43279348  0.90982513  1
  O2-  O159  1  0.17875514  0.93289723  0.23404372  1
  O2-  O160  1  0.17805489  0.92917634  0.56875197  1
  O2-  O161  1  0.18549966  0.92649737  0.90451846  1
  O2-  O162  1  0.68449939  0.42908828  0.23236079  1
  O2-  O163  1  0.68084242  0.43048888  0.56945847  1
  O2-  O164  1  0.67923947  0.43173037  0.91146296  1
  O2-  O165  1  0.67961909  0.93011528  0.23294749  1
  O2-  O166  1  0.68178961  0.92269455  0.57765367  1
  O2-  O167  1  0.68142618  0.92417641  0.90824100  1
  O2-  O168  1  0.43468971  0.33418991  0.09018055  1
  O2-  O169  1  0.42545472  0.32217747  0.42245609  1
  O2-  O170  1  0.43219211  0.32073741  0.76671661  1
  O2-  O171  1  0.43159862  0.81682063  0.08934977  1
  O2-  O172  1  0.42457425  0.81847932  0.42945616  1
  O2-  O173  1  0.43179720  0.81783725  0.76675107  1
  O2-  O174  1  0.92805700  0.32003952  0.09902933  1
  O2-  O175  1  0.92969004  0.32243730  0.42425127  1
  O2-  O176  1  0.93016213  0.31799218  0.76242918  1
  O2-  O177  1  0.92129032  0.81874536  0.08737111  1
  O2-  O178  1  0.93281688  0.82197425  0.43445397  1
  O2-  O179  1  0.92390700  0.81883698  0.75689472  1
  O2-  O180  1  0.31937007  0.07700731  0.24370493  1
  O2-  O181  1  0.32297464  0.07033882  0.56538869  1
  O2-  O182  1  0.32698672  0.06841943  0.90344719  1
  O2-  O183  1  0.31609327  0.56770270  0.23252536  1
  O2-  O184  1  0.31971869  0.57039859  0.57036680  1
  O2-  O185  1  0.32319230  0.57109762  0.91173790  1
  O2-  O186  1  0.82121048  0.07328070  0.23324430  1
  O2-  O187  1  0.81893532  0.06885874  0.57036787  1
  O2-  O188  1  0.81530747  0.07081730  0.90953090  1
  O2-  O189  1  0.82852701  0.56855223  0.24300355  1
  O2-  O190  1  0.82171889  0.57695865  0.57828054  1
  O2-  O191  1  0.81897711  0.57596230  0.91091229  1
  O2-  O192  1  0.04042076  0.08919051  0.27133332  1
  O2-  O193  1  0.04122851  0.08221696  0.60590657  1
  O2-  O194  1  0.04240195  0.07964738  0.93128908  1
  O2-  O195  1  0.04588673  0.58392870  0.26996385  1
  O2-  O196  1  0.04079518  0.59010815  0.60011856  1
  O2-  O197  1  0.03724557  0.58817011  0.92868154  1
  O2-  O198  1  0.54473180  0.08482743  0.26466171  1
  O2-  O199  1  0.55437264  0.08183194  0.60520366  1
  O2-  O200  1  0.54387843  0.08013547  0.93007035  1
  O2-  O201  1  0.53709447  0.58038698  0.26386117  1
  O2-  O202  1  0.54905365  0.58195557  0.61022258  1
  O2-  O203  1  0.54453277  0.58416323  0.93722293  1
  O2-  O204  1  0.16246910  0.20526653  0.26887871  1
  O2-  O205  1  0.16592669  0.19889875  0.60356959  1
  O2-  O206  1  0.17541808  0.20176075  0.93750963  1
  O2-  O207  1  0.16390973  0.70406744  0.27160673  1
  O2-  O208  1  0.16281150  0.70625537  0.60325523  1
  O2-  O209  1  0.16895674  0.70979919  0.93143605  1
  O2-  O210  1  0.66648237  0.21680162  0.26643187  1
  O2-  O211  1  0.66570204  0.20878853  0.60514427  1
  O2-  O212  1  0.66188555  0.21367808  0.92855226  1
  O2-  O213  1  0.67101890  0.69841363  0.26543406  1
  O2-  O214  1  0.66829761  0.70030598  0.60594421  1
  O2-  O215  1  0.66435340  0.70325063  0.93534499  1
  O2-  O216  1  0.08473603  0.46229510  0.06132937  1
  O2-  O217  1  0.08154444  0.45210846  0.39425541  1
  O2-  O218  1  0.07852764  0.46124112  0.73301132  1
  O2-  O219  1  0.07657563  0.95254215  0.06557743  1
  O2-  O220  1  0.08618951  0.96403255  0.40207483  1
  O2-  O221  1  0.08030092  0.95183531  0.73699503  1
  O2-  O222  1  0.58918514  0.45913042  0.06448118  1
  O2-  O223  1  0.58336518  0.45881161  0.39963261  1
  O2-  O224  1  0.58654363  0.46037967  0.74120940  1
  O2-  O225  1  0.58737223  0.95313243  0.05898164  1
  O2-  O226  1  0.57700582  0.95535627  0.39789967  1
  O2-  O227  1  0.58421102  0.94788772  0.72757261  1
  O2-  O228  1  0.20056091  0.33872506  0.06327825  1
  O2-  O229  1  0.19759748  0.33128991  0.39403974  1
  O2-  O230  1  0.20071463  0.32893466  0.73199243  1
  O2-  O231  1  0.21116761  0.83115801  0.06999436  1
  O2-  O232  1  0.20647042  0.83255313  0.39959874  1
  O2-  O233  1  0.20868452  0.83012688  0.73391546  1
  O2-  O234  1  0.70846951  0.33685145  0.06152537  1
  O2-  O235  1  0.71426483  0.33734782  0.40297847  1
  O2-  O236  1  0.71244302  0.33407261  0.73778189  1
  O2-  O237  1  0.70549052  0.83309453  0.06043160  1
  O2-  O238  1  0.70307496  0.82715546  0.39788935  1
  O2-  O239  1  0.70717304  0.83263734  0.73083884  1
  O2-  O240  1  0.45345209  0.41573490  0.27125790  1
  O2-  O241  1  0.46313062  0.41721945  0.60209752  1
  O2-  O242  1  0.46220597  0.41615004  0.93518909  1
  O2-  O243  1  0.45042844  0.92152619  0.26287406  1
  O2-  O244  1  0.45902640  0.91504911  0.59684744  1
  O2-  O245  1  0.46046847  0.90847250  0.93596879  1
  O2-  O246  1  0.95414505  0.41370510  0.27062442  1
  O2-  O247  1  0.95657558  0.41834332  0.59578050  1
  O2-  O248  1  0.95165078  0.42116535  0.93294272  1
  O2-  O249  1  0.96212105  0.91907894  0.26653765  1
  O2-  O250  1  0.95427568  0.91549110  0.60730337  1
  O2-  O251  1  0.94435818  0.91813587  0.93877364  1
  O2-  O252  1  0.33098962  0.30102957  0.27078590  1
  O2-  O253  1  0.33045886  0.29515516  0.59825602  1
  O2-  O254  1  0.33156715  0.31039637  0.94375869  1
  O2-  O255  1  0.32986512  0.78583909  0.26273263  1
  O2-  O256  1  0.33289108  0.78635179  0.59995480  1
  O2-  O257  1  0.33985775  0.78803055  0.93785030  1
  O2-  O258  1  0.83807400  0.29223518  0.27154565  1
  O2-  O259  1  0.83227102  0.28671621  0.59841524  1
  O2-  O260  1  0.83190266  0.28943900  0.93187718  1
  O2-  O261  1  0.83385129  0.79456799  0.26427869  1
  O2-  O262  1  0.83762215  0.79152779  0.60288431  1
  O2-  O263  1  0.83413539  0.79040449  0.93331102  1
  O2-  O264  1  0.42166533  0.03732327  0.06825268  1
  O2-  O265  1  0.41877098  0.05494052  0.39162877  1
  O2-  O266  1  0.42304358  0.04122969  0.73114586  1
  O2-  O267  1  0.41350187  0.54254773  0.06386656  1
  O2-  O268  1  0.41413272  0.53993277  0.40176792  1
  O2-  O269  1  0.41978641  0.54411206  0.73798316  1
  O2-  O270  1  0.91116226  0.04800058  0.06054760  1
  O2-  O271  1  0.91850507  0.04366567  0.40209453  1
  O2-  O272  1  0.91357607  0.03793406  0.74015806  1
  O2-  O273  1  0.91390413  0.54620697  0.06275706  1
  O2-  O274  1  0.91703419  0.54562233  0.39698491  1
  O2-  O275  1  0.91704782  0.54905311  0.72804367  1
  O2-  O276  1  0.30685174  0.17573780  0.06797982  1
  O2-  O277  1  0.29366808  0.16764294  0.39506543  1
  O2-  O278  1  0.29944434  0.17042196  0.73196849  1
  O2-  O279  1  0.29181413  0.66187695  0.06392628  1
  O2-  O280  1  0.28581989  0.66353018  0.40183213  1
  O2-  O281  1  0.28854538  0.66608169  0.73742933  1
  O2-  O282  1  0.78591190  0.16248722  0.06079107  1
  O2-  O283  1  0.79106053  0.16897988  0.40148268  1
  O2-  O284  1  0.78856375  0.16563012  0.73885960  1
  O2-  O285  1  0.79190918  0.66349204  0.06427729  1
  O2-  O286  1  0.80359352  0.66850374  0.39212176  1
  O2-  O287  1  0.79657241  0.66634412  0.73321459  1
