# generated using pymatgen
data_Ca2Al2SiO7
_symmetry_space_group_name_H-M   'P 1'
_cell_length_a   15.45660342
_cell_length_b   15.45763746
_cell_length_c   15.28330170
_cell_angle_alpha   90.00289175
_cell_angle_beta   89.99140479
_cell_angle_gamma   89.99201827
_symmetry_Int_Tables_number   1
_chemical_formula_structural   Ca2Al2SiO7
_chemical_formula_sum   'Ca48 Al48 Si24 O168'
_cell_volume   3651.52567054
_cell_formula_units_Z   24
loop_
 _symmetry_equiv_pos_site_id
 _symmetry_equiv_pos_as_xyz
  1  'x, y, z'
loop_
 _atom_type_symbol
 _atom_type_oxidation_number
  Ca2+  2.0
  Al0+  0.0
  Si0+  0.0
  O2-  -2.0
loop_
 _atom_site_type_symbol
 _atom_site_label
 _atom_site_symmetry_multiplicity
 _atom_site_fract_x
 _atom_site_fract_y
 _atom_site_fract_z
 _atom_site_occupancy
  Ca2+  Ca0  1  0.16553271  0.07802721  0.17185048  1
  Ca2+  Ca1  1  0.17005253  0.07055819  0.50726215  1
  Ca2+  Ca2  1  0.16327393  0.07755816  0.83480804  1
  Ca2+  Ca3  1  0.16968230  0.58717848  0.16388765  1
  Ca2+  Ca4  1  0.17490496  0.58486135  0.51062388  1
  Ca2+  Ca5  1  0.17501654  0.59408892  0.83592020  1
  Ca2+  Ca6  1  0.67358022  0.07939806  0.16884932  1
  Ca2+  Ca7  1  0.66605758  0.07372937  0.51001946  1
  Ca2+  Ca8  1  0.67356972  0.08367282  0.83222626  1
  Ca2+  Ca9  1  0.67876042  0.58057123  0.16738835  1
  Ca2+  Ca10  1  0.66936893  0.58685157  0.50545911  1
  Ca2+  Ca11  1  0.66949560  0.57783195  0.84098469  1
  Ca2+  Ca12  1  0.07600522  0.32449507  0.15457238  1
  Ca2+  Ca13  1  0.07705853  0.33389340  0.50004091  1
  Ca2+  Ca14  1  0.07051142  0.32871362  0.83056258  1
  Ca2+  Ca15  1  0.08334141  0.82879784  0.16017727  1
  Ca2+  Ca16  1  0.08416375  0.83443050  0.50325947  1
  Ca2+  Ca17  1  0.07868774  0.82475140  0.82457571  1
  Ca2+  Ca18  1  0.58211090  0.33782502  0.16443993  1
  Ca2+  Ca19  1  0.57382476  0.32781599  0.50180072  1
  Ca2+  Ca20  1  0.58529322  0.33004059  0.82338883  1
  Ca2+  Ca21  1  0.57324090  0.83987733  0.16421223  1
  Ca2+  Ca22  1  0.57921544  0.83684695  0.49649213  1
  Ca2+  Ca23  1  0.57410567  0.82848626  0.82186641  1
  Ca2+  Ca24  1  0.33494376  0.42331042  0.17054343  1
  Ca2+  Ca25  1  0.33835705  0.41973837  0.50990469  1
  Ca2+  Ca26  1  0.33987611  0.43060148  0.83659062  1
  Ca2+  Ca27  1  0.32966294  0.91284184  0.17258991  1
  Ca2+  Ca28  1  0.32547712  0.90243720  0.50544262  1
  Ca2+  Ca29  1  0.32949209  0.90450224  0.83351541  1
  Ca2+  Ca30  1  0.83551223  0.42383335  0.16419360  1
  Ca2+  Ca31  1  0.83663763  0.42308088  0.50567170  1
  Ca2+  Ca32  1  0.83066837  0.41730513  0.84311841  1
  Ca2+  Ca33  1  0.82908466  0.92254144  0.17304568  1
  Ca2+  Ca34  1  0.82223834  0.91945415  0.51336844  1
  Ca2+  Ca35  1  0.83201139  0.92219807  0.83257103  1
  Ca2+  Ca36  1  0.41676983  0.17353980  0.16369782  1
  Ca2+  Ca37  1  0.41813909  0.17343770  0.49892587  1
  Ca2+  Ca38  1  0.42650067  0.17609703  0.82275870  1
  Ca2+  Ca39  1  0.41351045  0.67844932  0.15946550  1
  Ca2+  Ca40  1  0.42152136  0.67345421  0.50488663  1
  Ca2+  Ca41  1  0.41874435  0.67016141  0.82536992  1
  Ca2+  Ca42  1  0.92194451  0.16831005  0.15277093  1
  Ca2+  Ca43  1  0.90990262  0.16874496  0.50408750  1
  Ca2+  Ca44  1  0.90768742  0.17316759  0.82959537  1
  Ca2+  Ca45  1  0.91981534  0.66283206  0.15938278  1
  Ca2+  Ca46  1  0.91807357  0.67219815  0.49950184  1
  Ca2+  Ca47  1  0.92646619  0.66566585  0.82545031  1
  Al0+  Al48  1  0.00054723  -0.00187994  0.00152099  1
  Al0+  Al49  1  0.00081958  -0.00063728  0.33748279  1
  Al0+  Al50  1  0.00035345  0.00040738  0.67169314  1
  Al0+  Al51  1  0.00222749  0.49857264  -0.00441447  1
  Al0+  Al52  1  0.00124007  0.50018142  0.33633688  1
  Al0+  Al53  1  0.00215637  0.49825846  0.65896481  1
  Al0+  Al54  1  0.49618719  0.00194712  -0.00403244  1
  Al0+  Al55  1  0.50003447  0.00189982  0.33125700  1
  Al0+  Al56  1  0.49820089  0.00039140  0.66365029  1
  Al0+  Al57  1  0.49928963  0.50288836  0.01149624  1
  Al0+  Al58  1  0.50191907  0.50031239  0.32884960  1
  Al0+  Al59  1  0.50039801  0.50176121  0.66347382  1
  Al0+  Al60  1  0.25023565  0.24906295  -0.00455389  1
  Al0+  Al61  1  0.24927850  0.25035571  0.32899581  1
  Al0+  Al62  1  0.24675684  0.25004581  0.66525380  1
  Al0+  Al63  1  0.24865502  0.75049334  -0.00142759  1
  Al0+  Al64  1  0.25071867  0.74837492  0.33316634  1
  Al0+  Al65  1  0.25062306  0.74755041  0.66841764  1
  Al0+  Al66  1  0.74845675  0.24821268  0.00765855  1
  Al0+  Al67  1  0.74953946  0.25276250  0.33189960  1
  Al0+  Al68  1  0.74936156  0.25056610  0.65853779  1
  Al0+  Al69  1  0.74712413  0.75019073  0.00546254  1
  Al0+  Al70  1  0.75169511  0.75013006  0.33888269  1
  Al0+  Al71  1  0.75140326  0.74986212  0.66657635  1
  Al0+  Al72  1  0.18041994  0.92783082  0.34708059  1
  Al0+  Al73  1  0.32054820  0.56758312  0.68006237  1
  Al0+  Al74  1  0.92762154  0.31830922  0.98593646  1
  Al0+  Al75  1  0.06875471  0.67954072  0.98721257  1
  Al0+  Al76  1  0.42929359  0.82080481  0.65196176  1
  Al0+  Al77  1  0.18155340  0.92900415  0.68259716  1
  Al0+  Al78  1  0.82455022  0.57197610  0.01218131  1
  Al0+  Al79  1  0.42964565  0.81931269  0.31856950  1
  Al0+  Al80  1  0.57138149  0.17831601  0.65134772  1
  Al0+  Al81  1  0.07162420  0.67925708  0.64966322  1
  Al0+  Al82  1  0.42960536  0.82117724  0.98567091  1
  Al0+  Al83  1  0.92952348  0.82296979  0.65243955  1
  Al0+  Al84  1  0.82048283  0.06824812  0.01435517  1
  Al0+  Al85  1  0.57379762  0.67848759  0.65349958  1
  Al0+  Al86  1  0.31906372  0.57244724  0.01580073  1
  Al0+  Al87  1  0.82240743  0.56917533  0.34955701  1
  Al0+  Al88  1  0.42849025  0.32142796  0.31735520  1
  Al0+  Al89  1  0.67853552  0.93121377  0.34639467  1
  Al0+  Al90  1  0.81913128  0.07231672  0.68162992  1
  Al0+  Al91  1  0.67556066  0.92613493  0.68333125  1
  Al0+  Al92  1  0.42760515  0.32246687  0.65492304  1
  Al0+  Al93  1  0.92849849  0.31997371  0.65140505  1
  Al0+  Al94  1  0.67829655  0.42750953  0.01522236  1
  Al0+  Al95  1  0.07290868  0.17508142  0.98381288  1
  Si0+  Si96  1  0.82283426  0.07359543  0.34978917  1
  Si0+  Si97  1  0.92904728  0.82137359  0.31873295  1
  Si0+  Si98  1  0.17528817  0.42562212  0.68454155  1
  Si0+  Si99  1  0.82428827  0.57077054  0.68062605  1
  Si0+  Si100  1  0.42943753  0.32398978  0.98661287  1
  Si0+  Si101  1  0.32150014  0.56976568  0.34846071  1
  Si0+  Si102  1  0.07197477  0.17659113  0.64807221  1
  Si0+  Si103  1  0.18012943  0.42779248  0.34741377  1
  Si0+  Si104  1  0.56957925  0.18008240  0.98627427  1
  Si0+  Si105  1  0.92988767  0.32276849  0.31709517  1
  Si0+  Si106  1  0.07084386  0.67883997  0.31761487  1
  Si0+  Si107  1  0.57202725  0.67754988  0.98607472  1
  Si0+  Si108  1  0.32156074  0.07334658  0.01492330  1
  Si0+  Si109  1  0.67367652  0.92876642  0.01607731  1
  Si0+  Si110  1  0.57572439  0.67835245  0.31402019  1
  Si0+  Si111  1  0.06907573  0.17806244  0.31913715  1
  Si0+  Si112  1  0.92421221  0.82231092  0.98646191  1
  Si0+  Si113  1  0.32162002  0.07575371  0.68404139  1
  Si0+  Si114  1  0.18075710  0.92967560  0.01525394  1
  Si0+  Si115  1  0.32085006  0.07407367  0.34883726  1
  Si0+  Si116  1  0.67715556  0.42813525  0.35351721  1
  Si0+  Si117  1  0.68085704  0.43142370  0.67797819  1
  Si0+  Si118  1  0.17998444  0.42559121  0.01592206  1
  Si0+  Si119  1  0.57233153  0.17880871  0.31369194  1
  O2-  O120  1  0.24909977  0.00366550  0.05723779  1
  O2-  O121  1  0.25722949  0.00098346  0.39300357  1
  O2-  O122  1  0.25704779  0.00350764  0.72921472  1
  O2-  O123  1  0.24693889  0.49483176  0.06285274  1
  O2-  O124  1  0.25417886  0.49492715  0.38998552  1
  O2-  O125  1  0.24684624  0.49163753  0.72749197  1
  O2-  O126  1  0.74761248  -0.00834374  0.06137189  1
  O2-  O127  1  0.75260180  0.00670485  0.39246403  1
  O2-  O128  1  0.74824506  -0.00108156  0.73170882  1
  O2-  O129  1  0.75286254  0.49916408  0.06276602  1
  O2-  O130  1  0.74637213  0.49616590  0.39746062  1
  O2-  O131  1  0.75161738  0.50139892  0.72196669  1
  O2-  O132  1  -0.00408711  0.24656683  0.27613597  1
  O2-  O133  1  0.00284013  0.24493284  0.60359793  1
  O2-  O134  1  -0.00258846  0.24417834  0.93553349  1
  O2-  O135  1  -0.00013641  0.75025513  0.27560293  1
  O2-  O136  1  -0.00006206  0.75091495  0.59895889  1
  O2-  O137  1  -0.01327529  0.74744029  0.94382874  1
  O2-  O138  1  0.50381502  0.24798852  0.26897917  1
  O2-  O139  1  0.49426990  0.24660573  0.60349553  1
  O2-  O140  1  0.50347711  0.25640138  0.94506380  1
  O2-  O141  1  0.50636577  0.74715069  0.27020167  1
  O2-  O142  1  0.50805301  0.75599897  0.60233908  1
  O2-  O143  1  0.50643098  0.74831456  0.94152069  1
  O2-  O144  1  0.07278349  0.17661387  0.09863366  1
  O2-  O145  1  0.07045044  0.17949762  0.42380675  1
  O2-  O146  1  0.07378855  0.17870838  0.75325164  1
  O2-  O147  1  0.07095374  0.68357150  0.10133345  1
  O2-  O148  1  0.07178745  0.67799903  0.42200607  1
  O2-  O149  1  0.07012354  0.67960427  0.76331892  1
  O2-  O150  1  0.56581924  0.17723749  0.09159095  1
  O2-  O151  1  0.57184151  0.17956485  0.41862335  1
  O2-  O152  1  0.57335554  0.18396534  0.76560841  1
  O2-  O153  1  0.57132352  0.67870329  0.09192045  1
  O2-  O154  1  0.57454496  0.67737625  0.41929883  1
  O2-  O155  1  0.57054313  0.67369037  0.76718875  1
  O2-  O156  1  0.17858760  0.42862625  0.24229910  1
  O2-  O157  1  0.17517672  0.42664911  0.57812749  1
  O2-  O158  1  0.18276787  0.42317522  0.91104381  1
  O2-  O159  1  0.17944329  0.92987230  0.23341450  1
  O2-  O160  1  0.18320688  0.93047072  0.56900522  1
  O2-  O161  1  0.18229663  0.92840060  0.91071817  1
  O2-  O162  1  0.67863459  0.42784400  0.24798036  1
  O2-  O163  1  0.68187327  0.43275320  0.57273539  1
  O2-  O164  1  0.67615050  0.42793637  0.90123844  1
  O2-  O165  1  0.68079877  0.93347801  0.23258993  1
  O2-  O166  1  0.67742406  0.92852995  0.56936268  1
  O2-  O167  1  0.67199619  0.93061663  0.91131441  1
  O2-  O168  1  0.42791068  0.31997394  0.09203971  1
  O2-  O169  1  0.42730994  0.31940563  0.42989527  1
  O2-  O170  1  0.43276609  0.32382023  0.76887829  1
  O2-  O171  1  0.42934654  0.82190207  0.09950507  1
  O2-  O172  1  0.42706155  0.81545568  0.43059924  1
  O2-  O173  1  0.42786914  0.81539200  0.76559746  1
  O2-  O174  1  0.93141354  0.31720928  0.10042584  1
  O2-  O175  1  0.93224669  0.32363913  0.42204815  1
  O2-  O176  1  0.92735578  0.32113498  0.76396914  1
  O2-  O177  1  0.92816395  0.82507109  0.09286805  1
  O2-  O178  1  0.92996700  0.82195942  0.42309830  1
  O2-  O179  1  0.93063579  0.82008435  0.76640374  1
  O2-  O180  1  0.31725644  0.07652093  0.24272762  1
  O2-  O181  1  0.31679675  0.08062515  0.57839537  1
  O2-  O182  1  0.32422858  0.07530829  0.91063377  1
  O2-  O183  1  0.31735520  0.57094948  0.24315503  1
  O2-  O184  1  0.32003798  0.56589661  0.56627389  1
  O2-  O185  1  0.32012927  0.57141503  0.90322663  1
  O2-  O186  1  0.82478977  0.07157426  0.24383177  1
  O2-  O187  1  0.81688190  0.07225691  0.56745455  1
  O2-  O188  1  0.81769755  0.07033514  0.90219751  1
  O2-  O189  1  0.82523528  0.56624039  0.23651892  1
  O2-  O190  1  0.82435249  0.56792516  0.57516661  1
  O2-  O191  1  0.82274619  0.57107566  0.89873722  1
  O2-  O192  1  0.04308356  0.08521878  0.27177202  1
  O2-  O193  1  0.04635918  0.08319000  0.60262397  1
  O2-  O194  1  0.04859282  0.07477964  0.93458503  1
  O2-  O195  1  0.04242392  0.58639984  0.27087046  1
  O2-  O196  1  0.04587989  0.58076415  0.59562981  1
  O2-  O197  1  0.04909026  0.58102789  0.93323220  1
  O2-  O198  1  0.54640078  0.08622170  0.26555505  1
  O2-  O199  1  0.54503110  0.08034622  0.59790781  1
  O2-  O200  1  0.53656867  0.09163730  0.93632941  1
  O2-  O201  1  0.55081496  0.58441101  0.26822676  1
  O2-  O202  1  0.53936868  0.58400512  0.59556121  1
  O2-  O203  1  0.54327161  0.58376664  0.94249377  1
  O2-  O204  1  0.15988653  0.20692765  0.26979909  1
  O2-  O205  1  0.16438208  0.20317575  0.59938114  1
  O2-  O206  1  0.17051944  0.20461414  0.93009167  1
  O2-  O207  1  0.16234242  0.70696539  0.26950713  1
  O2-  O208  1  0.16943717  0.70898303  0.59746365  1
  O2-  O209  1  0.16217084  0.71780231  0.93302159  1
  O2-  O210  1  0.66657426  0.20564250  0.26763434  1
  O2-  O211  1  0.66497292  0.21227725  0.59295974  1
  O2-  O212  1  0.66286163  0.20411282  0.94186346  1
  O2-  O213  1  0.67024987  0.70450120  0.26973220  1
  O2-  O214  1  0.67409278  0.69843473  0.60156188  1
  O2-  O215  1  0.66737315  0.69820095  0.94137701  1
  O2-  O216  1  0.08615642  0.45086040  0.06192477  1
  O2-  O217  1  0.09014633  0.45825570  0.39675577  1
  O2-  O218  1  0.08216186  0.45415236  0.72955719  1
  O2-  O219  1  0.08836696  0.95349977  0.06426255  1
  O2-  O220  1  0.08456611  0.95991923  0.40181950  1
  O2-  O221  1  0.08562568  0.96023473  0.73721202  1
  O2-  O222  1  0.58246048  0.45824147  0.07334663  1
  O2-  O223  1  0.58255967  0.45414835  0.39717798  1
  O2-  O224  1  0.58931987  0.45850098  0.72574942  1
  O2-  O225  1  0.58196673  0.96277461  0.06271658  1
  O2-  O226  1  0.58101806  0.96131511  0.39882050  1
  O2-  O227  1  0.57561857  0.95423030  0.73349224  1
  O2-  O228  1  0.20694092  0.33207545  0.06352354  1
  O2-  O229  1  0.20402250  0.33445466  0.39386763  1
  O2-  O230  1  0.19527775  0.33038185  0.72905959  1
  O2-  O231  1  0.21235165  0.84001378  0.06483954  1
  O2-  O232  1  0.21036762  0.83057646  0.39981371  1
  O2-  O233  1  0.21241760  0.83247464  0.73614344  1
  O2-  O234  1  0.70348777  0.33008153  0.07234945  1
  O2-  O235  1  0.70203450  0.33338034  0.39774182  1
  O2-  O236  1  0.70881097  0.33908928  0.72332032  1
  O2-  O237  1  0.69160744  0.83359313  0.06259065  1
  O2-  O238  1  0.70837484  0.83473063  0.39949956  1
  O2-  O239  1  0.70486085  0.82743232  0.73598047  1
  O2-  O240  1  0.45897151  0.41834524  0.26284259  1
  O2-  O241  1  0.46149572  0.41691844  0.59829968  1
  O2-  O242  1  0.45432007  0.41862652  0.94497692  1
  O2-  O243  1  0.45574332  0.91900565  0.26639058  1
  O2-  O244  1  0.44485763  0.92224607  0.60096420  1
  O2-  O245  1  0.45481776  0.91917209  0.93218017  1
  O2-  O246  1  0.96441694  0.41255588  0.26985471  1
  O2-  O247  1  0.96274943  0.41379147  0.59336438  1
  O2-  O248  1  0.95729628  0.41569820  0.93256999  1
  O2-  O249  1  0.95770085  0.91390795  0.27159859  1
  O2-  O250  1  0.95857193  0.92170692  0.60063250  1
  O2-  O251  1  0.95657972  0.91263086  0.93909743  1
  O2-  O252  1  0.33172054  0.29043354  0.26200037  1
  O2-  O253  1  0.32698916  0.29918081  0.60338603  1
  O2-  O254  1  0.33935038  0.29426348  0.93832543  1
  O2-  O255  1  0.33327527  0.78528531  0.26379511  1
  O2-  O256  1  0.33418678  0.78264654  0.59911159  1
  O2-  O257  1  0.33383618  0.78737471  0.93386084  1
  O2-  O258  1  0.83527703  0.30173267  0.27237655  1
  O2-  O259  1  0.83422584  0.29053005  0.59250910  1
  O2-  O260  1  0.82704643  0.29096810  0.93754413  1
  O2-  O261  1  0.83725250  0.79371230  0.27117495  1
  O2-  O262  1  0.83152384  0.79467685  0.59932595  1
  O2-  O263  1  0.82726983  0.80524457  0.94484218  1
  O2-  O264  1  0.41205671  0.04402549  0.06508412  1
  O2-  O265  1  0.41693235  0.05531616  0.39062735  1
  O2-  O266  1  0.41731512  0.05570618  0.72693127  1
  O2-  O267  1  0.41418556  0.54483807  0.07432297  1
  O2-  O268  1  0.41575534  0.54499805  0.39153495  1
  O2-  O269  1  0.41752956  0.53685817  0.73427232  1
  O2-  O270  1  0.91811730  0.03888276  0.06918909  1
  O2-  O271  1  0.91595795  0.04821847  0.39633083  1
  O2-  O272  1  0.91858653  0.04863553  0.73395355  1
  O2-  O273  1  0.92344134  0.54280667  0.06557812  1
  O2-  O274  1  0.91853717  0.53622568  0.40407109  1
  O2-  O275  1  0.91622564  0.53921904  0.72502489  1
  O2-  O276  1  0.29439607  0.16538075  0.06375103  1
  O2-  O277  1  0.28953273  0.16591942  0.39571399  1
  O2-  O278  1  0.29220935  0.16803328  0.73229167  1
  O2-  O279  1  0.28232505  0.66743552  0.07052543  1
  O2-  O280  1  0.28899314  0.65931533  0.39622905  1
  O2-  O281  1  0.28763066  0.66232869  0.73543683  1
  O2-  O282  1  0.78818727  0.16245991  0.07266419  1
  O2-  O283  1  0.79930390  0.16954104  0.39193172  1
  O2-  O284  1  0.78687181  0.17167017  0.73154342  1
  O2-  O285  1  0.79600911  0.67001871  0.06890658  1
  O2-  O286  1  0.79480879  0.66663066  0.40259755  1
  O2-  O287  1  0.80131028  0.66317248  0.72743339  1
