# generated using pymatgen
data_Ca2Al2SiO7
_symmetry_space_group_name_H-M   'P 1'
_cell_length_a   15.46288773
_cell_length_b   15.46444782
_cell_length_c   15.28796362
_cell_angle_alpha   89.99020825
_cell_angle_beta   90.00675305
_cell_angle_gamma   89.99683456
_symmetry_Int_Tables_number   1
_chemical_formula_structural   Ca2Al2SiO7
_chemical_formula_sum   'Ca48 Al48 Si24 O168'
_cell_volume   3655.73452971
_cell_formula_units_Z   24
loop_
 _symmetry_equiv_pos_site_id
 _symmetry_equiv_pos_as_xyz
  1  'x, y, z'
loop_
 _atom_type_symbol
 _atom_type_oxidation_number
  Ca2+  2.0
  Al0+  0.0
  Si0+  0.0
  O2-  -2.0
loop_
 _atom_site_type_symbol
 _atom_site_label
 _atom_site_symmetry_multiplicity
 _atom_site_fract_x
 _atom_site_fract_y
 _atom_site_fract_z
 _atom_site_occupancy
  Ca2+  Ca0  1  0.16398463  0.07341463  0.17087520  1
  Ca2+  Ca1  1  0.16600320  0.08471557  0.50568153  1
  Ca2+  Ca2  1  0.16660102  0.07508995  0.83958820  1
  Ca2+  Ca3  1  0.16008115  0.58345488  0.16797496  1
  Ca2+  Ca4  1  0.17041885  0.59585814  0.50575785  1
  Ca2+  Ca5  1  0.16846501  0.58938682  0.83964333  1
  Ca2+  Ca6  1  0.66825477  0.07994586  0.16234567  1
  Ca2+  Ca7  1  0.67465110  0.07497781  0.51325020  1
  Ca2+  Ca8  1  0.67191335  0.07817413  0.83827119  1
  Ca2+  Ca9  1  0.67124360  0.57921844  0.17827947  1
  Ca2+  Ca10  1  0.66491019  0.58435324  0.49889014  1
  Ca2+  Ca11  1  0.67635805  0.57703850  0.84423415  1
  Ca2+  Ca12  1  0.08519353  0.32830453  0.16035119  1
  Ca2+  Ca13  1  0.08382000  0.32074159  0.49708922  1
  Ca2+  Ca14  1  0.08404909  0.32809458  0.82952231  1
  Ca2+  Ca15  1  0.07644359  0.82295533  0.16229544  1
  Ca2+  Ca16  1  0.06949091  0.82515898  0.49747730  1
  Ca2+  Ca17  1  0.07752294  0.82705264  0.82896271  1
  Ca2+  Ca18  1  0.59452959  0.33091197  0.15910928  1
  Ca2+  Ca19  1  0.59006626  0.32859592  0.49692937  1
  Ca2+  Ca20  1  0.59700128  0.32137354  0.83294979  1
  Ca2+  Ca21  1  0.57453878  0.83590481  0.16097298  1
  Ca2+  Ca22  1  0.57433341  0.83362520  0.49454595  1
  Ca2+  Ca23  1  0.57454526  0.84727094  0.83051393  1
  Ca2+  Ca24  1  0.32528289  0.41496610  0.16966653  1
  Ca2+  Ca25  1  0.33043565  0.42843772  0.50855276  1
  Ca2+  Ca26  1  0.32501235  0.42440777  0.83655918  1
  Ca2+  Ca27  1  0.32951346  0.90582789  0.16563176  1
  Ca2+  Ca28  1  0.33351343  0.90989817  0.50450945  1
  Ca2+  Ca29  1  0.32855642  0.91007861  0.84089928  1
  Ca2+  Ca30  1  0.82502547  0.42963728  0.16762840  1
  Ca2+  Ca31  1  0.83270836  0.42455937  0.49640692  1
  Ca2+  Ca32  1  0.83197016  0.42287221  0.84295253  1
  Ca2+  Ca33  1  0.83311569  0.91801591  0.16852715  1
  Ca2+  Ca34  1  0.83122778  0.91411271  0.51074452  1
  Ca2+  Ca35  1  0.82798109  0.92429247  0.83718953  1
  Ca2+  Ca36  1  0.42551588  0.17096702  0.15763758  1
  Ca2+  Ca37  1  0.42611442  0.16661659  0.49883177  1
  Ca2+  Ca38  1  0.43178510  0.16672211  0.83002027  1
  Ca2+  Ca39  1  0.42338270  0.67477174  0.16449102  1
  Ca2+  Ca40  1  0.41955511  0.67516721  0.49627609  1
  Ca2+  Ca41  1  0.41500394  0.67714184  0.82809708  1
  Ca2+  Ca42  1  0.91712050  0.16605408  0.16284664  1
  Ca2+  Ca43  1  0.92689206  0.15835989  0.49832991  1
  Ca2+  Ca44  1  0.91657818  0.16235447  0.82707907  1
  Ca2+  Ca45  1  0.92055938  0.65943367  0.16358786  1
  Ca2+  Ca46  1  0.91852927  0.67574177  0.49128453  1
  Ca2+  Ca47  1  0.92562476  0.66698795  0.82783185  1
  Al0+  Al48  1  0.00208687  -0.00143498  0.00797970  1
  Al0+  Al49  1  0.00195558  -0.00147843  0.32677645  1
  Al0+  Al50  1  0.00092367  -0.00064457  0.66342835  1
  Al0+  Al51  1  0.00161903  0.49769837  0.00257089  1
  Al0+  Al52  1  -0.00223507  0.49655483  0.33646859  1
  Al0+  Al53  1  0.00171060  0.49653042  0.66183272  1
  Al0+  Al54  1  0.50083034  0.00324044  -0.00459937  1
  Al0+  Al55  1  0.49846362  0.00317130  0.32969565  1
  Al0+  Al56  1  0.49921256  0.00247798  0.65997357  1
  Al0+  Al57  1  0.49771779  0.50005270  0.00129984  1
  Al0+  Al58  1  0.49669780  0.49868283  0.33514137  1
  Al0+  Al59  1  0.49727377  0.50083784  0.67485769  1
  Al0+  Al60  1  0.25174592  0.25075166  0.00147384  1
  Al0+  Al61  1  0.25161379  0.24772157  0.33099242  1
  Al0+  Al62  1  0.25063259  0.25118589  0.66390795  1
  Al0+  Al63  1  0.24985582  0.74999031  -0.00196134  1
  Al0+  Al64  1  0.24724910  0.75042963  0.32840777  1
  Al0+  Al65  1  0.25172203  0.75088895  0.66482523  1
  Al0+  Al66  1  0.75319511  0.25074358  0.00252489  1
  Al0+  Al67  1  0.75196298  0.24890763  0.33786045  1
  Al0+  Al68  1  0.75179774  0.25025506  0.66291026  1
  Al0+  Al69  1  0.75053784  0.75271973  0.00647563  1
  Al0+  Al70  1  0.74828211  0.75121923  0.33169829  1
  Al0+  Al71  1  0.74720380  0.74835297  0.67106069  1
  Al0+  Al72  1  0.07116765  0.17887818  0.65548057  1
  Al0+  Al73  1  0.92615479  0.81928304  0.65527585  1
  Al0+  Al74  1  0.57247307  0.18335237  0.98602711  1
  Al0+  Al75  1  0.82327090  0.07032847  0.68005275  1
  Al0+  Al76  1  0.07238587  0.17970751  0.31704054  1
  Al0+  Al77  1  0.82240152  0.07092407  0.01622738  1
  Al0+  Al78  1  0.42880076  0.82325367  0.31680076  1
  Al0+  Al79  1  0.31874462  0.57301497  0.68148206  1
  Al0+  Al80  1  0.06746269  0.67834545  0.98568513  1
  Al0+  Al81  1  0.82025185  0.57344979  0.35095204  1
  Al0+  Al82  1  0.07132876  0.67795985  0.65303142  1
  Al0+  Al83  1  0.92617467  0.82144577  0.31691529  1
  Al0+  Al84  1  0.18054962  0.42858808  0.01358046  1
  Al0+  Al85  1  0.67605378  0.92746132  0.68058995  1
  Al0+  Al86  1  0.06865223  0.67648975  0.31777745  1
  Al0+  Al87  1  0.67674332  0.42852293  0.35057227  1
  Al0+  Al88  1  0.18057537  0.92758499  0.01415449  1
  Al0+  Al89  1  0.67848623  0.43022669  0.01249333  1
  Al0+  Al90  1  0.57220528  0.18122216  0.65128464  1
  Al0+  Al91  1  0.67617120  0.93044624  0.01648514  1
  Al0+  Al92  1  0.43187783  0.81914815  0.98480712  1
  Al0+  Al93  1  0.82210785  0.57286429  0.01302292  1
  Al0+  Al94  1  0.56939863  0.67747104  0.31979451  1
  Al0+  Al95  1  0.43085934  0.82146988  0.65338072  1
  Si0+  Si96  1  0.32100611  0.07196348  0.34973273  1
  Si0+  Si97  1  0.18137544  0.93070771  0.67993642  1
  Si0+  Si98  1  0.57459351  0.67607841  0.98417204  1
  Si0+  Si99  1  0.92693179  0.32305199  0.64746400  1
  Si0+  Si100  1  0.57253659  0.18127686  0.31784420  1
  Si0+  Si101  1  0.92685915  0.82520861  0.98318874  1
  Si0+  Si102  1  0.57112530  0.67369993  0.65345419  1
  Si0+  Si103  1  0.42839719  0.32300342  0.65025005  1
  Si0+  Si104  1  0.32137731  0.07449116  0.68077084  1
  Si0+  Si105  1  0.67581019  0.93137810  0.34783391  1
  Si0+  Si106  1  0.82242939  0.06894624  0.34926801  1
  Si0+  Si107  1  0.32208618  0.07219007  0.01560656  1
  Si0+  Si108  1  0.17809950  0.42618319  0.68231172  1
  Si0+  Si109  1  0.32086039  0.57350817  0.01888536  1
  Si0+  Si110  1  0.93265386  0.31834985  0.98568848  1
  Si0+  Si111  1  0.31734839  0.57085636  0.34810256  1
  Si0+  Si112  1  0.42893728  0.32052849  0.31902011  1
  Si0+  Si113  1  0.17891595  0.42492263  0.34949862  1
  Si0+  Si114  1  0.42469477  0.32412972  0.98151916  1
  Si0+  Si115  1  0.92747624  0.31954618  0.31470720  1
  Si0+  Si116  1  0.67898790  0.42914669  0.68175345  1
  Si0+  Si117  1  0.17987915  0.92906749  0.35021584  1
  Si0+  Si118  1  0.82320450  0.57008828  0.68077689  1
  Si0+  Si119  1  0.07340735  0.17662803  0.98572960  1
  O2-  O120  1  0.25479328  0.00333892  0.06134171  1
  O2-  O121  1  0.25191051  -0.00039452  0.39287049  1
  O2-  O122  1  0.25168893  0.00264848  0.72273684  1
  O2-  O123  1  0.25496381  0.50181193  0.06292774  1
  O2-  O124  1  0.24352262  0.50194954  0.39119205  1
  O2-  O125  1  0.24031392  0.50068151  0.72606988  1
  O2-  O126  1  0.75207767  -0.00194977  0.06739179  1
  O2-  O127  1  0.75194036  -0.00285980  0.39058934  1
  O2-  O128  1  0.75042462  -0.00130906  0.72868925  1
  O2-  O129  1  0.74043375  0.51067331  0.06205018  1
  O2-  O130  1  0.74504437  0.50365233  0.40125564  1
  O2-  O131  1  0.75112957  0.49944103  0.72264796  1
  O2-  O132  1  -0.00138684  0.25391629  0.26925021  1
  O2-  O133  1  -0.00498435  0.25121889  0.60717277  1
  O2-  O134  1  0.00152485  0.24542025  0.94245094  1
  O2-  O135  1  -0.00728402  0.74379626  0.26764221  1
  O2-  O136  1  -0.00640717  0.74351921  0.60394666  1
  O2-  O137  1  -0.00926166  0.75132372  0.93979039  1
  O2-  O138  1  0.50556137  0.25634252  0.27634469  1
  O2-  O139  1  0.49909167  0.25778004  0.60385024  1
  O2-  O140  1  0.49976124  0.26128562  0.93939445  1
  O2-  O141  1  0.50254796  0.75310481  0.26786074  1
  O2-  O142  1  0.50792318  0.74805521  0.60982205  1
  O2-  O143  1  0.50881305  0.74670610  0.93782232  1
  O2-  O144  1  0.07448043  0.17958550  0.09069279  1
  O2-  O145  1  0.07307537  0.18044694  0.43040244  1
  O2-  O146  1  0.07366138  0.18095978  0.76861674  1
  O2-  O147  1  0.06723970  0.67756348  0.09839464  1
  O2-  O148  1  0.07206875  0.68192096  0.43117952  1
  O2-  O149  1  0.07093841  0.67974434  0.76672128  1
  O2-  O150  1  0.56956837  0.18467482  0.09966417  1
  O2-  O151  1  0.56989633  0.17999703  0.42292661  1
  O2-  O152  1  0.57163219  0.18281030  0.76416863  1
  O2-  O153  1  0.56956699  0.67445646  0.08940534  1
  O2-  O154  1  0.56452451  0.67761793  0.43389427  1
  O2-  O155  1  0.56805152  0.66762716  0.75860619  1
  O2-  O156  1  0.18361716  0.42141299  0.24449722  1
  O2-  O157  1  0.18273392  0.42086203  0.57680361  1
  O2-  O158  1  0.18200530  0.42557782  0.90062847  1
  O2-  O159  1  0.18176147  0.93071736  0.24522541  1
  O2-  O160  1  0.18292240  0.93232766  0.57464139  1
  O2-  O161  1  0.18027981  0.93017972  0.90045836  1
  O2-  O162  1  0.67903815  0.42682013  0.23748716  1
  O2-  O163  1  0.67710930  0.43002137  0.57690164  1
  O2-  O164  1  0.68502490  0.42781981  0.89841548  1
  O2-  O165  1  0.67217002  0.93744711  0.24326213  1
  O2-  O166  1  0.67515046  0.93003822  0.56628952  1
  O2-  O167  1  0.67398647  0.93528017  0.90323473  1
  O2-  O168  1  0.41924663  0.31973049  0.08720720  1
  O2-  O169  1  0.42552069  0.31726241  0.42404109  1
  O2-  O170  1  0.42609884  0.31989605  0.75542704  1
  O2-  O171  1  0.43071342  0.81724153  0.09760374  1
  O2-  O172  1  0.42912564  0.82287697  0.43055297  1
  O2-  O173  1  0.42799511  0.82098322  0.76627371  1
  O2-  O174  1  0.93486246  0.31724255  0.09054504  1
  O2-  O175  1  0.92835541  0.31690087  0.42051884  1
  O2-  O176  1  0.92695424  0.32670015  0.75312412  1
  O2-  O177  1  0.93171604  0.82787775  0.08839720  1
  O2-  O178  1  0.92978424  0.82478411  0.43076761  1
  O2-  O179  1  0.92947421  0.82032638  0.76871312  1
  O2-  O180  1  0.32074851  0.07576940  0.24505930  1
  O2-  O181  1  0.31974155  0.07612732  0.57534480  1
  O2-  O182  1  0.31936070  0.07321761  0.90972172  1
  O2-  O183  1  0.31835181  0.56764008  0.24325215  1
  O2-  O184  1  0.31946218  0.57103232  0.56786201  1
  O2-  O185  1  0.31846892  0.57358703  0.91312701  1
  O2-  O186  1  0.82028991  0.07161128  0.24445758  1
  O2-  O187  1  0.82302038  0.06907980  0.56589844  1
  O2-  O188  1  0.82350662  0.07170652  0.90281304  1
  O2-  O189  1  0.82167357  0.56782309  0.23784350  1
  O2-  O190  1  0.82263615  0.56920250  0.57612749  1
  O2-  O191  1  0.82451767  0.56677115  0.89862352  1
  O2-  O192  1  0.04282239  0.08358584  0.26337930  1
  O2-  O193  1  0.04355541  0.08325999  0.59801921  1
  O2-  O194  1  0.04741560  0.08349593  0.94087731  1
  O2-  O195  1  0.04697995  0.57383137  0.27037823  1
  O2-  O196  1  0.05424442  0.57586079  0.60299876  1
  O2-  O197  1  0.04071048  0.57959412  0.93291953  1
  O2-  O198  1  0.53887349  0.09256878  0.26885479  1
  O2-  O199  1  0.53720399  0.08792901  0.59381568  1
  O2-  O200  1  0.53761684  0.08956764  0.92976630  1
  O2-  O201  1  0.53662066  0.57951283  0.26751878  1
  O2-  O202  1  0.53890934  0.58248882  0.60551056  1
  O2-  O203  1  0.54767230  0.58211984  0.93787098  1
  O2-  O204  1  0.16927676  0.21041562  0.26354348  1
  O2-  O205  1  0.16677255  0.21194316  0.59891533  1
  O2-  O206  1  0.16517697  0.20603659  0.93902279  1
  O2-  O207  1  0.16551064  0.70803575  0.26368128  1
  O2-  O208  1  0.16711254  0.71345681  0.59988410  1
  O2-  O209  1  0.16414508  0.71172276  0.93341587  1
  O2-  O210  1  0.66616120  0.20548567  0.27310127  1
  O2-  O211  1  0.66844006  0.21102322  0.59585942  1
  O2-  O212  1  0.66978453  0.21400525  0.93298111  1
  O2-  O213  1  0.66938297  0.69920855  0.26965652  1
  O2-  O214  1  0.66665630  0.69294579  0.60959291  1
  O2-  O215  1  0.67085671  0.69717841  0.94187103  1
  O2-  O216  1  0.08505714  0.45686646  0.06962310  1
  O2-  O217  1  0.08431382  0.44256033  0.39442987  1
  O2-  O218  1  0.08154963  0.44288407  0.72527587  1
  O2-  O219  1  0.08694773  0.95910453  0.07228310  1
  O2-  O220  1  0.08828674  0.96016251  0.39608423  1
  O2-  O221  1  0.09002202  0.95869708  0.72725530  1
  O2-  O222  1  0.57476954  0.44371041  0.06042282  1
  O2-  O223  1  0.57546185  0.45099879  0.40201896  1
  O2-  O224  1  0.58725549  0.45413105  0.73044466  1
  O2-  O225  1  0.57939564  0.96663559  0.06916176  1
  O2-  O226  1  0.58532304  0.96533246  0.39547347  1
  O2-  O227  1  0.57787317  0.96266353  0.73049854  1
  O2-  O228  1  0.21221800  0.33215583  0.06942018  1
  O2-  O229  1  0.21467889  0.33536949  0.39745011  1
  O2-  O230  1  0.21087527  0.33547281  0.73122593  1
  O2-  O231  1  0.21410483  0.83247074  0.06861241  1
  O2-  O232  1  0.20776635  0.83699448  0.39695261  1
  O2-  O233  1  0.21159957  0.84030617  0.72772659  1
  O2-  O234  1  0.71585800  0.33601795  0.06737991  1
  O2-  O235  1  0.71057044  0.33065736  0.40396900  1
  O2-  O236  1  0.70877278  0.33698774  0.72695101  1
  O2-  O237  1  0.69687211  0.83039468  0.06880656  1
  O2-  O238  1  0.69565585  0.83700436  0.39245898  1
  O2-  O239  1  0.69630678  0.82737405  0.73412270  1
  O2-  O240  1  0.44773125  0.41397029  0.27216961  1
  O2-  O241  1  0.45215063  0.41831641  0.60706568  1
  O2-  O242  1  0.44162524  0.42067835  0.93858333  1
  O2-  O243  1  0.45410140  0.92319186  0.26469067  1
  O2-  O244  1  0.45554076  0.91849323  0.59697325  1
  O2-  O245  1  0.45741815  0.91826143  0.93267878  1
  O2-  O246  1  0.95046700  0.41391113  0.27067824  1
  O2-  O247  1  0.95614628  0.41347860  0.59666054  1
  O2-  O248  1  0.96379106  0.40806808  0.93628863  1
  O2-  O249  1  0.96193559  0.91651865  0.26177260  1
  O2-  O250  1  0.95939085  0.91542923  0.60016413  1
  O2-  O251  1  0.96063594  0.91704286  0.93760911  1
  O2-  O252  1  0.34065630  0.28581055  0.26850039  1
  O2-  O253  1  0.33648101  0.29541879  0.60125384  1
  O2-  O254  1  0.33431660  0.29145823  0.93217915  1
  O2-  O255  1  0.33089851  0.79238609  0.26552989  1
  O2-  O256  1  0.33600325  0.78784955  0.59767371  1
  O2-  O257  1  0.33545931  0.78615883  0.93129169  1
  O2-  O258  1  0.83501890  0.28902919  0.26932406  1
  O2-  O259  1  0.83401858  0.30000490  0.59970145  1
  O2-  O260  1  0.84115839  0.29215463  0.93722733  1
  O2-  O261  1  0.82486481  0.80396580  0.26725862  1
  O2-  O262  1  0.82569245  0.79472479  0.60411111  1
  O2-  O263  1  0.82977632  0.80808662  0.94171735  1
  O2-  O264  1  0.41600627  0.04883221  0.06071824  1
  O2-  O265  1  0.41386614  0.04617143  0.39705712  1
  O2-  O266  1  0.41395599  0.04820144  0.72590711  1
  O2-  O267  1  0.41545357  0.55058084  0.06383334  1
  O2-  O268  1  0.40707542  0.53996717  0.39782692  1
  O2-  O269  1  0.41250445  0.53910820  0.73977299  1
  O2-  O270  1  0.92106299  0.04579479  0.07056588  1
  O2-  O271  1  0.91655476  0.04224765  0.39280844  1
  O2-  O272  1  0.92261766  0.04383814  0.73251087  1
  O2-  O273  1  0.91532850  0.53168319  0.06736386  1
  O2-  O274  1  0.91752790  0.53851860  0.40521918  1
  O2-  O275  1  0.91559343  0.53939215  0.72604805  1
  O2-  O276  1  0.29684712  0.16536951  0.06297692  1
  O2-  O277  1  0.29140323  0.16282618  0.39911062  1
  O2-  O278  1  0.29307128  0.16571776  0.72880079  1
  O2-  O279  1  0.29152431  0.66500967  0.06549200  1
  O2-  O280  1  0.29008120  0.66374535  0.39423727  1
  O2-  O281  1  0.28906466  0.66955830  0.73594679  1
  O2-  O282  1  0.79281346  0.16861229  0.07009282  1
  O2-  O283  1  0.79503441  0.16024105  0.39782568  1
  O2-  O284  1  0.79663186  0.17112358  0.72957267  1
  O2-  O285  1  0.80816053  0.67438888  0.06301490  1
  O2-  O286  1  0.79467432  0.67372699  0.40216205  1
  O2-  O287  1  0.79739087  0.66097191  0.73028032  1
