# generated using pymatgen
data_Ca2Al2SiO7
_symmetry_space_group_name_H-M   'P 1'
_cell_length_a   15.45528288
_cell_length_b   15.45421376
_cell_length_c   15.28081394
_cell_angle_alpha   90.00158068
_cell_angle_beta   90.01253122
_cell_angle_gamma   90.00378064
_symmetry_Int_Tables_number   1
_chemical_formula_structural   Ca2Al2SiO7
_chemical_formula_sum   'Ca48 Al48 Si24 O168'
_cell_volume   3649.81078071
_cell_formula_units_Z   24
loop_
 _symmetry_equiv_pos_site_id
 _symmetry_equiv_pos_as_xyz
  1  'x, y, z'
loop_
 _atom_type_symbol
 _atom_type_oxidation_number
  Ca2+  2.0
  Al0+  0.0
  Si0+  0.0
  O2-  -2.0
loop_
 _atom_site_type_symbol
 _atom_site_label
 _atom_site_symmetry_multiplicity
 _atom_site_fract_x
 _atom_site_fract_y
 _atom_site_fract_z
 _atom_site_occupancy
  Ca2+  Ca0  1  0.15825725  0.07522758  0.17112780  1
  Ca2+  Ca1  1  0.17099866  0.08174618  0.50361720  1
  Ca2+  Ca2  1  0.16996142  0.08062826  0.83917146  1
  Ca2+  Ca3  1  0.17911386  0.59294948  0.16879402  1
  Ca2+  Ca4  1  0.17575233  0.57774816  0.50340633  1
  Ca2+  Ca5  1  0.16931990  0.57991636  0.84167519  1
  Ca2+  Ca6  1  0.66395703  0.08301561  0.17425096  1
  Ca2+  Ca7  1  0.65302862  0.07038053  0.49966699  1
  Ca2+  Ca8  1  0.66179300  0.07687041  0.83794513  1
  Ca2+  Ca9  1  0.66081168  0.57392041  0.16902063  1
  Ca2+  Ca10  1  0.66520475  0.57520803  0.50535598  1
  Ca2+  Ca11  1  0.67460025  0.57437605  0.84150614  1
  Ca2+  Ca12  1  0.07820712  0.32153536  0.15692268  1
  Ca2+  Ca13  1  0.08553316  0.32942852  0.49469155  1
  Ca2+  Ca14  1  0.07969278  0.33763245  0.82974213  1
  Ca2+  Ca15  1  0.08610017  0.83275851  0.15842143  1
  Ca2+  Ca16  1  0.07556003  0.83865131  0.49562395  1
  Ca2+  Ca17  1  0.08061161  0.82758744  0.83218721  1
  Ca2+  Ca18  1  0.59305190  0.32654822  0.16095835  1
  Ca2+  Ca19  1  0.58139837  0.33495457  0.49485062  1
  Ca2+  Ca20  1  0.58297680  0.33350476  0.82998628  1
  Ca2+  Ca21  1  0.58042816  0.82319263  0.16570191  1
  Ca2+  Ca22  1  0.58045371  0.82992650  0.48858558  1
  Ca2+  Ca23  1  0.59073520  0.82413594  0.82896263  1
  Ca2+  Ca24  1  0.33892385  0.43111243  0.16853046  1
  Ca2+  Ca25  1  0.33326561  0.41961598  0.50627212  1
  Ca2+  Ca26  1  0.32990649  0.41692071  0.83522996  1
  Ca2+  Ca27  1  0.32177801  0.91120468  0.17308134  1
  Ca2+  Ca28  1  0.33282281  0.92173340  0.50100615  1
  Ca2+  Ca29  1  0.33005637  0.92531734  0.83965955  1
  Ca2+  Ca30  1  0.82811833  0.41702560  0.16581000  1
  Ca2+  Ca31  1  0.81996603  0.42209168  0.50717544  1
  Ca2+  Ca32  1  0.82764581  0.42341555  0.84265096  1
  Ca2+  Ca33  1  0.82609177  0.91902729  0.17230021  1
  Ca2+  Ca34  1  0.82190530  0.91434081  0.50538138  1
  Ca2+  Ca35  1  0.83219655  0.91363943  0.83107576  1
  Ca2+  Ca36  1  0.43027429  0.16698057  0.16323786  1
  Ca2+  Ca37  1  0.41724560  0.17222233  0.49756469  1
  Ca2+  Ca38  1  0.41883369  0.17131721  0.82666064  1
  Ca2+  Ca39  1  0.42271516  0.66428041  0.16354305  1
  Ca2+  Ca40  1  0.42348987  0.67169137  0.48695826  1
  Ca2+  Ca41  1  0.42164294  0.66111144  0.83586386  1
  Ca2+  Ca42  1  0.92372491  0.17189525  0.15911735  1
  Ca2+  Ca43  1  0.92422415  0.16802717  0.49235609  1
  Ca2+  Ca44  1  0.92132689  0.17326319  0.83667675  1
  Ca2+  Ca45  1  0.92258164  0.66646843  0.15703508  1
  Ca2+  Ca46  1  0.91180737  0.66865378  0.50308101  1
  Ca2+  Ca47  1  0.91565840  0.66423442  0.82876733  1
  Al0+  Al48  1  -0.00129472  0.00063101  -0.00116163  1
  Al0+  Al49  1  -0.00070423  0.00005306  0.33399057  1
  Al0+  Al50  1  -0.00102422  -0.00188944  0.66215181  1
  Al0+  Al51  1  -0.00026450  0.50036889  -0.00273528  1
  Al0+  Al52  1  -0.00019965  0.50132719  0.33364418  1
  Al0+  Al53  1  0.00163325  0.49965896  0.66909958  1
  Al0+  Al54  1  0.49828859  0.00041112  -0.00255881  1
  Al0+  Al55  1  0.49728462  0.00069693  0.32821614  1
  Al0+  Al56  1  0.49944765  -0.00137924  0.67625267  1
  Al0+  Al57  1  0.49995815  0.50021175  0.00250964  1
  Al0+  Al58  1  0.50016376  0.50118583  0.33916957  1
  Al0+  Al59  1  0.49973526  0.49888150  0.66553422  1
  Al0+  Al60  1  0.25243026  0.24824522  -0.00051304  1
  Al0+  Al61  1  0.24966455  0.24971667  0.32512894  1
  Al0+  Al62  1  0.25268271  0.25021274  0.67015437  1
  Al0+  Al63  1  0.24888033  0.75179010  0.00075072  1
  Al0+  Al64  1  0.24855397  0.75160925  0.34282998  1
  Al0+  Al65  1  0.25016397  0.75009220  0.66499995  1
  Al0+  Al66  1  0.75074498  0.24788869  -0.00663320  1
  Al0+  Al67  1  0.75108679  0.25195604  0.33584091  1
  Al0+  Al68  1  0.75145380  0.24650851  0.66686048  1
  Al0+  Al69  1  0.74919932  0.74948696  0.00014617  1
  Al0+  Al70  1  0.75057382  0.75035390  0.33167723  1
  Al0+  Al71  1  0.75148709  0.75040544  0.66842771  1
  Al0+  Al72  1  0.31970850  0.06974993  0.68016285  1
  Al0+  Al73  1  0.32063364  0.57086182  0.34867357  1
  Al0+  Al74  1  0.57075413  0.67872782  0.98498945  1
  Al0+  Al75  1  0.67784083  0.92979649  0.34405437  1
  Al0+  Al76  1  0.93002595  0.81938827  0.65135476  1
  Al0+  Al77  1  0.07283042  0.17700750  0.98308105  1
  Al0+  Al78  1  0.07115422  0.17872108  0.31982565  1
  Al0+  Al79  1  0.68050205  0.42879052  0.34822687  1
  Al0+  Al80  1  0.57044929  0.18087046  0.32196900  1
  Al0+  Al81  1  0.57126049  0.17790683  0.98453368  1
  Al0+  Al82  1  0.82276588  0.57268380  0.01706715  1
  Al0+  Al83  1  0.68004461  0.42780758  0.01560953  1
  Al0+  Al84  1  0.31911849  0.57023581  0.01283615  1
  Al0+  Al85  1  0.81975967  0.57025791  0.68169521  1
  Al0+  Al86  1  0.67974181  0.93041890  0.68070773  1
  Al0+  Al87  1  0.57214707  0.67788536  0.31847699  1
  Al0+  Al88  1  0.42638448  0.82179560  0.31865119  1
  Al0+  Al89  1  0.07200445  0.68062523  0.98757984  1
  Al0+  Al90  1  0.93030657  0.32125056  0.98373687  1
  Al0+  Al91  1  0.17958844  0.93254699  0.01213555  1
  Al0+  Al92  1  0.17738782  0.92998308  0.34936725  1
  Al0+  Al93  1  0.43054137  0.32002616  0.65272001  1
  Al0+  Al94  1  0.67669816  0.42615012  0.68254944  1
  Al0+  Al95  1  0.18114077  0.42936660  0.67914425  1
  Si0+  Si96  1  0.82532647  0.57317400  0.35048689  1
  Si0+  Si97  1  0.07411576  0.67609554  0.64767862  1
  Si0+  Si98  1  0.42738269  0.32394368  0.31589559  1
  Si0+  Si99  1  0.57269911  0.17512908  0.65037784  1
  Si0+  Si100  1  0.07126421  0.18006170  0.65189523  1
  Si0+  Si101  1  0.42739356  0.82087863  0.98184941  1
  Si0+  Si102  1  0.07049051  0.67949023  0.32065538  1
  Si0+  Si103  1  0.32148846  0.07387656  0.34826342  1
  Si0+  Si104  1  0.32394835  0.07364626  0.01976960  1
  Si0+  Si105  1  0.81933217  0.06949181  0.01420772  1
  Si0+  Si106  1  0.92624207  0.82246128  0.98387274  1
  Si0+  Si107  1  0.82132073  0.07197667  0.34969928  1
  Si0+  Si108  1  0.56982651  0.68046416  0.65254523  1
  Si0+  Si109  1  0.92844385  0.32343332  0.31797586  1
  Si0+  Si110  1  0.17769573  0.42699506  0.34652812  1
  Si0+  Si111  1  0.42825060  0.82288201  0.65306595  1
  Si0+  Si112  1  0.17563013  0.92766060  0.68330205  1
  Si0+  Si113  1  0.82625072  0.07156936  0.68375802  1
  Si0+  Si114  1  0.17709410  0.42573101  0.01711495  1
  Si0+  Si115  1  0.42921612  0.32296158  0.98383629  1
  Si0+  Si116  1  0.32243988  0.57418714  0.68345374  1
  Si0+  Si117  1  0.92879797  0.82104101  0.31761270  1
  Si0+  Si118  1  0.92868013  0.32236686  0.65005983  1
  Si0+  Si119  1  0.67660879  0.92815833  0.01577397  1
  O2-  O120  1  0.25151216  0.00826893  0.06235912  1
  O2-  O121  1  0.25173231  0.00634495  0.39342690  1
  O2-  O122  1  0.24555674  -0.00556695  0.72718890  1
  O2-  O123  1  0.24409988  0.49597874  0.06138931  1
  O2-  O124  1  0.24773619  0.49286992  0.39282321  1
  O2-  O125  1  0.25217210  0.50701929  0.72657361  1
  O2-  O126  1  0.74685552  0.00024580  0.05721309  1
  O2-  O127  1  0.74944390  0.00650017  0.39353854  1
  O2-  O128  1  0.75288567  0.00717383  0.72699000  1
  O2-  O129  1  0.75036036  0.50119098  0.06693829  1
  O2-  O130  1  0.75394865  0.50624867  0.39268652  1
  O2-  O131  1  0.75095108  0.49574087  0.73172788  1
  O2-  O132  1  -0.00163458  0.25557058  0.27465801  1
  O2-  O133  1  -0.00044830  0.25016120  0.60823786  1
  O2-  O134  1  0.00756822  0.25452160  0.93245265  1
  O2-  O135  1  -0.00054985  0.74961826  0.27686773  1
  O2-  O136  1  0.00579584  0.74570682  0.60375203  1
  O2-  O137  1  -0.00722587  0.75085256  0.94119985  1
  O2-  O138  1  0.49875311  0.25735997  0.27297730  1
  O2-  O139  1  0.50922050  0.24868818  0.60618941  1
  O2-  O140  1  0.49671896  0.25302651  0.93958060  1
  O2-  O141  1  0.49825004  0.74921703  0.26935269  1
  O2-  O142  1  0.49660618  0.74969888  0.61071752  1
  O2-  O143  1  0.49825104  0.75516563  0.93628302  1
  O2-  O144  1  0.06683851  0.17539140  0.09670925  1
  O2-  O145  1  0.07056751  0.18043524  0.43381059  1
  O2-  O146  1  0.06955352  0.17970009  0.75649585  1
  O2-  O147  1  0.07374646  0.68569149  0.10123605  1
  O2-  O148  1  0.06806211  0.67832109  0.42575848  1
  O2-  O149  1  0.07677954  0.67758570  0.75303102  1
  O2-  O150  1  0.57115568  0.17654853  0.09798229  1
  O2-  O151  1  0.56659324  0.17930758  0.43506746  1
  O2-  O152  1  0.56929594  0.17342532  0.75581758  1
  O2-  O153  1  0.56930341  0.67969970  0.09771964  1
  O2-  O154  1  0.57171273  0.67991281  0.43291529  1
  O2-  O155  1  0.56876338  0.68151348  0.75772618  1
  O2-  O156  1  0.17631453  0.42890015  0.24141856  1
  O2-  O157  1  0.18280634  0.42887552  0.56546531  1
  O2-  O158  1  0.18001314  0.42637082  0.91124278  1
  O2-  O159  1  0.17557144  0.93000282  0.23635232  1
  O2-  O160  1  0.17511086  0.93032148  0.57762150  1
  O2-  O161  1  0.18209318  0.93248892  0.89880212  1
  O2-  O162  1  0.68315717  0.42504970  0.23568383  1
  O2-  O163  1  0.67712288  0.42909230  0.56849227  1
  O2-  O164  1  0.67994428  0.42853188  0.90222135  1
  O2-  O165  1  0.68162373  0.93050226  0.23094196  1
  O2-  O166  1  0.67786629  0.93055497  0.56736534  1
  O2-  O167  1  0.67836398  0.92832514  0.91050638  1
  O2-  O168  1  0.42917604  0.32238336  0.08958217  1
  O2-  O169  1  0.42444605  0.32130092  0.42167973  1
  O2-  O170  1  0.42826685  0.31797026  0.76556178  1
  O2-  O171  1  0.42718739  0.82038912  0.08722409  1
  O2-  O172  1  0.42910462  0.82174778  0.43317510  1
  O2-  O173  1  0.42764279  0.82252284  0.75802504  1
  O2-  O174  1  0.92966700  0.31656912  0.09784460  1
  O2-  O175  1  0.92990070  0.32256184  0.42407847  1
  O2-  O176  1  0.92998459  0.32201054  0.75456205  1
  O2-  O177  1  0.92708479  0.82515595  0.08983696  1
  O2-  O178  1  0.92827939  0.82161314  0.42274846  1
  O2-  O179  1  0.93271662  0.82039659  0.76428031  1
  O2-  O180  1  0.32128907  0.07389807  0.24305058  1
  O2-  O181  1  0.31870829  0.06912702  0.56673134  1
  O2-  O182  1  0.32532667  0.07135997  0.91392719  1
  O2-  O183  1  0.31890560  0.57164890  0.23558197  1
  O2-  O184  1  0.32152078  0.57437857  0.57777462  1
  O2-  O185  1  0.31799222  0.56873697  0.89953836  1
  O2-  O186  1  0.82278975  0.06986411  0.24388284  1
  O2-  O187  1  0.83076488  0.07037778  0.57821216  1
  O2-  O188  1  0.82044280  0.06702528  0.90910077  1
  O2-  O189  1  0.83150382  0.57194687  0.24565484  1
  O2-  O190  1  0.81674381  0.57000053  0.56746016  1
  O2-  O191  1  0.82042997  0.57285222  0.90363706  1
  O2-  O192  1  0.03610862  0.08307546  0.26664179  1
  O2-  O193  1  0.04387507  0.08788019  0.60415942  1
  O2-  O194  1  0.03712690  0.08127518  0.92877303  1
  O2-  O195  1  0.04542155  0.58728161  0.27226473  1
  O2-  O196  1  0.04778825  0.58257351  0.60122693  1
  O2-  O197  1  0.04786985  0.58253939  0.93416675  1
  O2-  O198  1  0.53885461  0.08606087  0.26487262  1
  O2-  O199  1  0.53919031  0.08232188  0.60632499  1
  O2-  O200  1  0.53885422  0.08139884  0.92994230  1
  O2-  O201  1  0.54193388  0.57900505  0.26798227  1
  O2-  O202  1  0.54324187  0.58822291  0.60535795  1
  O2-  O203  1  0.53700589  0.58278567  0.93160810  1
  O2-  O204  1  0.16710639  0.20500173  0.26250440  1
  O2-  O205  1  0.16288547  0.20953424  0.60552058  1
  O2-  O206  1  0.17518477  0.19711210  0.93531590  1
  O2-  O207  1  0.16233459  0.70955247  0.27605915  1
  O2-  O208  1  0.16822038  0.70143740  0.60103559  1
  O2-  O209  1  0.16573456  0.71618001  0.93039367  1
  O2-  O210  1  0.66949854  0.20798166  0.27017851  1
  O2-  O211  1  0.66968380  0.19064883  0.60682936  1
  O2-  O212  1  0.66762552  0.20348507  0.92875084  1
  O2-  O213  1  0.67051958  0.70642845  0.26561870  1
  O2-  O214  1  0.66100956  0.71071753  0.60636632  1
  O2-  O215  1  0.66718120  0.71106502  0.93097585  1
  O2-  O216  1  0.08237321  0.44802228  0.06059782  1
  O2-  O217  1  0.08476833  0.45404076  0.39469876  1
  O2-  O218  1  0.08455773  0.45745027  0.73369181  1
  O2-  O219  1  0.08128729  0.96017398  0.06562522  1
  O2-  O220  1  0.08075080  0.96211599  0.40353337  1
  O2-  O221  1  0.08243154  0.95470607  0.72851623  1
  O2-  O222  1  0.58114991  0.45508709  0.06802193  1
  O2-  O223  1  0.58367120  0.45749185  0.40275791  1
  O2-  O224  1  0.57822668  0.45590333  0.73390611  1
  O2-  O225  1  0.58381276  0.95562484  0.06064352  1
  O2-  O226  1  0.58009201  0.96004214  0.39690482  1
  O2-  O227  1  0.58473256  0.95795631  0.73915180  1
  O2-  O228  1  0.20370042  0.33151733  0.06224076  1
  O2-  O229  1  0.20153168  0.33171099  0.39068027  1
  O2-  O230  1  0.21339388  0.33492456  0.73542978  1
  O2-  O231  1  0.21204786  0.83709149  0.06727711  1
  O2-  O232  1  0.20596748  0.83541630  0.40786517  1
  O2-  O233  1  0.19961257  0.83225845  0.72628915  1
  O2-  O234  1  0.71101420  0.32758845  0.06431619  1
  O2-  O235  1  0.71285111  0.33341664  0.40518560  1
  O2-  O236  1  0.70106531  0.32433596  0.72970807  1
  O2-  O237  1  0.70551505  0.83726211  0.06332953  1
  O2-  O238  1  0.71141384  0.83405430  0.39858928  1
  O2-  O239  1  0.71489484  0.83583604  0.73536565  1
  O2-  O240  1  0.45205386  0.41865993  0.27352522  1
  O2-  O241  1  0.45655273  0.41805841  0.59760897  1
  O2-  O242  1  0.45445861  0.41582436  0.93690553  1
  O2-  O243  1  0.45177136  0.91950520  0.26368876  1
  O2-  O244  1  0.45879686  0.91442742  0.60691174  1
  O2-  O245  1  0.45084406  0.91563684  0.93688193  1
  O2-  O246  1  0.95280588  0.41741048  0.27222003  1
  O2-  O247  1  0.95821119  0.41359998  0.60223732  1
  O2-  O248  1  0.95416697  0.42040725  0.93068505  1
  O2-  O249  1  0.95690765  0.91278015  0.27032698  1
  O2-  O250  1  0.95983473  0.91578733  0.59446668  1
  O2-  O251  1  0.95444711  0.91447648  0.93627283  1
  O2-  O252  1  0.33530569  0.29844466  0.26652631  1
  O2-  O253  1  0.33479499  0.28529782  0.59782816  1
  O2-  O254  1  0.33520840  0.29775572  0.93772776  1
  O2-  O255  1  0.32583004  0.79284499  0.27058026  1
  O2-  O256  1  0.33481834  0.79974091  0.60537387  1
  O2-  O257  1  0.33518106  0.79310805  0.93446761  1
  O2-  O258  1  0.83613787  0.29572145  0.27153585  1
  O2-  O259  1  0.83684030  0.29347155  0.60213048  1
  O2-  O260  1  0.83579790  0.28523124  0.92783434  1
  O2-  O261  1  0.83773259  0.79499924  0.26831065  1
  O2-  O262  1  0.83328993  0.78777379  0.59660912  1
  O2-  O263  1  0.83216622  0.80000014  0.93764070  1
  O2-  O264  1  0.41672121  0.04382190  0.06571728  1
  O2-  O265  1  0.41394911  0.04678059  0.39564573  1
  O2-  O266  1  0.41375636  0.03844905  0.73859807  1
  O2-  O267  1  0.41454892  0.53877999  0.06848734  1
  O2-  O268  1  0.41630559  0.54225439  0.40503400  1
  O2-  O269  1  0.41531319  0.54630409  0.72857935  1
  O2-  O270  1  0.90993544  0.04000105  0.06352110  1
  O2-  O271  1  0.91273085  0.04167373  0.39781474  1
  O2-  O272  1  0.91726795  0.03960243  0.73175886  1
  O2-  O273  1  0.92264852  0.54506794  0.06817915  1
  O2-  O274  1  0.91771770  0.54595383  0.40013135  1
  O2-  O275  1  0.92060265  0.54635903  0.73089199  1
  O2-  O276  1  0.30456876  0.16894999  0.06461136  1
  O2-  O277  1  0.29542184  0.16848387  0.39322035  1
  O2-  O278  1  0.28853347  0.16453741  0.73619605  1
  O2-  O279  1  0.28754211  0.66673878  0.06632711  1
  O2-  O280  1  0.28661936  0.66459429  0.40618608  1
  O2-  O281  1  0.29914653  0.66894087  0.72878028  1
  O2-  O282  1  0.79260014  0.16118304  0.06132715  1
  O2-  O283  1  0.80160700  0.16670406  0.39542540  1
  O2-  O284  1  0.80591203  0.16642427  0.72880689  1
  O2-  O285  1  0.79701563  0.67305224  0.06808147  1
  O2-  O286  1  0.80140014  0.66810072  0.39442349  1
  O2-  O287  1  0.79184643  0.66831052  0.73428842  1
