# generated using pymatgen
data_Ca2Al2SiO7
_symmetry_space_group_name_H-M   'P 1'
_cell_length_a   15.46144093
_cell_length_b   15.46114165
_cell_length_c   15.28627699
_cell_angle_alpha   89.98528842
_cell_angle_beta   89.99877916
_cell_angle_gamma   90.01364386
_symmetry_Int_Tables_number   1
_chemical_formula_structural   Ca2Al2SiO7
_chemical_formula_sum   'Ca48 Al48 Si24 O168'
_cell_volume   3654.20765271
_cell_formula_units_Z   24
loop_
 _symmetry_equiv_pos_site_id
 _symmetry_equiv_pos_as_xyz
  1  'x, y, z'
loop_
 _atom_type_symbol
 _atom_type_oxidation_number
  Ca2+  2.0
  Al0+  0.0
  Si0+  0.0
  O2-  -2.0
loop_
 _atom_site_type_symbol
 _atom_site_label
 _atom_site_symmetry_multiplicity
 _atom_site_fract_x
 _atom_site_fract_y
 _atom_site_fract_z
 _atom_site_occupancy
  Ca2+  Ca0  1  0.17331851  0.08057758  0.17252343  1
  Ca2+  Ca1  1  0.17646705  0.07465139  0.50063710  1
  Ca2+  Ca2  1  0.17922190  0.08529815  0.84151391  1
  Ca2+  Ca3  1  0.16869465  0.58020930  0.17423747  1
  Ca2+  Ca4  1  0.16972263  0.59223439  0.50088217  1
  Ca2+  Ca5  1  0.16522307  0.57840119  0.83609437  1
  Ca2+  Ca6  1  0.67181875  0.08213975  0.17756867  1
  Ca2+  Ca7  1  0.66791116  0.08797434  0.49740658  1
  Ca2+  Ca8  1  0.66725330  0.07870995  0.83671615  1
  Ca2+  Ca9  1  0.67185260  0.57798141  0.17058513  1
  Ca2+  Ca10  1  0.67392715  0.57797089  0.50743201  1
  Ca2+  Ca11  1  0.66535970  0.57974634  0.83983612  1
  Ca2+  Ca12  1  0.08551570  0.32867511  0.15841883  1
  Ca2+  Ca13  1  0.08025717  0.33056710  0.49556026  1
  Ca2+  Ca14  1  0.08973674  0.32956573  0.83282266  1
  Ca2+  Ca15  1  0.07578228  0.83246185  0.16827593  1
  Ca2+  Ca16  1  0.08092995  0.82348863  0.48947602  1
  Ca2+  Ca17  1  0.07555080  0.82570148  0.82829955  1
  Ca2+  Ca18  1  0.58356496  0.33579842  0.16917733  1
  Ca2+  Ca19  1  0.57795036  0.33487233  0.49119876  1
  Ca2+  Ca20  1  0.57965567  0.33840506  0.82644118  1
  Ca2+  Ca21  1  0.58323697  0.82482689  0.15993904  1
  Ca2+  Ca22  1  0.57887016  0.82884383  0.50191919  1
  Ca2+  Ca23  1  0.58057034  0.81990098  0.82793046  1
  Ca2+  Ca24  1  0.32910487  0.41981495  0.17198046  1
  Ca2+  Ca25  1  0.33973121  0.41768399  0.49835970  1
  Ca2+  Ca26  1  0.33025840  0.41521204  0.83728556  1
  Ca2+  Ca27  1  0.32724575  0.92841390  0.17856614  1
  Ca2+  Ca28  1  0.33678324  0.92499766  0.50596869  1
  Ca2+  Ca29  1  0.34246460  0.92706814  0.83548851  1
  Ca2+  Ca30  1  0.82343582  0.42772508  0.17411909  1
  Ca2+  Ca31  1  0.82113780  0.42457516  0.50496018  1
  Ca2+  Ca32  1  0.82059855  0.43107638  0.84021901  1
  Ca2+  Ca33  1  0.83915876  0.91796517  0.17331717  1
  Ca2+  Ca34  1  0.83922054  0.91983368  0.49537383  1
  Ca2+  Ca35  1  0.83410129  0.91243478  0.83773635  1
  Ca2+  Ca36  1  0.41463527  0.16824318  0.16735693  1
  Ca2+  Ca37  1  0.41671004  0.17577813  0.49195745  1
  Ca2+  Ca38  1  0.41315776  0.17126533  0.82604791  1
  Ca2+  Ca39  1  0.42088359  0.66248370  0.16400128  1
  Ca2+  Ca40  1  0.42163390  0.66410296  0.49487481  1
  Ca2+  Ca41  1  0.42958186  0.66807038  0.82402334  1
  Ca2+  Ca42  1  0.92239257  0.16576727  0.16074181  1
  Ca2+  Ca43  1  0.91426371  0.16786773  0.48986354  1
  Ca2+  Ca44  1  0.92686895  0.16884164  0.83166963  1
  Ca2+  Ca45  1  0.90875790  0.67400199  0.16434798  1
  Ca2+  Ca46  1  0.92413884  0.66211682  0.49207340  1
  Ca2+  Ca47  1  0.91532245  0.66359546  0.82919740  1
  Al0+  Al48  1  0.00207658  -0.00001372  -0.01155731  1
  Al0+  Al49  1  0.00022978  -0.00121124  0.33852440  1
  Al0+  Al50  1  0.00277447  -0.00075844  0.66789665  1
  Al0+  Al51  1  -0.00136961  0.50041889  0.00781388  1
  Al0+  Al52  1  0.00014387  0.49830449  0.33178687  1
  Al0+  Al53  1  -0.00073345  0.49847318  0.66663031  1
  Al0+  Al54  1  0.50133608  0.00236342  0.00478319  1
  Al0+  Al55  1  0.50132668  0.00094362  0.33359510  1
  Al0+  Al56  1  0.50245332  0.00087833  0.66863117  1
  Al0+  Al57  1  0.49948164  0.49863595  -0.00119727  1
  Al0+  Al58  1  0.49685379  0.49846061  0.33452148  1
  Al0+  Al59  1  0.49890490  0.49923010  0.66222340  1
  Al0+  Al60  1  0.25075020  0.24992204  0.00382659  1
  Al0+  Al61  1  0.25050658  0.25029816  0.33324284  1
  Al0+  Al62  1  0.25098238  0.24799367  0.66459288  1
  Al0+  Al63  1  0.24810135  0.75321896  -0.00167887  1
  Al0+  Al64  1  0.24901985  0.74824237  0.33450809  1
  Al0+  Al65  1  0.24763052  0.75174907  0.66337840  1
  Al0+  Al66  1  0.74977744  0.25023044  0.00056827  1
  Al0+  Al67  1  0.74891093  0.24894299  0.33611942  1
  Al0+  Al68  1  0.75152615  0.25069852  0.67314666  1
  Al0+  Al69  1  0.74847663  0.75083741  -0.00591087  1
  Al0+  Al70  1  0.75030111  0.75053968  0.33437143  1
  Al0+  Al71  1  0.75148601  0.75300101  0.66462729  1
  Al0+  Al72  1  0.06845507  0.67717436  0.65344706  1
  Al0+  Al73  1  0.82051904  0.06972644  0.34429901  1
  Al0+  Al74  1  0.42934003  0.82268250  0.65266954  1
  Al0+  Al75  1  0.67640195  0.42983867  0.68304081  1
  Al0+  Al76  1  0.57164812  0.17875173  0.31748937  1
  Al0+  Al77  1  0.67828419  0.42951915  0.34929915  1
  Al0+  Al78  1  0.32265889  0.07175418  0.35041566  1
  Al0+  Al79  1  0.81927557  0.57421549  0.01638880  1
  Al0+  Al80  1  0.92915333  0.82021082  0.31852484  1
  Al0+  Al81  1  0.32056915  0.06952155  0.68135752  1
  Al0+  Al82  1  0.56718158  0.67896110  0.98768080  1
  Al0+  Al83  1  0.82153261  0.57298421  0.34942546  1
  Al0+  Al84  1  0.82204427  0.57226551  0.68207978  1
  Al0+  Al85  1  0.93012200  0.81959834  0.98473522  1
  Al0+  Al86  1  0.07248526  0.67639103  0.31558017  1
  Al0+  Al87  1  0.42803434  0.32148373  0.31437708  1
  Al0+  Al88  1  0.31908126  0.56995033  0.34617463  1
  Al0+  Al89  1  0.17952106  0.43034285  0.01203141  1
  Al0+  Al90  1  0.67590532  0.42729741  0.01723118  1
  Al0+  Al91  1  0.42843270  0.31951596  0.65320622  1
  Al0+  Al92  1  0.32181723  0.07011062  0.01573491  1
  Al0+  Al93  1  0.07159380  0.18155904  0.98606282  1
  Al0+  Al94  1  0.17885336  0.92841605  0.34854529  1
  Al0+  Al95  1  0.57177549  0.67840276  0.64950304  1
  Si0+  Si96  1  0.06979797  0.17924457  0.31988010  1
  Si0+  Si97  1  0.92777845  0.32020797  0.31841437  1
  Si0+  Si98  1  0.82463481  0.07202999  0.68384887  1
  Si0+  Si99  1  0.92636195  0.32346092  0.98319124  1
  Si0+  Si100  1  0.68048365  0.93085909  0.68282066  1
  Si0+  Si101  1  0.57518384  0.17833692  0.65224161  1
  Si0+  Si102  1  0.32002402  0.57276667  0.68054846  1
  Si0+  Si103  1  0.56993640  0.67925309  0.31890385  1
  Si0+  Si104  1  0.68039316  0.93045415  0.01403763  1
  Si0+  Si105  1  0.92845640  0.82477463  0.64788026  1
  Si0+  Si106  1  0.17926132  0.42785952  0.67968869  1
  Si0+  Si107  1  0.82317712  0.06995797  0.01156645  1
  Si0+  Si108  1  0.43010595  0.31829637  0.98486790  1
  Si0+  Si109  1  0.42691608  0.82560709  0.98629354  1
  Si0+  Si110  1  0.67631389  0.92609000  0.35046095  1
  Si0+  Si111  1  0.57342680  0.17707777  0.98422155  1
  Si0+  Si112  1  0.07375840  0.67536342  0.98323962  1
  Si0+  Si113  1  0.07184072  0.17832355  0.64992876  1
  Si0+  Si114  1  0.92987237  0.31816352  0.65243185  1
  Si0+  Si115  1  0.17677807  0.42641183  0.35063630  1
  Si0+  Si116  1  0.32150424  0.57413358  0.01233148  1
  Si0+  Si117  1  0.17762031  0.92675386  0.68705970  1
  Si0+  Si118  1  0.17579755  0.92867632  0.01554079  1
  Si0+  Si119  1  0.42846037  0.82172772  0.31879963  1
  O2-  O120  1  0.24930578  -0.00791331  0.05944514  1
  O2-  O121  1  0.25478969  -0.00422596  0.39977640  1
  O2-  O122  1  0.24858026  -0.00659277  0.73105741  1
  O2-  O123  1  0.24840827  0.51070985  0.05689647  1
  O2-  O124  1  0.24229243  0.49780806  0.39441515  1
  O2-  O125  1  0.24978671  0.49986598  0.72173300  1
  O2-  O126  1  0.75215306  0.00067951  0.05566534  1
  O2-  O127  1  0.74528491  -0.00373415  0.39229069  1
  O2-  O128  1  0.75375683  0.00061462  0.72510396  1
  O2-  O129  1  0.74907965  0.49935340  0.06441629  1
  O2-  O130  1  0.74857944  0.50254060  0.39931633  1
  O2-  O131  1  0.74408965  0.50650023  0.73210480  1
  O2-  O132  1  0.00034903  0.25069382  0.27603380  1
  O2-  O133  1  -0.00226195  0.24523137  0.60705232  1
  O2-  O134  1  -0.00201400  0.25742176  0.93778182  1
  O2-  O135  1  -0.00263182  0.74582207  0.26649433  1
  O2-  O136  1  -0.00667011  0.75174826  0.60712223  1
  O2-  O137  1  0.00293198  0.74222379  0.93948361  1
  O2-  O138  1  0.49943377  0.24856825  0.26456879  1
  O2-  O139  1  0.50810101  0.24853985  0.60964838  1
  O2-  O140  1  0.50383547  0.24957545  0.94269363  1
  O2-  O141  1  0.49983825  0.75145322  0.27576817  1
  O2-  O142  1  0.49590083  0.74724846  0.59996223  1
  O2-  O143  1  0.48881967  0.75123691  0.94222077  1
  O2-  O144  1  0.06868427  0.18051620  0.09924114  1
  O2-  O145  1  0.06787698  0.18154222  0.42547153  1
  O2-  O146  1  0.07230656  0.18073289  0.75514430  1
  O2-  O147  1  0.07854902  0.67734155  0.08785025  1
  O2-  O148  1  0.07127900  0.67792663  0.42942076  1
  O2-  O149  1  0.06847275  0.67724388  0.76707927  1
  O2-  O150  1  0.57462724  0.17286995  0.08839568  1
  O2-  O151  1  0.57277874  0.18000763  0.43131599  1
  O2-  O152  1  0.57471629  0.17663658  0.75837673  1
  O2-  O153  1  0.56635917  0.68140856  0.10116339  1
  O2-  O154  1  0.56900804  0.68096577  0.42373338  1
  O2-  O155  1  0.57031908  0.68023534  0.76354838  1
  O2-  O156  1  0.17830816  0.42411628  0.24499467  1
  O2-  O157  1  0.17782705  0.42567378  0.57502260  1
  O2-  O158  1  0.18347869  0.42865009  0.89818165  1
  O2-  O159  1  0.17873621  0.93294800  0.23434464  1
  O2-  O160  1  0.17424525  0.93021010  0.58207593  1
  O2-  O161  1  0.17535609  0.93008437  0.90992426  1
  O2-  O162  1  0.68050875  0.43093359  0.23572101  1
  O2-  O163  1  0.68019191  0.42550012  0.57018825  1
  O2-  O164  1  0.67491928  0.42767850  0.90367088  1
  O2-  O165  1  0.67528487  0.92506346  0.24451126  1
  O2-  O166  1  0.67904585  0.93255335  0.57805527  1
  O2-  O167  1  0.67917217  0.93293711  0.90867653  1
  O2-  O168  1  0.42839992  0.31778121  0.08926193  1
  O2-  O169  1  0.42802945  0.31977909  0.42800377  1
  O2-  O170  1  0.42442144  0.31663194  0.76704420  1
  O2-  O171  1  0.43000144  0.82720111  0.09191540  1
  O2-  O172  1  0.43069855  0.82170975  0.42367915  1
  O2-  O173  1  0.43397666  0.82219570  0.76685358  1
  O2-  O174  1  0.92582765  0.31822386  0.08869640  1
  O2-  O175  1  0.92959057  0.31766228  0.42409582  1
  O2-  O176  1  0.93320852  0.31546718  0.75738392  1
  O2-  O177  1  0.93112332  0.82466865  0.09696609  1
  O2-  O178  1  0.93154421  0.82271934  0.43187137  1
  O2-  O179  1  0.93095614  0.82883938  0.75369453  1
  O2-  O180  1  0.31910963  0.07091273  0.23653170  1
  O2-  O181  1  0.31790784  0.07034497  0.56917729  1
  O2-  O182  1  0.32232130  0.07040664  0.90217756  1
  O2-  O183  1  0.31970103  0.56896921  0.23254518  1
  O2-  O184  1  0.31901960  0.57290233  0.57575250  1
  O2-  O185  1  0.32231548  0.57166666  0.90641907  1
  O2-  O186  1  0.82229088  0.06850274  0.23082807  1
  O2-  O187  1  0.82575219  0.07338039  0.57906594  1
  O2-  O188  1  0.82075095  0.06878772  0.90607819  1
  O2-  O189  1  0.81766213  0.57328000  0.23594409  1
  O2-  O190  1  0.82423276  0.56691727  0.56909562  1
  O2-  O191  1  0.81767426  0.57338665  0.90267219  1
  O2-  O192  1  0.04009975  0.08807265  0.27371828  1
  O2-  O193  1  0.04620399  0.08496852  0.60519355  1
  O2-  O194  1  0.04015158  0.08787463  0.92637850  1
  O2-  O195  1  0.04976907  0.57502716  0.26583160  1
  O2-  O196  1  0.04140761  0.57945488  0.59955701  1
  O2-  O197  1  0.04989891  0.57987699  0.93981204  1
  O2-  O198  1  0.54749992  0.07821071  0.26498873  1
  O2-  O199  1  0.54994165  0.08504612  0.60654040  1
  O2-  O200  1  0.54378512  0.08556833  0.93563623  1
  O2-  O201  1  0.53860457  0.58864765  0.27219890  1
  O2-  O202  1  0.54441299  0.58021676  0.59723365  1
  O2-  O203  1  0.53747821  0.58250873  0.93217285  1
  O2-  O204  1  0.16136524  0.20667508  0.27254798  1
  O2-  O205  1  0.16112652  0.20982053  0.60124265  1
  O2-  O206  1  0.16810530  0.21455295  0.93195872  1
  O2-  O207  1  0.17102552  0.70618363  0.26276508  1
  O2-  O208  1  0.16490956  0.70820935  0.59976274  1
  O2-  O209  1  0.16699232  0.70244020  0.93442356  1
  O2-  O210  1  0.67116948  0.20620487  0.26488167  1
  O2-  O211  1  0.67104670  0.20052819  0.60882650  1
  O2-  O212  1  0.66637604  0.20101692  0.93603617  1
  O2-  O213  1  0.66143978  0.70787965  0.27174620  1
  O2-  O214  1  0.66920957  0.71258303  0.59806821  1
  O2-  O215  1  0.66051631  0.71504547  0.93108502  1
  O2-  O216  1  0.08175024  0.45152488  0.06757252  1
  O2-  O217  1  0.08169060  0.44658444  0.39570319  1
  O2-  O218  1  0.08807158  0.45434907  0.72892090  1
  O2-  O219  1  0.08383103  0.96155993  0.05992539  1
  O2-  O220  1  0.08398508  0.96187942  0.40506186  1
  O2-  O221  1  0.08486170  0.95614319  0.73442964  1
  O2-  O222  1  0.57701095  0.45597961  0.06847930  1
  O2-  O223  1  0.57884628  0.45583134  0.39912609  1
  O2-  O224  1  0.57542081  0.45444153  0.73323789  1
  O2-  O225  1  0.59003927  0.95860033  0.06386815  1
  O2-  O226  1  0.58406254  0.95250687  0.39827945  1
  O2-  O227  1  0.59113656  0.96098515  0.73405814  1
  O2-  O228  1  0.21444742  0.33642158  0.06809040  1
  O2-  O229  1  0.20449060  0.33409906  0.39842176  1
  O2-  O230  1  0.20899169  0.33650305  0.72764395  1
  O2-  O231  1  0.19461655  0.83286778  0.06032877  1
  O2-  O232  1  0.20281846  0.82878206  0.39894371  1
  O2-  O233  1  0.19949290  0.83194997  0.73243628  1
  O2-  O234  1  0.70397104  0.32727742  0.06754862  1
  O2-  O235  1  0.70837995  0.33149747  0.40139648  1
  O2-  O236  1  0.70856534  0.33190274  0.73750462  1
  O2-  O237  1  0.70726013  0.83872289  0.06032428  1
  O2-  O238  1  0.70307502  0.83444621  0.39889160  1
  O2-  O239  1  0.70797972  0.83946044  0.73135315  1
  O2-  O240  1  0.45558605  0.42055481  0.26176215  1
  O2-  O241  1  0.45234544  0.41714286  0.59935644  1
  O2-  O242  1  0.45425828  0.41092301  0.93675394  1
  O2-  O243  1  0.45603073  0.91355719  0.27121045  1
  O2-  O244  1  0.46473619  0.91944991  0.59990187  1
  O2-  O245  1  0.46073071  0.91690943  0.93943071  1
  O2-  O246  1  0.95436952  0.41121101  0.26976013  1
  O2-  O247  1  0.96084112  0.40791632  0.60403545  1
  O2-  O248  1  0.95023280  0.41861574  0.94037023  1
  O2-  O249  1  0.96087728  0.91948430  0.26698192  1
  O2-  O250  1  0.95832117  0.91798746  0.60213477  1
  O2-  O251  1  0.96183455  0.91425778  0.92571109  1
  O2-  O252  1  0.32830155  0.29299561  0.26286122  1
  O2-  O253  1  0.33354892  0.28536974  0.59768217  1
  O2-  O254  1  0.33935796  0.28715208  0.93704540  1
  O2-  O255  1  0.33733052  0.79332185  0.27124057  1
  O2-  O256  1  0.32814999  0.80293944  0.60355823  1
  O2-  O257  1  0.33045473  0.80968992  0.94180580  1
  O2-  O258  1  0.83751127  0.28947171  0.27133469  1
  O2-  O259  1  0.83740919  0.29027274  0.60648046  1
  O2-  O260  1  0.83447086  0.29359530  0.93506342  1
  O2-  O261  1  0.82815855  0.79758850  0.26635801  1
  O2-  O262  1  0.83273392  0.80798072  0.60414062  1
  O2-  O263  1  0.83275716  0.79303415  0.92940167  1
  O2-  O264  1  0.41922924  0.04290006  0.06985443  1
  O2-  O265  1  0.42279683  0.04661515  0.40056028  1
  O2-  O266  1  0.41905892  0.04194685  0.73482558  1
  O2-  O267  1  0.41226779  0.54309517  0.06001024  1
  O2-  O268  1  0.41365572  0.53744467  0.40254868  1
  O2-  O269  1  0.41171768  0.54452675  0.72747693  1
  O2-  O270  1  0.91601471  0.04142571  0.05539720  1
  O2-  O271  1  0.91487700  0.03978365  0.40318332  1
  O2-  O272  1  0.91687469  0.04378736  0.73122663  1
  O2-  O273  1  0.91864728  0.55020988  0.06882301  1
  O2-  O274  1  0.92054418  0.54114300  0.39872724  1
  O2-  O275  1  0.91832030  0.53594140  0.73620751  1
  O2-  O276  1  0.28688019  0.16466956  0.06928256  1
  O2-  O277  1  0.28941061  0.16922802  0.40159510  1
  O2-  O278  1  0.28479648  0.16530991  0.73533846  1
  O2-  O279  1  0.30295754  0.67078193  0.05585126  1
  O2-  O280  1  0.29254868  0.66660134  0.40158369  1
  O2-  O281  1  0.29160581  0.66432244  0.72841733  1
  O2-  O282  1  0.79817890  0.16238394  0.05813537  1
  O2-  O283  1  0.79077522  0.16477914  0.40200029  1
  O2-  O284  1  0.79797489  0.16271287  0.73409818  1
  O2-  O285  1  0.78689254  0.67283523  0.06639967  1
  O2-  O286  1  0.79573807  0.67224702  0.40136185  1
  O2-  O287  1  0.80275502  0.67563436  0.72864837  1
