# generated using pymatgen
data_Ca2Al2SiO7
_symmetry_space_group_name_H-M   'P 1'
_cell_length_a   15.46452954
_cell_length_b   15.46556957
_cell_length_c   15.28835154
_cell_angle_alpha   89.99301539
_cell_angle_beta   89.99983154
_cell_angle_gamma   90.00557851
_symmetry_Int_Tables_number   1
_chemical_formula_structural   Ca2Al2SiO7
_chemical_formula_sum   'Ca48 Al48 Si24 O168'
_cell_volume   3656.48070771
_cell_formula_units_Z   24
loop_
 _symmetry_equiv_pos_site_id
 _symmetry_equiv_pos_as_xyz
  1  'x, y, z'
loop_
 _atom_type_symbol
 _atom_type_oxidation_number
  Ca2+  2.0
  Al0+  0.0
  Si0+  0.0
  O2-  -2.0
loop_
 _atom_site_type_symbol
 _atom_site_label
 _atom_site_symmetry_multiplicity
 _atom_site_fract_x
 _atom_site_fract_y
 _atom_site_fract_z
 _atom_site_occupancy
  Ca2+  Ca0  1  0.16791888  0.08037117  0.16779514  1
  Ca2+  Ca1  1  0.16359928  0.07873973  0.50391996  1
  Ca2+  Ca2  1  0.17170723  0.07124976  0.83933808  1
  Ca2+  Ca3  1  0.17636565  0.58481993  0.17387116  1
  Ca2+  Ca4  1  0.18006533  0.57789181  0.50136033  1
  Ca2+  Ca5  1  0.17999547  0.58836541  0.84076325  1
  Ca2+  Ca6  1  0.66417016  0.08268905  0.17435819  1
  Ca2+  Ca7  1  0.66963479  0.07905431  0.50681443  1
  Ca2+  Ca8  1  0.66893994  0.07900524  0.83388375  1
  Ca2+  Ca9  1  0.66477698  0.58478299  0.16611937  1
  Ca2+  Ca10  1  0.66824498  0.58288590  0.50960683  1
  Ca2+  Ca11  1  0.66573855  0.57681779  0.83857501  1
  Ca2+  Ca12  1  0.08420339  0.33692091  0.16805629  1
  Ca2+  Ca13  1  0.07640941  0.32859542  0.48600749  1
  Ca2+  Ca14  1  0.08106661  0.33186863  0.82805393  1
  Ca2+  Ca15  1  0.07915851  0.82977920  0.16043900  1
  Ca2+  Ca16  1  0.07681561  0.83502023  0.49569281  1
  Ca2+  Ca17  1  0.08923329  0.83161453  0.83304006  1
  Ca2+  Ca18  1  0.57978826  0.33365177  0.16657370  1
  Ca2+  Ca19  1  0.57596716  0.33464337  0.49643596  1
  Ca2+  Ca20  1  0.58040229  0.34124887  0.82637540  1
  Ca2+  Ca21  1  0.57514357  0.81979767  0.16600587  1
  Ca2+  Ca22  1  0.58268641  0.82344918  0.49310915  1
  Ca2+  Ca23  1  0.58634160  0.82061656  0.82704014  1
  Ca2+  Ca24  1  0.33139604  0.42772041  0.17635532  1
  Ca2+  Ca25  1  0.34238174  0.42331914  0.50076025  1
  Ca2+  Ca26  1  0.34060317  0.42720830  0.83435795  1
  Ca2+  Ca27  1  0.33236384  0.91699518  0.17056659  1
  Ca2+  Ca28  1  0.33031037  0.91423424  0.50433050  1
  Ca2+  Ca29  1  0.32291892  0.91858728  0.84168093  1
  Ca2+  Ca30  1  0.83060959  0.42070847  0.16903914  1
  Ca2+  Ca31  1  0.82715295  0.42048939  0.50767679  1
  Ca2+  Ca32  1  0.82063937  0.42787072  0.83789384  1
  Ca2+  Ca33  1  0.83332815  0.91415898  0.17242238  1
  Ca2+  Ca34  1  0.82807545  0.92158723  0.50830078  1
  Ca2+  Ca35  1  0.82706672  0.91815597  0.82905791  1
  Ca2+  Ca36  1  0.41577512  0.17078658  0.16500086  1
  Ca2+  Ca37  1  0.42197774  0.17991540  0.49064037  1
  Ca2+  Ca38  1  0.41286968  0.17434339  0.82790103  1
  Ca2+  Ca39  1  0.42163041  0.65922009  0.16348703  1
  Ca2+  Ca40  1  0.42619268  0.66491746  0.49462203  1
  Ca2+  Ca41  1  0.42546182  0.65756386  0.82833510  1
  Ca2+  Ca42  1  0.92266982  0.17444956  0.16978519  1
  Ca2+  Ca43  1  0.91929129  0.17030488  0.49046077  1
  Ca2+  Ca44  1  0.91571424  0.16529356  0.82759827  1
  Ca2+  Ca45  1  0.92162466  0.66852647  0.15900521  1
  Ca2+  Ca46  1  0.91342503  0.67323520  0.49334004  1
  Ca2+  Ca47  1  0.92172317  0.65627363  0.83145880  1
  Al0+  Al48  1  -0.00084936  0.00083278  0.00187480  1
  Al0+  Al49  1  -0.00109963  0.00146157  0.32554080  1
  Al0+  Al50  1  0.00122643  -0.00129557  0.67473906  1
  Al0+  Al51  1  -0.00220157  0.50051166  -0.00361564  1
  Al0+  Al52  1  -0.00010511  0.50088952  0.33449975  1
  Al0+  Al53  1  0.00229132  0.49840017  0.66635100  1
  Al0+  Al54  1  0.50012445  0.00132011  0.00181017  1
  Al0+  Al55  1  0.49978078  -0.00240176  0.32943095  1
  Al0+  Al56  1  0.49932946  0.00007458  0.67107820  1
  Al0+  Al57  1  0.49965626  0.49824266  0.00429316  1
  Al0+  Al58  1  0.50269042  0.49846332  0.33040070  1
  Al0+  Al59  1  0.50009507  0.50053810  0.66429781  1
  Al0+  Al60  1  0.24969464  0.24868731  -0.00027603  1
  Al0+  Al61  1  0.24923104  0.24803051  0.32942055  1
  Al0+  Al62  1  0.24897582  0.25009580  0.66016222  1
  Al0+  Al63  1  0.24790333  0.75098186  0.00499324  1
  Al0+  Al64  1  0.24969609  0.75126654  0.33812960  1
  Al0+  Al65  1  0.25013775  0.74880390  0.67307666  1
  Al0+  Al66  1  0.74911295  0.24947542  0.00261846  1
  Al0+  Al67  1  0.75213710  0.25010983  0.32693782  1
  Al0+  Al68  1  0.75051015  0.25076162  0.67356268  1
  Al0+  Al69  1  0.74947029  0.75140710  -0.00161346  1
  Al0+  Al70  1  0.74896363  0.75079691  0.32546458  1
  Al0+  Al71  1  0.75392966  0.75140054  0.66978406  1
  Al0+  Al72  1  0.32195622  0.07205135  0.01618049  1
  Al0+  Al73  1  0.67627906  0.92765355  0.68090217  1
  Al0+  Al74  1  0.57083087  0.67752662  0.31797053  1
  Al0+  Al75  1  0.82085175  0.07145709  0.68029277  1
  Al0+  Al76  1  0.67846055  0.43132573  0.67945182  1
  Al0+  Al77  1  0.92881247  0.82116018  0.32124502  1
  Al0+  Al78  1  0.57249889  0.68128816  0.65432487  1
  Al0+  Al79  1  0.42606825  0.82055113  0.32015973  1
  Al0+  Al80  1  0.92912160  0.32416923  0.31797111  1
  Al0+  Al81  1  0.18036789  0.92925832  0.67952569  1
  Al0+  Al82  1  0.31990278  0.56972410  0.01361626  1
  Al0+  Al83  1  0.57136564  0.17837256  0.31990696  1
  Al0+  Al84  1  0.32345275  0.57112710  0.35073671  1
  Al0+  Al85  1  0.82511121  0.57308028  0.67949406  1
  Al0+  Al86  1  0.07044271  0.67949449  0.98625295  1
  Al0+  Al87  1  0.42990933  0.32026812  0.65296394  1
  Al0+  Al88  1  0.17851074  0.92937641  0.01871211  1
  Al0+  Al89  1  0.82120629  0.57239436  0.01663707  1
  Al0+  Al90  1  0.32018395  0.56862586  0.68038493  1
  Al0+  Al91  1  0.17785577  0.42719072  0.34818937  1
  Al0+  Al92  1  0.42877037  0.32121377  0.31612844  1
  Al0+  Al93  1  0.67864884  0.42854406  0.01843658  1
  Al0+  Al94  1  0.07190026  0.17825989  0.31738904  1
  Al0+  Al95  1  0.56864912  0.67882210  0.98403981  1
  Si0+  Si96  1  0.82021915  0.57340083  0.34700346  1
  Si0+  Si97  1  0.07132534  0.67922797  0.31969866  1
  Si0+  Si98  1  0.57243299  0.17733591  0.98291793  1
  Si0+  Si99  1  0.93258944  0.82151819  0.65277513  1
  Si0+  Si100  1  0.57415506  0.17610343  0.65240316  1
  Si0+  Si101  1  0.07001284  0.17956038  0.98209154  1
  Si0+  Si102  1  0.07401228  0.67747244  0.65097182  1
  Si0+  Si103  1  0.68195620  0.42709770  0.34852161  1
  Si0+  Si104  1  0.82034868  0.07144772  0.01790290  1
  Si0+  Si105  1  0.42930132  0.31883637  0.98439003  1
  Si0+  Si106  1  0.17635873  0.93090269  0.34900212  1
  Si0+  Si107  1  0.67896797  0.92939831  0.01702834  1
  Si0+  Si108  1  0.17796738  0.42545255  0.68243253  1
  Si0+  Si109  1  0.17609589  0.42697569  0.01324427  1
  Si0+  Si110  1  0.42766748  0.82343370  0.98312863  1
  Si0+  Si111  1  0.32277357  0.06974595  0.34944022  1
  Si0+  Si112  1  0.92870884  0.32071316  0.65273175  1
  Si0+  Si113  1  0.92708808  0.32040831  0.98192839  1
  Si0+  Si114  1  0.06877340  0.17763422  0.65275218  1
  Si0+  Si115  1  0.92757318  0.82451449  0.97982040  1
  Si0+  Si116  1  0.82043712  0.07033728  0.34618264  1
  Si0+  Si117  1  0.32137938  0.07472164  0.68019737  1
  Si0+  Si118  1  0.67886799  0.92826145  0.34689286  1
  Si0+  Si119  1  0.42601871  0.82283870  0.65365264  1
  O2-  O120  1  0.25264963  -0.00105202  0.06841532  1
  O2-  O121  1  0.24967365  -0.00011215  0.39127054  1
  O2-  O122  1  0.25838866  0.00121373  0.72457285  1
  O2-  O123  1  0.24127634  0.49802460  0.05758569  1
  O2-  O124  1  0.25342177  0.49514587  0.39903715  1
  O2-  O125  1  0.24584774  0.49351300  0.72763301  1
  O2-  O126  1  0.75011746  0.00018501  0.06021165  1
  O2-  O127  1  0.74869554  0.00082281  0.38891716  1
  O2-  O128  1  0.74541610  0.00324558  0.73078700  1
  O2-  O129  1  0.74933557  0.50181556  0.06869102  1
  O2-  O130  1  0.75074239  0.50116973  0.38949982  1
  O2-  O131  1  0.74896680  0.50529038  0.72867633  1
  O2-  O132  1  0.00611875  0.25681820  0.26835022  1
  O2-  O133  1  -0.00168885  0.24850149  0.61036096  1
  O2-  O134  1  -0.00002221  0.25096608  0.93869633  1
  O2-  O135  1  0.00256169  0.74683041  0.27433082  1
  O2-  O136  1  -0.00052662  0.74625393  0.61011568  1
  O2-  O137  1  -0.00505373  0.75361138  0.93723621  1
  O2-  O138  1  0.49961716  0.24792200  0.26603776  1
  O2-  O139  1  0.50429230  0.24343118  0.60871797  1
  O2-  O140  1  0.50107427  0.24815303  0.94161491  1
  O2-  O141  1  0.49183686  0.74330963  0.26985182  1
  O2-  O142  1  0.49959221  0.75941901  0.60972156  1
  O2-  O143  1  0.49313357  0.75302766  0.93697144  1
  O2-  O144  1  0.06901965  0.18007759  0.08664166  1
  O2-  O145  1  0.06511872  0.17240418  0.43145320  1
  O2-  O146  1  0.06910607  0.17924697  0.75812937  1
  O2-  O147  1  0.06852632  0.68094961  0.09943486  1
  O2-  O148  1  0.06935432  0.68140784  0.42578190  1
  O2-  O149  1  0.07468926  0.67868699  0.75597368  1
  O2-  O150  1  0.57360464  0.17644339  0.08765593  1
  O2-  O151  1  0.57172565  0.17827063  0.43383269  1
  O2-  O152  1  0.57290329  0.17579459  0.75817315  1
  O2-  O153  1  0.56794330  0.68073858  0.09677845  1
  O2-  O154  1  0.57628158  0.68170150  0.43171756  1
  O2-  O155  1  0.56970020  0.67996202  0.76745510  1
  O2-  O156  1  0.17647432  0.43315522  0.23432976  1
  O2-  O157  1  0.17561887  0.42584068  0.57747321  1
  O2-  O158  1  0.17855767  0.42454856  0.90729765  1
  O2-  O159  1  0.17448993  0.93220873  0.24442249  1
  O2-  O160  1  0.17710300  0.93200105  0.56612875  1
  O2-  O161  1  0.17875600  0.93241223  0.90473330  1
  O2-  O162  1  0.68391469  0.42533124  0.24374690  1
  O2-  O163  1  0.68129758  0.42939570  0.56555162  1
  O2-  O164  1  0.67911986  0.42774360  0.90482047  1
  O2-  O165  1  0.68121952  0.92909421  0.24163362  1
  O2-  O166  1  0.67965166  0.92815403  0.56690579  1
  O2-  O167  1  0.67992906  0.93153586  0.91192785  1
  O2-  O168  1  0.42851334  0.31705035  0.08888838  1
  O2-  O169  1  0.43289498  0.32017096  0.43001687  1
  O2-  O170  1  0.42842485  0.31826642  0.76655022  1
  O2-  O171  1  0.43145634  0.82471478  0.08848240  1
  O2-  O172  1  0.43001353  0.82381877  0.43415711  1
  O2-  O173  1  0.42359498  0.82134741  0.75908859  1
  O2-  O174  1  0.92797162  0.31894531  0.08672529  1
  O2-  O175  1  0.92593822  0.31933825  0.43207656  1
  O2-  O176  1  0.93181462  0.31995749  0.75798940  1
  O2-  O177  1  0.92870962  0.82644070  0.08565022  1
  O2-  O178  1  0.92889856  0.82206750  0.43486718  1
  O2-  O179  1  0.93496640  0.82558795  0.75740088  1
  O2-  O180  1  0.32375120  0.06762066  0.24467541  1
  O2-  O181  1  0.31868329  0.07589630  0.57465651  1
  O2-  O182  1  0.31847920  0.07345696  0.90192433  1
  O2-  O183  1  0.31967123  0.57192872  0.23712484  1
  O2-  O184  1  0.31995896  0.56955616  0.56784164  1
  O2-  O185  1  0.32115405  0.56671908  0.90016577  1
  O2-  O186  1  0.82002320  0.06840976  0.24091155  1
  O2-  O187  1  0.82347115  0.06955785  0.56644326  1
  O2-  O188  1  0.81970252  0.07207810  0.91272500  1
  O2-  O189  1  0.82006356  0.57412475  0.24228165  1
  O2-  O190  1  0.82591779  0.57094787  0.56527421  1
  O2-  O191  1  0.82188070  0.56811657  0.90332254  1
  O2-  O192  1  0.03478233  0.08520140  0.25920629  1
  O2-  O193  1  0.03997979  0.08525281  0.60734382  1
  O2-  O194  1  0.03912668  0.08792492  0.93548380  1
  O2-  O195  1  0.04686809  0.58617858  0.27354221  1
  O2-  O196  1  0.04999531  0.58416528  0.60457423  1
  O2-  O197  1  0.04196360  0.58236729  0.93014078  1
  O2-  O198  1  0.54495269  0.07978417  0.26667502  1
  O2-  O199  1  0.55129613  0.08102579  0.60736226  1
  O2-  O200  1  0.54513491  0.08533915  0.93501336  1
  O2-  O201  1  0.55046734  0.57793101  0.26593994  1
  O2-  O202  1  0.53935427  0.58625057  0.59943602  1
  O2-  O203  1  0.53715305  0.58033539  0.93368176  1
  O2-  O204  1  0.17151444  0.19696173  0.26440395  1
  O2-  O205  1  0.15995925  0.20326576  0.60328529  1
  O2-  O206  1  0.16213469  0.20636251  0.93413591  1
  O2-  O207  1  0.16451736  0.70638794  0.27511860  1
  O2-  O208  1  0.16428539  0.70981871  0.60354518  1
  O2-  O209  1  0.16736205  0.71207815  0.93241428  1
  O2-  O210  1  0.66912706  0.20547735  0.26513187  1
  O2-  O211  1  0.66877368  0.20155638  0.60823623  1
  O2-  O212  1  0.66522278  0.20430406  0.93653123  1
  O2-  O213  1  0.66492426  0.71358767  0.26099573  1
  O2-  O214  1  0.67152883  0.70946229  0.60283992  1
  O2-  O215  1  0.66600429  0.71179503  0.93211528  1
  O2-  O216  1  0.08069643  0.44820706  0.05610192  1
  O2-  O217  1  0.07946555  0.45750321  0.40259794  1
  O2-  O218  1  0.08464916  0.44976992  0.72961804  1
  O2-  O219  1  0.07981608  0.96139308  0.06930911  1
  O2-  O220  1  0.08460107  0.96292566  0.39522423  1
  O2-  O221  1  0.08759531  0.96313821  0.73834101  1
  O2-  O222  1  0.58043630  0.45516453  0.07102949  1
  O2-  O223  1  0.58910679  0.45207745  0.39424192  1
  O2-  O224  1  0.58095022  0.45956103  0.73322329  1
  O2-  O225  1  0.58768346  0.95845480  0.06378852  1
  O2-  O226  1  0.58694963  0.95427711  0.39427136  1
  O2-  O227  1  0.57742921  0.95099086  0.73610517  1
  O2-  O228  1  0.20302953  0.33405457  0.05933606  1
  O2-  O229  1  0.19802377  0.32442244  0.39637457  1
  O2-  O230  1  0.20210239  0.33071909  0.72750802  1
  O2-  O231  1  0.20246975  0.83088764  0.07176655  1
  O2-  O232  1  0.19991719  0.83894500  0.39819635  1
  O2-  O233  1  0.20802805  0.83334962  0.73570294  1
  O2-  O234  1  0.70863362  0.32952860  0.06975235  1
  O2-  O235  1  0.71322446  0.33584738  0.39544953  1
  O2-  O236  1  0.70570386  0.33364751  0.73473419  1
  O2-  O237  1  0.70728132  0.83820815  0.06426154  1
  O2-  O238  1  0.71048922  0.83730580  0.39346811  1
  O2-  O239  1  0.71248818  0.83348117  0.73701778  1
  O2-  O240  1  0.45923272  0.41808667  0.26302348  1
  O2-  O241  1  0.46337573  0.41487149  0.59767632  1
  O2-  O242  1  0.45866552  0.41037409  0.93772369  1
  O2-  O243  1  0.45933036  0.91553407  0.26366942  1
  O2-  O244  1  0.44438313  0.91964539  0.61009775  1
  O2-  O245  1  0.45494187  0.91739235  0.93728990  1
  O2-  O246  1  0.95321370  0.42381212  0.26577370  1
  O2-  O247  1  0.95751769  0.41164308  0.60400686  1
  O2-  O248  1  0.95291714  0.41199207  0.93359049  1
  O2-  O249  1  0.95858941  0.91575627  0.26382798  1
  O2-  O250  1  0.96561693  0.91222844  0.60513264  1
  O2-  O251  1  0.95566229  0.91822060  0.93433114  1
  O2-  O252  1  0.32981444  0.29486478  0.26496963  1
  O2-  O253  1  0.33320928  0.29096800  0.59732195  1
  O2-  O254  1  0.33742805  0.29067327  0.93596901  1
  O2-  O255  1  0.32432238  0.80163896  0.27062419  1
  O2-  O256  1  0.33350927  0.79330257  0.60684341  1
  O2-  O257  1  0.33147131  0.80158355  0.94177834  1
  O2-  O258  1  0.83553671  0.28846718  0.26066600  1
  O2-  O259  1  0.83591327  0.29392393  0.60711943  1
  O2-  O260  1  0.83620723  0.28747107  0.93568493  1
  O2-  O261  1  0.83431444  0.79190662  0.26341870  1
  O2-  O262  1  0.83975903  0.79915582  0.60494925  1
  O2-  O263  1  0.83276910  0.80230170  0.93546352  1
  O2-  O264  1  0.42202921  0.04817163  0.06763751  1
  O2-  O265  1  0.41392198  0.03994105  0.39741986  1
  O2-  O266  1  0.41654834  0.05747937  0.72597106  1
  O2-  O267  1  0.41356781  0.53469162  0.06874682  1
  O2-  O268  1  0.42395657  0.54252982  0.40021450  1
  O2-  O269  1  0.41569736  0.53535003  0.73384972  1
  O2-  O270  1  0.91238158  0.04438320  0.06434815  1
  O2-  O271  1  0.91203342  0.04066383  0.39276776  1
  O2-  O272  1  0.91614195  0.03855180  0.73745880  1
  O2-  O273  1  0.92025353  0.54191250  0.06788390  1
  O2-  O274  1  0.91282218  0.54961159  0.39455263  1
  O2-  O275  1  0.92228963  0.53961838  0.73286786  1
  O2-  O276  1  0.28971029  0.16950569  0.06870271  1
  O2-  O277  1  0.29611562  0.16222761  0.39556959  1
  O2-  O278  1  0.28907906  0.16589592  0.72772397  1
  O2-  O279  1  0.29284920  0.66705047  0.06652897  1
  O2-  O280  1  0.29241649  0.66930442  0.40408491  1
  O2-  O281  1  0.28908839  0.66371408  0.73660740  1
  O2-  O282  1  0.79244886  0.16260129  0.06550451  1
  O2-  O283  1  0.79442686  0.16297861  0.39267093  1
  O2-  O284  1  0.79724029  0.16928716  0.73661575  1
  O2-  O285  1  0.79643236  0.67345709  0.06563893  1
  O2-  O286  1  0.79025891  0.66559844  0.39323830  1
  O2-  O287  1  0.80739958  0.67338312  0.73103231  1
