# generated using pymatgen
data_Ca2Al2SiO7
_symmetry_space_group_name_H-M   'P 1'
_cell_length_a   15.45486446
_cell_length_b   15.45592800
_cell_length_c   15.28137457
_cell_angle_alpha   90.01245668
_cell_angle_beta   89.99912293
_cell_angle_gamma   90.00550963
_symmetry_Int_Tables_number   1
_chemical_formula_structural   Ca2Al2SiO7
_chemical_formula_sum   'Ca48 Al48 Si24 O168'
_cell_volume   3650.25071882
_cell_formula_units_Z   24
loop_
 _symmetry_equiv_pos_site_id
 _symmetry_equiv_pos_as_xyz
  1  'x, y, z'
loop_
 _atom_type_symbol
 _atom_type_oxidation_number
  Ca2+  2.0
  Al0+  0.0
  Si0+  0.0
  O2-  -2.0
loop_
 _atom_site_type_symbol
 _atom_site_label
 _atom_site_symmetry_multiplicity
 _atom_site_fract_x
 _atom_site_fract_y
 _atom_site_fract_z
 _atom_site_occupancy
  Ca2+  Ca0  1  0.16289167  0.06903321  0.17005048  1
  Ca2+  Ca1  1  0.16769927  0.07234167  0.50316559  1
  Ca2+  Ca2  1  0.16883213  0.07404169  0.83926376  1
  Ca2+  Ca3  1  0.16740679  0.57561534  0.17499663  1
  Ca2+  Ca4  1  0.17772960  0.58287915  0.49577281  1
  Ca2+  Ca5  1  0.17528996  0.57783854  0.83782313  1
  Ca2+  Ca6  1  0.66813761  0.08219899  0.16822999  1
  Ca2+  Ca7  1  0.66157965  0.07965372  0.50025581  1
  Ca2+  Ca8  1  0.66820320  0.08959491  0.84058529  1
  Ca2+  Ca9  1  0.68195096  0.58122028  0.17532785  1
  Ca2+  Ca10  1  0.66138798  0.57163622  0.50381366  1
  Ca2+  Ca11  1  0.66523295  0.57736125  0.83523049  1
  Ca2+  Ca12  1  0.07482232  0.34391276  0.16256715  1
  Ca2+  Ca13  1  0.07769096  0.33757976  0.48775246  1
  Ca2+  Ca14  1  0.07755272  0.34178304  0.83549164  1
  Ca2+  Ca15  1  0.08537079  0.82646611  0.16189590  1
  Ca2+  Ca16  1  0.08685697  0.82916288  0.49161897  1
  Ca2+  Ca17  1  0.07863320  0.84237073  0.83281945  1
  Ca2+  Ca18  1  0.58145114  0.33397963  0.16569557  1
  Ca2+  Ca19  1  0.57792671  0.33776276  0.49686782  1
  Ca2+  Ca20  1  0.58467435  0.32396775  0.82337048  1
  Ca2+  Ca21  1  0.57195696  0.83944190  0.16298680  1
  Ca2+  Ca22  1  0.57912020  0.82559794  0.49043241  1
  Ca2+  Ca23  1  0.57610728  0.82594047  0.82868539  1
  Ca2+  Ca24  1  0.32311611  0.41953072  0.17802534  1
  Ca2+  Ca25  1  0.34222558  0.42469125  0.50357305  1
  Ca2+  Ca26  1  0.33562950  0.42013705  0.83492624  1
  Ca2+  Ca27  1  0.32804980  0.91077940  0.17329167  1
  Ca2+  Ca28  1  0.32282840  0.90635233  0.50020193  1
  Ca2+  Ca29  1  0.32316272  0.91097682  0.83966165  1
  Ca2+  Ca30  1  0.83491788  0.42315257  0.17484037  1
  Ca2+  Ca31  1  0.82515892  0.41793679  0.49693516  1
  Ca2+  Ca32  1  0.82828166  0.42111357  0.84180346  1
  Ca2+  Ca33  1  0.83179135  0.92171122  0.16968564  1
  Ca2+  Ca34  1  0.82465469  0.91482145  0.50028099  1
  Ca2+  Ca35  1  0.83166431  0.92404911  0.84510992  1
  Ca2+  Ca36  1  0.42284987  0.17187864  0.16245553  1
  Ca2+  Ca37  1  0.41765161  0.18059222  0.49532748  1
  Ca2+  Ca38  1  0.42832146  0.17283155  0.82650177  1
  Ca2+  Ca39  1  0.40992304  0.67589248  0.16735851  1
  Ca2+  Ca40  1  0.41748576  0.66372207  0.49425355  1
  Ca2+  Ca41  1  0.41824458  0.66779821  0.82812225  1
  Ca2+  Ca42  1  0.91213960  0.17902303  0.16098084  1
  Ca2+  Ca43  1  0.91961341  0.17447854  0.49362804  1
  Ca2+  Ca44  1  0.91355239  0.17154969  0.83489395  1
  Ca2+  Ca45  1  0.92057027  0.66391142  0.16137189  1
  Ca2+  Ca46  1  0.92668770  0.66186572  0.49001130  1
  Ca2+  Ca47  1  0.91357643  0.67092625  0.83539408  1
  Al0+  Al48  1  -0.00071018  0.00026616  0.00565640  1
  Al0+  Al49  1  -0.00011785  0.00031475  0.33854166  1
  Al0+  Al50  1  -0.00185695  0.00071503  0.66881192  1
  Al0+  Al51  1  0.00044279  0.50065641  -0.00114033  1
  Al0+  Al52  1  0.00138173  0.50073560  0.33275824  1
  Al0+  Al53  1  -0.00011878  0.50252795  0.66586470  1
  Al0+  Al54  1  0.49835211  0.00020047  -0.01109243  1
  Al0+  Al55  1  0.50038436  -0.00008960  0.33424610  1
  Al0+  Al56  1  0.49818268  -0.00025155  0.66352907  1
  Al0+  Al57  1  0.49957793  0.50108155  0.00202186  1
  Al0+  Al58  1  0.50186527  0.49999910  0.33101483  1
  Al0+  Al59  1  0.50129252  0.50101983  0.67132280  1
  Al0+  Al60  1  0.24972075  0.24889854  0.00322845  1
  Al0+  Al61  1  0.24956583  0.24694677  0.33082524  1
  Al0+  Al62  1  0.24810127  0.24823854  0.66398944  1
  Al0+  Al63  1  0.24975765  0.74890157  -0.00209816  1
  Al0+  Al64  1  0.24893607  0.74841028  0.33194195  1
  Al0+  Al65  1  0.24685376  0.74795793  0.67722771  1
  Al0+  Al66  1  0.75045746  0.24993592  -0.00358653  1
  Al0+  Al67  1  0.75179865  0.25018855  0.33329136  1
  Al0+  Al68  1  0.75092201  0.24936038  0.66512923  1
  Al0+  Al69  1  0.75013828  0.74957434  -0.00039208  1
  Al0+  Al70  1  0.75208214  0.75199928  0.34106549  1
  Al0+  Al71  1  0.74971386  0.75122773  0.66294342  1
  Al0+  Al72  1  0.93092843  0.32194474  0.98511612  1
  Al0+  Al73  1  0.32108612  0.57004436  0.34649787  1
  Al0+  Al74  1  0.57386918  0.17707561  0.64841787  1
  Al0+  Al75  1  0.42904304  0.32101228  0.65264577  1
  Al0+  Al76  1  0.42779061  0.81964530  0.98445177  1
  Al0+  Al77  1  0.57084815  0.68038124  0.65260991  1
  Al0+  Al78  1  0.17997405  0.92916229  0.01555552  1
  Al0+  Al79  1  0.67742015  0.92998432  0.34601093  1
  Al0+  Al80  1  0.92905724  0.82192394  0.98810672  1
  Al0+  Al81  1  0.17944844  0.92989726  0.68216063  1
  Al0+  Al82  1  0.93113569  0.31941446  0.31971576  1
  Al0+  Al83  1  0.42859318  0.32308305  0.31781205  1
  Al0+  Al84  1  0.18066362  0.42864422  0.01283204  1
  Al0+  Al85  1  0.68142223  0.42948799  0.68168013  1
  Al0+  Al86  1  0.81977688  0.07216189  0.01398333  1
  Al0+  Al87  1  0.06975784  0.68109891  0.31942892  1
  Al0+  Al88  1  0.32091261  0.56851649  0.68184027  1
  Al0+  Al89  1  0.82365739  0.57243600  0.34934869  1
  Al0+  Al90  1  0.43042820  0.81931650  0.32135165  1
  Al0+  Al91  1  0.18012819  0.92885010  0.34663056  1
  Al0+  Al92  1  0.81952184  0.57161930  0.01236481  1
  Al0+  Al93  1  0.57006334  0.18141173  0.98673242  1
  Al0+  Al94  1  0.17910277  0.42640089  0.34789404  1
  Al0+  Al95  1  0.67971790  0.42857680  0.34741630  1
  Si0+  Si96  1  0.32177600  0.07422564  0.68403126  1
  Si0+  Si97  1  0.82152292  0.07223721  0.35144614  1
  Si0+  Si98  1  0.81932212  0.06915443  0.68216065  1
  Si0+  Si99  1  0.57320555  0.67740458  0.98437323  1
  Si0+  Si100  1  0.07262735  0.17421653  0.31596521  1
  Si0+  Si101  1  0.07128862  0.67818439  0.98033754  1
  Si0+  Si102  1  0.42569302  0.32341562  0.98439476  1
  Si0+  Si103  1  0.32395605  0.07184422  0.35034505  1
  Si0+  Si104  1  0.67616111  0.92808706  0.01340798  1
  Si0+  Si105  1  0.67787166  0.42704164  0.01584180  1
  Si0+  Si106  1  0.93060684  0.32215858  0.65169355  1
  Si0+  Si107  1  0.32415032  0.07118598  0.01615774  1
  Si0+  Si108  1  0.07039221  0.68004018  0.65231377  1
  Si0+  Si109  1  0.92954959  0.82353590  0.65113303  1
  Si0+  Si110  1  0.67724816  0.92733501  0.68216779  1
  Si0+  Si111  1  0.57555592  0.67771424  0.31619844  1
  Si0+  Si112  1  0.17495186  0.42563682  0.68224422  1
  Si0+  Si113  1  0.92640582  0.82464480  0.31768304  1
  Si0+  Si114  1  0.57176215  0.17818642  0.31606964  1
  Si0+  Si115  1  0.07250149  0.17676258  0.98392671  1
  Si0+  Si116  1  0.32350404  0.57194081  0.01793715  1
  Si0+  Si117  1  0.42453272  0.81978703  0.65076675  1
  Si0+  Si118  1  0.82437987  0.57356599  0.68424904  1
  Si0+  Si119  1  0.06911957  0.17671905  0.65239317  1
  O2-  O120  1  0.25627601  0.00240623  0.06166862  1
  O2-  O121  1  0.25466079  0.00311962  0.39437549  1
  O2-  O122  1  0.25633317  0.00236534  0.72866839  1
  O2-  O123  1  0.25820501  0.49956714  0.05974870  1
  O2-  O124  1  0.25629429  0.49205260  0.39849333  1
  O2-  O125  1  0.24830695  0.48955958  0.72572925  1
  O2-  O126  1  0.74485171  -0.00354419  0.05828508  1
  O2-  O127  1  0.75302509  0.00311503  0.39509340  1
  O2-  O128  1  0.74436819  0.00201883  0.72442266  1
  O2-  O129  1  0.74493685  0.49731421  0.05902969  1
  O2-  O130  1  0.74799658  0.50401189  0.39855757  1
  O2-  O131  1  0.75611846  0.50473689  0.72831035  1
  O2-  O132  1  0.00791120  0.24663816  0.27252225  1
  O2-  O133  1  0.00536800  0.25434729  0.61047609  1
  O2-  O134  1  0.00691681  0.24793316  0.93781292  1
  O2-  O135  1  -0.00696501  0.75459824  0.27365424  1
  O2-  O136  1  -0.00136265  0.75062947  0.61011206  1
  O2-  O137  1  0.00393506  0.74932384  0.93700021  1
  O2-  O138  1  0.50449638  0.24836790  0.27212110  1
  O2-  O139  1  0.50096269  0.24923653  0.60093034  1
  O2-  O140  1  0.49681295  0.25761059  0.94012050  1
  O2-  O141  1  0.50700357  0.74712265  0.27250872  1
  O2-  O142  1  0.49589331  0.75497150  0.60570942  1
  O2-  O143  1  0.50255557  0.74419728  0.93965038  1
  O2-  O144  1  0.07061231  0.17558165  0.08910267  1
  O2-  O145  1  0.06888929  0.17116467  0.42217937  1
  O2-  O146  1  0.06565252  0.17283440  0.75729627  1
  O2-  O147  1  0.07117327  0.67815105  0.08577473  1
  O2-  O148  1  0.07128202  0.68398227  0.43328913  1
  O2-  O149  1  0.06860813  0.67866726  0.75731030  1
  O2-  O150  1  0.56866166  0.18031263  0.09981240  1
  O2-  O151  1  0.57012434  0.17707125  0.42147440  1
  O2-  O152  1  0.57441523  0.17926153  0.76224715  1
  O2-  O153  1  0.57460380  0.67825141  0.08951596  1
  O2-  O154  1  0.57388158  0.67900019  0.42211473  1
  O2-  O155  1  0.57158549  0.68319987  0.76611229  1
  O2-  O156  1  0.17818867  0.43056087  0.23431148  1
  O2-  O157  1  0.16966102  0.42800458  0.57740648  1
  O2-  O158  1  0.18139041  0.43156558  0.89898430  1
  O2-  O159  1  0.18046338  0.92927084  0.23373264  1
  O2-  O160  1  0.17902505  0.93007488  0.56906509  1
  O2-  O161  1  0.17979213  0.93243952  0.90212143  1
  O2-  O162  1  0.68209256  0.42794806  0.23354557  1
  O2-  O163  1  0.68304435  0.42961482  0.56906623  1
  O2-  O164  1  0.67878447  0.42764931  0.90990380  1
  O2-  O165  1  0.67635222  0.93332275  0.23281246  1
  O2-  O166  1  0.68090354  0.92617939  0.57717362  1
  O2-  O167  1  0.67830843  0.92819310  0.90734405  1
  O2-  O168  1  0.42593161  0.32187491  0.08980765  1
  O2-  O169  1  0.42922861  0.32176771  0.43074323  1
  O2-  O170  1  0.42944370  0.31840635  0.76675732  1
  O2-  O171  1  0.42837838  0.82045083  0.09759291  1
  O2-  O172  1  0.43030654  0.81758614  0.43463089  1
  O2-  O173  1  0.42628821  0.81790656  0.75659708  1
  O2-  O174  1  0.93059290  0.32162811  0.09768444  1
  O2-  O175  1  0.93095700  0.31593424  0.43364599  1
  O2-  O176  1  0.93065887  0.32158376  0.75694086  1
  O2-  O177  1  0.92925378  0.82096954  0.10062314  1
  O2-  O178  1  0.92904822  0.82644765  0.42390024  1
  O2-  O179  1  0.92953297  0.82574630  0.75636502  1
  O2-  O180  1  0.32507981  0.07042413  0.24466769  1
  O2-  O181  1  0.31836132  0.07643379  0.57866390  1
  O2-  O182  1  0.32198167  0.07134327  0.91039177  1
  O2-  O183  1  0.31703821  0.57181324  0.23293109  1
  O2-  O184  1  0.31869305  0.57219997  0.56937120  1
  O2-  O185  1  0.32383698  0.57152192  0.91194977  1
  O2-  O186  1  0.82162577  0.07243836  0.24599411  1
  O2-  O187  1  0.82315084  0.06617971  0.57722589  1
  O2-  O188  1  0.81882689  0.07106091  0.90019452  1
  O2-  O189  1  0.82308208  0.57117880  0.23545410  1
  O2-  O190  1  0.82825646  0.57190365  0.57925710  1
  O2-  O191  1  0.81733666  0.57082538  0.89875473  1
  O2-  O192  1  0.04151672  0.08196477  0.26951858  1
  O2-  O193  1  0.03333340  0.08836150  0.60209016  1
  O2-  O194  1  0.04264708  0.08459948  0.93703191  1
  O2-  O195  1  0.03977167  0.58495028  0.26486081  1
  O2-  O196  1  0.04316626  0.58859367  0.60333223  1
  O2-  O197  1  0.04261667  0.58654215  0.93208366  1
  O2-  O198  1  0.54432503  0.08533626  0.26931272  1
  O2-  O199  1  0.54668806  0.07688294  0.59768919  1
  O2-  O200  1  0.54055231  0.08617541  0.92830354  1
  O2-  O201  1  0.55273200  0.58456254  0.26904503  1
  O2-  O202  1  0.54019499  0.58345903  0.60118416  1
  O2-  O203  1  0.54781453  0.58292660  0.93813576  1
  O2-  O204  1  0.16802533  0.19079125  0.27096039  1
  O2-  O205  1  0.16283661  0.19557078  0.60543036  1
  O2-  O206  1  0.16780424  0.19882373  0.93855610  1
  O2-  O207  1  0.16394650  0.71412275  0.26280611  1
  O2-  O208  1  0.16220135  0.71023194  0.60714489  1
  O2-  O209  1  0.16532931  0.70231424  0.93450272  1
  O2-  O210  1  0.66655815  0.20193256  0.27186414  1
  O2-  O211  1  0.67367066  0.20306275  0.59693990  1
  O2-  O212  1  0.66607888  0.21102212  0.93065743  1
  O2-  O213  1  0.67039807  0.70545627  0.27380665  1
  O2-  O214  1  0.66735462  0.71086405  0.59750277  1
  O2-  O215  1  0.66514173  0.70423355  0.93540433  1
  O2-  O216  1  0.08478517  0.46310081  0.06488714  1
  O2-  O217  1  0.08344234  0.46082534  0.40159642  1
  O2-  O218  1  0.08351707  0.45835610  0.73065099  1
  O2-  O219  1  0.08451973  0.96081943  0.07027451  1
  O2-  O220  1  0.08373071  0.95919987  0.40251253  1
  O2-  O221  1  0.08273317  0.96492253  0.73459012  1
  O2-  O222  1  0.58286502  0.45004812  0.06059399  1
  O2-  O223  1  0.58083662  0.45537559  0.39966032  1
  O2-  O224  1  0.58633117  0.46074416  0.73797020  1
  O2-  O225  1  0.58185363  0.95614364  0.05621341  1
  O2-  O226  1  0.58238801  0.96100487  0.40326552  1
  O2-  O227  1  0.58240139  0.94927924  0.72642514  1
  O2-  O228  1  0.20378883  0.33001622  0.06636045  1
  O2-  O229  1  0.19673253  0.32323266  0.39531945  1
  O2-  O230  1  0.19316447  0.32915346  0.72577409  1
  O2-  O231  1  0.20925858  0.83052580  0.06528770  1
  O2-  O232  1  0.21270592  0.83350933  0.40114984  1
  O2-  O233  1  0.20589123  0.83394683  0.73922528  1
  O2-  O234  1  0.70470852  0.33410124  0.06071352  1
  O2-  O235  1  0.71116394  0.33097896  0.40081669  1
  O2-  O236  1  0.71416740  0.33208912  0.73412297  1
  O2-  O237  1  0.70035849  0.83483467  0.05954199  1
  O2-  O238  1  0.70776874  0.83545341  0.40463726  1
  O2-  O239  1  0.70923066  0.83705483  0.73049429  1
  O2-  O240  1  0.45878465  0.41903532  0.26200690  1
  O2-  O241  1  0.45890566  0.41998027  0.60333178  1
  O2-  O242  1  0.44830359  0.41914661  0.94086605  1
  O2-  O243  1  0.45967491  0.91704147  0.26761853  1
  O2-  O244  1  0.44393410  0.91567512  0.60732262  1
  O2-  O245  1  0.45686880  0.91473585  0.92642683  1
  O2-  O246  1  0.96093559  0.41615173  0.26660481  1
  O2-  O247  1  0.95526676  0.41535585  0.60552872  1
  O2-  O248  1  0.96259034  0.41760388  0.92862968  1
  O2-  O249  1  0.95263835  0.91892268  0.27338745  1
  O2-  O250  1  0.95928326  0.91435543  0.60276348  1
  O2-  O251  1  0.95999669  0.91923500  0.93394663  1
  O2-  O252  1  0.33186618  0.28966662  0.26458903  1
  O2-  O253  1  0.32886079  0.29432884  0.60058842  1
  O2-  O254  1  0.33266045  0.29573877  0.93783666  1
  O2-  O255  1  0.33504607  0.78686880  0.26624353  1
  O2-  O256  1  0.33017747  0.79028044  0.60888455  1
  O2-  O257  1  0.33191603  0.78738401  0.92927935  1
  O2-  O258  1  0.83538514  0.28617783  0.26503334  1
  O2-  O259  1  0.84125003  0.28913644  0.60372320  1
  O2-  O260  1  0.83547995  0.28899407  0.92989908  1
  O2-  O261  1  0.83086174  0.80376981  0.27400846  1
  O2-  O262  1  0.83700042  0.79867312  0.60395826  1
  O2-  O263  1  0.83238808  0.79182065  0.93192849  1
  O2-  O264  1  0.41842665  0.04483011  0.05981490  1
  O2-  O265  1  0.41671256  0.04725462  0.39764533  1
  O2-  O266  1  0.41734274  0.05112113  0.72779031  1
  O2-  O267  1  0.41866613  0.55279413  0.06362829  1
  O2-  O268  1  0.42227109  0.54851762  0.39601474  1
  O2-  O269  1  0.41681819  0.54106947  0.73888919  1
  O2-  O270  1  0.91498625  0.04237850  0.06983630  1
  O2-  O271  1  0.91433253  0.04677918  0.39995845  1
  O2-  O272  1  0.90902528  0.03768227  0.73190539  1
  O2-  O273  1  0.91684030  0.54154491  0.06366773  1
  O2-  O274  1  0.91988246  0.53924582  0.40295965  1
  O2-  O275  1  0.91787868  0.54803986  0.73174303  1
  O2-  O276  1  0.30004287  0.16473118  0.06307049  1
  O2-  O277  1  0.29642203  0.16450108  0.39719448  1
  O2-  O278  1  0.29232069  0.16595168  0.73264367  1
  O2-  O279  1  0.29344449  0.66455015  0.06234165  1
  O2-  O280  1  0.28604016  0.66556771  0.40110828  1
  O2-  O281  1  0.28506053  0.66172501  0.74040178  1
  O2-  O282  1  0.78744089  0.16829509  0.06757809  1
  O2-  O283  1  0.79512112  0.16461895  0.39910340  1
  O2-  O284  1  0.79604425  0.16255702  0.72848148  1
  O2-  O285  1  0.79054067  0.66825162  0.06744794  1
  O2-  O286  1  0.80378566  0.67281653  0.40191233  1
  O2-  O287  1  0.79838619  0.66894128  0.72709162  1
