# generated using pymatgen
data_Ca2Al2SiO7
_symmetry_space_group_name_H-M   'P 1'
_cell_length_a   15.45248082
_cell_length_b   15.45229676
_cell_length_c   15.27983176
_cell_angle_alpha   90.00708202
_cell_angle_beta   89.99543806
_cell_angle_gamma   90.00381001
_symmetry_Int_Tables_number   1
_chemical_formula_structural   Ca2Al2SiO7
_chemical_formula_sum   'Ca48 Al48 Si24 O168'
_cell_volume   3648.46193875
_cell_formula_units_Z   24
loop_
 _symmetry_equiv_pos_site_id
 _symmetry_equiv_pos_as_xyz
  1  'x, y, z'
loop_
 _atom_type_symbol
 _atom_type_oxidation_number
  Ca2+  2.0
  Al0+  0.0
  Si0+  0.0
  O2-  -2.0
loop_
 _atom_site_type_symbol
 _atom_site_label
 _atom_site_symmetry_multiplicity
 _atom_site_fract_x
 _atom_site_fract_y
 _atom_site_fract_z
 _atom_site_occupancy
  Ca2+  Ca0  1  0.16470942  0.07804671  0.16883386  1
  Ca2+  Ca1  1  0.17126922  0.08574849  0.50349853  1
  Ca2+  Ca2  1  0.17402591  0.07787962  0.83731183  1
  Ca2+  Ca3  1  0.17014822  0.58356792  0.16661708  1
  Ca2+  Ca4  1  0.17097863  0.57185890  0.50783626  1
  Ca2+  Ca5  1  0.17588485  0.58326653  0.83833709  1
  Ca2+  Ca6  1  0.67889837  0.08003786  0.17691919  1
  Ca2+  Ca7  1  0.66393768  0.07532242  0.49991115  1
  Ca2+  Ca8  1  0.67127605  0.07718972  0.83759995  1
  Ca2+  Ca9  1  0.66211594  0.57607532  0.16489734  1
  Ca2+  Ca10  1  0.66748621  0.57729194  0.49982222  1
  Ca2+  Ca11  1  0.66947061  0.57845331  0.84487543  1
  Ca2+  Ca12  1  0.08781160  0.32830312  0.16741722  1
  Ca2+  Ca13  1  0.08309151  0.33272286  0.49517815  1
  Ca2+  Ca14  1  0.07532757  0.33810737  0.82423542  1
  Ca2+  Ca15  1  0.07278074  0.83196075  0.15479067  1
  Ca2+  Ca16  1  0.07552981  0.83219036  0.49178884  1
  Ca2+  Ca17  1  0.08453885  0.83025102  0.83958992  1
  Ca2+  Ca18  1  0.58736979  0.33247067  0.16050154  1
  Ca2+  Ca19  1  0.57714121  0.32819290  0.49261689  1
  Ca2+  Ca20  1  0.57187322  0.34027999  0.83232394  1
  Ca2+  Ca21  1  0.57951605  0.82854234  0.15799201  1
  Ca2+  Ca22  1  0.58217611  0.83993718  0.49802657  1
  Ca2+  Ca23  1  0.57802285  0.82894095  0.82914169  1
  Ca2+  Ca24  1  0.33380697  0.42192544  0.16780968  1
  Ca2+  Ca25  1  0.32191312  0.41615215  0.51068208  1
  Ca2+  Ca26  1  0.33715932  0.42453592  0.83829299  1
  Ca2+  Ca27  1  0.32594840  0.90642305  0.16444837  1
  Ca2+  Ca28  1  0.33718817  0.92574618  0.51083287  1
  Ca2+  Ca29  1  0.33532164  0.91713172  0.83835626  1
  Ca2+  Ca30  1  0.82250929  0.42337733  0.16822993  1
  Ca2+  Ca31  1  0.82806522  0.40879955  0.50246417  1
  Ca2+  Ca32  1  0.82779882  0.42008024  0.84357599  1
  Ca2+  Ca33  1  0.83508458  0.92135613  0.17386917  1
  Ca2+  Ca34  1  0.82455070  0.91810917  0.49986176  1
  Ca2+  Ca35  1  0.83055412  0.92073418  0.84164722  1
  Ca2+  Ca36  1  0.42717730  0.17465464  0.16178952  1
  Ca2+  Ca37  1  0.41899563  0.16904671  0.49681165  1
  Ca2+  Ca38  1  0.41161524  0.17861124  0.82715821  1
  Ca2+  Ca39  1  0.42251271  0.66871814  0.15249219  1
  Ca2+  Ca40  1  0.41207024  0.67051275  0.50345537  1
  Ca2+  Ca41  1  0.41425068  0.67200825  0.83236917  1
  Ca2+  Ca42  1  0.91875120  0.15822968  0.16414781  1
  Ca2+  Ca43  1  0.92157160  0.16977133  0.49259706  1
  Ca2+  Ca44  1  0.91546850  0.17149071  0.83061713  1
  Ca2+  Ca45  1  0.91789113  0.67723334  0.15538899  1
  Ca2+  Ca46  1  0.91755828  0.67377097  0.49342318  1
  Ca2+  Ca47  1  0.91910109  0.66502354  0.83511295  1
  Al0+  Al48  1  0.00216760  -0.00021996  0.00100599  1
  Al0+  Al49  1  0.00048784  0.00113342  0.33133832  1
  Al0+  Al50  1  -0.00088058  -0.00031586  0.66558316  1
  Al0+  Al51  1  -0.00021378  0.49940585  0.00189131  1
  Al0+  Al52  1  0.00173692  0.50017656  0.33618352  1
  Al0+  Al53  1  -0.00139730  0.49992228  0.66287737  1
  Al0+  Al54  1  0.50080352  0.00278634  -0.00257339  1
  Al0+  Al55  1  0.49976501  0.00169769  0.32908094  1
  Al0+  Al56  1  0.50026990  -0.00105275  0.67347956  1
  Al0+  Al57  1  0.49869267  0.49905853  0.00072903  1
  Al0+  Al58  1  0.49984751  0.50301312  0.33979191  1
  Al0+  Al59  1  0.50012806  0.50018435  0.66268256  1
  Al0+  Al60  1  0.25111500  0.24891350  -0.00337812  1
  Al0+  Al61  1  0.24914221  0.25128361  0.33143713  1
  Al0+  Al62  1  0.24838787  0.24884773  0.67103870  1
  Al0+  Al63  1  0.24858491  0.74986431  0.00207728  1
  Al0+  Al64  1  0.24946219  0.75010257  0.33549832  1
  Al0+  Al65  1  0.24982416  0.74896616  0.66269730  1
  Al0+  Al66  1  0.75148536  0.24750084  0.00717502  1
  Al0+  Al67  1  0.75030467  0.25055211  0.33788987  1
  Al0+  Al68  1  0.75058994  0.24877266  0.66228485  1
  Al0+  Al69  1  0.74986706  0.75045447  -0.00532365  1
  Al0+  Al70  1  0.74824398  0.75026754  0.33249665  1
  Al0+  Al71  1  0.74896829  0.74944971  0.66928023  1
  Al0+  Al72  1  0.57149762  0.17960538  0.31964132  1
  Al0+  Al73  1  0.42821595  0.32158381  0.65186455  1
  Al0+  Al74  1  0.67880482  0.42921732  0.34926451  1
  Al0+  Al75  1  0.18069112  0.42887959  0.34690931  1
  Al0+  Al76  1  0.92847051  0.32145417  0.65301001  1
  Al0+  Al77  1  0.07132822  0.18085246  0.31882940  1
  Al0+  Al78  1  0.82300349  0.57345356  0.01469517  1
  Al0+  Al79  1  0.32064985  0.07033863  0.68019804  1
  Al0+  Al80  1  0.57115166  0.67792685  0.98466153  1
  Al0+  Al81  1  0.17683526  0.42864248  0.68314497  1
  Al0+  Al82  1  0.07069249  0.67670132  0.98498117  1
  Al0+  Al83  1  0.18264603  0.93056543  0.01343930  1
  Al0+  Al84  1  0.42978192  0.82073665  0.65235602  1
  Al0+  Al85  1  0.92870369  0.82303113  0.98309600  1
  Al0+  Al86  1  0.82380688  0.07082448  0.35103001  1
  Al0+  Al87  1  0.67976350  0.92859166  0.68269707  1
  Al0+  Al88  1  0.67727748  0.92810972  0.34698181  1
  Al0+  Al89  1  0.67821644  0.42937858  0.01344893  1
  Al0+  Al90  1  0.42994155  0.31968804  0.98697618  1
  Al0+  Al91  1  0.92891353  0.81936905  0.32036683  1
  Al0+  Al92  1  0.32152304  0.57095896  0.68308878  1
  Al0+  Al93  1  0.42811153  0.82239739  0.98543569  1
  Al0+  Al94  1  0.31920149  0.57028660  0.01370059  1
  Al0+  Al95  1  0.82110296  0.06887898  0.01351701  1
  Si0+  Si96  1  0.32368172  0.07511023  0.01861604  1
  Si0+  Si97  1  0.07110366  0.17669231  0.65098851  1
  Si0+  Si98  1  0.32039765  0.07023127  0.34550447  1
  Si0+  Si99  1  0.67638486  0.92794287  0.01587805  1
  Si0+  Si100  1  0.42790542  0.82220917  0.31902486  1
  Si0+  Si101  1  0.57156665  0.17763490  0.65068939  1
  Si0+  Si102  1  0.92738188  0.32393171  0.31485082  1
  Si0+  Si103  1  0.42871680  0.32339697  0.31794813  1
  Si0+  Si104  1  0.17539406  0.92675056  0.68140292  1
  Si0+  Si105  1  0.82285414  0.07197285  0.68324707  1
  Si0+  Si106  1  0.32235054  0.57441804  0.35221143  1
  Si0+  Si107  1  0.92742490  0.82112218  0.65115684  1
  Si0+  Si108  1  0.07183023  0.17849160  0.98387291  1
  Si0+  Si109  1  0.57427077  0.67838241  0.64711804  1
  Si0+  Si110  1  0.56940742  0.67836152  0.31888969  1
  Si0+  Si111  1  0.07290868  0.67714441  0.31693483  1
  Si0+  Si112  1  0.82193228  0.57208997  0.34991105  1
  Si0+  Si113  1  0.07049640  0.67938933  0.64970646  1
  Si0+  Si114  1  0.17908033  0.92867000  0.34832737  1
  Si0+  Si115  1  0.67982232  0.42725748  0.67990505  1
  Si0+  Si116  1  0.17661503  0.42529287  0.01669225  1
  Si0+  Si117  1  0.92903898  0.31916683  0.98819250  1
  Si0+  Si118  1  0.82021521  0.57104036  0.68006600  1
  Si0+  Si119  1  0.57571209  0.17913050  0.98258195  1
  O2-  O120  1  0.25983165  0.00198297  0.06280747  1
  O2-  O121  1  0.25136928  -0.00193913  0.39031848  1
  O2-  O122  1  0.24601030  -0.00599903  0.72430107  1
  O2-  O123  1  0.24426807  0.49530599  0.06016684  1
  O2-  O124  1  0.25458395  0.50389689  0.39403808  1
  O2-  O125  1  0.25188631  0.49674727  0.73348598  1
  O2-  O126  1  0.74768738  -0.00670300  0.06032498  1
  O2-  O127  1  0.74920297  -0.00007679  0.39865369  1
  O2-  O128  1  0.75583550  0.00259146  0.72785957  1
  O2-  O129  1  0.74797387  0.50398336  0.06349362  1
  O2-  O130  1  0.75705497  0.50064818  0.39640427  1
  O2-  O131  1  0.75078809  0.49822810  0.72145085  1
  O2-  O132  1  -0.00539587  0.25340274  0.27081347  1
  O2-  O133  1  0.00411038  0.24721756  0.60723562  1
  O2-  O134  1  0.00233665  0.25159538  0.94340988  1
  O2-  O135  1  0.00333513  0.74453844  0.27373866  1
  O2-  O136  1  0.00051925  0.75240852  0.60819335  1
  O2-  O137  1  -0.00322250  0.74653500  0.93347708  1
  O2-  O138  1  0.50166352  0.25951709  0.27340455  1
  O2-  O139  1  0.50266453  0.24623146  0.60577290  1
  O2-  O140  1  0.50515335  0.24586631  0.93870152  1
  O2-  O141  1  0.49813042  0.75007198  0.27842779  1
  O2-  O142  1  0.50421483  0.74655857  0.60335085  1
  O2-  O143  1  0.50120625  0.75207996  0.93479213  1
  O2-  O144  1  0.07268657  0.17890879  0.08909290  1
  O2-  O145  1  0.07380953  0.18208186  0.43199948  1
  O2-  O146  1  0.06767758  0.17332660  0.75655660  1
  O2-  O147  1  0.07052812  0.67945027  0.09895454  1
  O2-  O148  1  0.07313978  0.67964531  0.42315168  1
  O2-  O149  1  0.06983267  0.67856126  0.75423833  1
  O2-  O150  1  0.57489144  0.18012250  0.08834035  1
  O2-  O151  1  0.56514970  0.17755915  0.43291751  1
  O2-  O152  1  0.57427017  0.18071431  0.75612917  1
  O2-  O153  1  0.56807957  0.67835564  0.09911609  1
  O2-  O154  1  0.56913269  0.67670365  0.42413293  1
  O2-  O155  1  0.57773799  0.67852605  0.75194867  1
  O2-  O156  1  0.18321818  0.42858118  0.23382007  1
  O2-  O157  1  0.17687630  0.43086709  0.56913250  1
  O2-  O158  1  0.17574591  0.42377016  0.91144300  1
  O2-  O159  1  0.18047022  0.92731360  0.24357209  1
  O2-  O160  1  0.17338404  0.92913723  0.57515364  1
  O2-  O161  1  0.18151071  0.93455767  0.90020226  1
  O2-  O162  1  0.67700245  0.43239087  0.23676477  1
  O2-  O163  1  0.68126120  0.42831715  0.57455745  1
  O2-  O164  1  0.68143294  0.42743066  0.89925339  1
  O2-  O165  1  0.67638150  0.92803269  0.23383684  1
  O2-  O166  1  0.68106322  0.92935647  0.56947922  1
  O2-  O167  1  0.67674571  0.93219513  0.91006732  1
  O2-  O168  1  0.42872386  0.31760937  0.10040082  1
  O2-  O169  1  0.42757917  0.31950979  0.42371230  1
  O2-  O170  1  0.43113976  0.32193797  0.76481681  1
  O2-  O171  1  0.42930602  0.81963039  0.10002048  1
  O2-  O172  1  0.42650969  0.82300318  0.42426710  1
  O2-  O173  1  0.43028302  0.82030978  0.76455401  1
  O2-  O174  1  0.92928255  0.31769126  0.09305593  1
  O2-  O175  1  0.93034830  0.32361395  0.42078837  1
  O2-  O176  1  0.92661401  0.32008921  0.76662827  1
  O2-  O177  1  0.93209186  0.82469355  0.09681087  1
  O2-  O178  1  0.93110368  0.81705219  0.43454060  1
  O2-  O179  1  0.92751287  0.82149227  0.75553625  1
  O2-  O180  1  0.31931088  0.06921827  0.24071551  1
  O2-  O181  1  0.31967789  0.06954939  0.56605240  1
  O2-  O182  1  0.31943321  0.07784780  0.91313640  1
  O2-  O183  1  0.32319199  0.57658756  0.24686235  1
  O2-  O184  1  0.31718355  0.57135947  0.56894142  1
  O2-  O185  1  0.31912158  0.56947760  0.90105392  1
  O2-  O186  1  0.82399538  0.06729539  0.23743525  1
  O2-  O187  1  0.82476741  0.07110717  0.57804770  1
  O2-  O188  1  0.81942081  0.07171822  0.89990960  1
  O2-  O189  1  0.82038769  0.57220515  0.24499817  1
  O2-  O190  1  0.81875332  0.57334790  0.57464087  1
  O2-  O191  1  0.82467572  0.56656327  0.90047016  1
  O2-  O192  1  0.04335104  0.08349562  0.26469009  1
  O2-  O193  1  0.04485538  0.08352845  0.60233397  1
  O2-  O194  1  0.04168914  0.08858235  0.93527183  1
  O2-  O195  1  0.05064380  0.58233917  0.27262497  1
  O2-  O196  1  0.03900082  0.58947333  0.60008860  1
  O2-  O197  1  0.04537227  0.57679136  0.93246831  1
  O2-  O198  1  0.53677742  0.08575858  0.26209247  1
  O2-  O199  1  0.54383098  0.08384988  0.60682130  1
  O2-  O200  1  0.55186354  0.08531786  0.93630574  1
  O2-  O201  1  0.54003967  0.58686283  0.27131116  1
  O2-  O202  1  0.54893595  0.58485346  0.59988378  1
  O2-  O203  1  0.54180366  0.57975741  0.93262342  1
  O2-  O204  1  0.16677816  0.21330566  0.26227642  1
  O2-  O205  1  0.16533352  0.20012729  0.60580365  1
  O2-  O206  1  0.16394307  0.20358386  0.93596974  1
  O2-  O207  1  0.16705743  0.70406601  0.27228890  1
  O2-  O208  1  0.16132756  0.70593798  0.59945441  1
  O2-  O209  1  0.16702482  0.71055569  0.93182144  1
  O2-  O210  1  0.67036923  0.20697001  0.26893706  1
  O2-  O211  1  0.66460366  0.20254181  0.60244102  1
  O2-  O212  1  0.66938885  0.20537171  0.93708854  1
  O2-  O213  1  0.66111925  0.70441956  0.27140816  1
  O2-  O214  1  0.66734760  0.70613089  0.59953374  1
  O2-  O215  1  0.66991242  0.70182231  0.93042745  1
  O2-  O216  1  0.08322343  0.44850049  0.06404775  1
  O2-  O217  1  0.08342561  0.45764779  0.40186463  1
  O2-  O218  1  0.07783080  0.46061503  0.73311604  1
  O2-  O219  1  0.08799556  0.96574023  0.06867126  1
  O2-  O220  1  0.08860355  0.95824963  0.39641908  1
  O2-  O221  1  0.08252373  0.95378885  0.72861396  1
  O2-  O222  1  0.58027633  0.45544102  0.06783560  1
  O2-  O223  1  0.58358712  0.46348780  0.40529050  1
  O2-  O224  1  0.58768373  0.45564734  0.72513817  1
  O2-  O225  1  0.58284706  0.95512911  0.06188453  1
  O2-  O226  1  0.57831440  0.95960382  0.39937421  1
  O2-  O227  1  0.58508037  0.96001805  0.73858374  1
  O2-  O228  1  0.20556152  0.33178658  0.06197575  1
  O2-  O229  1  0.21208439  0.33247781  0.40171110  1
  O2-  O230  1  0.19671339  0.32783806  0.73327715  1
  O2-  O231  1  0.20963374  0.83454152  0.07053262  1
  O2-  O232  1  0.20435051  0.83622998  0.39693835  1
  O2-  O233  1  0.19951356  0.83233065  0.72441442  1
  O2-  O234  1  0.71067886  0.33298266  0.06832920  1
  O2-  O235  1  0.70650503  0.33276886  0.40478392  1
  O2-  O236  1  0.70748800  0.33502721  0.72592241  1
  O2-  O237  1  0.69706577  0.83206527  0.05782497  1
  O2-  O238  1  0.70471975  0.82944353  0.40125731  1
  O2-  O239  1  0.71040375  0.83172488  0.73572756  1
  O2-  O240  1  0.45059714  0.42022896  0.27726975  1
  O2-  O241  1  0.45893702  0.41733780  0.59576311  1
  O2-  O242  1  0.46068452  0.41521905  0.93209910  1
  O2-  O243  1  0.45367509  0.91310646  0.26984570  1
  O2-  O244  1  0.46185862  0.91851959  0.60009829  1
  O2-  O245  1  0.45232325  0.92332090  0.93483296  1
  O2-  O246  1  0.95533315  0.41782000  0.27033502  1
  O2-  O247  1  0.95597342  0.41799954  0.59633279  1
  O2-  O248  1  0.95371337  0.41148719  0.94041757  1
  O2-  O249  1  0.96165899  0.91542187  0.26802364  1
  O2-  O250  1  0.95364425  0.91372142  0.60352220  1
  O2-  O251  1  0.96458309  0.91950097  0.92941045  1
  O2-  O252  1  0.33744606  0.29365112  0.27033492  1
  O2-  O253  1  0.33014026  0.28914057  0.60123495  1
  O2-  O254  1  0.33398577  0.28810278  0.93108920  1
  O2-  O255  1  0.33483563  0.79406425  0.27332377  1
  O2-  O256  1  0.33242206  0.79219127  0.59608632  1
  O2-  O257  1  0.32957330  0.79382578  0.93469463  1
  O2-  O258  1  0.83211176  0.30159013  0.27230596  1
  O2-  O259  1  0.83323899  0.28900497  0.59615432  1
  O2-  O260  1  0.83842017  0.28749862  0.94022647  1
  O2-  O261  1  0.83168041  0.79040750  0.26724965  1
  O2-  O262  1  0.83673069  0.78907374  0.60373573  1
  O2-  O263  1  0.82932391  0.80047999  0.93046250  1
  O2-  O264  1  0.42024568  0.05575269  0.06088420  1
  O2-  O265  1  0.41174517  0.04274977  0.39359692  1
  O2-  O266  1  0.41577113  0.04160416  0.73670522  1
  O2-  O267  1  0.41425653  0.53735668  0.06935579  1
  O2-  O268  1  0.41572350  0.55232013  0.39986878  1
  O2-  O269  1  0.42282434  0.54583547  0.73107558  1
  O2-  O270  1  0.91858134  0.04043170  0.06628006  1
  O2-  O271  1  0.92233905  0.04104442  0.40373708  1
  O2-  O272  1  0.91697369  0.04721432  0.72935694  1
  O2-  O273  1  0.91985505  0.54228680  0.06975805  1
  O2-  O274  1  0.91721028  0.55126801  0.39558433  1
  O2-  O275  1  0.91245669  0.54435102  0.72572151  1
  O2-  O276  1  0.29196805  0.16624839  0.06649117  1
  O2-  O277  1  0.29094363  0.16164095  0.39280148  1
  O2-  O278  1  0.28809403  0.16465106  0.73706085  1
  O2-  O279  1  0.28868018  0.66574921  0.06991211  1
  O2-  O280  1  0.29383925  0.66735277  0.39990238  1
  O2-  O281  1  0.29005538  0.67007167  0.73263742  1
  O2-  O282  1  0.79149214  0.16357550  0.07165718  1
  O2-  O283  1  0.79853911  0.17043964  0.40217976  1
  O2-  O284  1  0.79523142  0.16576603  0.72854339  1
  O2-  O285  1  0.79798719  0.67405839  0.06394821  1
  O2-  O286  1  0.79152834  0.66386253  0.39765941  1
  O2-  O287  1  0.79218748  0.66147237  0.72926249  1
