# generated using pymatgen
data_Ca2Al2SiO7
_symmetry_space_group_name_H-M   'P 1'
_cell_length_a   15.45138134
_cell_length_b   15.45227302
_cell_length_c   15.27831688
_cell_angle_alpha   89.99002226
_cell_angle_beta   89.99741953
_cell_angle_gamma   90.01237496
_symmetry_Int_Tables_number   1
_chemical_formula_structural   Ca2Al2SiO7
_chemical_formula_sum   'Ca48 Al48 Si24 O168'
_cell_volume   3647.83494922
_cell_formula_units_Z   24
loop_
 _symmetry_equiv_pos_site_id
 _symmetry_equiv_pos_as_xyz
  1  'x, y, z'
loop_
 _atom_type_symbol
 _atom_type_oxidation_number
  Ca2+  2.0
  Al0+  0.0
  Si0+  0.0
  O2-  -2.0
loop_
 _atom_site_type_symbol
 _atom_site_label
 _atom_site_symmetry_multiplicity
 _atom_site_fract_x
 _atom_site_fract_y
 _atom_site_fract_z
 _atom_site_occupancy
  Ca2+  Ca0  1  0.17682957  0.08970374  0.17168506  1
  Ca2+  Ca1  1  0.17386440  0.08213664  0.50416245  1
  Ca2+  Ca2  1  0.17599373  0.08315224  0.83793199  1
  Ca2+  Ca3  1  0.16778247  0.57972568  0.17383073  1
  Ca2+  Ca4  1  0.17760043  0.59074049  0.50259489  1
  Ca2+  Ca5  1  0.17260368  0.57689136  0.83709626  1
  Ca2+  Ca6  1  0.67731611  0.09135544  0.17236569  1
  Ca2+  Ca7  1  0.66912561  0.08019156  0.50005230  1
  Ca2+  Ca8  1  0.66998965  0.07955504  0.84079239  1
  Ca2+  Ca9  1  0.66643053  0.57195909  0.17744811  1
  Ca2+  Ca10  1  0.67317688  0.58498724  0.50100910  1
  Ca2+  Ca11  1  0.67216354  0.57727930  0.83692657  1
  Ca2+  Ca12  1  0.08616748  0.32346367  0.16069140  1
  Ca2+  Ca13  1  0.08038053  0.32640704  0.49222555  1
  Ca2+  Ca14  1  0.09303883  0.32725887  0.83474746  1
  Ca2+  Ca15  1  0.07903998  0.82614165  0.16228478  1
  Ca2+  Ca16  1  0.08083577  0.83187048  0.49754097  1
  Ca2+  Ca17  1  0.07072854  0.84125488  0.82724959  1
  Ca2+  Ca18  1  0.58993220  0.32614984  0.16264921  1
  Ca2+  Ca19  1  0.57785175  0.33055140  0.49310137  1
  Ca2+  Ca20  1  0.58238765  0.32744520  0.83116322  1
  Ca2+  Ca21  1  0.57861024  0.82587256  0.16285865  1
  Ca2+  Ca22  1  0.58475706  0.82877262  0.49562325  1
  Ca2+  Ca23  1  0.57682680  0.83939864  0.83001444  1
  Ca2+  Ca24  1  0.32661111  0.41971318  0.17012877  1
  Ca2+  Ca25  1  0.33977819  0.42731146  0.50392534  1
  Ca2+  Ca26  1  0.33430198  0.41871704  0.83483284  1
  Ca2+  Ca27  1  0.34018502  0.92648733  0.16857056  1
  Ca2+  Ca28  1  0.32661283  0.92906734  0.50800839  1
  Ca2+  Ca29  1  0.32988208  0.92521470  0.83899656  1
  Ca2+  Ca30  1  0.81980558  0.41780563  0.17521399  1
  Ca2+  Ca31  1  0.82852147  0.42703134  0.50003268  1
  Ca2+  Ca32  1  0.82990638  0.42293078  0.84013075  1
  Ca2+  Ca33  1  0.84064043  0.92648913  0.16645879  1
  Ca2+  Ca34  1  0.82906050  0.91769269  0.50501690  1
  Ca2+  Ca35  1  0.82936726  0.91446604  0.83718796  1
  Ca2+  Ca36  1  0.42907038  0.15821916  0.16094437  1
  Ca2+  Ca37  1  0.41595779  0.16918947  0.49429778  1
  Ca2+  Ca38  1  0.41630503  0.16831519  0.82938227  1
  Ca2+  Ca39  1  0.41845855  0.66952012  0.16510405  1
  Ca2+  Ca40  1  0.41982953  0.66467059  0.48936006  1
  Ca2+  Ca41  1  0.41556532  0.67068624  0.82942603  1
  Ca2+  Ca42  1  0.92669715  0.15807710  0.15988623  1
  Ca2+  Ca43  1  0.92280279  0.16433869  0.48965597  1
  Ca2+  Ca44  1  0.92182522  0.16157370  0.83521881  1
  Ca2+  Ca45  1  0.91726518  0.66856514  0.16451689  1
  Ca2+  Ca46  1  0.91589386  0.66957649  0.49330591  1
  Ca2+  Ca47  1  0.91352578  0.67662996  0.82522954  1
  Al0+  Al48  1  0.00123837  -0.00183012  -0.00616499  1
  Al0+  Al49  1  -0.00002322  0.00022596  0.33317220  1
  Al0+  Al50  1  -0.00065968  0.00002059  0.66280588  1
  Al0+  Al51  1  0.00159881  0.49905773  0.00386499  1
  Al0+  Al52  1  -0.00178109  0.50014328  0.33195755  1
  Al0+  Al53  1  0.00015594  0.50006639  0.67026720  1
  Al0+  Al54  1  0.50110673  -0.00156381  -0.00538137  1
  Al0+  Al55  1  0.49933040  0.00187439  0.33463762  1
  Al0+  Al56  1  0.50139370  -0.00039197  0.67189153  1
  Al0+  Al57  1  0.50086745  0.49971452  0.00381152  1
  Al0+  Al58  1  0.49785161  0.49964722  0.33539328  1
  Al0+  Al59  1  0.50025710  0.49853726  0.66767732  1
  Al0+  Al60  1  0.25156350  0.25047371  0.00450506  1
  Al0+  Al61  1  0.24934264  0.25075740  0.33384632  1
  Al0+  Al62  1  0.25152938  0.25138574  0.66295123  1
  Al0+  Al63  1  0.25025606  0.75033575  -0.00548769  1
  Al0+  Al64  1  0.24684314  0.75094970  0.33149880  1
  Al0+  Al65  1  0.24902189  0.75089474  0.67597127  1
  Al0+  Al66  1  0.75167619  0.24977136  0.00148538  1
  Al0+  Al67  1  0.74865684  0.25010540  0.34150202  1
  Al0+  Al68  1  0.75093322  0.25006494  0.66426449  1
  Al0+  Al69  1  0.74979166  0.74924708  -0.00345493  1
  Al0+  Al70  1  0.74774677  0.75046336  0.32861366  1
  Al0+  Al71  1  0.75010896  0.75096639  0.67108731  1
  Al0+  Al72  1  0.82240162  0.06976935  0.34687030  1
  Al0+  Al73  1  0.57380554  0.18000303  0.98606328  1
  Al0+  Al74  1  0.17982437  0.42931162  0.01433170  1
  Al0+  Al75  1  0.32069804  0.07312620  0.68232136  1
  Al0+  Al76  1  0.07298216  0.18025287  0.98534297  1
  Al0+  Al77  1  0.67986157  0.42930825  0.01288602  1
  Al0+  Al78  1  0.93027560  0.81885279  0.98524710  1
  Al0+  Al79  1  0.82125913  0.06807957  0.01197257  1
  Al0+  Al80  1  0.57017899  0.17959030  0.32039384  1
  Al0+  Al81  1  0.57048731  0.67815574  0.32050980  1
  Al0+  Al82  1  0.42992499  0.32039074  0.65249066  1
  Al0+  Al83  1  0.32312765  0.57104854  0.68066181  1
  Al0+  Al84  1  0.82115076  0.57303908  0.34718747  1
  Al0+  Al85  1  0.07044088  0.17909372  0.31939032  1
  Al0+  Al86  1  0.32198778  0.07145378  0.34707372  1
  Al0+  Al87  1  0.32155848  0.06939482  0.01470462  1
  Al0+  Al88  1  0.42963872  0.82036412  0.98493928  1
  Al0+  Al89  1  0.82127776  0.57060477  0.68089863  1
  Al0+  Al90  1  0.68066255  0.92949354  0.67985097  1
  Al0+  Al91  1  0.31771643  0.57161655  0.34507849  1
  Al0+  Al92  1  0.17689832  0.92958503  0.68248756  1
  Al0+  Al93  1  0.67681712  0.42812977  0.35132466  1
  Al0+  Al94  1  0.92808234  0.82027256  0.65075071  1
  Al0+  Al95  1  0.07099644  0.67853448  0.32028549  1
  Si0+  Si96  1  0.17771433  0.42812106  0.68164053  1
  Si0+  Si97  1  0.07216613  0.67647115  0.65111538  1
  Si0+  Si98  1  0.67713453  0.92816188  0.34754171  1
  Si0+  Si99  1  0.17652416  0.42772560  0.35072889  1
  Si0+  Si100  1  0.57101533  0.67552230  0.98183415  1
  Si0+  Si101  1  0.06998597  0.18068382  0.65107525  1
  Si0+  Si102  1  0.92886997  0.32233720  0.98374053  1
  Si0+  Si103  1  0.67875493  0.42702151  0.68389814  1
  Si0+  Si104  1  0.17752156  0.92825685  0.34846099  1
  Si0+  Si105  1  0.67710447  0.92628681  0.01779631  1
  Si0+  Si106  1  0.92651515  0.82177887  0.31603764  1
  Si0+  Si107  1  0.92691337  0.32183341  0.31706890  1
  Si0+  Si108  1  0.82238085  0.07416262  0.68295356  1
  Si0+  Si109  1  0.42705873  0.82172951  0.65170617  1
  Si0+  Si110  1  0.92767650  0.32360192  0.65160354  1
  Si0+  Si111  1  0.82202064  0.57371882  0.01677359  1
  Si0+  Si112  1  0.42727832  0.32278944  0.31505098  1
  Si0+  Si113  1  0.32170737  0.57405788  0.01731265  1
  Si0+  Si114  1  0.42901019  0.32248430  0.98489107  1
  Si0+  Si115  1  0.56902346  0.67990196  0.65322689  1
  Si0+  Si116  1  0.07255377  0.67468335  0.98107817  1
  Si0+  Si117  1  0.17748196  0.92741063  0.01708809  1
  Si0+  Si118  1  0.42672588  0.82225099  0.31911792  1
  Si0+  Si119  1  0.57322515  0.17594180  0.64915629  1
  O2-  O120  1  0.24699567  -0.00548461  0.06245770  1
  O2-  O121  1  0.24569010  -0.00213981  0.39206256  1
  O2-  O122  1  0.24971404  0.00049548  0.73265261  1
  O2-  O123  1  0.25191125  0.50646220  0.06089192  1
  O2-  O124  1  0.24323652  0.49822562  0.39480863  1
  O2-  O125  1  0.24662516  0.49717864  0.72527756  1
  O2-  O126  1  0.74585014  -0.00491915  0.06128697  1
  O2-  O127  1  0.74737321  -0.00490692  0.39228107  1
  O2-  O128  1  0.75274744  0.00661960  0.72664750  1
  O2-  O129  1  0.75341404  0.50495595  0.05994993  1
  O2-  O130  1  0.74754904  0.50324822  0.39838812  1
  O2-  O131  1  0.74920219  0.49373929  0.72823441  1
  O2-  O132  1  -0.00542581  0.25243163  0.27216746  1
  O2-  O133  1  -0.00265210  0.25086012  0.60973016  1
  O2-  O134  1  -0.00134554  0.25539795  0.93761242  1
  O2-  O135  1  -0.00672201  0.75013768  0.27340764  1
  O2-  O136  1  0.00384102  0.74546497  0.60620029  1
  O2-  O137  1  0.00284784  0.74225945  0.93717133  1
  O2-  O138  1  0.49567064  0.25357367  0.27149024  1
  O2-  O139  1  0.50326575  0.24405175  0.60615514  1
  O2-  O140  1  0.49768547  0.25386116  0.94032887  1
  O2-  O141  1  0.49462354  0.75235575  0.27495738  1
  O2-  O142  1  0.49579367  0.74848571  0.60920842  1
  O2-  O143  1  0.50348419  0.74483732  0.93685712  1
  O2-  O144  1  0.07206376  0.18098451  0.09833414  1
  O2-  O145  1  0.06943535  0.18133615  0.43315599  1
  O2-  O146  1  0.07021305  0.18205082  0.75631486  1
  O2-  O147  1  0.07288226  0.67563846  0.08688339  1
  O2-  O148  1  0.07400415  0.68252334  0.43332396  1
  O2-  O149  1  0.06978587  0.67363739  0.75663792  1
  O2-  O150  1  0.57427294  0.18101493  0.09924752  1
  O2-  O151  1  0.56779358  0.17828391  0.43356574  1
  O2-  O152  1  0.57615414  0.17842451  0.75481856  1
  O2-  O153  1  0.56967495  0.67543052  0.08743216  1
  O2-  O154  1  0.57037957  0.68162484  0.43416209  1
  O2-  O155  1  0.56768999  0.67997966  0.75850274  1
  O2-  O156  1  0.17897356  0.42751411  0.24504373  1
  O2-  O157  1  0.17588646  0.42813369  0.57626351  1
  O2-  O158  1  0.18249186  0.43019899  0.90084211  1
  O2-  O159  1  0.17738641  0.92687429  0.24291725  1
  O2-  O160  1  0.17817577  0.93045101  0.56838507  1
  O2-  O161  1  0.17775357  0.93011837  0.91157585  1
  O2-  O162  1  0.67927241  0.42793144  0.23748097  1
  O2-  O163  1  0.67886580  0.42792219  0.57871901  1
  O2-  O164  1  0.68146193  0.43127024  0.89924861  1
  O2-  O165  1  0.67602720  0.92808177  0.24215979  1
  O2-  O166  1  0.68098585  0.92855597  0.56641970  1
  O2-  O167  1  0.67856976  0.92709822  0.91192091  1
  O2-  O168  1  0.42929902  0.32386439  0.09028921  1
  O2-  O169  1  0.42767924  0.32213560  0.42098396  1
  O2-  O170  1  0.43156541  0.32156126  0.76587281  1
  O2-  O171  1  0.43154757  0.81859272  0.09847573  1
  O2-  O172  1  0.42707306  0.82139605  0.42501298  1
  O2-  O173  1  0.42972672  0.82060687  0.75675842  1
  O2-  O174  1  0.92901889  0.32145286  0.08906096  1
  O2-  O175  1  0.93046011  0.32165373  0.42337627  1
  O2-  O176  1  0.92621457  0.32396000  0.75659014  1
  O2-  O177  1  0.93266974  0.81835910  0.09858017  1
  O2-  O178  1  0.92687911  0.82222207  0.42171912  1
  O2-  O179  1  0.92812697  0.81868058  0.76386905  1
  O2-  O180  1  0.32373774  0.06818938  0.23390726  1
  O2-  O181  1  0.31816596  0.07179402  0.56839433  1
  O2-  O182  1  0.31959888  0.07013909  0.90182103  1
  O2-  O183  1  0.31622447  0.57113298  0.23201480  1
  O2-  O184  1  0.32301269  0.57159311  0.56745517  1
  O2-  O185  1  0.32226479  0.57236606  0.91146664  1
  O2-  O186  1  0.82426825  0.06774861  0.23372035  1
  O2-  O187  1  0.82179567  0.07430842  0.57719468  1
  O2-  O188  1  0.81988541  0.06725711  0.89873504  1
  O2-  O189  1  0.82005860  0.57075812  0.23349988  1
  O2-  O190  1  0.81979307  0.57052609  0.56814360  1
  O2-  O191  1  0.82081991  0.57283001  0.91074386  1
  O2-  O192  1  0.04130298  0.08183448  0.26580677  1
  O2-  O193  1  0.04278856  0.08944144  0.60246912  1
  O2-  O194  1  0.04109209  0.08478844  0.93018558  1
  O2-  O195  1  0.04344631  0.58099538  0.26576395  1
  O2-  O196  1  0.04773100  0.58237407  0.60508269  1
  O2-  O197  1  0.04867603  0.57986748  0.93633585  1
  O2-  O198  1  0.54008241  0.08266703  0.26576936  1
  O2-  O199  1  0.54877034  0.08121104  0.60499807  1
  O2-  O200  1  0.54460882  0.08323113  0.93219365  1
  O2-  O201  1  0.53838512  0.58189329  0.26701282  1
  O2-  O202  1  0.54416669  0.58709618  0.60666076  1
  O2-  O203  1  0.54406021  0.58225132  0.93509451  1
  O2-  O204  1  0.16703544  0.21143621  0.26587726  1
  O2-  O205  1  0.16084202  0.21024587  0.60271401  1
  O2-  O206  1  0.16922799  0.21463920  0.93215658  1
  O2-  O207  1  0.16502005  0.71240063  0.26200893  1
  O2-  O208  1  0.16712293  0.70419297  0.60820880  1
  O2-  O209  1  0.16636329  0.69926483  0.93509480  1
  O2-  O210  1  0.66873506  0.21034807  0.26988481  1
  O2-  O211  1  0.66714124  0.20218012  0.60274592  1
  O2-  O212  1  0.66932839  0.21278989  0.93057369  1
  O2-  O213  1  0.66491275  0.70926878  0.26209696  1
  O2-  O214  1  0.66006003  0.71172555  0.60718080  1
  O2-  O215  1  0.66542847  0.69927781  0.93641510  1
  O2-  O216  1  0.08254130  0.45582015  0.06988610  1
  O2-  O217  1  0.08148952  0.44970626  0.39448206  1
  O2-  O218  1  0.08507668  0.45176358  0.73088423  1
  O2-  O219  1  0.08402141  0.95306712  0.06210170  1
  O2-  O220  1  0.08449533  0.95385810  0.39553762  1
  O2-  O221  1  0.07817113  0.96071822  0.73325333  1
  O2-  O222  1  0.58336621  0.45820516  0.06841629  1
  O2-  O223  1  0.57785582  0.45546754  0.40248748  1
  O2-  O224  1  0.58659435  0.45511951  0.73083915  1
  O2-  O225  1  0.58309504  0.95043296  0.06189124  1
  O2-  O226  1  0.58493182  0.95497080  0.39611369  1
  O2-  O227  1  0.58441964  0.95729308  0.73627587  1
  O2-  O228  1  0.21301394  0.33514287  0.07100766  1
  O2-  O229  1  0.20356237  0.33516419  0.39803751  1
  O2-  O230  1  0.20592602  0.33531805  0.72769893  1
  O2-  O231  1  0.20182876  0.83169383  0.05983696  1
  O2-  O232  1  0.20383338  0.83587619  0.39639621  1
  O2-  O233  1  0.20107361  0.83163135  0.73797524  1
  O2-  O234  1  0.71270151  0.33406818  0.06763934  1
  O2-  O235  1  0.70705792  0.33229187  0.40792741  1
  O2-  O236  1  0.70404395  0.33240264  0.72842154  1
  O2-  O237  1  0.70208983  0.83120255  0.06150694  1
  O2-  O238  1  0.70204120  0.83437500  0.39360970  1
  O2-  O239  1  0.71176169  0.83514252  0.73769042  1
  O2-  O240  1  0.45138081  0.41656023  0.26917233  1
  O2-  O241  1  0.46244985  0.41692644  0.59789241  1
  O2-  O242  1  0.45460976  0.41671435  0.93886313  1
  O2-  O243  1  0.45583095  0.91458331  0.27254737  1
  O2-  O244  1  0.45780901  0.91341812  0.60538606  1
  O2-  O245  1  0.46226022  0.91458336  0.92737990  1
  O2-  O246  1  0.95094837  0.41505762  0.26977385  1
  O2-  O247  1  0.95792362  0.41461328  0.60359034  1
  O2-  O248  1  0.95349937  0.41719196  0.93851903  1
  O2-  O249  1  0.95715920  0.91383467  0.26975397  1
  O2-  O250  1  0.95722219  0.91758562  0.59626565  1
  O2-  O251  1  0.96214996  0.91351474  0.92811225  1
  O2-  O252  1  0.33266880  0.29874276  0.27070546  1
  O2-  O253  1  0.33307501  0.29341112  0.59599516  1
  O2-  O254  1  0.33592719  0.29585042  0.93877655  1
  O2-  O255  1  0.33372844  0.79783595  0.27164571  1
  O2-  O256  1  0.33299989  0.79662350  0.60791119  1
  O2-  O257  1  0.33272647  0.79194018  0.92922368  1
  O2-  O258  1  0.83194777  0.29660829  0.27539026  1
  O2-  O259  1  0.83583085  0.29769366  0.60259885  1
  O2-  O260  1  0.83676664  0.29488887  0.93569137  1
  O2-  O261  1  0.83285618  0.80020998  0.26846601  1
  O2-  O262  1  0.83091750  0.78814021  0.59855213  1
  O2-  O263  1  0.83201660  0.79110367  0.93143148  1
  O2-  O264  1  0.41904280  0.03520438  0.06542500  1
  O2-  O265  1  0.41704374  0.03975519  0.40338385  1
  O2-  O266  1  0.41983836  0.04660636  0.73356773  1
  O2-  O267  1  0.41509637  0.54788796  0.06318498  1
  O2-  O268  1  0.41340308  0.54084758  0.40043620  1
  O2-  O269  1  0.41824150  0.53803103  0.73634683  1
  O2-  O270  1  0.91825800  0.03423769  0.06405762  1
  O2-  O271  1  0.91833046  0.03873358  0.40252964  1
  O2-  O272  1  0.91625314  0.04795560  0.72682368  1
  O2-  O273  1  0.91665345  0.55016753  0.06095009  1
  O2-  O274  1  0.91936841  0.54377471  0.40072406  1
  O2-  O275  1  0.91775858  0.54122691  0.73624328  1
  O2-  O276  1  0.29233334  0.16577430  0.06892489  1
  O2-  O277  1  0.29078072  0.16847418  0.39983970  1
  O2-  O278  1  0.29083115  0.17206847  0.73330665  1
  O2-  O279  1  0.29673088  0.66858036  0.06128745  1
  O2-  O280  1  0.28778164  0.66887356  0.39913714  1
  O2-  O281  1  0.29398176  0.66640836  0.73731338  1
  O2-  O282  1  0.79395285  0.16539924  0.06556770  1
  O2-  O283  1  0.79288004  0.16498488  0.40343657  1
  O2-  O284  1  0.79935238  0.16884634  0.72864970  1
  O2-  O285  1  0.79656478  0.66755886  0.06193227  1
  O2-  O286  1  0.79280887  0.67281890  0.39771479  1
  O2-  O287  1  0.78670044  0.66472465  0.73650546  1
