# generated using pymatgen
data_Ca2Al2SiO7
_symmetry_space_group_name_H-M   'P 1'
_cell_length_a   15.45603205
_cell_length_b   15.45689819
_cell_length_c   15.28206701
_cell_angle_alpha   89.99477320
_cell_angle_beta   89.98722299
_cell_angle_gamma   89.98933454
_symmetry_Int_Tables_number   1
_chemical_formula_structural   Ca2Al2SiO7
_chemical_formula_sum   'Ca48 Al48 Si24 O168'
_cell_volume   3650.92099974
_cell_formula_units_Z   24
loop_
 _symmetry_equiv_pos_site_id
 _symmetry_equiv_pos_as_xyz
  1  'x, y, z'
loop_
 _atom_type_symbol
 _atom_type_oxidation_number
  Ca2+  2.0
  Al0+  0.0
  Si0+  0.0
  O2-  -2.0
loop_
 _atom_site_type_symbol
 _atom_site_label
 _atom_site_symmetry_multiplicity
 _atom_site_fract_x
 _atom_site_fract_y
 _atom_site_fract_z
 _atom_site_occupancy
  Ca2+  Ca0  1  0.17033213  0.08309207  0.17437024  1
  Ca2+  Ca1  1  0.17479487  0.09683613  0.50305248  1
  Ca2+  Ca2  1  0.16950484  0.08840651  0.83159076  1
  Ca2+  Ca3  1  0.16923163  0.57891743  0.17061129  1
  Ca2+  Ca4  1  0.17611292  0.57362756  0.50405213  1
  Ca2+  Ca5  1  0.16307788  0.57200923  0.84134351  1
  Ca2+  Ca6  1  0.67582290  0.08687677  0.17270875  1
  Ca2+  Ca7  1  0.67229138  0.09237726  0.49779866  1
  Ca2+  Ca8  1  0.67533010  0.07975149  0.84314030  1
  Ca2+  Ca9  1  0.67479906  0.57975165  0.17101285  1
  Ca2+  Ca10  1  0.66754274  0.58803914  0.50081353  1
  Ca2+  Ca11  1  0.67031497  0.57985032  0.84052315  1
  Ca2+  Ca12  1  0.07403274  0.33244105  0.16378206  1
  Ca2+  Ca13  1  0.08472813  0.32565181  0.49582766  1
  Ca2+  Ca14  1  0.08120052  0.33519323  0.83090561  1
  Ca2+  Ca15  1  0.07917385  0.82344544  0.15607350  1
  Ca2+  Ca16  1  0.07695425  0.83524891  0.49903161  1
  Ca2+  Ca17  1  0.07291691  0.82675626  0.83414213  1
  Ca2+  Ca18  1  0.57399987  0.33569688  0.16302999  1
  Ca2+  Ca19  1  0.56927619  0.32902700  0.49039167  1
  Ca2+  Ca20  1  0.57227333  0.34189199  0.83271180  1
  Ca2+  Ca21  1  0.57802857  0.82805946  0.16444947  1
  Ca2+  Ca22  1  0.58500681  0.82158423  0.49522457  1
  Ca2+  Ca23  1  0.58099322  0.82753629  0.83088963  1
  Ca2+  Ca24  1  0.32918425  0.41237964  0.17006124  1
  Ca2+  Ca25  1  0.33339360  0.41255510  0.50435196  1
  Ca2+  Ca26  1  0.32332504  0.40874775  0.83751512  1
  Ca2+  Ca27  1  0.33286055  0.91904749  0.17428026  1
  Ca2+  Ca28  1  0.33350336  0.93225169  0.50393643  1
  Ca2+  Ca29  1  0.33773218  0.92337918  0.83923270  1
  Ca2+  Ca30  1  0.83673561  0.42301225  0.17104833  1
  Ca2+  Ca31  1  0.83630588  0.41978185  0.49826747  1
  Ca2+  Ca32  1  0.82536208  0.42065673  0.85047315  1
  Ca2+  Ca33  1  0.84109194  0.92861616  0.16904733  1
  Ca2+  Ca34  1  0.83557033  0.92206325  0.50227021  1
  Ca2+  Ca35  1  0.84065087  0.91908571  0.83944663  1
  Ca2+  Ca36  1  0.41894511  0.17320438  0.16624945  1
  Ca2+  Ca37  1  0.41364566  0.17392161  0.49176938  1
  Ca2+  Ca38  1  0.41233799  0.17773200  0.82811796  1
  Ca2+  Ca39  1  0.41991290  0.66531225  0.16271463  1
  Ca2+  Ca40  1  0.42828862  0.65956704  0.49207183  1
  Ca2+  Ca41  1  0.42202181  0.67178921  0.82967460  1
  Ca2+  Ca42  1  0.91260311  0.17462029  0.16314987  1
  Ca2+  Ca43  1  0.92874532  0.17171045  0.48801863  1
  Ca2+  Ca44  1  0.92019110  0.17154269  0.83113143  1
  Ca2+  Ca45  1  0.91808326  0.66638361  0.15708611  1
  Ca2+  Ca46  1  0.91311017  0.67180770  0.49515109  1
  Ca2+  Ca47  1  0.91537179  0.67029628  0.83466487  1
  Al0+  Al48  1  0.00295984  -0.00105496  0.00080597  1
  Al0+  Al49  1  -0.00053905  -0.00087367  0.33474063  1
  Al0+  Al50  1  0.00185497  0.00025364  0.65929248  1
  Al0+  Al51  1  0.00090131  0.49733200  0.00023828  1
  Al0+  Al52  1  -0.00014101  0.50090000  0.33770880  1
  Al0+  Al53  1  0.00023964  0.50222177  0.67025087  1
  Al0+  Al54  1  0.50158889  0.00002729  -0.00270437  1
  Al0+  Al55  1  0.49944525  -0.00103703  0.33575706  1
  Al0+  Al56  1  0.50196600  0.00047076  0.67261720  1
  Al0+  Al57  1  0.49911541  0.49923018  -0.00181287  1
  Al0+  Al58  1  0.50040757  0.50061046  0.32747572  1
  Al0+  Al59  1  0.50081512  0.50099597  0.65964804  1
  Al0+  Al60  1  0.25104519  0.24999853  0.00225233  1
  Al0+  Al61  1  0.24798297  0.24830755  0.32855443  1
  Al0+  Al62  1  0.24951732  0.25090924  0.66851211  1
  Al0+  Al63  1  0.25028369  0.75047449  -0.01031414  1
  Al0+  Al64  1  0.24900523  0.74838763  0.34177765  1
  Al0+  Al65  1  0.24925475  0.75160739  0.66658924  1
  Al0+  Al66  1  0.74918584  0.24881148  0.00331217  1
  Al0+  Al67  1  0.74945552  0.25082219  0.33425110  1
  Al0+  Al68  1  0.74962830  0.25174613  0.66909281  1
  Al0+  Al69  1  0.74891308  0.75136748  0.00053580  1
  Al0+  Al70  1  0.74912811  0.74953196  0.33176342  1
  Al0+  Al71  1  0.74990202  0.75186448  0.66025438  1
  Al0+  Al72  1  0.32053500  0.07027004  0.68219448  1
  Al0+  Al73  1  0.82308576  0.06904971  0.01265061  1
  Al0+  Al74  1  0.93087094  0.81933602  0.65096004  1
  Al0+  Al75  1  0.42788950  0.32095606  0.31648304  1
  Al0+  Al76  1  0.07137946  0.67577261  0.98526891  1
  Al0+  Al77  1  0.57141201  0.17620590  0.31877657  1
  Al0+  Al78  1  0.17951148  0.42777323  0.01564365  1
  Al0+  Al79  1  0.57158947  0.67908849  0.31663391  1
  Al0+  Al80  1  0.42887808  0.82245270  0.98707884  1
  Al0+  Al81  1  0.31984274  0.07022961  0.34556770  1
  Al0+  Al82  1  0.82058573  0.57144474  0.01431631  1
  Al0+  Al83  1  0.92822536  0.82193462  0.98712084  1
  Al0+  Al84  1  0.56853041  0.68147677  0.65263802  1
  Al0+  Al85  1  0.43017681  0.31834450  0.65335061  1
  Al0+  Al86  1  0.82078883  0.07255613  0.34881978  1
  Al0+  Al87  1  0.18068119  0.43047554  0.68065608  1
  Al0+  Al88  1  0.67557759  0.42815323  0.01625160  1
  Al0+  Al89  1  0.06866864  0.18223936  0.65403987  1
  Al0+  Al90  1  0.82094850  0.57148846  0.34883116  1
  Al0+  Al91  1  0.92934136  0.32292075  0.31931703  1
  Al0+  Al92  1  0.92783714  0.31943229  0.98661425  1
  Al0+  Al93  1  0.32249142  0.57084421  0.34609991  1
  Al0+  Al94  1  0.42905548  0.32000914  0.98448115  1
  Al0+  Al95  1  0.07071530  0.17707157  0.31607372  1
  Si0+  Si96  1  0.32487043  0.57315246  0.68317537  1
  Si0+  Si97  1  0.67837064  0.92782896  0.35078482  1
  Si0+  Si98  1  0.67712473  0.42877499  0.35152982  1
  Si0+  Si99  1  0.92457404  0.32492372  0.65178044  1
  Si0+  Si100  1  0.82251041  0.07122990  0.68050212  1
  Si0+  Si101  1  0.17691808  0.92575826  0.35132508  1
  Si0+  Si102  1  0.32215072  0.07024632  0.01537266  1
  Si0+  Si103  1  0.68163197  0.92789650  0.68205960  1
  Si0+  Si104  1  0.07177477  0.67973668  0.32133379  1
  Si0+  Si105  1  0.18135885  0.92784202  0.01340014  1
  Si0+  Si106  1  0.57136138  0.67826319  0.98358163  1
  Si0+  Si107  1  0.92878967  0.81997804  0.31784416  1
  Si0+  Si108  1  0.57248165  0.17735285  0.98224565  1
  Si0+  Si109  1  0.32083818  0.57405499  0.01349892  1
  Si0+  Si110  1  0.17882249  0.42834940  0.35005766  1
  Si0+  Si111  1  0.42655294  0.82554551  0.64930374  1
  Si0+  Si112  1  0.17610567  0.92688698  0.68553909  1
  Si0+  Si113  1  0.67598543  0.92800671  0.01758576  1
  Si0+  Si114  1  0.81917158  0.57297212  0.68106783  1
  Si0+  Si115  1  0.07290337  0.17753533  0.98322264  1
  Si0+  Si116  1  0.67835700  0.42934713  0.68035741  1
  Si0+  Si117  1  0.42644165  0.82059009  0.32042864  1
  Si0+  Si118  1  0.57494244  0.17586286  0.65212874  1
  Si0+  Si119  1  0.07303939  0.67510731  0.64763273  1
  O2-  O120  1  0.25315856  -0.00294796  0.05679464  1
  O2-  O121  1  0.24364529  -0.00271057  0.39376381  1
  O2-  O122  1  0.24893067  -0.00817378  0.72945523  1
  O2-  O123  1  0.25312407  0.50540306  0.05910817  1
  O2-  O124  1  0.25208208  0.49268500  0.39376167  1
  O2-  O125  1  0.25353237  0.50792766  0.72776673  1
  O2-  O126  1  0.74850838  -0.00645407  0.05952576  1
  O2-  O127  1  0.74410171  -0.00071279  0.39606844  1
  O2-  O128  1  0.74968718  0.00226270  0.72346123  1
  O2-  O129  1  0.75018605  0.49824175  0.06515030  1
  O2-  O130  1  0.74678346  0.49674392  0.39692030  1
  O2-  O131  1  0.75311408  0.49701167  0.72233556  1
  O2-  O132  1  -0.00344957  0.24716532  0.26784602  1
  O2-  O133  1  -0.00738626  0.25587035  0.60812107  1
  O2-  O134  1  0.00279173  0.24494893  0.93931198  1
  O2-  O135  1  0.00061094  0.74946734  0.27764780  1
  O2-  O136  1  0.00542703  0.74484239  0.60311070  1
  O2-  O137  1  -0.00493095  0.74517710  0.93704935  1
  O2-  O138  1  0.50088888  0.24880232  0.26791644  1
  O2-  O139  1  0.50459459  0.24261255  0.60860203  1
  O2-  O140  1  0.50551580  0.24719027  0.93713056  1
  O2-  O141  1  0.49265058  0.75119092  0.27363279  1
  O2-  O142  1  0.49053212  0.75295342  0.60497418  1
  O2-  O143  1  0.50268098  0.74740799  0.93975261  1
  O2-  O144  1  0.07338800  0.17621788  0.08836353  1
  O2-  O145  1  0.07183825  0.18038669  0.43000881  1
  O2-  O146  1  0.06607718  0.18134047  0.76733637  1
  O2-  O147  1  0.07560721  0.68064699  0.09938431  1
  O2-  O148  1  0.07109201  0.68189776  0.42660017  1
  O2-  O149  1  0.07104687  0.67379421  0.75280160  1
  O2-  O150  1  0.56900763  0.17349631  0.08733186  1
  O2-  O151  1  0.56934345  0.17875431  0.43317124  1
  O2-  O152  1  0.57804899  0.17626787  0.75760196  1
  O2-  O153  1  0.57048946  0.67954647  0.08891018  1
  O2-  O154  1  0.57226935  0.68214537  0.43009483  1
  O2-  O155  1  0.56943009  0.68358922  0.76580551  1
  O2-  O156  1  0.17694461  0.43180751  0.24460368  1
  O2-  O157  1  0.18205905  0.43087615  0.56747821  1
  O2-  O158  1  0.18170574  0.42637897  0.90218534  1
  O2-  O159  1  0.17910747  0.92106068  0.24557118  1
  O2-  O160  1  0.17591475  0.92640378  0.57999995  1
  O2-  O161  1  0.18080602  0.92988965  0.90839643  1
  O2-  O162  1  0.67677127  0.43123811  0.24632383  1
  O2-  O163  1  0.67808651  0.42849821  0.57560530  1
  O2-  O164  1  0.67524540  0.43236106  0.90138080  1
  O2-  O165  1  0.67989577  0.92613177  0.24535592  1
  O2-  O166  1  0.68227577  0.92595797  0.57724941  1
  O2-  O167  1  0.67326335  0.92995906  0.91146038  1
  O2-  O168  1  0.42730681  0.31719595  0.09687386  1
  O2-  O169  1  0.42789967  0.31959162  0.43059373  1
  O2-  O170  1  0.43132045  0.31873217  0.76655746  1
  O2-  O171  1  0.42919730  0.82258921  0.10025501  1
  O2-  O172  1  0.42885591  0.82060262  0.42604764  1
  O2-  O173  1  0.43017547  0.82563276  0.75510297  1
  O2-  O174  1  0.92880394  0.31929625  0.09911070  1
  O2-  O175  1  0.93350643  0.32357667  0.43372827  1
  O2-  O176  1  0.92174536  0.32283957  0.75730051  1
  O2-  O177  1  0.93374208  0.82430816  0.10066241  1
  O2-  O178  1  0.92922472  0.81960619  0.42340343  1
  O2-  O179  1  0.93008765  0.81845771  0.76371115  1
  O2-  O180  1  0.31959393  0.06545117  0.23217783  1
  O2-  O181  1  0.31932453  0.07047163  0.56921383  1
  O2-  O182  1  0.32056006  0.07031248  0.90999742  1
  O2-  O183  1  0.31675850  0.57698030  0.23335784  1
  O2-  O184  1  0.32502902  0.57092987  0.57748937  1
  O2-  O185  1  0.32081396  0.57394515  0.90763914  1
  O2-  O186  1  0.82245423  0.06829346  0.23597239  1
  O2-  O187  1  0.82077908  0.07081843  0.57564715  1
  O2-  O188  1  0.82204370  0.06727663  0.89851287  1
  O2-  O189  1  0.82175739  0.57345436  0.23648844  1
  O2-  O190  1  0.81781716  0.57346513  0.57584859  1
  O2-  O191  1  0.81655160  0.57200170  0.89971393  1
  O2-  O192  1  0.04642109  0.07580749  0.26695937  1
  O2-  O193  1  0.04213553  0.08586527  0.59789856  1
  O2-  O194  1  0.04917791  0.08344175  0.93709089  1
  O2-  O195  1  0.04506970  0.58771897  0.27533111  1
  O2-  O196  1  0.04567505  0.58241029  0.60048358  1
  O2-  O197  1  0.04525556  0.57764240  0.93204106  1
  O2-  O198  1  0.54405054  0.07677956  0.26719262  1
  O2-  O199  1  0.55314463  0.08047978  0.60840754  1
  O2-  O200  1  0.54627042  0.08440332  0.93402123  1
  O2-  O201  1  0.54328314  0.58348709  0.26178384  1
  O2-  O202  1  0.54167320  0.58540346  0.59566095  1
  O2-  O203  1  0.54511526  0.58571506  0.93600144  1
  O2-  O204  1  0.16764805  0.20493725  0.26155893  1
  O2-  O205  1  0.16436550  0.21585117  0.60069297  1
  O2-  O206  1  0.16610937  0.20542442  0.93760970  1
  O2-  O207  1  0.16358847  0.70858460  0.27468397  1
  O2-  O208  1  0.16821232  0.69991481  0.60354053  1
  O2-  O209  1  0.16616633  0.70865671  0.92705120  1
  O2-  O210  1  0.67125448  0.20143618  0.26873600  1
  O2-  O211  1  0.66811291  0.20384053  0.60539493  1
  O2-  O212  1  0.66688872  0.19993337  0.93690613  1
  O2-  O213  1  0.66637592  0.71434257  0.26233107  1
  O2-  O214  1  0.66294738  0.71637313  0.59681975  1
  O2-  O215  1  0.66406032  0.70544834  0.93637231  1
  O2-  O216  1  0.08301892  0.45647506  0.06943013  1
  O2-  O217  1  0.08839257  0.45933906  0.39959063  1
  O2-  O218  1  0.08262443  0.45952479  0.73469854  1
  O2-  O219  1  0.09103975  0.95566156  0.06359179  1
  O2-  O220  1  0.08264771  0.94914690  0.39680137  1
  O2-  O221  1  0.08354173  0.95823552  0.73064408  1
  O2-  O222  1  0.57751219  0.45873570  0.06847705  1
  O2-  O223  1  0.58379195  0.45731722  0.39675478  1
  O2-  O224  1  0.58749230  0.46224343  0.72713214  1
  O2-  O225  1  0.58381748  0.95710800  0.06530278  1
  O2-  O226  1  0.58367032  0.94804429  0.39734635  1
  O2-  O227  1  0.58939197  0.95175716  0.73131400  1
  O2-  O228  1  0.21311549  0.33234780  0.07037281  1
  O2-  O229  1  0.20161682  0.33300813  0.39307254  1
  O2-  O230  1  0.21301884  0.33560196  0.73641325  1
  O2-  O231  1  0.20920394  0.83524922  0.05936920  1
  O2-  O232  1  0.20350220  0.83470354  0.40280807  1
  O2-  O233  1  0.19633123  0.83114106  0.73048077  1
  O2-  O234  1  0.69835394  0.32790100  0.06597793  1
  O2-  O235  1  0.70069299  0.33517340  0.39868031  1
  O2-  O236  1  0.70147996  0.33677602  0.72982460  1
  O2-  O237  1  0.69621050  0.83321776  0.06244545  1
  O2-  O238  1  0.70950961  0.83604247  0.39822583  1
  O2-  O239  1  0.71331698  0.83759305  0.73054783  1
  O2-  O240  1  0.45537868  0.41902802  0.26329149  1
  O2-  O241  1  0.46075448  0.41452621  0.59875397  1
  O2-  O242  1  0.45710937  0.41772114  0.93027007  1
  O2-  O243  1  0.45317908  0.91309579  0.27330413  1
  O2-  O244  1  0.45757411  0.91832149  0.60461523  1
  O2-  O245  1  0.46164983  0.91776539  0.93047137  1
  O2-  O246  1  0.96134789  0.42124498  0.26784215  1
  O2-  O247  1  0.94996936  0.41970816  0.60834590  1
  O2-  O248  1  0.95795233  0.41539716  0.93166350  1
  O2-  O249  1  0.95688345  0.91175184  0.27176070  1
  O2-  O250  1  0.96234745  0.91491190  0.59485744  1
  O2-  O251  1  0.96446652  0.91744541  0.93163601  1
  O2-  O252  1  0.33005444  0.29189423  0.26425863  1
  O2-  O253  1  0.33404310  0.28704977  0.60043844  1
  O2-  O254  1  0.33330575  0.28431902  0.93097947  1
  O2-  O255  1  0.33108790  0.79667603  0.27730729  1
  O2-  O256  1  0.32995822  0.80747648  0.60683973  1
  O2-  O257  1  0.33444970  0.79502118  0.92741398  1
  O2-  O258  1  0.82879548  0.30005372  0.27041020  1
  O2-  O259  1  0.83062303  0.30057045  0.60530809  1
  O2-  O260  1  0.83051139  0.28877747  0.93277302  1
  O2-  O261  1  0.83749884  0.79267684  0.27110817  1
  O2-  O262  1  0.83528530  0.78884011  0.59502731  1
  O2-  O263  1  0.82720800  0.80118486  0.93543972  1
  O2-  O264  1  0.41498502  0.04295120  0.06022140  1
  O2-  O265  1  0.41547476  0.03860167  0.40215134  1
  O2-  O266  1  0.41853258  0.04285619  0.73701575  1
  O2-  O267  1  0.41495716  0.54972386  0.05825363  1
  O2-  O268  1  0.42085575  0.54305543  0.39801141  1
  O2-  O269  1  0.41874528  0.54637210  0.72803475  1
  O2-  O270  1  0.91962578  0.03808140  0.06707624  1
  O2-  O271  1  0.91664102  0.03747357  0.40323174  1
  O2-  O272  1  0.91409369  0.03998775  0.72562953  1
  O2-  O273  1  0.91998443  0.54492042  0.06490279  1
  O2-  O274  1  0.91754901  0.54267057  0.40555292  1
  O2-  O275  1  0.91317397  0.55246450  0.72686211  1
  O2-  O276  1  0.29210882  0.16029781  0.06345884  1
  O2-  O277  1  0.28824011  0.16723242  0.39896274  1
  O2-  O278  1  0.28482365  0.16469858  0.73704618  1
  O2-  O279  1  0.29581363  0.66881584  0.05766595  1
  O2-  O280  1  0.28977919  0.66470224  0.40599074  1
  O2-  O281  1  0.30366054  0.66981218  0.72574645  1
  O2-  O282  1  0.79089920  0.16415098  0.06729235  1
  O2-  O283  1  0.79255570  0.16942354  0.40437822  1
  O2-  O284  1  0.79689538  0.16421310  0.72801757  1
  O2-  O285  1  0.79322506  0.67111374  0.06612214  1
  O2-  O286  1  0.78778599  0.66837934  0.40235859  1
  O2-  O287  1  0.78569816  0.66371573  0.72696106  1
