# generated using pymatgen
data_Ca2Al2SiO7
_symmetry_space_group_name_H-M   'P 1'
_cell_length_a   15.45585252
_cell_length_b   15.45735911
_cell_length_c   15.28226505
_cell_angle_alpha   89.99539375
_cell_angle_beta   89.99384424
_cell_angle_gamma   89.99792470
_symmetry_Int_Tables_number   1
_chemical_formula_structural   Ca2Al2SiO7
_chemical_formula_sum   'Ca48 Al48 Si24 O168'
_cell_volume   3651.03490763
_cell_formula_units_Z   24
loop_
 _symmetry_equiv_pos_site_id
 _symmetry_equiv_pos_as_xyz
  1  'x, y, z'
loop_
 _atom_type_symbol
 _atom_type_oxidation_number
  Ca2+  2.0
  Al0+  0.0
  Si0+  0.0
  O2-  -2.0
loop_
 _atom_site_type_symbol
 _atom_site_label
 _atom_site_symmetry_multiplicity
 _atom_site_fract_x
 _atom_site_fract_y
 _atom_site_fract_z
 _atom_site_occupancy
  Ca2+  Ca0  1  0.16913700  0.07792748  0.17273683  1
  Ca2+  Ca1  1  0.17314691  0.09275226  0.49884717  1
  Ca2+  Ca2  1  0.16656730  0.07245048  0.84074850  1
  Ca2+  Ca3  1  0.17774807  0.57864869  0.17117442  1
  Ca2+  Ca4  1  0.16905942  0.58254487  0.50340693  1
  Ca2+  Ca5  1  0.16925591  0.57542935  0.84159197  1
  Ca2+  Ca6  1  0.67478744  0.09075202  0.17407114  1
  Ca2+  Ca7  1  0.66805560  0.08124473  0.50241808  1
  Ca2+  Ca8  1  0.67152008  0.07516430  0.83845465  1
  Ca2+  Ca9  1  0.67562389  0.58179070  0.17315663  1
  Ca2+  Ca10  1  0.66725540  0.58074516  0.50079370  1
  Ca2+  Ca11  1  0.67070048  0.59068464  0.83982714  1
  Ca2+  Ca12  1  0.08011470  0.32936714  0.16086940  1
  Ca2+  Ca13  1  0.08378500  0.33116630  0.49409384  1
  Ca2+  Ca14  1  0.07978337  0.34326756  0.83240777  1
  Ca2+  Ca15  1  0.08652765  0.82735961  0.16395678  1
  Ca2+  Ca16  1  0.07927426  0.82260382  0.49558184  1
  Ca2+  Ca17  1  0.07903478  0.82687133  0.82602130  1
  Ca2+  Ca18  1  0.57600722  0.33659797  0.16652290  1
  Ca2+  Ca19  1  0.57318978  0.33279601  0.48909428  1
  Ca2+  Ca20  1  0.56746326  0.33769499  0.82998705  1
  Ca2+  Ca21  1  0.57426615  0.82574921  0.15698289  1
  Ca2+  Ca22  1  0.58851589  0.83043473  0.50146394  1
  Ca2+  Ca23  1  0.58543027  0.82265075  0.82987685  1
  Ca2+  Ca24  1  0.33988200  0.42327100  0.16953726  1
  Ca2+  Ca25  1  0.33182591  0.41649236  0.50358466  1
  Ca2+  Ca26  1  0.32445536  0.41709828  0.84049515  1
  Ca2+  Ca27  1  0.32951027  0.91577501  0.17053424  1
  Ca2+  Ca28  1  0.33666465  0.92708056  0.49975985  1
  Ca2+  Ca29  1  0.32730372  0.91282115  0.84344677  1
  Ca2+  Ca30  1  0.82927047  0.42269764  0.17145605  1
  Ca2+  Ca31  1  0.82676773  0.41878590  0.49761495  1
  Ca2+  Ca32  1  0.83273421  0.42494355  0.84578383  1
  Ca2+  Ca33  1  0.83227046  0.92890862  0.17093391  1
  Ca2+  Ca34  1  0.83170316  0.91995159  0.50510863  1
  Ca2+  Ca35  1  0.83158662  0.91683457  0.83694794  1
  Ca2+  Ca36  1  0.41711596  0.17549720  0.16626174  1
  Ca2+  Ca37  1  0.41916599  0.17747171  0.48778575  1
  Ca2+  Ca38  1  0.41053763  0.17965693  0.83063647  1
  Ca2+  Ca39  1  0.41938730  0.66372150  0.15597322  1
  Ca2+  Ca40  1  0.42139747  0.66289599  0.49506196  1
  Ca2+  Ca41  1  0.42444456  0.66408130  0.83530604  1
  Ca2+  Ca42  1  0.91560093  0.16910743  0.16140158  1
  Ca2+  Ca43  1  0.92360049  0.16498609  0.48925077  1
  Ca2+  Ca44  1  0.91400891  0.17094419  0.83685025  1
  Ca2+  Ca45  1  0.92104750  0.65618656  0.16418083  1
  Ca2+  Ca46  1  0.92580188  0.66682460  0.49549739  1
  Ca2+  Ca47  1  0.92212181  0.66972957  0.82361715  1
  Al0+  Al48  1  0.00029892  -0.00109685  0.00765860  1
  Al0+  Al49  1  -0.00121971  -0.00214361  0.33390681  1
  Al0+  Al50  1  0.00097308  0.00193141  0.66352510  1
  Al0+  Al51  1  -0.00015808  0.49773834  0.00357586  1
  Al0+  Al52  1  0.00056099  0.50093918  0.33281455  1
  Al0+  Al53  1  0.00000891  0.49925443  0.66480377  1
  Al0+  Al54  1  0.49935266  -0.00085569  -0.00445468  1
  Al0+  Al55  1  0.49887381  0.00067379  0.33343815  1
  Al0+  Al56  1  0.50254176  0.00071331  0.67419402  1
  Al0+  Al57  1  0.50049162  0.49813305  -0.00691686  1
  Al0+  Al58  1  0.49997428  0.50128571  0.33713287  1
  Al0+  Al59  1  0.49955783  0.50070280  0.65877857  1
  Al0+  Al60  1  0.24841622  0.24633106  -0.00164875  1
  Al0+  Al61  1  0.24871441  0.24922721  0.32733608  1
  Al0+  Al62  1  0.24902727  0.25264241  0.66855049  1
  Al0+  Al63  1  0.24988127  0.74883920  0.00301543  1
  Al0+  Al64  1  0.24824491  0.74834770  0.33524485  1
  Al0+  Al65  1  0.25255052  0.75159515  0.66308916  1
  Al0+  Al66  1  0.75172399  0.24976802  -0.00273899  1
  Al0+  Al67  1  0.74952072  0.25004888  0.34064595  1
  Al0+  Al68  1  0.74964637  0.25083236  0.66911653  1
  Al0+  Al69  1  0.75137662  0.75129003  0.00299459  1
  Al0+  Al70  1  0.75117888  0.75144017  0.33600066  1
  Al0+  Al71  1  0.74950458  0.75227444  0.66203772  1
  Al0+  Al72  1  0.17910618  0.43070887  0.68009528  1
  Al0+  Al73  1  0.93024796  0.32052819  0.98686508  1
  Al0+  Al74  1  0.67864866  0.43010461  0.34868216  1
  Al0+  Al75  1  0.42814642  0.31926403  0.98484753  1
  Al0+  Al76  1  0.68071120  0.92901448  0.68231617  1
  Al0+  Al77  1  0.42880629  0.32304719  0.31682295  1
  Al0+  Al78  1  0.07277882  0.67705118  0.65231687  1
  Al0+  Al79  1  0.81884213  0.07058985  0.01361538  1
  Al0+  Al80  1  0.57319131  0.67899472  0.98652585  1
  Al0+  Al81  1  0.32087842  0.57159855  0.34831728  1
  Al0+  Al82  1  0.57206361  0.17764499  0.31954061  1
  Al0+  Al83  1  0.32175994  0.56786755  0.01298076  1
  Al0+  Al84  1  0.57000173  0.68074844  0.65042044  1
  Al0+  Al85  1  0.07031645  0.17756564  0.31887701  1
  Al0+  Al86  1  0.82062575  0.57293780  0.01182759  1
  Al0+  Al87  1  0.92934796  0.82274287  0.65149012  1
  Al0+  Al88  1  0.82106350  0.07109907  0.34813028  1
  Al0+  Al89  1  0.17764354  0.42592420  0.01685597  1
  Al0+  Al90  1  0.42816356  0.31915299  0.65120687  1
  Al0+  Al91  1  0.07075231  0.67845057  0.31655665  1
  Al0+  Al92  1  0.42655028  0.82104253  0.98534022  1
  Al0+  Al93  1  0.82324743  0.57270587  0.35081914  1
  Al0+  Al94  1  0.17952243  0.92766192  0.01371373  1
  Al0+  Al95  1  0.31950488  0.07106051  0.34552558  1
  Si0+  Si96  1  0.07003699  0.67826437  0.98640901  1
  Si0+  Si97  1  0.67725280  0.42875941  0.68271310  1
  Si0+  Si98  1  0.42851748  0.82131783  0.32040600  1
  Si0+  Si99  1  0.57168409  0.68032740  0.31895561  1
  Si0+  Si100  1  0.67782224  0.42751837  0.01331574  1
  Si0+  Si101  1  0.92754907  0.32152622  0.31798890  1
  Si0+  Si102  1  0.92670320  0.32185936  0.65163940  1
  Si0+  Si103  1  0.32363258  0.07166424  0.01605077  1
  Si0+  Si104  1  0.93065405  0.82274393  0.98721641  1
  Si0+  Si105  1  0.67647290  0.92844801  0.34963358  1
  Si0+  Si106  1  0.06980347  0.18013640  0.65306254  1
  Si0+  Si107  1  0.32046472  0.07220848  0.68187545  1
  Si0+  Si108  1  0.17943749  0.92956825  0.67956115  1
  Si0+  Si109  1  0.07043555  0.17493560  0.98275995  1
  Si0+  Si110  1  0.17774763  0.92704704  0.35272346  1
  Si0+  Si111  1  0.17864295  0.42751413  0.34867750  1
  Si0+  Si112  1  0.67683412  0.92784029  0.01758978  1
  Si0+  Si113  1  0.82490671  0.07344276  0.68492092  1
  Si0+  Si114  1  0.32401457  0.57385281  0.68311044  1
  Si0+  Si115  1  0.81922927  0.56937751  0.68048504  1
  Si0+  Si116  1  0.57434143  0.17723985  0.98160238  1
  Si0+  Si117  1  0.57265605  0.17755996  0.65163829  1
  Si0+  Si118  1  0.42793591  0.82595151  0.64891332  1
  Si0+  Si119  1  0.92693575  0.82107972  0.31380080  1
  O2-  O120  1  0.25751091  -0.00025601  0.05872400  1
  O2-  O121  1  0.24388671  -0.00121976  0.39655124  1
  O2-  O122  1  0.25279851  -0.00255048  0.72340277  1
  O2-  O123  1  0.25340574  0.49395897  0.06587377  1
  O2-  O124  1  0.24740941  0.49534103  0.39411002  1
  O2-  O125  1  0.25149481  0.50833887  0.72577975  1
  O2-  O126  1  0.74070078  0.00053520  0.06188067  1
  O2-  O127  1  0.74461849  -0.00199740  0.39385668  1
  O2-  O128  1  0.75657598  0.00377662  0.72778654  1
  O2-  O129  1  0.74368013  0.49952301  0.05631258  1
  O2-  O130  1  0.75007878  0.50218160  0.40085914  1
  O2-  O131  1  0.74842423  0.49936811  0.72551574  1
  O2-  O132  1  -0.00580411  0.25100157  0.27349268  1
  O2-  O133  1  -0.00345470  0.24895057  0.61103190  1
  O2-  O134  1  0.00626513  0.24761182  0.93768761  1
  O2-  O135  1  -0.00662525  0.75047911  0.26914355  1
  O2-  O136  1  0.00150914  0.75037104  0.60261092  1
  O2-  O137  1  -0.00172768  0.74892099  0.94410613  1
  O2-  O138  1  0.50184995  0.25058059  0.26872825  1
  O2-  O139  1  0.50452414  0.24548255  0.60637005  1
  O2-  O140  1  0.50270614  0.24339816  0.93769665  1
  O2-  O141  1  0.49916983  0.75016882  0.27805920  1
  O2-  O142  1  0.49387397  0.75501730  0.60421282  1
  O2-  O143  1  0.50078142  0.75098169  0.93600584  1
  O2-  O144  1  0.06744527  0.17283982  0.08801695  1
  O2-  O145  1  0.07030415  0.18106124  0.43301099  1
  O2-  O146  1  0.06945291  0.17684910  0.75787338  1
  O2-  O147  1  0.06936147  0.67989148  0.09136567  1
  O2-  O148  1  0.07154689  0.68123685  0.42974031  1
  O2-  O149  1  0.07000005  0.67795895  0.76660111  1
  O2-  O150  1  0.57601735  0.17837611  0.08688146  1
  O2-  O151  1  0.56850792  0.17626100  0.43353818  1
  O2-  O152  1  0.57238137  0.17919006  0.75735757  1
  O2-  O153  1  0.57406838  0.68097158  0.10041457  1
  O2-  O154  1  0.57149668  0.68243474  0.42424885  1
  O2-  O155  1  0.57159929  0.68086015  0.76326237  1
  O2-  O156  1  0.17786359  0.42894067  0.24357027  1
  O2-  O157  1  0.18013048  0.42674748  0.56714623  1
  O2-  O158  1  0.17673440  0.43109293  0.90278506  1
  O2-  O159  1  0.18008564  0.92623000  0.24704242  1
  O2-  O160  1  0.17925522  0.93220861  0.57480215  1
  O2-  O161  1  0.17718561  0.92962760  0.89966236  1
  O2-  O162  1  0.67908973  0.43252460  0.23476970  1
  O2-  O163  1  0.67970526  0.42782378  0.57807776  1
  O2-  O164  1  0.68042774  0.42720127  0.90706717  1
  O2-  O165  1  0.67736758  0.92675010  0.24413085  1
  O2-  O166  1  0.68010339  0.93274415  0.56918725  1
  O2-  O167  1  0.68095752  0.92670014  0.91191337  1
  O2-  O168  1  0.43053444  0.31963461  0.09729662  1
  O2-  O169  1  0.42796779  0.32043825  0.43073876  1
  O2-  O170  1  0.42721538  0.31747994  0.76451866  1
  O2-  O171  1  0.42814672  0.82108980  0.09941675  1
  O2-  O172  1  0.43027805  0.82244526  0.42575024  1
  O2-  O173  1  0.42638175  0.82660630  0.75402570  1
  O2-  O174  1  0.92848696  0.31870911  0.09954167  1
  O2-  O175  1  0.93022479  0.32081119  0.42440603  1
  O2-  O176  1  0.92621249  0.32291087  0.75660218  1
  O2-  O177  1  0.93227551  0.82440298  0.09198721  1
  O2-  O178  1  0.92881673  0.82219199  0.41944511  1
  O2-  O179  1  0.93158076  0.82215590  0.76595906  1
  O2-  O180  1  0.31914032  0.06685390  0.23288416  1
  O2-  O181  1  0.31917780  0.07277000  0.57668927  1
  O2-  O182  1  0.31993604  0.07253537  0.90968043  1
  O2-  O183  1  0.32180060  0.57353672  0.23559736  1
  O2-  O184  1  0.32379449  0.57227314  0.57731227  1
  O2-  O185  1  0.31945591  0.56882619  0.89907487  1
  O2-  O186  1  0.82112322  0.06951178  0.23501410  1
  O2-  O187  1  0.82567229  0.07501257  0.57957349  1
  O2-  O188  1  0.81948228  0.06758809  0.90012614  1
  O2-  O189  1  0.82090396  0.57112139  0.23711740  1
  O2-  O190  1  0.81911174  0.56608951  0.57580594  1
  O2-  O191  1  0.82183715  0.57296784  0.89784709  1
  O2-  O192  1  0.04188071  0.07917046  0.26775040  1
  O2-  O193  1  0.04548580  0.08899224  0.60244934  1
  O2-  O194  1  0.03837632  0.08273171  0.93605602  1
  O2-  O195  1  0.04189700  0.58114740  0.26324830  1
  O2-  O196  1  0.04176198  0.57992246  0.59805868  1
  O2-  O197  1  0.04180431  0.58643534  0.93996791  1
  O2-  O198  1  0.54369016  0.07936052  0.26569502  1
  O2-  O199  1  0.54819611  0.08276496  0.60814699  1
  O2-  O200  1  0.55168250  0.08231624  0.93616620  1
  O2-  O201  1  0.54480739  0.58836193  0.27330139  1
  O2-  O202  1  0.54063280  0.58485742  0.59445566  1
  O2-  O203  1  0.54790666  0.58097361  0.93108848  1
  O2-  O204  1  0.16518767  0.20677859  0.26211236  1
  O2-  O205  1  0.16070361  0.21106185  0.60581952  1
  O2-  O206  1  0.16552828  0.19301688  0.93679383  1
  O2-  O207  1  0.16684415  0.71319609  0.26355922  1
  O2-  O208  1  0.17186714  0.70504130  0.60023695  1
  O2-  O209  1  0.16115598  0.70709833  0.93909313  1
  O2-  O210  1  0.67236882  0.20514294  0.27032136  1
  O2-  O211  1  0.66767185  0.20184143  0.60720779  1
  O2-  O212  1  0.66664913  0.20408820  0.93334465  1
  O2-  O213  1  0.66391446  0.70898172  0.27275504  1
  O2-  O214  1  0.66518150  0.71363076  0.59535765  1
  O2-  O215  1  0.67152499  0.71126351  0.93323693  1
  O2-  O216  1  0.08084039  0.45622457  0.07046053  1
  O2-  O217  1  0.08512937  0.45329217  0.39521921  1
  O2-  O218  1  0.08062346  0.45864081  0.73341447  1
  O2-  O219  1  0.08591895  0.96080107  0.07144572  1
  O2-  O220  1  0.08296318  0.94955609  0.39668933  1
  O2-  O221  1  0.08849767  0.96075172  0.72767060  1
  O2-  O222  1  0.58332827  0.44937802  0.05736106  1
  O2-  O223  1  0.58200154  0.46038360  0.40417371  1
  O2-  O224  1  0.58435547  0.45768866  0.72701229  1
  O2-  O225  1  0.58041882  0.94835902  0.05961842  1
  O2-  O226  1  0.58304760  0.95259758  0.39676822  1
  O2-  O227  1  0.58508052  0.95917013  0.73996341  1
  O2-  O228  1  0.19824893  0.32330712  0.06307877  1
  O2-  O229  1  0.20290202  0.33303049  0.39362984  1
  O2-  O230  1  0.21005286  0.33460930  0.73630639  1
  O2-  O231  1  0.20806591  0.83187587  0.06957509  1
  O2-  O232  1  0.20745595  0.83554557  0.40015921  1
  O2-  O233  1  0.20447712  0.83662143  0.72662056  1
  O2-  O234  1  0.70709501  0.33543565  0.05931566  1
  O2-  O235  1  0.70659287  0.33299324  0.40539418  1
  O2-  O236  1  0.70343158  0.33649979  0.73062659  1
  O2-  O237  1  0.70665331  0.83697945  0.06626029  1
  O2-  O238  1  0.70418528  0.83613175  0.39765775  1
  O2-  O239  1  0.71243594  0.83214735  0.73574888  1
  O2-  O240  1  0.46022721  0.42189355  0.26622688  1
  O2-  O241  1  0.45762804  0.41551259  0.59744619  1
  O2-  O242  1  0.45930170  0.41395598  0.92701002  1
  O2-  O243  1  0.45575283  0.91229662  0.27158573  1
  O2-  O244  1  0.45793365  0.91973631  0.60467072  1
  O2-  O245  1  0.44991081  0.92087052  0.93151197  1
  O2-  O246  1  0.95404150  0.41459433  0.27219532  1
  O2-  O247  1  0.95579376  0.41186799  0.60221392  1
  O2-  O248  1  0.96078552  0.41729471  0.93117657  1
  O2-  O249  1  0.95560835  0.91374261  0.26758154  1
  O2-  O250  1  0.95804858  0.92143601  0.59830387  1
  O2-  O251  1  0.96160154  0.91316184  0.93863704  1
  O2-  O252  1  0.33128622  0.29358083  0.26400712  1
  O2-  O253  1  0.33161835  0.28607801  0.59867499  1
  O2-  O254  1  0.33116693  0.28638145  0.93069098  1
  O2-  O255  1  0.33580520  0.79464690  0.27525488  1
  O2-  O256  1  0.33364542  0.80556904  0.60155436  1
  O2-  O257  1  0.32819415  0.79143392  0.93201114  1
  O2-  O258  1  0.83300592  0.29721104  0.27501827  1
  O2-  O259  1  0.83403537  0.29532076  0.60491957  1
  O2-  O260  1  0.83498506  0.28878162  0.92912620  1
  O2-  O261  1  0.83158643  0.79972441  0.26922243  1
  O2-  O262  1  0.83181551  0.79612392  0.59768638  1
  O2-  O263  1  0.83749980  0.79852811  0.94099160  1
  O2-  O264  1  0.41923094  0.05069133  0.05933707  1
  O2-  O265  1  0.41494841  0.03844274  0.40201614  1
  O2-  O266  1  0.41312349  0.04946041  0.72941041  1
  O2-  O267  1  0.42236526  0.54161069  0.06303860  1
  O2-  O268  1  0.41731656  0.54363456  0.40325190  1
  O2-  O269  1  0.41736410  0.54444174  0.72724465  1
  O2-  O270  1  0.91330647  0.03702161  0.06917025  1
  O2-  O271  1  0.91702634  0.03725532  0.40287656  1
  O2-  O272  1  0.91916828  0.04845352  0.73039236  1
  O2-  O273  1  0.91472335  0.53821590  0.06682216  1
  O2-  O274  1  0.92156665  0.54255287  0.40308079  1
  O2-  O275  1  0.91125412  0.54098260  0.72734908  1
  O2-  O276  1  0.29477439  0.16321225  0.06309667  1
  O2-  O277  1  0.28722453  0.16766966  0.39959129  1
  O2-  O278  1  0.28678588  0.16139101  0.73064811  1
  O2-  O279  1  0.29248525  0.66555027  0.06639893  1
  O2-  O280  1  0.28865026  0.66734512  0.40394292  1
  O2-  O281  1  0.30415905  0.67039038  0.72593753  1
  O2-  O282  1  0.79148779  0.16864113  0.06609417  1
  O2-  O283  1  0.79530814  0.16711990  0.40513622  1
  O2-  O284  1  0.79763760  0.16702048  0.73143999  1
  O2-  O285  1  0.79438939  0.66948471  0.06822039  1
  O2-  O286  1  0.79606297  0.67218669  0.40222003  1
  O2-  O287  1  0.79241554  0.66277674  0.72454616  1
