# generated using pymatgen
data_Ca2Al2SiO7
_symmetry_space_group_name_H-M   'P 1'
_cell_length_a   15.45905731
_cell_length_b   15.45950660
_cell_length_c   15.28417692
_cell_angle_alpha   89.98634089
_cell_angle_beta   90.00387456
_cell_angle_gamma   90.01620365
_symmetry_Int_Tables_number   1
_chemical_formula_structural   Ca2Al2SiO7
_chemical_formula_sum   'Ca48 Al48 Si24 O168'
_cell_volume   3652.75599149
_cell_formula_units_Z   24
loop_
 _symmetry_equiv_pos_site_id
 _symmetry_equiv_pos_as_xyz
  1  'x, y, z'
loop_
 _atom_type_symbol
 _atom_type_oxidation_number
  Ca2+  2.0
  Al0+  0.0
  Si0+  0.0
  O2-  -2.0
loop_
 _atom_site_type_symbol
 _atom_site_label
 _atom_site_symmetry_multiplicity
 _atom_site_fract_x
 _atom_site_fract_y
 _atom_site_fract_z
 _atom_site_occupancy
  Ca2+  Ca0  1  0.17286950  0.09018108  0.16693542  1
  Ca2+  Ca1  1  0.17634727  0.07339644  0.51335902  1
  Ca2+  Ca2  1  0.17611264  0.08063344  0.83798067  1
  Ca2+  Ca3  1  0.17024973  0.59600075  0.16622169  1
  Ca2+  Ca4  1  0.17216409  0.58118555  0.50869259  1
  Ca2+  Ca5  1  0.17481809  0.58250624  0.83803645  1
  Ca2+  Ca6  1  0.66655959  0.07295505  0.17552974  1
  Ca2+  Ca7  1  0.67054214  0.08413048  0.50165754  1
  Ca2+  Ca8  1  0.66772787  0.08113622  0.83602896  1
  Ca2+  Ca9  1  0.67066577  0.57866113  0.17374497  1
  Ca2+  Ca10  1  0.66059241  0.57662738  0.50863645  1
  Ca2+  Ca11  1  0.67465209  0.58629622  0.83613143  1
  Ca2+  Ca12  1  0.07370106  0.32598474  0.15313957  1
  Ca2+  Ca13  1  0.08252107  0.33523438  0.49819542  1
  Ca2+  Ca14  1  0.08031153  0.33341190  0.83262845  1
  Ca2+  Ca15  1  0.07980531  0.82339941  0.16182992  1
  Ca2+  Ca16  1  0.08413017  0.82992824  0.49508441  1
  Ca2+  Ca17  1  0.08689049  0.82960884  0.83053749  1
  Ca2+  Ca18  1  0.59076056  0.32723855  0.16866439  1
  Ca2+  Ca19  1  0.59447156  0.32608409  0.49808370  1
  Ca2+  Ca20  1  0.58389011  0.32812911  0.82274321  1
  Ca2+  Ca21  1  0.57765626  0.83981752  0.16344017  1
  Ca2+  Ca22  1  0.57966177  0.82181405  0.49107307  1
  Ca2+  Ca23  1  0.58001844  0.83036824  0.82976593  1
  Ca2+  Ca24  1  0.33318542  0.42531998  0.16717534  1
  Ca2+  Ca25  1  0.32601968  0.42385133  0.51090628  1
  Ca2+  Ca26  1  0.33370331  0.42984455  0.83545830  1
  Ca2+  Ca27  1  0.33926976  0.91560294  0.16601387  1
  Ca2+  Ca28  1  0.33130134  0.91620823  0.50463218  1
  Ca2+  Ca29  1  0.33539566  0.92433854  0.83734389  1
  Ca2+  Ca30  1  0.83320760  0.41832500  0.16764085  1
  Ca2+  Ca31  1  0.82106785  0.42431264  0.50608651  1
  Ca2+  Ca32  1  0.83027493  0.42412087  0.83444164  1
  Ca2+  Ca33  1  0.82010692  0.92061514  0.17336476  1
  Ca2+  Ca34  1  0.82853128  0.92636696  0.50295456  1
  Ca2+  Ca35  1  0.82481232  0.92066004  0.83710339  1
  Ca2+  Ca36  1  0.42231901  0.16418891  0.16215809  1
  Ca2+  Ca37  1  0.42867725  0.16247360  0.49857727  1
  Ca2+  Ca38  1  0.42007451  0.16206029  0.82559745  1
  Ca2+  Ca39  1  0.42244946  0.67827502  0.16164429  1
  Ca2+  Ca40  1  0.42476437  0.66698935  0.49477729  1
  Ca2+  Ca41  1  0.41581315  0.66929740  0.82758201  1
  Ca2+  Ca42  1  0.91733170  0.17136643  0.15788014  1
  Ca2+  Ca43  1  0.91131626  0.16406636  0.49574782  1
  Ca2+  Ca44  1  0.91683833  0.17072246  0.82821884  1
  Ca2+  Ca45  1  0.92664343  0.65911770  0.15881782  1
  Ca2+  Ca46  1  0.92257161  0.66304673  0.49765604  1
  Ca2+  Ca47  1  0.91698120  0.66088961  0.83067642  1
  Al0+  Al48  1  0.00069040  -0.00118090  -0.00352331  1
  Al0+  Al49  1  0.00238069  -0.00025610  0.33466064  1
  Al0+  Al50  1  -0.00097662  -0.00024244  0.67334309  1
  Al0+  Al51  1  -0.00079670  0.49841622  -0.00559527  1
  Al0+  Al52  1  0.00122923  0.49834380  0.32874436  1
  Al0+  Al53  1  -0.00117047  0.49903528  0.67035232  1
  Al0+  Al54  1  0.49846930  -0.00067161  0.00259473  1
  Al0+  Al55  1  0.50065974  0.00082276  0.33093674  1
  Al0+  Al56  1  0.50030180  -0.00044569  0.66302847  1
  Al0+  Al57  1  0.49991286  0.49946145  0.00615579  1
  Al0+  Al58  1  0.49894422  0.49997513  0.33347814  1
  Al0+  Al59  1  0.49827891  0.49840684  0.67011373  1
  Al0+  Al60  1  0.25127619  0.25021435  0.00085831  1
  Al0+  Al61  1  0.25057220  0.25128461  0.33439670  1
  Al0+  Al62  1  0.24874709  0.24923107  0.67178451  1
  Al0+  Al63  1  0.25087853  0.75154685  -0.00430049  1
  Al0+  Al64  1  0.25060086  0.75097299  0.32680338  1
  Al0+  Al65  1  0.24860394  0.75030138  0.67156941  1
  Al0+  Al66  1  0.75011388  0.25031504  -0.00523437  1
  Al0+  Al67  1  0.75059849  0.25247298  0.33423093  1
  Al0+  Al68  1  0.75095266  0.25070778  0.66924585  1
  Al0+  Al69  1  0.75032291  0.74840258  0.01044212  1
  Al0+  Al70  1  0.75220360  0.75009755  0.33492810  1
  Al0+  Al71  1  0.75061829  0.75077914  0.66330417  1
  Al0+  Al72  1  0.57417297  0.67558832  0.31758550  1
  Al0+  Al73  1  0.32092656  0.57359015  0.01679419  1
  Al0+  Al74  1  0.67910877  0.93002260  0.01287740  1
  Al0+  Al75  1  0.43160438  0.82101378  0.98338105  1
  Al0+  Al76  1  0.81978993  0.07146361  0.68145990  1
  Al0+  Al77  1  0.67901391  0.43181425  0.34684731  1
  Al0+  Al78  1  0.67799427  0.42889490  0.68205275  1
  Al0+  Al79  1  0.17648339  0.42768656  0.68240647  1
  Al0+  Al80  1  0.57121244  0.18212970  0.31915990  1
  Al0+  Al81  1  0.57168440  0.17935476  0.65264304  1
  Al0+  Al82  1  0.07320841  0.17686989  0.98294722  1
  Al0+  Al83  1  0.92732101  0.31995378  0.98089544  1
  Al0+  Al84  1  0.81982567  0.57351003  0.68017773  1
  Al0+  Al85  1  0.57111131  0.67844735  0.65531501  1
  Al0+  Al86  1  0.31952341  0.07117365  0.01585107  1
  Al0+  Al87  1  0.82142647  0.56877036  0.01533216  1
  Al0+  Al88  1  0.06879642  0.67907189  0.32078560  1
  Al0+  Al89  1  0.32347977  0.06924556  0.68025631  1
  Al0+  Al90  1  0.67623970  0.92721128  0.35132854  1
  Al0+  Al91  1  0.17770747  0.92776079  0.68221498  1
  Al0+  Al92  1  0.32130876  0.57121604  0.68067342  1
  Al0+  Al93  1  0.43058201  0.82066481  0.31792637  1
  Al0+  Al94  1  0.06997918  0.68059608  0.98331089  1
  Al0+  Al95  1  0.82166211  0.07104293  0.34621915  1
  Si0+  Si96  1  0.07024149  0.67912806  0.65262970  1
  Si0+  Si97  1  0.31836312  0.57220522  0.34698661  1
  Si0+  Si98  1  0.57305049  0.67619819  0.98509437  1
  Si0+  Si99  1  0.56869294  0.17943548  0.98567018  1
  Si0+  Si100  1  0.42945279  0.32342388  0.98567400  1
  Si0+  Si101  1  0.93022492  0.32083902  0.64845454  1
  Si0+  Si102  1  0.92907250  0.82521342  0.31712525  1
  Si0+  Si103  1  0.42397867  0.32200009  0.31608194  1
  Si0+  Si104  1  0.18082251  0.92875024  0.34629215  1
  Si0+  Si105  1  0.93088956  0.31932028  0.31902265  1
  Si0+  Si106  1  0.67807556  0.92764582  0.68159160  1
  Si0+  Si107  1  0.07361978  0.17790866  0.32079565  1
  Si0+  Si108  1  0.67708819  0.42569919  0.01776875  1
  Si0+  Si109  1  0.42564087  0.32166011  0.65085675  1
  Si0+  Si110  1  0.17669921  0.92774890  0.01869714  1
  Si0+  Si111  1  0.82247940  0.07300811  0.01470044  1
  Si0+  Si112  1  0.17838644  0.42803627  0.34639415  1
  Si0+  Si113  1  0.42676087  0.82119619  0.65025791  1
  Si0+  Si114  1  0.07079320  0.17763440  0.65066289  1
  Si0+  Si115  1  0.17905721  0.42961317  0.01767544  1
  Si0+  Si116  1  0.92864265  0.82327367  0.65127942  1
  Si0+  Si117  1  0.92470354  0.82118927  0.98366276  1
  Si0+  Si118  1  0.32086295  0.07359780  0.34848630  1
  Si0+  Si119  1  0.82607977  0.57125489  0.34857360  1
  O2-  O120  1  0.24179493  -0.00028055  0.06379885  1
  O2-  O121  1  0.25089985  0.00065325  0.38858113  1
  O2-  O122  1  0.25140491  -0.00181699  0.73093641  1
  O2-  O123  1  0.24412076  0.50057751  0.06456974  1
  O2-  O124  1  0.24860817  0.49939730  0.38862039  1
  O2-  O125  1  0.24914609  0.49926351  0.73091445  1
  O2-  O126  1  0.75560234  0.00355972  0.05922790  1
  O2-  O127  1  0.74984091  -0.00014040  0.39821909  1
  O2-  O128  1  0.74316270  -0.00101298  0.72712719  1
  O2-  O129  1  0.74603247  0.49443883  0.06126929  1
  O2-  O130  1  0.74865101  0.51241939  0.39224152  1
  O2-  O131  1  0.74514025  0.50521198  0.73124582  1
  O2-  O132  1  -0.00011670  0.24551280  0.27830240  1
  O2-  O133  1  0.00129619  0.24928531  0.60557772  1
  O2-  O134  1  -0.00139932  0.24591667  0.93245870  1
  O2-  O135  1  -0.00900705  0.75006954  0.27329069  1
  O2-  O136  1  0.00019629  0.75120767  0.61023719  1
  O2-  O137  1  -0.00570214  0.75466713  0.93716351  1
  O2-  O138  1  0.49497520  0.25549735  0.27181483  1
  O2-  O139  1  0.49544215  0.25386560  0.60644920  1
  O2-  O140  1  0.50049384  0.25275085  0.94358241  1
  O2-  O141  1  0.50709583  0.75271163  0.26811986  1
  O2-  O142  1  0.49420803  0.75079336  0.60746152  1
  O2-  O143  1  0.50427738  0.74354600  0.93888972  1
  O2-  O144  1  0.07209491  0.18047358  0.09790565  1
  O2-  O145  1  0.07634305  0.17991945  0.42583287  1
  O2-  O146  1  0.06881106  0.17794818  0.75507447  1
  O2-  O147  1  0.06873179  0.68263856  0.09700900  1
  O2-  O148  1  0.06981043  0.67932331  0.43432438  1
  O2-  O149  1  0.06939347  0.67943997  0.75726346  1
  O2-  O150  1  0.56872963  0.18071432  0.09099623  1
  O2-  O151  1  0.57040164  0.18355397  0.43207047  1
  O2-  O152  1  0.57025450  0.17919893  0.76621026  1
  O2-  O153  1  0.57145022  0.67612568  0.09056577  1
  O2-  O154  1  0.56737754  0.67297620  0.43137749  1
  O2-  O155  1  0.57306545  0.68324520  0.76843759  1
  O2-  O156  1  0.17865345  0.42470027  0.24186596  1
  O2-  O157  1  0.17636067  0.43057475  0.56746203  1
  O2-  O158  1  0.18271473  0.42992883  0.91245399  1
  O2-  O159  1  0.17884359  0.92978888  0.24161973  1
  O2-  O160  1  0.17775699  0.92811507  0.56747217  1
  O2-  O161  1  0.17879256  0.92784313  0.91340737  1
  O2-  O162  1  0.68427522  0.42858620  0.23368381  1
  O2-  O163  1  0.68194560  0.42857718  0.56818407  1
  O2-  O164  1  0.67486499  0.42499169  0.91269001  1
  O2-  O165  1  0.67706650  0.93183319  0.23747025  1
  O2-  O166  1  0.68048362  0.92717047  0.57630719  1
  O2-  O167  1  0.67999002  0.93188498  0.89941966  1
  O2-  O168  1  0.42995149  0.32329772  0.09110279  1
  O2-  O169  1  0.41635884  0.31920337  0.42103774  1
  O2-  O170  1  0.42661847  0.32073823  0.75667278  1
  O2-  O171  1  0.43355191  0.82174115  0.09631214  1
  O2-  O172  1  0.42456659  0.81614739  0.43155330  1
  O2-  O173  1  0.42867118  0.82263756  0.75574911  1
  O2-  O174  1  0.92753482  0.31778379  0.09571389  1
  O2-  O175  1  0.93380909  0.32219151  0.42417894  1
  O2-  O176  1  0.93069044  0.31990432  0.75295254  1
  O2-  O177  1  0.92686885  0.82097337  0.08942503  1
  O2-  O178  1  0.93483986  0.82892331  0.42279749  1
  O2-  O179  1  0.92708587  0.82357797  0.75612758  1
  O2-  O180  1  0.31768651  0.07763464  0.24353844  1
  O2-  O181  1  0.32179375  0.06780305  0.56584495  1
  O2-  O182  1  0.32223268  0.06936910  0.90330760  1
  O2-  O183  1  0.31635309  0.57176324  0.24191951  1
  O2-  O184  1  0.31808635  0.57128844  0.56616898  1
  O2-  O185  1  0.32166559  0.57058412  0.90422123  1
  O2-  O186  1  0.82304285  0.07019958  0.23250825  1
  O2-  O187  1  0.82137682  0.06968852  0.56840021  1
  O2-  O188  1  0.81929216  0.07300037  0.90910672  1
  O2-  O189  1  0.83148338  0.56380864  0.24337063  1
  O2-  O190  1  0.82383073  0.57047096  0.56633494  1
  O2-  O191  1  0.81857599  0.57015050  0.90264509  1
  O2-  O192  1  0.05101856  0.08491896  0.27354815  1
  O2-  O193  1  0.04149695  0.08519571  0.60440985  1
  O2-  O194  1  0.05070360  0.07629231  0.93220895  1
  O2-  O195  1  0.04237484  0.58177842  0.26483202  1
  O2-  O196  1  0.04140978  0.58715836  0.60509608  1
  O2-  O197  1  0.04152911  0.58326094  0.93116063  1
  O2-  O198  1  0.54017024  0.08597858  0.26510217  1
  O2-  O199  1  0.54166247  0.08272631  0.59710831  1
  O2-  O200  1  0.53740077  0.08908056  0.93865265  1
  O2-  O201  1  0.54164020  0.57827795  0.26397341  1
  O2-  O202  1  0.54075632  0.58038330  0.60321306  1
  O2-  O203  1  0.54883573  0.58101293  0.94176770  1
  O2-  O204  1  0.16373209  0.20964725  0.27169359  1
  O2-  O205  1  0.16376452  0.20402272  0.60369961  1
  O2-  O206  1  0.17179136  0.20842121  0.93233151  1
  O2-  O207  1  0.16278960  0.71417342  0.26480395  1
  O2-  O208  1  0.16244915  0.70660824  0.60497677  1
  O2-  O209  1  0.16602391  0.71244719  0.92985472  1
  O2-  O210  1  0.66711621  0.21550796  0.26458040  1
  O2-  O211  1  0.66857479  0.21217650  0.59949055  1
  O2-  O212  1  0.66128090  0.20355229  0.93831027  1
  O2-  O213  1  0.67735463  0.69497305  0.27074763  1
  O2-  O214  1  0.66700214  0.70905438  0.59879982  1
  O2-  O215  1  0.66763961  0.70373509  0.94257739  1
  O2-  O216  1  0.08335884  0.45132157  0.06028367  1
  O2-  O217  1  0.08657446  0.45577205  0.39402360  1
  O2-  O218  1  0.07943352  0.45627193  0.73580807  1
  O2-  O219  1  0.08058986  0.94796981  0.06292350  1
  O2-  O220  1  0.08971239  0.95516018  0.39596794  1
  O2-  O221  1  0.08088171  0.95615355  0.73678368  1
  O2-  O222  1  0.58427102  0.44943127  0.06646665  1
  O2-  O223  1  0.57914328  0.45352297  0.39923175  1
  O2-  O224  1  0.57753741  0.44791386  0.73284052  1
  O2-  O225  1  0.58501630  0.96533990  0.06797185  1
  O2-  O226  1  0.57743001  0.95684311  0.40230638  1
  O2-  O227  1  0.58348837  0.95049947  0.72567505  1
  O2-  O228  1  0.20767659  0.33701534  0.06472867  1
  O2-  O229  1  0.20591947  0.33702034  0.39663487  1
  O2-  O230  1  0.20057754  0.32884731  0.73475171  1
  O2-  O231  1  0.20683011  0.83546247  0.06443511  1
  O2-  O232  1  0.21022401  0.83721447  0.39391872  1
  O2-  O233  1  0.20231428  0.82966721  0.73587064  1
  O2-  O234  1  0.70510617  0.33157095  0.06273813  1
  O2-  O235  1  0.71615173  0.33780696  0.40165168  1
  O2-  O236  1  0.71170745  0.33316777  0.73615237  1
  O2-  O237  1  0.70752284  0.83460799  0.07019125  1
  O2-  O238  1  0.70418336  0.82756669  0.40263921  1
  O2-  O239  1  0.70837138  0.83629349  0.72867088  1
  O2-  O240  1  0.44780122  0.41646527  0.27159859  1
  O2-  O241  1  0.44839484  0.41582738  0.60456545  1
  O2-  O242  1  0.45747902  0.41535486  0.93856331  1
  O2-  O243  1  0.45327301  0.92104093  0.26595419  1
  O2-  O244  1  0.45282466  0.91374550  0.60222379  1
  O2-  O245  1  0.46490601  0.91748058  0.93023305  1
  O2-  O246  1  0.96223443  0.40847818  0.26820200  1
  O2-  O247  1  0.95937236  0.41260249  0.60071872  1
  O2-  O248  1  0.95773540  0.41679221  0.92736089  1
  O2-  O249  1  0.96201376  0.91542879  0.26757832  1
  O2-  O250  1  0.95885391  0.91460515  0.60357014  1
  O2-  O251  1  0.94688968  0.91582044  0.93782433  1
  O2-  O252  1  0.33197216  0.29396226  0.26624137  1
  O2-  O253  1  0.33117807  0.29639387  0.60501838  1
  O2-  O254  1  0.33766304  0.29656044  0.93920392  1
  O2-  O255  1  0.33394691  0.78942410  0.26183961  1
  O2-  O256  1  0.33143198  0.79719160  0.60613574  1
  O2-  O257  1  0.33429703  0.79344346  0.93050885  1
  O2-  O258  1  0.83960419  0.29355044  0.27057707  1
  O2-  O259  1  0.83864079  0.29159876  0.60153100  1
  O2-  O260  1  0.82867352  0.29332558  0.92700519  1
  O2-  O261  1  0.83280506  0.80736469  0.27484056  1
  O2-  O262  1  0.83843407  0.79588706  0.60046130  1
  O2-  O263  1  0.83109115  0.79296880  0.93929275  1
  O2-  O264  1  0.41463499  0.03742907  0.07091599  1
  O2-  O265  1  0.41320647  0.04687397  0.39376010  1
  O2-  O266  1  0.42188880  0.04103986  0.73316676  1
  O2-  O267  1  0.41622976  0.53930079  0.07205808  1
  O2-  O268  1  0.41005833  0.54492142  0.39395032  1
  O2-  O269  1  0.41768655  0.54260008  0.73653867  1
  O2-  O270  1  0.91798469  0.05057578  0.05811317  1
  O2-  O271  1  0.92152752  0.04382904  0.39925961  1
  O2-  O272  1  0.91451050  0.03977746  0.73702836  1
  O2-  O273  1  0.91860122  0.53520326  0.06737747  1
  O2-  O274  1  0.91650321  0.53585977  0.39671424  1
  O2-  O275  1  0.91633176  0.54145029  0.73372889  1
  O2-  O276  1  0.29220479  0.16912571  0.07062701  1
  O2-  O277  1  0.29100170  0.16419077  0.39730090  1
  O2-  O278  1  0.29628986  0.16748395  0.73260754  1
  O2-  O279  1  0.28886006  0.67073367  0.06857946  1
  O2-  O280  1  0.28704572  0.66305099  0.39360819  1
  O2-  O281  1  0.29293100  0.66848917  0.73417535  1
  O2-  O282  1  0.79575611  0.16695346  0.05951641  1
  O2-  O283  1  0.79428757  0.16987069  0.39852291  1
  O2-  O284  1  0.79115672  0.16761790  0.73560679  1
  O2-  O285  1  0.79461172  0.66441411  0.07309541  1
  O2-  O286  1  0.81499599  0.66924277  0.38905011  1
  O2-  O287  1  0.79626682  0.67344792  0.73206199  1
