# generated using pymatgen
data_Ca2Al2SiO7
_symmetry_space_group_name_H-M   'P 1'
_cell_length_a   15.45754179
_cell_length_b   15.45821331
_cell_length_c   15.28351830
_cell_angle_alpha   90.01090505
_cell_angle_beta   89.99191791
_cell_angle_gamma   90.00367215
_symmetry_Int_Tables_number   1
_chemical_formula_structural   Ca2Al2SiO7
_chemical_formula_sum   'Ca48 Al48 Si24 O168'
_cell_volume   3651.93512121
_cell_formula_units_Z   24
loop_
 _symmetry_equiv_pos_site_id
 _symmetry_equiv_pos_as_xyz
  1  'x, y, z'
loop_
 _atom_type_symbol
 _atom_type_oxidation_number
  Ca2+  2.0
  Al0+  0.0
  Si0+  0.0
  O2-  -2.0
loop_
 _atom_site_type_symbol
 _atom_site_label
 _atom_site_symmetry_multiplicity
 _atom_site_fract_x
 _atom_site_fract_y
 _atom_site_fract_z
 _atom_site_occupancy
  Ca2+  Ca0  1  0.17247954  0.07704088  0.17093860  1
  Ca2+  Ca1  1  0.16225065  0.07061461  0.50767168  1
  Ca2+  Ca2  1  0.16953297  0.08101790  0.83164062  1
  Ca2+  Ca3  1  0.16470762  0.58428716  0.17381932  1
  Ca2+  Ca4  1  0.16040114  0.57957829  0.50816085  1
  Ca2+  Ca5  1  0.15926108  0.57957393  0.82799768  1
  Ca2+  Ca6  1  0.66873550  0.07678794  0.17110720  1
  Ca2+  Ca7  1  0.67856411  0.07784725  0.50278019  1
  Ca2+  Ca8  1  0.66737905  0.07466388  0.83515772  1
  Ca2+  Ca9  1  0.67716310  0.57963010  0.17464380  1
  Ca2+  Ca10  1  0.68016731  0.57908902  0.50809262  1
  Ca2+  Ca11  1  0.67057806  0.57919827  0.82949703  1
  Ca2+  Ca12  1  0.06971645  0.33131039  0.16406749  1
  Ca2+  Ca13  1  0.08241412  0.32486540  0.49851460  1
  Ca2+  Ca14  1  0.08121675  0.32628133  0.82550079  1
  Ca2+  Ca15  1  0.07891966  0.83127879  0.16628967  1
  Ca2+  Ca16  1  0.08186726  0.82684916  0.49734650  1
  Ca2+  Ca17  1  0.07250499  0.83232399  0.82037325  1
  Ca2+  Ca18  1  0.57989039  0.32368489  0.16065561  1
  Ca2+  Ca19  1  0.57497549  0.34166000  0.49693926  1
  Ca2+  Ca20  1  0.58060143  0.32628770  0.82386281  1
  Ca2+  Ca21  1  0.58285729  0.84435400  0.16557215  1
  Ca2+  Ca22  1  0.57510281  0.84781279  0.49835936  1
  Ca2+  Ca23  1  0.57955613  0.84210234  0.82585548  1
  Ca2+  Ca24  1  0.33210728  0.41764472  0.17289269  1
  Ca2+  Ca25  1  0.33038133  0.41485623  0.51084613  1
  Ca2+  Ca26  1  0.32783114  0.40986145  0.83000890  1
  Ca2+  Ca27  1  0.33169575  0.92272451  0.17468382  1
  Ca2+  Ca28  1  0.32427222  0.90723714  0.50391854  1
  Ca2+  Ca29  1  0.32636708  0.91658222  0.83569429  1
  Ca2+  Ca30  1  0.83897442  0.41851731  0.17653546  1
  Ca2+  Ca31  1  0.83752545  0.42610901  0.50599427  1
  Ca2+  Ca32  1  0.83620460  0.42112657  0.83285360  1
  Ca2+  Ca33  1  0.82357284  0.91863961  0.17569289  1
  Ca2+  Ca34  1  0.82756022  0.92327403  0.51238452  1
  Ca2+  Ca35  1  0.83025119  0.91619291  0.83600220  1
  Ca2+  Ca36  1  0.42135641  0.16560597  0.16076892  1
  Ca2+  Ca37  1  0.41685560  0.17891588  0.49669419  1
  Ca2+  Ca38  1  0.42213410  0.16319820  0.82839631  1
  Ca2+  Ca39  1  0.42018901  0.67542020  0.16747883  1
  Ca2+  Ca40  1  0.41891829  0.67824102  0.49709120  1
  Ca2+  Ca41  1  0.42167232  0.67399971  0.82296799  1
  Ca2+  Ca42  1  0.90490970  0.17678106  0.16599629  1
  Ca2+  Ca43  1  0.91589649  0.16473914  0.49761402  1
  Ca2+  Ca44  1  0.91839458  0.16945707  0.82502747  1
  Ca2+  Ca45  1  0.91944922  0.67046021  0.16469753  1
  Ca2+  Ca46  1  0.92173036  0.66463838  0.49898859  1
  Ca2+  Ca47  1  0.91659313  0.67853457  0.82467266  1
  Al0+  Al48  1  -0.00010177  0.00113421  -0.00099631  1
  Al0+  Al49  1  0.00208599  -0.00085904  0.33768133  1
  Al0+  Al50  1  0.00067565  0.00041549  0.66789672  1
  Al0+  Al51  1  0.00044580  0.49939603  -0.00316639  1
  Al0+  Al52  1  0.00177506  0.49924063  0.32923287  1
  Al0+  Al53  1  0.00092496  0.49969926  0.67437595  1
  Al0+  Al54  1  0.49917084  0.00121522  0.00330672  1
  Al0+  Al55  1  0.49856397  0.00309647  0.33312239  1
  Al0+  Al56  1  0.50088693  0.00286635  0.66198312  1
  Al0+  Al57  1  0.49938842  0.50101689  0.00191899  1
  Al0+  Al58  1  0.49897732  0.50252241  0.32675004  1
  Al0+  Al59  1  0.50004562  0.50116890  0.66715908  1
  Al0+  Al60  1  0.24892702  0.25144801  0.00736258  1
  Al0+  Al61  1  0.24920992  0.25059485  0.32700067  1
  Al0+  Al62  1  0.24961174  0.24998803  0.66287435  1
  Al0+  Al63  1  0.25040975  0.74759401  0.00058155  1
  Al0+  Al64  1  0.25194355  0.74941189  0.32635364  1
  Al0+  Al65  1  0.25062675  0.74925355  0.66588371  1
  Al0+  Al66  1  0.74730992  0.25001372  -0.01032476  1
  Al0+  Al67  1  0.74793125  0.24948612  0.33342498  1
  Al0+  Al68  1  0.74974406  0.24955459  0.67216758  1
  Al0+  Al69  1  0.74955233  0.74821085  0.00166213  1
  Al0+  Al70  1  0.74905461  0.74813015  0.34248001  1
  Al0+  Al71  1  0.74897062  0.74959430  0.67070439  1
  Al0+  Al72  1  0.82377065  0.56894967  0.34637082  1
  Al0+  Al73  1  0.92851469  0.82081131  0.98905560  1
  Al0+  Al74  1  0.43040971  0.82276630  0.65419795  1
  Al0+  Al75  1  0.92865491  0.32080286  0.98423023  1
  Al0+  Al76  1  0.31968992  0.06977141  0.01303600  1
  Al0+  Al77  1  0.06997910  0.67829929  0.65250816  1
  Al0+  Al78  1  0.93022615  0.31834907  0.32333969  1
  Al0+  Al79  1  0.17992465  0.42713843  0.67942598  1
  Al0+  Al80  1  0.82298887  0.57090028  0.68457309  1
  Al0+  Al81  1  0.07107695  0.17898638  0.65337479  1
  Al0+  Al82  1  0.43079955  0.32051080  0.65464545  1
  Al0+  Al83  1  0.42733120  0.32345051  0.31761730  1
  Al0+  Al84  1  0.06982707  0.67943577  0.31918613  1
  Al0+  Al85  1  0.18044775  0.92653732  0.68015135  1
  Al0+  Al86  1  0.68081802  0.92873197  0.01457818  1
  Al0+  Al87  1  0.43125905  0.82157776  0.31809365  1
  Al0+  Al88  1  0.18158796  0.92742286  0.34651963  1
  Al0+  Al89  1  0.82177141  0.07280160  0.34715382  1
  Al0+  Al90  1  0.92654366  0.82178510  0.65068620  1
  Al0+  Al91  1  0.67666317  0.42906625  0.68143395  1
  Al0+  Al92  1  0.67747404  0.92886261  0.34963312  1
  Al0+  Al93  1  0.56791036  0.17820725  0.98443875  1
  Al0+  Al94  1  0.67752001  0.93024337  0.68236083  1
  Al0+  Al95  1  0.82343553  0.07089949  0.68429421  1
  Si0+  Si96  1  0.42987563  0.82030813  0.98600062  1
  Si0+  Si97  1  0.07265419  0.17425963  0.31492435  1
  Si0+  Si98  1  0.92618880  0.82283126  0.31907307  1
  Si0+  Si99  1  0.57422807  0.17836122  0.64686878  1
  Si0+  Si100  1  0.42675873  0.32391393  0.98338228  1
  Si0+  Si101  1  0.32088376  0.07280693  0.68001918  1
  Si0+  Si102  1  0.18051798  0.42975213  0.34701211  1
  Si0+  Si103  1  0.32201891  0.57085035  0.34736695  1
  Si0+  Si104  1  0.57026188  0.18026072  0.31568303  1
  Si0+  Si105  1  0.32266595  0.57222440  0.01725103  1
  Si0+  Si106  1  0.67642500  0.42840048  0.34661087  1
  Si0+  Si107  1  0.67774872  0.42776056  0.01521017  1
  Si0+  Si108  1  0.32190611  0.57179630  0.68313752  1
  Si0+  Si109  1  0.57089864  0.67704107  0.98527345  1
  Si0+  Si110  1  0.17874586  0.43089674  0.01761434  1
  Si0+  Si111  1  0.17652682  0.92562280  0.01664341  1
  Si0+  Si112  1  0.32082882  0.07458619  0.35120695  1
  Si0+  Si113  1  0.82056811  0.56846426  0.01630682  1
  Si0+  Si114  1  0.57197405  0.67735077  0.64983189  1
  Si0+  Si115  1  0.07354502  0.67832625  0.98220702  1
  Si0+  Si116  1  0.07435175  0.17924141  0.98445135  1
  Si0+  Si117  1  0.57412031  0.67794557  0.31581693  1
  Si0+  Si118  1  0.92750712  0.32160412  0.65127748  1
  Si0+  Si119  1  0.82283425  0.07419574  0.01570493  1
  O2-  O120  1  0.24527082  -0.00528758  0.06021397  1
  O2-  O121  1  0.25359863  0.00464154  0.39434572  1
  O2-  O122  1  0.25652631  0.00072889  0.72561633  1
  O2-  O123  1  0.25025043  0.50217004  0.05919516  1
  O2-  O124  1  0.25482954  0.49682134  0.38944302  1
  O2-  O125  1  0.25373944  0.50255413  0.72763177  1
  O2-  O126  1  0.75826787  0.00159427  0.06006983  1
  O2-  O127  1  0.75583656  -0.00483776  0.39693560  1
  O2-  O128  1  0.75230783  -0.00216938  0.73430257  1
  O2-  O129  1  0.75223184  0.49444215  0.05910775  1
  O2-  O130  1  0.74736853  0.49441174  0.39024678  1
  O2-  O131  1  0.75095346  0.49750453  0.73369698  1
  O2-  O132  1  -0.00075287  0.23955021  0.27275828  1
  O2-  O133  1  -0.00658953  0.25086252  0.60676333  1
  O2-  O134  1  0.00148401  0.24332924  0.94032768  1
  O2-  O135  1  -0.00547342  0.75392383  0.27311312  1
  O2-  O136  1  -0.00177902  0.74893032  0.60097940  1
  O2-  O137  1  0.00797428  0.75082998  0.94160195  1
  O2-  O138  1  0.50149090  0.24923677  0.27070684  1
  O2-  O139  1  0.50851284  0.25140117  0.60462651  1
  O2-  O140  1  0.49319543  0.25421083  0.93902537  1
  O2-  O141  1  0.51119271  0.75216364  0.27076447  1
  O2-  O142  1  0.50808793  0.75114591  0.60692686  1
  O2-  O143  1  0.50112113  0.74975863  0.94383735  1
  O2-  O144  1  0.07664641  0.18196915  0.09011614  1
  O2-  O145  1  0.07802508  0.17735134  0.41996445  1
  O2-  O146  1  0.07429917  0.18283978  0.76686227  1
  O2-  O147  1  0.07385085  0.67622154  0.08812957  1
  O2-  O148  1  0.07083086  0.67639806  0.43120798  1
  O2-  O149  1  0.06979973  0.68061052  0.76658547  1
  O2-  O150  1  0.56721678  0.18084581  0.09780981  1
  O2-  O151  1  0.56942736  0.18211227  0.42081261  1
  O2-  O152  1  0.56958702  0.17615166  0.75269506  1
  O2-  O153  1  0.56903131  0.67369429  0.09030926  1
  O2-  O154  1  0.56886434  0.67000785  0.42033259  1
  O2-  O155  1  0.56702237  0.67420083  0.75605583  1
  O2-  O156  1  0.18070438  0.43218093  0.24131350  1
  O2-  O157  1  0.18205638  0.42678553  0.56612321  1
  O2-  O158  1  0.18006624  0.42957080  0.91286206  1
  O2-  O159  1  0.18347116  0.92897845  0.23261386  1
  O2-  O160  1  0.18279836  0.92526678  0.56714329  1
  O2-  O161  1  0.17845339  0.92387380  0.91135370  1
  O2-  O162  1  0.67691341  0.42965522  0.24025210  1
  O2-  O163  1  0.67461201  0.43349346  0.56754115  1
  O2-  O164  1  0.67427582  0.43201764  0.91096614  1
  O2-  O165  1  0.67836615  0.93194485  0.23524504  1
  O2-  O166  1  0.67528432  0.93535275  0.56930340  1
  O2-  O167  1  0.67828396  0.92926918  0.90232022  1
  O2-  O168  1  0.42930458  0.32524035  0.08917785  1
  O2-  O169  1  0.42725821  0.32410387  0.43050912  1
  O2-  O170  1  0.42938598  0.31665115  0.76797829  1
  O2-  O171  1  0.42930716  0.81823608  0.09118939  1
  O2-  O172  1  0.42927781  0.81751236  0.43067645  1
  O2-  O173  1  0.42992403  0.82054777  0.76819469  1
  O2-  O174  1  0.92995949  0.32276020  0.09792585  1
  O2-  O175  1  0.93477167  0.32091666  0.43566845  1
  O2-  O176  1  0.93104539  0.32090316  0.75722482  1
  O2-  O177  1  0.92843939  0.81665530  0.10264953  1
  O2-  O178  1  0.92808295  0.82220098  0.42385798  1
  O2-  O179  1  0.92858286  0.82056782  0.76503553  1
  O2-  O180  1  0.31985186  0.07358494  0.24495252  1
  O2-  O181  1  0.31812528  0.07480399  0.57460026  1
  O2-  O182  1  0.31898878  0.06816427  0.90000129  1
  O2-  O183  1  0.32050410  0.56988070  0.24156863  1
  O2-  O184  1  0.32315561  0.57076174  0.57748447  1
  O2-  O185  1  0.32558386  0.57432356  0.91284348  1
  O2-  O186  1  0.81728712  0.07504769  0.23288678  1
  O2-  O187  1  0.82112913  0.07223180  0.57073538  1
  O2-  O188  1  0.82239216  0.07415304  0.91076645  1
  O2-  O189  1  0.82271334  0.56712308  0.23225053  1
  O2-  O190  1  0.82417647  0.56716645  0.57076538  1
  O2-  O191  1  0.81869023  0.56872513  0.91195926  1
  O2-  O192  1  0.05286223  0.07915879  0.26938598  1
  O2-  O193  1  0.04369511  0.08228939  0.59947960  1
  O2-  O194  1  0.05567518  0.08329551  0.94083971  1
  O2-  O195  1  0.03936793  0.58376733  0.26162906  1
  O2-  O196  1  0.04346172  0.57738960  0.60324492  1
  O2-  O197  1  0.04537959  0.58538717  0.93679936  1
  O2-  O198  1  0.54218239  0.08796747  0.26804327  1
  O2-  O199  1  0.54393100  0.08827400  0.59735642  1
  O2-  O200  1  0.53346668  0.08256228  0.93083145  1
  O2-  O201  1  0.54234845  0.58825589  0.26316313  1
  O2-  O202  1  0.54045708  0.58678492  0.60131624  1
  O2-  O203  1  0.53948670  0.58655361  0.93664307  1
  O2-  O204  1  0.16342950  0.20587447  0.26518014  1
  O2-  O205  1  0.16474848  0.21366949  0.59617011  1
  O2-  O206  1  0.16626832  0.21148937  0.93844390  1
  O2-  O207  1  0.16583575  0.70964227  0.26221390  1
  O2-  O208  1  0.16977771  0.70342591  0.60125797  1
  O2-  O209  1  0.16949117  0.69789702  0.93785912  1
  O2-  O210  1  0.66297914  0.20611379  0.26741489  1
  O2-  O211  1  0.66922956  0.20191648  0.60387667  1
  O2-  O212  1  0.66259537  0.20806060  0.92750909  1
  O2-  O213  1  0.67036212  0.69752269  0.27221537  1
  O2-  O214  1  0.66759767  0.69602516  0.60724120  1
  O2-  O215  1  0.66323471  0.70176448  0.93901502  1
  O2-  O216  1  0.08691922  0.46088065  0.06476698  1
  O2-  O217  1  0.09059224  0.46085348  0.39409468  1
  O2-  O218  1  0.08588097  0.45678320  0.73838715  1
  O2-  O219  1  0.08314354  0.95188582  0.06326063  1
  O2-  O220  1  0.08445059  0.95350265  0.40053891  1
  O2-  O221  1  0.08568382  0.95969384  0.73485820  1
  O2-  O222  1  0.58680419  0.45851946  0.06433885  1
  O2-  O223  1  0.58274060  0.45793007  0.39038241  1
  O2-  O224  1  0.57950632  0.46066098  0.73697996  1
  O2-  O225  1  0.58442157  0.96223798  0.06809683  1
  O2-  O226  1  0.57972606  0.96356474  0.39998655  1
  O2-  O227  1  0.57888537  0.96369256  0.73437791  1
  O2-  O228  1  0.20521153  0.34030388  0.06839100  1
  O2-  O229  1  0.20508921  0.33572749  0.39107086  1
  O2-  O230  1  0.21516415  0.33255671  0.73542150  1
  O2-  O231  1  0.20264033  0.83121897  0.06183187  1
  O2-  O232  1  0.21718795  0.83105509  0.39724804  1
  O2-  O233  1  0.21265759  0.83121224  0.73631851  1
  O2-  O234  1  0.70218370  0.33357822  0.05910643  1
  O2-  O235  1  0.69630071  0.33417008  0.39177817  1
  O2-  O236  1  0.69983018  0.32988306  0.73414258  1
  O2-  O237  1  0.70717113  0.83006566  0.06843761  1
  O2-  O238  1  0.69371054  0.82726506  0.39968582  1
  O2-  O239  1  0.69661373  0.82897496  0.73271721  1
  O2-  O240  1  0.45609640  0.42021509  0.26170261  1
  O2-  O241  1  0.45669079  0.41914213  0.60160202  1
  O2-  O242  1  0.45226565  0.41821920  0.93884280  1
  O2-  O243  1  0.45640791  0.92084926  0.26558173  1
  O2-  O244  1  0.45663404  0.91963568  0.59846632  1
  O2-  O245  1  0.45645353  0.91227554  0.94028873  1
  O2-  O246  1  0.96663874  0.41148709  0.26462052  1
  O2-  O247  1  0.95712738  0.41490813  0.60824843  1
  O2-  O248  1  0.96355885  0.41631088  0.93060273  1
  O2-  O249  1  0.95278079  0.91641848  0.27247454  1
  O2-  O250  1  0.95619134  0.92013278  0.60041683  1
  O2-  O251  1  0.95354900  0.91963223  0.93657897  1
  O2-  O252  1  0.33100318  0.29349316  0.26146108  1
  O2-  O253  1  0.33622117  0.28747560  0.59843637  1
  O2-  O254  1  0.33060832  0.30025305  0.94258020  1
  O2-  O255  1  0.33872265  0.78447337  0.25957936  1
  O2-  O256  1  0.33618720  0.78627453  0.59982533  1
  O2-  O257  1  0.33758016  0.79100939  0.93965895  1
  O2-  O258  1  0.83125871  0.29362328  0.26854508  1
  O2-  O259  1  0.83176712  0.30093073  0.60816148  1
  O2-  O260  1  0.83152894  0.29604640  0.92975034  1
  O2-  O261  1  0.83146040  0.79574188  0.27534009  1
  O2-  O262  1  0.82648952  0.79464861  0.60114996  1
  O2-  O263  1  0.83346810  0.78479700  0.93531570  1
  O2-  O264  1  0.41417710  0.03792394  0.07051345  1
  O2-  O265  1  0.41527932  0.05280572  0.39539857  1
  O2-  O266  1  0.41609687  0.05097413  0.72359027  1
  O2-  O267  1  0.41353126  0.54336963  0.06719696  1
  O2-  O268  1  0.41531726  0.54650087  0.39291810  1
  O2-  O269  1  0.41453734  0.54622975  0.73125343  1
  O2-  O270  1  0.91894037  0.05594658  0.06051638  1
  O2-  O271  1  0.92348535  0.05389233  0.39596259  1
  O2-  O272  1  0.92233584  0.04587455  0.73741974  1
  O2-  O273  1  0.91449291  0.54246725  0.06124940  1
  O2-  O274  1  0.91939010  0.53438882  0.39903440  1
  O2-  O275  1  0.91940278  0.54198740  0.74121119  1
  O2-  O276  1  0.29132785  0.16686914  0.06936200  1
  O2-  O277  1  0.29397992  0.16928216  0.39426614  1
  O2-  O278  1  0.29095705  0.16384349  0.72877570  1
  O2-  O279  1  0.29518971  0.66390832  0.06652739  1
  O2-  O280  1  0.29255908  0.66209350  0.39289593  1
  O2-  O281  1  0.29556402  0.66392245  0.73171585  1
  O2-  O282  1  0.79065720  0.16774895  0.05929775  1
  O2-  O283  1  0.78869004  0.16964836  0.40161868  1
  O2-  O284  1  0.79542676  0.16961338  0.73707613  1
  O2-  O285  1  0.78902122  0.65824786  0.06554612  1
  O2-  O286  1  0.79522661  0.66413983  0.40262799  1
  O2-  O287  1  0.79140053  0.66785341  0.73842921  1
