# generated using pymatgen
data_Ca2Al2SiO7
_symmetry_space_group_name_H-M   'P 1'
_cell_length_a   15.45873215
_cell_length_b   15.45827848
_cell_length_c   15.28449863
_cell_angle_alpha   89.99762084
_cell_angle_beta   89.99782946
_cell_angle_gamma   90.00525217
_symmetry_Int_Tables_number   1
_chemical_formula_structural   Ca2Al2SiO7
_chemical_formula_sum   'Ca48 Al48 Si24 O168'
_cell_volume   3652.46610182
_cell_formula_units_Z   24
loop_
 _symmetry_equiv_pos_site_id
 _symmetry_equiv_pos_as_xyz
  1  'x, y, z'
loop_
 _atom_type_symbol
 _atom_type_oxidation_number
  Ca2+  2.0
  Al0+  0.0
  Si0+  0.0
  O2-  -2.0
loop_
 _atom_site_type_symbol
 _atom_site_label
 _atom_site_symmetry_multiplicity
 _atom_site_fract_x
 _atom_site_fract_y
 _atom_site_fract_z
 _atom_site_occupancy
  Ca2+  Ca0  1  0.17362056  0.08586926  0.16427797  1
  Ca2+  Ca1  1  0.17049653  0.08252262  0.50848550  1
  Ca2+  Ca2  1  0.16000824  0.07760015  0.84049969  1
  Ca2+  Ca3  1  0.16688369  0.58019612  0.17064733  1
  Ca2+  Ca4  1  0.17032048  0.57807007  0.51483141  1
  Ca2+  Ca5  1  0.16450325  0.57893446  0.82875590  1
  Ca2+  Ca6  1  0.67003806  0.08606401  0.16993804  1
  Ca2+  Ca7  1  0.67279766  0.07155481  0.50661190  1
  Ca2+  Ca8  1  0.67673151  0.08359142  0.83501583  1
  Ca2+  Ca9  1  0.67082548  0.57703141  0.17474591  1
  Ca2+  Ca10  1  0.67877786  0.57735630  0.50381694  1
  Ca2+  Ca11  1  0.67225300  0.58384943  0.83469297  1
  Ca2+  Ca12  1  0.07005774  0.32684923  0.15979227  1
  Ca2+  Ca13  1  0.07517412  0.33414157  0.50228585  1
  Ca2+  Ca14  1  0.07728431  0.32117911  0.82491895  1
  Ca2+  Ca15  1  0.08442040  0.83266051  0.16210715  1
  Ca2+  Ca16  1  0.08048156  0.83276250  0.50569854  1
  Ca2+  Ca17  1  0.08236321  0.83392970  0.82079762  1
  Ca2+  Ca18  1  0.58446786  0.32819297  0.15956433  1
  Ca2+  Ca19  1  0.58002100  0.33595800  0.49880622  1
  Ca2+  Ca20  1  0.57745581  0.32537612  0.82901901  1
  Ca2+  Ca21  1  0.58191703  0.83408877  0.16485330  1
  Ca2+  Ca22  1  0.58247157  0.83756236  0.49283925  1
  Ca2+  Ca23  1  0.58544936  0.83033673  0.82873513  1
  Ca2+  Ca24  1  0.33057972  0.41727869  0.17066275  1
  Ca2+  Ca25  1  0.32727622  0.42150721  0.51533936  1
  Ca2+  Ca26  1  0.32998610  0.41405090  0.82811366  1
  Ca2+  Ca27  1  0.33334868  0.92671011  0.16987178  1
  Ca2+  Ca28  1  0.33112820  0.92060353  0.50399851  1
  Ca2+  Ca29  1  0.31750562  0.92196995  0.83918019  1
  Ca2+  Ca30  1  0.82994428  0.41698717  0.17638433  1
  Ca2+  Ca31  1  0.83973527  0.42162628  0.50352312  1
  Ca2+  Ca32  1  0.84764588  0.42016538  0.83324944  1
  Ca2+  Ca33  1  0.82701998  0.92720298  0.16964131  1
  Ca2+  Ca34  1  0.82435496  0.91665719  0.51247464  1
  Ca2+  Ca35  1  0.84124761  0.93048728  0.83208495  1
  Ca2+  Ca36  1  0.42117237  0.15959256  0.15990231  1
  Ca2+  Ca37  1  0.41334242  0.17067711  0.49659357  1
  Ca2+  Ca38  1  0.42100797  0.16300524  0.83003439  1
  Ca2+  Ca39  1  0.42488910  0.67606046  0.16005540  1
  Ca2+  Ca40  1  0.41441264  0.67381565  0.49556288  1
  Ca2+  Ca41  1  0.42272532  0.66279712  0.82692829  1
  Ca2+  Ca42  1  0.91472333  0.17766839  0.15496359  1
  Ca2+  Ca43  1  0.91934175  0.17036138  0.50124405  1
  Ca2+  Ca44  1  0.92143877  0.16888510  0.82457441  1
  Ca2+  Ca45  1  0.91204857  0.66766280  0.16549620  1
  Ca2+  Ca46  1  0.91621090  0.66398528  0.50236246  1
  Ca2+  Ca47  1  0.92231710  0.67497278  0.81980837  1
  Al0+  Al48  1  -0.00246170  0.00024988  0.01006906  1
  Al0+  Al49  1  0.00258159  -0.00162304  0.33049240  1
  Al0+  Al50  1  -0.00055854  -0.00065633  0.66275997  1
  Al0+  Al51  1  0.00061254  0.50254014  0.00026155  1
  Al0+  Al52  1  0.00113094  0.49914242  0.33096346  1
  Al0+  Al53  1  0.00200048  0.49940475  0.66926551  1
  Al0+  Al54  1  0.49859970  -0.00149938  -0.00411090  1
  Al0+  Al55  1  0.49835936  0.00101903  0.33665839  1
  Al0+  Al56  1  0.50116678  -0.00215467  0.67005712  1
  Al0+  Al57  1  0.50081875  0.50179588  -0.00254746  1
  Al0+  Al58  1  0.50043559  0.50091961  0.33532684  1
  Al0+  Al59  1  0.50116986  0.49958310  0.66528726  1
  Al0+  Al60  1  0.24775848  0.25149414  0.00251379  1
  Al0+  Al61  1  0.24978730  0.24983425  0.33545250  1
  Al0+  Al62  1  0.25181373  0.25116022  0.66326453  1
  Al0+  Al63  1  0.25012437  0.74923465  0.00450814  1
  Al0+  Al64  1  0.25021411  0.75163575  0.32631802  1
  Al0+  Al65  1  0.25271231  0.75072011  0.67068383  1
  Al0+  Al66  1  0.74662513  0.25302484  -0.00520463  1
  Al0+  Al67  1  0.74868248  0.25021488  0.33481253  1
  Al0+  Al68  1  0.74839143  0.24909477  0.66414301  1
  Al0+  Al69  1  0.75016738  0.74933093  -0.00343440  1
  Al0+  Al70  1  0.75099498  0.74922942  0.33828630  1
  Al0+  Al71  1  0.74851609  0.74678733  0.67001821  1
  Al0+  Al72  1  0.17867002  0.42736053  0.68294835  1
  Al0+  Al73  1  0.31939705  0.07049571  0.34828378  1
  Al0+  Al74  1  0.32126371  0.07209267  0.01394643  1
  Al0+  Al75  1  0.82294304  0.56961956  0.34870744  1
  Al0+  Al76  1  0.82082639  0.07116775  0.68000259  1
  Al0+  Al77  1  0.17637909  0.92731032  0.01733995  1
  Al0+  Al78  1  0.32309211  0.57218819  0.68161625  1
  Al0+  Al79  1  0.92793287  0.32136991  0.65054710  1
  Al0+  Al80  1  0.81808898  0.07395398  0.01409698  1
  Al0+  Al81  1  0.42926932  0.82241835  0.31877455  1
  Al0+  Al82  1  0.92746152  0.82052104  0.65186040  1
  Al0+  Al83  1  0.67716068  0.92649407  0.68358981  1
  Al0+  Al84  1  0.92713604  0.32320851  0.98456641  1
  Al0+  Al85  1  0.56960289  0.17738019  0.98607384  1
  Al0+  Al86  1  0.68036897  0.93095810  0.34460417  1
  Al0+  Al87  1  0.92941652  0.31948936  0.31881151  1
  Al0+  Al88  1  0.82163889  0.56776154  0.68238597  1
  Al0+  Al89  1  0.67683006  0.42630425  0.34870791  1
  Al0+  Al90  1  0.07217261  0.17662129  0.65096887  1
  Al0+  Al91  1  0.06957186  0.17815013  0.98632627  1
  Al0+  Al92  1  0.57101700  0.67969509  0.98573153  1
  Al0+  Al93  1  0.17994686  0.93108322  0.67750862  1
  Al0+  Al94  1  0.07322875  0.67986353  0.65295275  1
  Al0+  Al95  1  0.43102992  0.31974973  0.65300841  1
  Si0+  Si96  1  0.82122015  0.57153577  0.01479612  1
  Si0+  Si97  1  0.32325291  0.57011317  0.01725948  1
  Si0+  Si98  1  0.18090504  0.43037948  0.34752927  1
  Si0+  Si99  1  0.67890967  0.92662133  0.01547156  1
  Si0+  Si100  1  0.57159924  0.67754079  0.64903107  1
  Si0+  Si101  1  0.56809092  0.18013031  0.31999690  1
  Si0+  Si102  1  0.07056491  0.67955923  0.31751438  1
  Si0+  Si103  1  0.57116255  0.17519381  0.64736888  1
  Si0+  Si104  1  0.32061701  0.57274089  0.34583217  1
  Si0+  Si105  1  0.07386493  0.17682969  0.31489372  1
  Si0+  Si106  1  0.82439424  0.07294501  0.34887672  1
  Si0+  Si107  1  0.42743590  0.32301022  0.31866893  1
  Si0+  Si108  1  0.17794738  0.92529971  0.35144458  1
  Si0+  Si109  1  0.92932399  0.82012221  0.98774384  1
  Si0+  Si110  1  0.07289982  0.67972896  0.98582416  1
  Si0+  Si111  1  0.42679875  0.32367797  0.98508189  1
  Si0+  Si112  1  0.67721690  0.42751216  0.68489466  1
  Si0+  Si113  1  0.43059566  0.82038851  0.65224099  1
  Si0+  Si114  1  0.42683251  0.82096547  0.98088218  1
  Si0+  Si115  1  0.57295487  0.67862403  0.31732016  1
  Si0+  Si116  1  0.67701424  0.43136969  0.01371397  1
  Si0+  Si117  1  0.32226336  0.07335279  0.68265417  1
  Si0+  Si118  1  0.17827312  0.43081198  0.01725785  1
  Si0+  Si119  1  0.92667265  0.82125324  0.31714055  1
  O2-  O120  1  0.24935050  0.00005411  0.06497558  1
  O2-  O121  1  0.24291893  -0.00233067  0.39433071  1
  O2-  O122  1  0.24902989  0.00985978  0.72599603  1
  O2-  O123  1  0.25180123  0.49987643  0.06050329  1
  O2-  O124  1  0.25333490  0.49993802  0.38923710  1
  O2-  O125  1  0.25070542  0.50085326  0.73194671  1
  O2-  O126  1  0.74121991  0.00039626  0.06095057  1
  O2-  O127  1  0.75950327  0.00019242  0.39158735  1
  O2-  O128  1  0.75046608  -0.00228509  0.73139035  1
  O2-  O129  1  0.75197685  0.49859495  0.05603362  1
  O2-  O130  1  0.75171303  0.49597827  0.39705598  1
  O2-  O131  1  0.75094565  0.48970202  0.73069951  1
  O2-  O132  1  -0.00056350  0.24018127  0.27188784  1
  O2-  O133  1  -0.00028592  0.24861136  0.60101035  1
  O2-  O134  1  -0.00468368  0.24726358  0.93631579  1
  O2-  O135  1  -0.00136955  0.75008161  0.27513317  1
  O2-  O136  1  -0.00084100  0.74819806  0.60071420  1
  O2-  O137  1  0.00621960  0.75509519  0.94636931  1
  O2-  O138  1  0.50032214  0.25449731  0.27619040  1
  O2-  O139  1  0.50242877  0.24381718  0.60298428  1
  O2-  O140  1  0.48982231  0.24906646  0.94261210  1
  O2-  O141  1  0.50495924  0.74787088  0.27248529  1
  O2-  O142  1  0.50244055  0.75094700  0.60815935  1
  O2-  O143  1  0.49662344  0.75337717  0.93694674  1
  O2-  O144  1  0.06976898  0.18303840  0.10046242  1
  O2-  O145  1  0.07673921  0.17812228  0.41997329  1
  O2-  O146  1  0.07183381  0.17605295  0.76445364  1
  O2-  O147  1  0.07097879  0.67641161  0.09167486  1
  O2-  O148  1  0.07437294  0.67917320  0.42161550  1
  O2-  O149  1  0.07246493  0.68288333  0.76699663  1
  O2-  O150  1  0.57052714  0.18068319  0.10002577  1
  O2-  O151  1  0.56494198  0.17937108  0.42466531  1
  O2-  O152  1  0.56961706  0.17565459  0.75312117  1
  O2-  O153  1  0.56982481  0.67946247  0.09918996  1
  O2-  O154  1  0.57100761  0.67777869  0.42258812  1
  O2-  O155  1  0.56984519  0.67637255  0.75445396  1
  O2-  O156  1  0.18235167  0.43261892  0.24169879  1
  O2-  O157  1  0.18135127  0.42982033  0.56851438  1
  O2-  O158  1  0.17805485  0.43248935  0.91312313  1
  O2-  O159  1  0.17931271  0.92310892  0.24598670  1
  O2-  O160  1  0.18515728  0.92922583  0.56426510  1
  O2-  O161  1  0.17776450  0.92396113  0.90404825  1
  O2-  O162  1  0.67467801  0.42843852  0.23435186  1
  O2-  O163  1  0.67418392  0.43233226  0.57943069  1
  O2-  O164  1  0.67174429  0.43438777  0.90930760  1
  O2-  O165  1  0.68075746  0.93296379  0.23100961  1
  O2-  O166  1  0.67496074  0.92945191  0.56950334  1
  O2-  O167  1  0.68323151  0.92379115  0.91065630  1
  O2-  O168  1  0.43062446  0.32815664  0.09129166  1
  O2-  O169  1  0.42646298  0.32253707  0.42321251  1
  O2-  O170  1  0.43363492  0.31921119  0.76630655  1
  O2-  O171  1  0.42823444  0.81940610  0.08690683  1
  O2-  O172  1  0.42808236  0.81915145  0.43190103  1
  O2-  O173  1  0.43141598  0.81903939  0.75721720  1
  O2-  O174  1  0.92874165  0.32492226  0.09896271  1
  O2-  O175  1  0.93350895  0.32186716  0.43093358  1
  O2-  O176  1  0.93058556  0.31996066  0.76388913  1
  O2-  O177  1  0.92652856  0.81494423  0.09344751  1
  O2-  O178  1  0.92652688  0.82225447  0.42136948  1
  O2-  O179  1  0.93024517  0.82021429  0.76598082  1
  O2-  O180  1  0.32047200  0.07078393  0.23539640  1
  O2-  O181  1  0.32413851  0.06997975  0.57668337  1
  O2-  O182  1  0.32219801  0.06988308  0.90079337  1
  O2-  O183  1  0.31937249  0.57063386  0.24017230  1
  O2-  O184  1  0.32270026  0.57196304  0.56719026  1
  O2-  O185  1  0.32463000  0.57024623  0.91298455  1
  O2-  O186  1  0.82067512  0.07397691  0.24284950  1
  O2-  O187  1  0.81809617  0.06953383  0.56592610  1
  O2-  O188  1  0.81990708  0.07165177  0.90188463  1
  O2-  O189  1  0.82058067  0.57021518  0.23412067  1
  O2-  O190  1  0.81887677  0.56873727  0.56949525  1
  O2-  O191  1  0.82139304  0.57280664  0.91023595  1
  O2-  O192  1  0.05615803  0.08018488  0.27098420  1
  O2-  O193  1  0.04430382  0.07968369  0.59476967  1
  O2-  O194  1  0.04365156  0.07647151  0.94026780  1
  O2-  O195  1  0.04385221  0.58809582  0.26757029  1
  O2-  O196  1  0.04754577  0.58040359  0.60216543  1
  O2-  O197  1  0.04144714  0.58991787  0.93793724  1
  O2-  O198  1  0.53670823  0.09022713  0.27125540  1
  O2-  O199  1  0.54401081  0.08114280  0.60266446  1
  O2-  O200  1  0.54317313  0.08023827  0.93105171  1
  O2-  O201  1  0.54522880  0.58514795  0.27046120  1
  O2-  O202  1  0.54175169  0.58721364  0.60054218  1
  O2-  O203  1  0.53852908  0.58432707  0.93037083  1
  O2-  O204  1  0.16553612  0.21017504  0.26811476  1
  O2-  O205  1  0.17096119  0.20527064  0.59855729  1
  O2-  O206  1  0.16846007  0.20813809  0.93538350  1
  O2-  O207  1  0.16101336  0.70812997  0.26588665  1
  O2-  O208  1  0.17215124  0.70979348  0.60094410  1
  O2-  O209  1  0.16719374  0.70101436  0.94132846  1
  O2-  O210  1  0.66126007  0.20409125  0.27277266  1
  O2-  O211  1  0.66373124  0.20095875  0.60020092  1
  O2-  O212  1  0.66201993  0.21378998  0.92887454  1
  O2-  O213  1  0.66703501  0.70394508  0.27169552  1
  O2-  O214  1  0.66347983  0.70330442  0.60200351  1
  O2-  O215  1  0.66750742  0.70915540  0.93076959  1
  O2-  O216  1  0.08863710  0.46491490  0.06680934  1
  O2-  O217  1  0.09015354  0.46063577  0.39346564  1
  O2-  O218  1  0.08251848  0.45631135  0.73825122  1
  O2-  O219  1  0.07898455  0.95280388  0.07409028  1
  O2-  O220  1  0.08180046  0.94600915  0.39425849  1
  O2-  O221  1  0.08162894  0.95526696  0.72958977  1
  O2-  O222  1  0.58702133  0.46294170  0.06408251  1
  O2-  O223  1  0.57867218  0.45680687  0.40221988  1
  O2-  O224  1  0.58658995  0.46021797  0.73258130  1
  O2-  O225  1  0.58198046  0.94576926  0.05680965  1
  O2-  O226  1  0.58551805  0.96420257  0.39960462  1
  O2-  O227  1  0.57960235  0.95584757  0.73851654  1
  O2-  O228  1  0.20383904  0.33966652  0.06721633  1
  O2-  O229  1  0.20730911  0.33871486  0.39426599  1
  O2-  O230  1  0.21238238  0.33025791  0.73535448  1
  O2-  O231  1  0.20607330  0.82823027  0.07126106  1
  O2-  O232  1  0.20787838  0.83225943  0.39590677  1
  O2-  O233  1  0.21505122  0.83729269  0.73399857  1
  O2-  O234  1  0.70079795  0.33865023  0.06079179  1
  O2-  O235  1  0.69948943  0.32688859  0.40121777  1
  O2-  O236  1  0.69388143  0.33047796  0.72607359  1
  O2-  O237  1  0.71054675  0.83476492  0.06335107  1
  O2-  O238  1  0.70567084  0.83321874  0.39831643  1
  O2-  O239  1  0.70005037  0.82647070  0.73383690  1
  O2-  O240  1  0.45179161  0.41655070  0.27152149  1
  O2-  O241  1  0.46331412  0.41606732  0.59788062  1
  O2-  O242  1  0.45860295  0.41434792  0.93721735  1
  O2-  O243  1  0.46193111  0.91872000  0.26532861  1
  O2-  O244  1  0.45756210  0.91274413  0.60472228  1
  O2-  O245  1  0.44965450  0.91414014  0.93411828  1
  O2-  O246  1  0.96419650  0.41530124  0.26354141  1
  O2-  O247  1  0.95967792  0.41963551  0.59937818  1
  O2-  O248  1  0.96130139  0.42147572  0.93485939  1
  O2-  O249  1  0.95424309  0.91317862  0.26796182  1
  O2-  O250  1  0.95557413  0.91698327  0.59593203  1
  O2-  O251  1  0.95155871  0.91469882  0.94550138  1
  O2-  O252  1  0.33571676  0.29459333  0.27050139  1
  O2-  O253  1  0.33484566  0.29336006  0.59637038  1
  O2-  O254  1  0.33070239  0.30524447  0.94290646  1
  O2-  O255  1  0.33450878  0.78999719  0.26113489  1
  O2-  O256  1  0.34008135  0.79125251  0.60353398  1
  O2-  O257  1  0.33303048  0.79167583  0.93772449  1
  O2-  O258  1  0.82964527  0.29328468  0.26719087  1
  O2-  O259  1  0.82759698  0.29659855  0.59886791  1
  O2-  O260  1  0.82646324  0.30456058  0.93433038  1
  O2-  O261  1  0.83558568  0.79158051  0.26852569  1
  O2-  O262  1  0.82829239  0.78971364  0.60135556  1
  O2-  O263  1  0.84087852  0.78733025  0.93795282  1
  O2-  O264  1  0.42036839  0.04082204  0.06659278  1
  O2-  O265  1  0.41431787  0.03864976  0.40390825  1
  O2-  O266  1  0.41397571  0.04231252  0.72906367  1
  O2-  O267  1  0.41461820  0.54101192  0.06586628  1
  O2-  O268  1  0.41366859  0.55029235  0.39220015  1
  O2-  O269  1  0.42087008  0.54032821  0.73406598  1
  O2-  O270  1  0.91132134  0.04120276  0.07368207  1
  O2-  O271  1  0.92062755  0.05051370  0.38999791  1
  O2-  O272  1  0.91902228  0.04182596  0.73199414  1
  O2-  O273  1  0.91389746  0.54714599  0.06313172  1
  O2-  O274  1  0.92263546  0.54241317  0.39893254  1
  O2-  O275  1  0.91912723  0.54255361  0.73671977  1
  O2-  O276  1  0.29590995  0.17193720  0.06786628  1
  O2-  O277  1  0.29106912  0.16840606  0.40167995  1
  O2-  O278  1  0.30477180  0.16906019  0.72546229  1
  O2-  O279  1  0.29530870  0.66142859  0.06614330  1
  O2-  O280  1  0.29032986  0.66463791  0.39057038  1
  O2-  O281  1  0.29738400  0.66960910  0.73677480  1
  O2-  O282  1  0.78542864  0.17161919  0.06623790  1
  O2-  O283  1  0.79532858  0.16452732  0.39557877  1
  O2-  O284  1  0.79005162  0.16920508  0.73247468  1
  O2-  O285  1  0.79037042  0.66256513  0.06296814  1
  O2-  O286  1  0.79509092  0.66755820  0.40175047  1
  O2-  O287  1  0.78670053  0.66253577  0.73732470  1
