# generated using pymatgen
data_Ca2Al2SiO7
_symmetry_space_group_name_H-M   'P 1'
_cell_length_a   15.45327402
_cell_length_b   15.45299369
_cell_length_c   15.28042684
_cell_angle_alpha   90.00086103
_cell_angle_beta   89.99225486
_cell_angle_gamma   89.99943279
_symmetry_Int_Tables_number   1
_chemical_formula_structural   Ca2Al2SiO7
_chemical_formula_sum   'Ca48 Al48 Si24 O168'
_cell_volume   3648.95590001
_cell_formula_units_Z   24
loop_
 _symmetry_equiv_pos_site_id
 _symmetry_equiv_pos_as_xyz
  1  'x, y, z'
loop_
 _atom_type_symbol
 _atom_type_oxidation_number
  Ca2+  2.0
  Al0+  0.0
  Si0+  0.0
  O2-  -2.0
loop_
 _atom_site_type_symbol
 _atom_site_label
 _atom_site_symmetry_multiplicity
 _atom_site_fract_x
 _atom_site_fract_y
 _atom_site_fract_z
 _atom_site_occupancy
  Ca2+  Ca0  1  0.17327181  0.07846905  0.17978258  1
  Ca2+  Ca1  1  0.16065166  0.07623290  0.49987397  1
  Ca2+  Ca2  1  0.16270932  0.07913479  0.83091413  1
  Ca2+  Ca3  1  0.17207059  0.57706427  0.16579983  1
  Ca2+  Ca4  1  0.17346178  0.58560475  0.51017838  1
  Ca2+  Ca5  1  0.17427665  0.58148770  0.84041937  1
  Ca2+  Ca6  1  0.66682967  0.07874761  0.17068102  1
  Ca2+  Ca7  1  0.68169895  0.08630948  0.50418855  1
  Ca2+  Ca8  1  0.67024163  0.07963956  0.84047323  1
  Ca2+  Ca9  1  0.67407405  0.58424468  0.17532649  1
  Ca2+  Ca10  1  0.66742145  0.58344054  0.49452802  1
  Ca2+  Ca11  1  0.67521508  0.58348238  0.84009020  1
  Ca2+  Ca12  1  0.08892032  0.32693424  0.16334060  1
  Ca2+  Ca13  1  0.08547238  0.31844795  0.49452793  1
  Ca2+  Ca14  1  0.08694036  0.32938880  0.82942062  1
  Ca2+  Ca15  1  0.07192910  0.83825929  0.16470281  1
  Ca2+  Ca16  1  0.07905566  0.83647708  0.49884720  1
  Ca2+  Ca17  1  0.07312199  0.82970156  0.82256818  1
  Ca2+  Ca18  1  0.57711305  0.32994274  0.16270816  1
  Ca2+  Ca19  1  0.57301927  0.33900935  0.49216316  1
  Ca2+  Ca20  1  0.57441773  0.33282416  0.83154815  1
  Ca2+  Ca21  1  0.58223191  0.83047127  0.15871749  1
  Ca2+  Ca22  1  0.58240593  0.82484282  0.49327832  1
  Ca2+  Ca23  1  0.57772027  0.83735273  0.83684018  1
  Ca2+  Ca24  1  0.33663241  0.41413982  0.16626063  1
  Ca2+  Ca25  1  0.33769326  0.41914861  0.50555110  1
  Ca2+  Ca26  1  0.33273737  0.42317079  0.83921699  1
  Ca2+  Ca27  1  0.32980532  0.92210881  0.17547761  1
  Ca2+  Ca28  1  0.32025387  0.92137753  0.50438316  1
  Ca2+  Ca29  1  0.32465511  0.91129825  0.83954870  1
  Ca2+  Ca30  1  0.82720495  0.43032945  0.17626803  1
  Ca2+  Ca31  1  0.82632569  0.41854393  0.49974758  1
  Ca2+  Ca32  1  0.83451556  0.42482219  0.84279765  1
  Ca2+  Ca33  1  0.83072664  0.91552605  0.17138529  1
  Ca2+  Ca34  1  0.84483665  0.92335740  0.50152028  1
  Ca2+  Ca35  1  0.83257391  0.91614891  0.83681182  1
  Ca2+  Ca36  1  0.41755948  0.17501118  0.15939382  1
  Ca2+  Ca37  1  0.41013221  0.17886967  0.49239516  1
  Ca2+  Ca38  1  0.42096621  0.17763732  0.83139319  1
  Ca2+  Ca39  1  0.42221595  0.67048866  0.16131436  1
  Ca2+  Ca40  1  0.42073519  0.66442011  0.49464442  1
  Ca2+  Ca41  1  0.40842759  0.66733717  0.83194650  1
  Ca2+  Ca42  1  0.92187147  0.16018357  0.16823223  1
  Ca2+  Ca43  1  0.92474542  0.15540106  0.49586886  1
  Ca2+  Ca44  1  0.92125924  0.16625419  0.82464229  1
  Ca2+  Ca45  1  0.90908094  0.67451991  0.16183845  1
  Ca2+  Ca46  1  0.91861626  0.67827409  0.49250679  1
  Ca2+  Ca47  1  0.92012239  0.67464051  0.82745406  1
  Al0+  Al48  1  -0.00063907  -0.00084934  -0.00473014  1
  Al0+  Al49  1  -0.00012517  -0.00135752  0.32982945  1
  Al0+  Al50  1  -0.00029652  0.00094609  0.67010271  1
  Al0+  Al51  1  0.00169881  0.49896135  0.00914234  1
  Al0+  Al52  1  0.00080518  0.50087538  0.33862129  1
  Al0+  Al53  1  -0.00013693  0.49953490  0.66314028  1
  Al0+  Al54  1  0.50095604  -0.00130347  -0.00468041  1
  Al0+  Al55  1  0.49898597  0.00199224  0.34075443  1
  Al0+  Al56  1  0.50106478  0.00113881  0.66467608  1
  Al0+  Al57  1  0.50086425  0.50023660  -0.00069935  1
  Al0+  Al58  1  0.50059132  0.50077894  0.32643310  1
  Al0+  Al59  1  0.49990085  0.50009995  0.66880550  1
  Al0+  Al60  1  0.25049046  0.24902519  -0.00287349  1
  Al0+  Al61  1  0.24993219  0.25049228  0.32774506  1
  Al0+  Al62  1  0.25029000  0.24968697  0.65889940  1
  Al0+  Al63  1  0.24939277  0.74826563  0.00341136  1
  Al0+  Al64  1  0.24826423  0.74877867  0.33626499  1
  Al0+  Al65  1  0.24971524  0.75086349  0.67101048  1
  Al0+  Al66  1  0.75311479  0.24920155  -0.00345738  1
  Al0+  Al67  1  0.74895265  0.25110516  0.34135417  1
  Al0+  Al68  1  0.74913612  0.25003562  0.67315792  1
  Al0+  Al69  1  0.74958642  0.75281862  0.00155367  1
  Al0+  Al70  1  0.75018632  0.74949378  0.33023201  1
  Al0+  Al71  1  0.74833081  0.75105979  0.66322871  1
  Al0+  Al72  1  0.17864561  0.92834809  0.34777921  1
  Al0+  Al73  1  0.67749160  0.43043146  0.34784013  1
  Al0+  Al74  1  0.42724075  0.81981869  0.98782940  1
  Al0+  Al75  1  0.18040125  0.93112435  0.68279450  1
  Al0+  Al76  1  0.06790222  0.18004606  0.31786713  1
  Al0+  Al77  1  0.43210003  0.32026990  0.65172762  1
  Al0+  Al78  1  0.57381774  0.17765382  0.98519945  1
  Al0+  Al79  1  0.56933506  0.68140993  0.31870952  1
  Al0+  Al80  1  0.67894325  0.93174466  0.01346792  1
  Al0+  Al81  1  0.32098006  0.56975827  0.67974065  1
  Al0+  Al82  1  0.82044809  0.57165898  0.01260665  1
  Al0+  Al83  1  0.07304983  0.67775217  0.65260598  1
  Al0+  Al84  1  0.93192417  0.81927310  0.31770261  1
  Al0+  Al85  1  0.42883115  0.32189858  0.98244044  1
  Al0+  Al86  1  0.42978876  0.32021715  0.31753701  1
  Al0+  Al87  1  0.82039060  0.06954830  0.68238454  1
  Al0+  Al88  1  0.18055407  0.42624097  0.01543698  1
  Al0+  Al89  1  0.32312182  0.57200965  0.01790484  1
  Al0+  Al90  1  0.81940451  0.06933813  0.34521522  1
  Al0+  Al91  1  0.92845984  0.82018116  0.98444033  1
  Al0+  Al92  1  0.82251388  0.57395829  0.35112482  1
  Al0+  Al93  1  0.92830226  0.81993480  0.65057554  1
  Al0+  Al94  1  0.32204887  0.07404117  0.34821701  1
  Al0+  Al95  1  0.06884935  0.18071012  0.65274426  1
  Si0+  Si96  1  0.32048143  0.56944266  0.34765205  1
  Si0+  Si97  1  0.17888788  0.42778504  0.34971423  1
  Si0+  Si98  1  0.32027110  0.06915995  0.01173487  1
  Si0+  Si99  1  0.92425011  0.32392060  0.65017800  1
  Si0+  Si100  1  0.32359470  0.07394332  0.68428639  1
  Si0+  Si101  1  0.67552593  0.92599468  0.68396611  1
  Si0+  Si102  1  0.07086158  0.17834003  0.98422166  1
  Si0+  Si103  1  0.93071817  0.32242327  0.98736401  1
  Si0+  Si104  1  0.07120175  0.67612475  0.98541630  1
  Si0+  Si105  1  0.17710394  0.92895951  0.01448353  1
  Si0+  Si106  1  0.92617510  0.32413736  0.31783387  1
  Si0+  Si107  1  0.57390689  0.17731570  0.64818370  1
  Si0+  Si108  1  0.07493296  0.67425371  0.31482308  1
  Si0+  Si109  1  0.57001264  0.67913925  0.65270600  1
  Si0+  Si110  1  0.82098452  0.57209878  0.68068663  1
  Si0+  Si111  1  0.67912058  0.42579997  0.01543403  1
  Si0+  Si112  1  0.82419980  0.07289396  0.01699595  1
  Si0+  Si113  1  0.42764243  0.82251515  0.65200176  1
  Si0+  Si114  1  0.17740453  0.42575651  0.68014438  1
  Si0+  Si115  1  0.57477936  0.17698349  0.31941514  1
  Si0+  Si116  1  0.57233425  0.67900174  0.98276030  1
  Si0+  Si117  1  0.42619136  0.82344110  0.32006758  1
  Si0+  Si118  1  0.67878333  0.43044402  0.68372386  1
  Si0+  Si119  1  0.67612423  0.92655612  0.35038827  1
  O2-  O120  1  0.24986802  -0.00169865  0.05560556  1
  O2-  O121  1  0.25222154  -0.00051984  0.39731025  1
  O2-  O122  1  0.25788489  0.00333514  0.73046340  1
  O2-  O123  1  0.25436264  0.49606205  0.06662212  1
  O2-  O124  1  0.24820044  0.50063866  0.39137931  1
  O2-  O125  1  0.24256173  0.49765953  0.72424325  1
  O2-  O126  1  0.75276339  0.00710308  0.06037795  1
  O2-  O127  1  0.74332059  -0.00320612  0.39402529  1
  O2-  O128  1  0.74416308  -0.00454561  0.72684698  1
  O2-  O129  1  0.74538431  0.49692186  0.05871620  1
  O2-  O130  1  0.75145598  0.49990965  0.39978724  1
  O2-  O131  1  0.75379071  0.49807225  0.72494860  1
  O2-  O132  1  -0.00620592  0.25568632  0.27087830  1
  O2-  O133  1  -0.00656082  0.25559853  0.60667984  1
  O2-  O134  1  0.00026249  0.25068106  0.94366292  1
  O2-  O135  1  0.00439170  0.74152694  0.27126189  1
  O2-  O136  1  -0.00049915  0.74689099  0.60099652  1
  O2-  O137  1  0.00320668  0.74470130  0.93993919  1
  O2-  O138  1  0.50290166  0.24188203  0.27472031  1
  O2-  O139  1  0.50415240  0.24398532  0.60319436  1
  O2-  O140  1  0.50406191  0.25178723  0.93439020  1
  O2-  O141  1  0.49776011  0.75967743  0.27360411  1
  O2-  O142  1  0.49926346  0.75129070  0.61117255  1
  O2-  O143  1  0.49858609  0.74235554  0.93832718  1
  O2-  O144  1  0.07029380  0.17641484  0.08913398  1
  O2-  O145  1  0.06669277  0.18008011  0.43085544  1
  O2-  O146  1  0.06835791  0.18326467  0.76656818  1
  O2-  O147  1  0.07088829  0.67752192  0.09102371  1
  O2-  O148  1  0.07734126  0.67423043  0.42027369  1
  O2-  O149  1  0.07051570  0.67766498  0.76655393  1
  O2-  O150  1  0.57239812  0.17762749  0.09898649  1
  O2-  O151  1  0.57625447  0.17934032  0.42498798  1
  O2-  O152  1  0.57350454  0.17845749  0.75373445  1
  O2-  O153  1  0.57339047  0.68227402  0.08809952  1
  O2-  O154  1  0.56566762  0.68081104  0.43271072  1
  O2-  O155  1  0.57234249  0.67858489  0.75766141  1
  O2-  O156  1  0.17934963  0.42783142  0.24474857  1
  O2-  O157  1  0.18006260  0.42471338  0.57446201  1
  O2-  O158  1  0.17831310  0.42696095  0.90157265  1
  O2-  O159  1  0.18025461  0.93026648  0.23335117  1
  O2-  O160  1  0.18128770  0.93186708  0.57013050  1
  O2-  O161  1  0.17653290  0.93081647  0.90932333  1
  O2-  O162  1  0.67889476  0.43120995  0.23420129  1
  O2-  O163  1  0.67709675  0.43158565  0.57900813  1
  O2-  O164  1  0.68237873  0.42711143  0.90905643  1
  O2-  O165  1  0.67511019  0.92749666  0.24473503  1
  O2-  O166  1  0.67230289  0.92459038  0.57858012  1
  O2-  O167  1  0.68040068  0.93135082  0.90021582  1
  O2-  O168  1  0.42871114  0.31772302  0.09579959  1
  O2-  O169  1  0.43055314  0.32248368  0.43097288  1
  O2-  O170  1  0.43386521  0.32089181  0.76440473  1
  O2-  O171  1  0.42926303  0.82164164  0.10086299  1
  O2-  O172  1  0.42641495  0.81904348  0.42607174  1
  O2-  O173  1  0.42819869  0.82244925  0.75718177  1
  O2-  O174  1  0.92940309  0.32135136  0.09205628  1
  O2-  O175  1  0.92899357  0.32376896  0.42353538  1
  O2-  O176  1  0.92459455  0.32533279  0.75637733  1
  O2-  O177  1  0.93027674  0.82240591  0.09737809  1
  O2-  O178  1  0.93378250  0.82048771  0.43053777  1
  O2-  O179  1  0.92695432  0.81687914  0.76444764  1
  O2-  O180  1  0.32152640  0.07238142  0.23372974  1
  O2-  O181  1  0.32297423  0.07265414  0.57902186  1
  O2-  O182  1  0.31709254  0.06909414  0.90647901  1
  O2-  O183  1  0.31971151  0.57015833  0.24297043  1
  O2-  O184  1  0.32408496  0.56757576  0.56614646  1
  O2-  O185  1  0.31875194  0.57285074  0.90411538  1
  O2-  O186  1  0.81841638  0.06820386  0.23198126  1
  O2-  O187  1  0.82019353  0.06867013  0.56921498  1
  O2-  O188  1  0.82596316  0.07213394  0.91142501  1
  O2-  O189  1  0.81977428  0.57347670  0.23735857  1
  O2-  O190  1  0.81784929  0.57210809  0.57621407  1
  O2-  O191  1  0.82022044  0.56921226  0.89849657  1
  O2-  O192  1  0.03645630  0.08477385  0.26207422  1
  O2-  O193  1  0.03598618  0.08461001  0.60059036  1
  O2-  O194  1  0.04111690  0.08805441  0.93463753  1
  O2-  O195  1  0.05136366  0.57910236  0.27071167  1
  O2-  O196  1  0.05032462  0.57739315  0.60022488  1
  O2-  O197  1  0.04619056  0.58137807  0.94132400  1
  O2-  O198  1  0.55270242  0.08078711  0.27648877  1
  O2-  O199  1  0.55317824  0.08219568  0.60286159  1
  O2-  O200  1  0.54312388  0.08126115  0.92946865  1
  O2-  O201  1  0.53657911  0.58756480  0.26189084  1
  O2-  O202  1  0.54034247  0.58828482  0.60494547  1
  O2-  O203  1  0.55438027  0.58309190  0.93828308  1
  O2-  O204  1  0.16378432  0.21186181  0.26296924  1
  O2-  O205  1  0.16457807  0.20961229  0.59620043  1
  O2-  O206  1  0.16205090  0.20503087  0.93545022  1
  O2-  O207  1  0.16847241  0.70105305  0.26842555  1
  O2-  O208  1  0.17165029  0.70824610  0.60065068  1
  O2-  O209  1  0.16516156  0.70159222  0.94050463  1
  O2-  O210  1  0.66742170  0.20523445  0.27253659  1
  O2-  O211  1  0.66796959  0.20590679  0.60480276  1
  O2-  O212  1  0.67360803  0.20331376  0.93150566  1
  O2-  O213  1  0.66602588  0.70949377  0.26450253  1
  O2-  O214  1  0.66039781  0.70690689  0.60239474  1
  O2-  O215  1  0.66321441  0.71108431  0.93461503  1
  O2-  O216  1  0.08377084  0.45413113  0.07272726  1
  O2-  O217  1  0.08649641  0.45079978  0.39798763  1
  O2-  O218  1  0.08119122  0.44543200  0.72457809  1
  O2-  O219  1  0.08595557  0.96061308  0.06097286  1
  O2-  O220  1  0.08189549  0.96149517  0.39977040  1
  O2-  O221  1  0.08546545  0.96495305  0.73808918  1
  O2-  O222  1  0.58417213  0.44767759  0.05880073  1
  O2-  O223  1  0.58019329  0.46523628  0.40047474  1
  O2-  O224  1  0.58980670  0.46365355  0.73325517  1
  O2-  O225  1  0.58137549  0.96013342  0.06739232  1
  O2-  O226  1  0.58216931  0.94763792  0.39837295  1
  O2-  O227  1  0.58163086  0.95245890  0.73044296  1
  O2-  O228  1  0.20755889  0.32643381  0.06752754  1
  O2-  O229  1  0.20947889  0.33660076  0.39593810  1
  O2-  O230  1  0.20655702  0.33308625  0.72644322  1
  O2-  O231  1  0.20145179  0.83662813  0.06128008  1
  O2-  O232  1  0.20481387  0.82937391  0.40153843  1
  O2-  O233  1  0.21072133  0.83487282  0.73807167  1
  O2-  O234  1  0.70743834  0.33270851  0.06057263  1
  O2-  O235  1  0.70291264  0.33302929  0.40502943  1
  O2-  O236  1  0.70250436  0.33803642  0.73203155  1
  O2-  O237  1  0.70993440  0.83609042  0.06853575  1
  O2-  O238  1  0.70345773  0.83340132  0.39551084  1
  O2-  O239  1  0.70122122  0.83218269  0.73027539  1
  O2-  O240  1  0.46258956  0.41503457  0.26222985  1
  O2-  O241  1  0.46618350  0.41694631  0.59906478  1
  O2-  O242  1  0.45555219  0.42184390  0.93105071  1
  O2-  O243  1  0.44710160  0.92003666  0.27823882  1
  O2-  O244  1  0.45460684  0.91449154  0.60407368  1
  O2-  O245  1  0.45971892  0.91385492  0.92983946  1
  O2-  O246  1  0.95230311  0.41860862  0.27344126  1
  O2-  O247  1  0.94673952  0.41744219  0.60299372  1
  O2-  O248  1  0.95986591  0.41411480  0.93953294  1
  O2-  O249  1  0.96411378  0.91410331  0.26115784  1
  O2-  O250  1  0.96012981  0.91865114  0.60199387  1
  O2-  O251  1  0.96023385  0.91647713  0.92962994  1
  O2-  O252  1  0.33351771  0.29130723  0.26243730  1
  O2-  O253  1  0.33525255  0.29237045  0.59688872  1
  O2-  O254  1  0.33138020  0.28944018  0.92904276  1
  O2-  O255  1  0.33361792  0.79453428  0.27379376  1
  O2-  O256  1  0.33666815  0.79364883  0.60486150  1
  O2-  O257  1  0.32951969  0.79042865  0.93386195  1
  O2-  O258  1  0.83118547  0.29945887  0.27472263  1
  O2-  O259  1  0.82972841  0.29778777  0.60665075  1
  O2-  O260  1  0.83971763  0.29726739  0.93622995  1
  O2-  O261  1  0.83392121  0.79084840  0.26519975  1
  O2-  O262  1  0.82880987  0.79420049  0.59789321  1
  O2-  O263  1  0.83142830  0.79025625  0.93129628  1
  O2-  O264  1  0.41230752  0.04186623  0.05767214  1
  O2-  O265  1  0.42078983  0.05188232  0.40426519  1
  O2-  O266  1  0.41941620  0.05154565  0.72767055  1
  O2-  O267  1  0.42420797  0.54810555  0.06741079  1
  O2-  O268  1  0.41224467  0.53978324  0.39333397  1
  O2-  O269  1  0.41657245  0.53788926  0.73556243  1
  O2-  O270  1  0.91724565  0.04312163  0.06245897  1
  O2-  O271  1  0.91515141  0.03509547  0.39809442  1
  O2-  O272  1  0.91574932  0.03962517  0.73842885  1
  O2-  O273  1  0.91545880  0.54145569  0.06879021  1
  O2-  O274  1  0.92174268  0.54799487  0.40373605  1
  O2-  O275  1  0.91433438  0.54682362  0.72687676  1
  O2-  O276  1  0.29165957  0.16047175  0.05905730  1
  O2-  O277  1  0.28908105  0.17178637  0.39947151  1
  O2-  O278  1  0.29355269  0.16720980  0.72870439  1
  O2-  O279  1  0.29160421  0.66919355  0.07284022  1
  O2-  O280  1  0.29537798  0.66164049  0.39634617  1
  O2-  O281  1  0.29361036  0.66689022  0.73399457  1
  O2-  O282  1  0.80400403  0.16855416  0.06103985  1
  O2-  O283  1  0.79349387  0.16597512  0.40218401  1
  O2-  O284  1  0.79179542  0.16721777  0.73746286  1
  O2-  O285  1  0.78790283  0.66735679  0.06591811  1
  O2-  O286  1  0.78863016  0.67094578  0.40355830  1
  O2-  O287  1  0.78837030  0.66287123  0.72789822  1
