# generated using pymatgen
data_Ca2Al2SiO7
_symmetry_space_group_name_H-M   'P 1'
_cell_length_a   15.45540566
_cell_length_b   15.45695180
_cell_length_c   15.28233428
_cell_angle_alpha   89.99152448
_cell_angle_beta   89.98983870
_cell_angle_gamma   90.01340431
_symmetry_Int_Tables_number   1
_chemical_formula_structural   Ca2Al2SiO7
_chemical_formula_sum   'Ca48 Al48 Si24 O168'
_cell_volume   3650.84952094
_cell_formula_units_Z   24
loop_
 _symmetry_equiv_pos_site_id
 _symmetry_equiv_pos_as_xyz
  1  'x, y, z'
loop_
 _atom_type_symbol
 _atom_type_oxidation_number
  Ca2+  2.0
  Al0+  0.0
  Si0+  0.0
  O2-  -2.0
loop_
 _atom_site_type_symbol
 _atom_site_label
 _atom_site_symmetry_multiplicity
 _atom_site_fract_x
 _atom_site_fract_y
 _atom_site_fract_z
 _atom_site_occupancy
  Ca2+  Ca0  1  0.18140674  0.09239153  0.16804507  1
  Ca2+  Ca1  1  0.17300459  0.08402020  0.51114696  1
  Ca2+  Ca2  1  0.17431493  0.08653734  0.83137700  1
  Ca2+  Ca3  1  0.17241558  0.58126233  0.16522227  1
  Ca2+  Ca4  1  0.17138236  0.57552491  0.50483346  1
  Ca2+  Ca5  1  0.16843898  0.57125541  0.84386588  1
  Ca2+  Ca6  1  0.67125389  0.08645693  0.17424749  1
  Ca2+  Ca7  1  0.67582692  0.08593029  0.49888380  1
  Ca2+  Ca8  1  0.67748912  0.09511671  0.83806958  1
  Ca2+  Ca9  1  0.66715040  0.57682799  0.17085121  1
  Ca2+  Ca10  1  0.67287540  0.57742408  0.51310220  1
  Ca2+  Ca11  1  0.66593705  0.57867081  0.82835650  1
  Ca2+  Ca12  1  0.07222345  0.33756503  0.16103874  1
  Ca2+  Ca13  1  0.08016602  0.32876053  0.50054137  1
  Ca2+  Ca14  1  0.08397239  0.33209265  0.82766061  1
  Ca2+  Ca15  1  0.08059779  0.82909484  0.16276585  1
  Ca2+  Ca16  1  0.07828352  0.83693870  0.49595520  1
  Ca2+  Ca17  1  0.09038929  0.82755901  0.82847878  1
  Ca2+  Ca18  1  0.57755561  0.31814293  0.15920724  1
  Ca2+  Ca19  1  0.57967100  0.32980048  0.49840694  1
  Ca2+  Ca20  1  0.57056237  0.33232168  0.83030138  1
  Ca2+  Ca21  1  0.58512446  0.83457947  0.16573754  1
  Ca2+  Ca22  1  0.59049459  0.82791105  0.49634023  1
  Ca2+  Ca23  1  0.58159409  0.82610066  0.82722427  1
  Ca2+  Ca24  1  0.33328559  0.42167840  0.16537088  1
  Ca2+  Ca25  1  0.33097251  0.41762066  0.50806946  1
  Ca2+  Ca26  1  0.32436169  0.41121246  0.83995596  1
  Ca2+  Ca27  1  0.33466714  0.92852038  0.17045224  1
  Ca2+  Ca28  1  0.32799740  0.93078503  0.50555778  1
  Ca2+  Ca29  1  0.33106689  0.92756002  0.83478234  1
  Ca2+  Ca30  1  0.83696311  0.41152975  0.17007033  1
  Ca2+  Ca31  1  0.82758872  0.41801161  0.50853208  1
  Ca2+  Ca32  1  0.82973496  0.41599947  0.83573350  1
  Ca2+  Ca33  1  0.82893568  0.92830135  0.17548210  1
  Ca2+  Ca34  1  0.83308292  0.92414016  0.50196237  1
  Ca2+  Ca35  1  0.83338721  0.93125674  0.83620836  1
  Ca2+  Ca36  1  0.42572410  0.16174581  0.15805869  1
  Ca2+  Ca37  1  0.41512975  0.16985485  0.49549580  1
  Ca2+  Ca38  1  0.41128485  0.17363501  0.82819068  1
  Ca2+  Ca39  1  0.41018431  0.66530747  0.16165269  1
  Ca2+  Ca40  1  0.42195955  0.66446378  0.49681155  1
  Ca2+  Ca41  1  0.41892844  0.66398275  0.82729187  1
  Ca2+  Ca42  1  0.90923079  0.17478067  0.16136737  1
  Ca2+  Ca43  1  0.91992608  0.16452509  0.49427050  1
  Ca2+  Ca44  1  0.91935233  0.16811417  0.82859941  1
  Ca2+  Ca45  1  0.92281973  0.67586919  0.16019415  1
  Ca2+  Ca46  1  0.91463088  0.67233197  0.49390210  1
  Ca2+  Ca47  1  0.92115861  0.66561309  0.82885639  1
  Al0+  Al48  1  -0.00229809  0.00075132  0.00560391  1
  Al0+  Al49  1  0.00121418  -0.00006662  0.32785370  1
  Al0+  Al50  1  0.00060500  -0.00071922  0.67089586  1
  Al0+  Al51  1  -0.00083019  0.50152065  -0.00364468  1
  Al0+  Al52  1  0.00147602  0.49964159  0.33000661  1
  Al0+  Al53  1  0.00042258  0.50113221  0.67123830  1
  Al0+  Al54  1  0.50207680  -0.00324692  -0.00305360  1
  Al0+  Al55  1  0.50025067  -0.00233112  0.33902922  1
  Al0+  Al56  1  0.50106667  0.00022801  0.66885660  1
  Al0+  Al57  1  0.50085777  0.49879305  0.00100851  1
  Al0+  Al58  1  0.49972429  0.49999719  0.33605220  1
  Al0+  Al59  1  0.50156332  0.50011264  0.66049050  1
  Al0+  Al60  1  0.24791036  0.25007671  0.00810039  1
  Al0+  Al61  1  0.24884927  0.25309007  0.33600902  1
  Al0+  Al62  1  0.24898228  0.25136398  0.66372338  1
  Al0+  Al63  1  0.24981455  0.74946811  -0.00204667  1
  Al0+  Al64  1  0.25228506  0.74835698  0.33786392  1
  Al0+  Al65  1  0.25043943  0.75123118  0.66473883  1
  Al0+  Al66  1  0.74986456  0.25136267  -0.00386969  1
  Al0+  Al67  1  0.74869951  0.24993476  0.33066159  1
  Al0+  Al68  1  0.74742048  0.25180330  0.67436116  1
  Al0+  Al69  1  0.75040904  0.75031477  -0.00123989  1
  Al0+  Al70  1  0.75076282  0.74983425  0.32907990  1
  Al0+  Al71  1  0.75074695  0.75012198  0.66704378  1
  Al0+  Al72  1  0.17991702  0.42999978  0.67950902  1
  Al0+  Al73  1  0.82060500  0.07120332  0.68010560  1
  Al0+  Al74  1  0.32226962  0.57079443  0.01321999  1
  Al0+  Al75  1  0.92870578  0.82200973  0.31853276  1
  Al0+  Al76  1  0.56755106  0.17839217  0.32172695  1
  Al0+  Al77  1  0.32146158  0.57044799  0.34961538  1
  Al0+  Al78  1  0.82161063  0.57266899  0.68176801  1
  Al0+  Al79  1  0.92943110  0.31959954  0.32208962  1
  Al0+  Al80  1  0.07076627  0.68187930  0.98529377  1
  Al0+  Al81  1  0.57050062  0.17609605  0.98349060  1
  Al0+  Al82  1  0.32138597  0.07003404  0.01336550  1
  Al0+  Al83  1  0.82176600  0.07310574  0.34804380  1
  Al0+  Al84  1  0.42742840  0.31988572  0.98667766  1
  Al0+  Al85  1  0.17589274  0.42766875  0.01734441  1
  Al0+  Al86  1  0.32099491  0.07232048  0.34710533  1
  Al0+  Al87  1  0.92946648  0.32114244  0.98393993  1
  Al0+  Al88  1  0.17799130  0.92804917  0.68118207  1
  Al0+  Al89  1  0.06841557  0.17921296  0.65425824  1
  Al0+  Al90  1  0.57027276  0.68098774  0.65197542  1
  Al0+  Al91  1  0.67939275  0.92698030  0.34904747  1
  Al0+  Al92  1  0.81932791  0.07264529  0.01540132  1
  Al0+  Al93  1  0.32200229  0.07260230  0.68131072  1
  Al0+  Al94  1  0.42868978  0.31908615  0.65174695  1
  Al0+  Al95  1  0.67682078  0.42869924  0.68311112  1
  Si0+  Si96  1  0.93043141  0.82037895  0.65238555  1
  Si0+  Si97  1  0.07207077  0.17650063  0.98476504  1
  Si0+  Si98  1  0.82170335  0.57062016  0.34469084  1
  Si0+  Si99  1  0.07350205  0.67836001  0.31707515  1
  Si0+  Si100  1  0.17835977  0.92670476  0.01743574  1
  Si0+  Si101  1  0.67924147  0.92506682  0.01606202  1
  Si0+  Si102  1  0.92631927  0.32288552  0.65166630  1
  Si0+  Si103  1  0.82078832  0.57254406  0.01639041  1
  Si0+  Si104  1  0.57274031  0.67755062  0.98575998  1
  Si0+  Si105  1  0.07217943  0.67726845  0.65037031  1
  Si0+  Si106  1  0.67875276  0.92703161  0.68396985  1
  Si0+  Si107  1  0.57115178  0.67750428  0.31694438  1
  Si0+  Si108  1  0.57417381  0.17662581  0.64909197  1
  Si0+  Si109  1  0.67967320  0.43042858  0.01668847  1
  Si0+  Si110  1  0.17892244  0.92726392  0.34782621  1
  Si0+  Si111  1  0.17547981  0.42988750  0.35231335  1
  Si0+  Si112  1  0.42735180  0.82410157  0.64756639  1
  Si0+  Si113  1  0.67957435  0.42922527  0.34685280  1
  Si0+  Si114  1  0.07415275  0.17745022  0.31590652  1
  Si0+  Si115  1  0.32257274  0.57183892  0.68112423  1
  Si0+  Si116  1  0.42920859  0.81891949  0.31876501  1
  Si0+  Si117  1  0.42647275  0.32391266  0.31616226  1
  Si0+  Si118  1  0.92737633  0.82310121  0.98143135  1
  Si0+  Si119  1  0.42901509  0.81997782  0.98472903  1
  O2-  O120  1  0.24471183  -0.00271743  0.06190414  1
  O2-  O121  1  0.24140650  0.00139764  0.39163195  1
  O2-  O122  1  0.25116861  -0.00128599  0.73048112  1
  O2-  O123  1  0.25122553  0.49858333  0.06466572  1
  O2-  O124  1  0.24833678  0.49476439  0.39564611  1
  O2-  O125  1  0.25362705  0.50546222  0.72644410  1
  O2-  O126  1  0.74395633  -0.00283182  0.05952757  1
  O2-  O127  1  0.75222442  -0.00153594  0.39812211  1
  O2-  O128  1  0.74179464  0.00048599  0.72784489  1
  O2-  O129  1  0.75143795  0.50088546  0.06010528  1
  O2-  O130  1  0.75219145  0.49943736  0.38808763  1
  O2-  O131  1  0.75196121  0.49867189  0.73220318  1
  O2-  O132  1  0.00177050  0.24334918  0.27351346  1
  O2-  O133  1  -0.00887501  0.25137697  0.60647310  1
  O2-  O134  1  0.00510131  0.24657100  0.93997574  1
  O2-  O135  1  0.00544521  0.74811476  0.27328514  1
  O2-  O136  1  0.00112411  0.74876918  0.60905735  1
  O2-  O137  1  -0.00174763  0.75776139  0.93608442  1
  O2-  O138  1  0.48928983  0.24936456  0.27369395  1
  O2-  O139  1  0.50238108  0.24249424  0.60541554  1
  O2-  O140  1  0.49374582  0.24366110  0.93473467  1
  O2-  O141  1  0.50002706  0.74799097  0.27436734  1
  O2-  O142  1  0.49684920  0.75591051  0.60313371  1
  O2-  O143  1  0.49926558  0.74657813  0.94478051  1
  O2-  O144  1  0.07078046  0.17599863  0.09060359  1
  O2-  O145  1  0.07498157  0.17791120  0.42159496  1
  O2-  O146  1  0.06832340  0.18041359  0.76729202  1
  O2-  O147  1  0.06881521  0.68462430  0.09895323  1
  O2-  O148  1  0.07157616  0.67719615  0.42285989  1
  O2-  O149  1  0.07270044  0.67809837  0.75520593  1
  O2-  O150  1  0.57020669  0.17691554  0.09767312  1
  O2-  O151  1  0.56932233  0.18301775  0.43468110  1
  O2-  O152  1  0.57457629  0.17785707  0.75439968  1
  O2-  O153  1  0.57566307  0.67890017  0.09113940  1
  O2-  O154  1  0.57207887  0.67740913  0.42165337  1
  O2-  O155  1  0.56823999  0.68256183  0.76562330  1
  O2-  O156  1  0.17188945  0.43217739  0.24718955  1
  O2-  O157  1  0.17904224  0.43270319  0.56602609  1
  O2-  O158  1  0.17611915  0.42932938  0.90374016  1
  O2-  O159  1  0.18319452  0.92283722  0.24228172  1
  O2-  O160  1  0.17766188  0.92875645  0.56717111  1
  O2-  O161  1  0.18089248  0.92466632  0.91218844  1
  O2-  O162  1  0.67832238  0.43224710  0.24149758  1
  O2-  O163  1  0.67910893  0.42991221  0.56851618  1
  O2-  O164  1  0.67852305  0.43392085  0.91211557  1
  O2-  O165  1  0.67980545  0.92550347  0.23537736  1
  O2-  O166  1  0.68238439  0.92345590  0.57866681  1
  O2-  O167  1  0.68238396  0.91834892  0.91084150  1
  O2-  O168  1  0.43311092  0.32204098  0.10052424  1
  O2-  O169  1  0.42908399  0.32626685  0.42180255  1
  O2-  O170  1  0.42787763  0.31987745  0.76453252  1
  O2-  O171  1  0.42969556  0.82114799  0.09017001  1
  O2-  O172  1  0.42891195  0.81618324  0.42347066  1
  O2-  O173  1  0.42755125  0.82208103  0.75344751  1
  O2-  O174  1  0.92866351  0.32034273  0.09759497  1
  O2-  O175  1  0.93051614  0.32292527  0.43500429  1
  O2-  O176  1  0.92891641  0.32278467  0.75709988  1
  O2-  O177  1  0.92620190  0.81927079  0.08704051  1
  O2-  O178  1  0.92913743  0.81856387  0.43205709  1
  O2-  O179  1  0.93049150  0.81871934  0.75741269  1
  O2-  O180  1  0.32234312  0.06855216  0.23375340  1
  O2-  O181  1  0.31977107  0.07141601  0.56744420  1
  O2-  O182  1  0.32027585  0.06815658  0.90085982  1
  O2-  O183  1  0.32097348  0.57168027  0.23682526  1
  O2-  O184  1  0.32027855  0.57087306  0.57518282  1
  O2-  O185  1  0.32204842  0.57259053  0.89990810  1
  O2-  O186  1  0.81738691  0.07396342  0.23460676  1
  O2-  O187  1  0.82205472  0.06906386  0.56713451  1
  O2-  O188  1  0.82025746  0.07006343  0.90209288  1
  O2-  O189  1  0.81955968  0.57034764  0.23934400  1
  O2-  O190  1  0.82094879  0.57314464  0.56716204  1
  O2-  O191  1  0.81809437  0.57518882  0.91179515  1
  O2-  O192  1  0.05637093  0.08255576  0.26946535  1
  O2-  O193  1  0.03994275  0.08111747  0.60103392  1
  O2-  O194  1  0.04502616  0.08229726  0.94015689  1
  O2-  O195  1  0.04657918  0.58617962  0.26928302  1
  O2-  O196  1  0.04296802  0.58612045  0.60210974  1
  O2-  O197  1  0.03730187  0.58693851  0.93095043  1
  O2-  O198  1  0.54090490  0.07922481  0.27020438  1
  O2-  O199  1  0.55403317  0.08037872  0.60569294  1
  O2-  O200  1  0.55225307  0.07445898  0.93276226  1
  O2-  O201  1  0.54256845  0.58545368  0.26959255  1
  O2-  O202  1  0.54118718  0.58568385  0.59474575  1
  O2-  O203  1  0.54708619  0.58575258  0.93862352  1
  O2-  O204  1  0.16650436  0.20863419  0.26914452  1
  O2-  O205  1  0.16271496  0.21303243  0.59750484  1
  O2-  O206  1  0.16671812  0.20050980  0.94112908  1
  O2-  O207  1  0.16771600  0.70500829  0.27260438  1
  O2-  O208  1  0.16407823  0.70466090  0.60187258  1
  O2-  O209  1  0.16743151  0.71071536  0.93004877  1
  O2-  O210  1  0.66227678  0.21324495  0.26604476  1
  O2-  O211  1  0.66710364  0.20713957  0.60356074  1
  O2-  O212  1  0.66583830  0.21294534  0.93101370  1
  O2-  O213  1  0.66243400  0.70418102  0.26730833  1
  O2-  O214  1  0.66785934  0.71182627  0.59840557  1
  O2-  O215  1  0.66317757  0.70831315  0.93673233  1
  O2-  O216  1  0.07825486  0.46311215  0.06888843  1
  O2-  O217  1  0.08382490  0.46078892  0.40027202  1
  O2-  O218  1  0.08405977  0.45975017  0.73432331  1
  O2-  O219  1  0.08313308  0.94821468  0.06220736  1
  O2-  O220  1  0.08262781  0.94700050  0.39002980  1
  O2-  O221  1  0.08104049  0.95386248  0.73701007  1
  O2-  O222  1  0.58975249  0.46044141  0.06670779  1
  O2-  O223  1  0.58900328  0.45882558  0.39534741  1
  O2-  O224  1  0.58028513  0.46470427  0.73488597  1
  O2-  O225  1  0.58364397  0.94483646  0.06009442  1
  O2-  O226  1  0.58132181  0.95127560  0.40367810  1
  O2-  O227  1  0.58266962  0.94484607  0.72790181  1
  O2-  O228  1  0.19918847  0.32978600  0.07330041  1
  O2-  O229  1  0.19753957  0.33524353  0.39738161  1
  O2-  O230  1  0.21067094  0.33421499  0.73278666  1
  O2-  O231  1  0.20715116  0.83438784  0.06444978  1
  O2-  O232  1  0.20799635  0.83588255  0.39685970  1
  O2-  O233  1  0.20733711  0.82887530  0.73335220  1
  O2-  O234  1  0.70871256  0.33890967  0.06307988  1
  O2-  O235  1  0.70708149  0.33840947  0.39456311  1
  O2-  O236  1  0.70056470  0.33152485  0.73909191  1
  O2-  O237  1  0.70770370  0.83267299  0.06521645  1
  O2-  O238  1  0.70907923  0.82710074  0.39990794  1
  O2-  O239  1  0.70910377  0.83579442  0.73229891  1
  O2-  O240  1  0.45887758  0.41585088  0.26998290  1
  O2-  O241  1  0.46138546  0.41491293  0.59619722  1
  O2-  O242  1  0.46073122  0.41760576  0.93399786  1
  O2-  O243  1  0.45770489  0.91031074  0.27122760  1
  O2-  O244  1  0.45259851  0.91837531  0.60276425  1
  O2-  O245  1  0.45966436  0.90863771  0.93327871  1
  O2-  O246  1  0.96064740  0.41628218  0.26579267  1
  O2-  O247  1  0.95452568  0.41666536  0.60636081  1
  O2-  O248  1  0.95573170  0.41917331  0.93129366  1
  O2-  O249  1  0.95769381  0.91783291  0.26163236  1
  O2-  O250  1  0.95973216  0.91121386  0.60435514  1
  O2-  O251  1  0.95005730  0.91876026  0.93906846  1
  O2-  O252  1  0.32946057  0.30662118  0.27433230  1
  O2-  O253  1  0.33294259  0.28998825  0.59489560  1
  O2-  O254  1  0.32558574  0.29627534  0.93930498  1
  O2-  O255  1  0.33770812  0.78982293  0.27060650  1
  O2-  O256  1  0.33421028  0.79773927  0.60021288  1
  O2-  O257  1  0.33782182  0.79350619  0.93619200  1
  O2-  O258  1  0.83246978  0.29289411  0.26615384  1
  O2-  O259  1  0.82997328  0.30143202  0.60965584  1
  O2-  O260  1  0.83333731  0.29100282  0.92973891  1
  O2-  O261  1  0.83427851  0.78729456  0.26179292  1
  O2-  O262  1  0.83895771  0.79236486  0.60436541  1
  O2-  O263  1  0.83487410  0.79347378  0.93489542  1
  O2-  O264  1  0.41818871  0.03370931  0.06483481  1
  O2-  O265  1  0.41421780  0.03641132  0.40300400  1
  O2-  O266  1  0.42120377  0.04570119  0.73364343  1
  O2-  O267  1  0.42175823  0.54549857  0.06742374  1
  O2-  O268  1  0.41912800  0.54155527  0.40314330  1
  O2-  O269  1  0.41721617  0.54782705  0.72370603  1
  O2-  O270  1  0.91548029  0.04237289  0.07115068  1
  O2-  O271  1  0.92315265  0.04613279  0.39555979  1
  O2-  O272  1  0.91427530  0.03569971  0.73599095  1
  O2-  O273  1  0.91271949  0.54643146  0.06310179  1
  O2-  O274  1  0.91490649  0.54633640  0.39075928  1
  O2-  O275  1  0.91996389  0.54760630  0.73514942  1
  O2-  O276  1  0.29284464  0.16529637  0.07090245  1
  O2-  O277  1  0.29440104  0.17121197  0.39861172  1
  O2-  O278  1  0.28862441  0.16936404  0.73255497  1
  O2-  O279  1  0.29206872  0.66960148  0.06633824  1
  O2-  O280  1  0.29160729  0.66660517  0.40542158  1
  O2-  O281  1  0.30017228  0.66730087  0.72413595  1
  O2-  O282  1  0.78755437  0.17003723  0.06683153  1
  O2-  O283  1  0.79036085  0.17079927  0.40113430  1
  O2-  O284  1  0.79341858  0.16798578  0.73492053  1
  O2-  O285  1  0.79090513  0.66426826  0.06431692  1
  O2-  O286  1  0.79252089  0.66172994  0.39181900  1
  O2-  O287  1  0.79065997  0.66982397  0.73595990  1
