# generated using pymatgen
data_Ca2Al2SiO7
_symmetry_space_group_name_H-M   'P 1'
_cell_length_a   15.45241468
_cell_length_b   15.45263508
_cell_length_c   15.28008371
_cell_angle_alpha   89.99362283
_cell_angle_beta   90.00213966
_cell_angle_gamma   89.99727386
_symmetry_Int_Tables_number   1
_chemical_formula_structural   Ca2Al2SiO7
_chemical_formula_sum   'Ca48 Al48 Si24 O168'
_cell_volume   3648.58638317
_cell_formula_units_Z   24
loop_
 _symmetry_equiv_pos_site_id
 _symmetry_equiv_pos_as_xyz
  1  'x, y, z'
loop_
 _atom_type_symbol
 _atom_type_oxidation_number
  Ca2+  2.0
  Al0+  0.0
  Si0+  0.0
  O2-  -2.0
loop_
 _atom_site_type_symbol
 _atom_site_label
 _atom_site_symmetry_multiplicity
 _atom_site_fract_x
 _atom_site_fract_y
 _atom_site_fract_z
 _atom_site_occupancy
  Ca2+  Ca0  1  0.17128622  0.08554066  0.17688785  1
  Ca2+  Ca1  1  0.17835457  0.08616782  0.50586917  1
  Ca2+  Ca2  1  0.16980969  0.07426968  0.83254447  1
  Ca2+  Ca3  1  0.16365847  0.57413133  0.17083301  1
  Ca2+  Ca4  1  0.15696100  0.57910936  0.49976812  1
  Ca2+  Ca5  1  0.16962530  0.58323497  0.84258591  1
  Ca2+  Ca6  1  0.67199478  0.08267754  0.17072015  1
  Ca2+  Ca7  1  0.67532702  0.09492850  0.50504626  1
  Ca2+  Ca8  1  0.67461629  0.07944462  0.83739579  1
  Ca2+  Ca9  1  0.67173119  0.58443525  0.17369846  1
  Ca2+  Ca10  1  0.67368669  0.57395635  0.50409178  1
  Ca2+  Ca11  1  0.66190232  0.57963962  0.83831017  1
  Ca2+  Ca12  1  0.08446881  0.33316997  0.16909275  1
  Ca2+  Ca13  1  0.07855591  0.32644445  0.48610152  1
  Ca2+  Ca14  1  0.08261698  0.33424568  0.83315653  1
  Ca2+  Ca15  1  0.08401771  0.81937896  0.16183281  1
  Ca2+  Ca16  1  0.08472194  0.82696698  0.50006283  1
  Ca2+  Ca17  1  0.08454723  0.82430365  0.82174524  1
  Ca2+  Ca18  1  0.57132865  0.32970909  0.16395218  1
  Ca2+  Ca19  1  0.58095521  0.32263795  0.49372640  1
  Ca2+  Ca20  1  0.57777112  0.33048426  0.82588248  1
  Ca2+  Ca21  1  0.58546154  0.82932366  0.15917158  1
  Ca2+  Ca22  1  0.57431081  0.84077129  0.49962262  1
  Ca2+  Ca23  1  0.58257314  0.83150487  0.83139271  1
  Ca2+  Ca24  1  0.32735559  0.41444583  0.16925326  1
  Ca2+  Ca25  1  0.32715306  0.41020351  0.49893262  1
  Ca2+  Ca26  1  0.32746569  0.42309214  0.84641628  1
  Ca2+  Ca27  1  0.33132437  0.92376782  0.17408772  1
  Ca2+  Ca28  1  0.32949120  0.92639738  0.50890108  1
  Ca2+  Ca29  1  0.33553648  0.91690036  0.82898689  1
  Ca2+  Ca30  1  0.83559541  0.42166277  0.17661559  1
  Ca2+  Ca31  1  0.83408719  0.41848956  0.50163727  1
  Ca2+  Ca32  1  0.82363278  0.41571231  0.83378245  1
  Ca2+  Ca33  1  0.82763680  0.92478386  0.16997566  1
  Ca2+  Ca34  1  0.83884585  0.92911003  0.50647320  1
  Ca2+  Ca35  1  0.83573197  0.92540167  0.83870527  1
  Ca2+  Ca36  1  0.41322505  0.17603039  0.16791910  1
  Ca2+  Ca37  1  0.42546993  0.16329761  0.49061943  1
  Ca2+  Ca38  1  0.42187292  0.16988782  0.82574309  1
  Ca2+  Ca39  1  0.42247980  0.66448764  0.15709701  1
  Ca2+  Ca40  1  0.41369588  0.67517208  0.50018355  1
  Ca2+  Ca41  1  0.41860679  0.66915650  0.83122627  1
  Ca2+  Ca42  1  0.91483344  0.16629759  0.16922467  1
  Ca2+  Ca43  1  0.91862213  0.16924755  0.48962806  1
  Ca2+  Ca44  1  0.91225806  0.16239616  0.82904690  1
  Ca2+  Ca45  1  0.92714127  0.65790086  0.16413138  1
  Ca2+  Ca46  1  0.92410939  0.67006450  0.49466907  1
  Ca2+  Ca47  1  0.92898835  0.67530989  0.82463989  1
  Al0+  Al48  1  0.00096677  0.00143584  0.00532852  1
  Al0+  Al49  1  -0.00170926  -0.00269092  0.33252787  1
  Al0+  Al50  1  0.00218103  -0.00013777  0.67150655  1
  Al0+  Al51  1  -0.00033783  0.49760840  -0.00401151  1
  Al0+  Al52  1  0.00018114  0.50055362  0.33537177  1
  Al0+  Al53  1  -0.00097721  0.50003993  0.66577972  1
  Al0+  Al54  1  0.50103495  0.00058330  0.00389621  1
  Al0+  Al55  1  0.49919766  -0.00061475  0.33073410  1
  Al0+  Al56  1  0.50247286  0.00116242  0.66299586  1
  Al0+  Al57  1  0.49877610  0.50035100  -0.00463870  1
  Al0+  Al58  1  0.49904365  0.50135863  0.33226352  1
  Al0+  Al59  1  0.49895756  0.49898171  0.66893155  1
  Al0+  Al60  1  0.24799982  0.25033150  -0.00324603  1
  Al0+  Al61  1  0.24993128  0.25014995  0.33608702  1
  Al0+  Al62  1  0.25005965  0.25156170  0.67324885  1
  Al0+  Al63  1  0.25165430  0.75021061  0.00009862  1
  Al0+  Al64  1  0.24986142  0.74930705  0.32777233  1
  Al0+  Al65  1  0.25158537  0.74855609  0.66078323  1
  Al0+  Al66  1  0.75018678  0.25074948  0.00385405  1
  Al0+  Al67  1  0.74855956  0.24939099  0.32759783  1
  Al0+  Al68  1  0.74888022  0.25152510  0.67271449  1
  Al0+  Al69  1  0.75010650  0.75090869  -0.00223817  1
  Al0+  Al70  1  0.74933575  0.75034272  0.34076993  1
  Al0+  Al71  1  0.75219614  0.74983625  0.66160337  1
  Al0+  Al72  1  0.82232303  0.07268420  0.01844440  1
  Al0+  Al73  1  0.18114199  0.43084514  0.34816959  1
  Al0+  Al74  1  0.31932183  0.07052184  0.34621746  1
  Al0+  Al75  1  0.07097113  0.67825461  0.98577721  1
  Al0+  Al76  1  0.67956504  0.43078732  0.68010174  1
  Al0+  Al77  1  0.82162741  0.57101210  0.34732857  1
  Al0+  Al78  1  0.67853992  0.92800874  0.01467954  1
  Al0+  Al79  1  0.43185491  0.81999895  0.65309884  1
  Al0+  Al80  1  0.17727868  0.42855008  0.01620254  1
  Al0+  Al81  1  0.57092615  0.18124540  0.65478821  1
  Al0+  Al82  1  0.07108842  0.17644774  0.32035340  1
  Al0+  Al83  1  0.81943890  0.07075506  0.34828991  1
  Al0+  Al84  1  0.92894341  0.32105497  0.31922925  1
  Al0+  Al85  1  0.57155695  0.17686327  0.31544699  1
  Al0+  Al86  1  0.32180365  0.57215378  0.01525325  1
  Al0+  Al87  1  0.18128735  0.92789984  0.68065158  1
  Al0+  Al88  1  0.42789190  0.32239056  0.31921977  1
  Al0+  Al89  1  0.42793795  0.31940511  0.98420089  1
  Al0+  Al90  1  0.57226004  0.67996346  0.98709819  1
  Al0+  Al91  1  0.32452983  0.07246056  0.68284095  1
  Al0+  Al92  1  0.07190971  0.67772552  0.64971224  1
  Al0+  Al93  1  0.92890626  0.82424701  0.65103582  1
  Al0+  Al94  1  0.82090336  0.07040236  0.67973924  1
  Al0+  Al95  1  0.06936493  0.68001625  0.31730683  1
  Si0+  Si96  1  0.67742738  0.42972883  0.01567089  1
  Si0+  Si97  1  0.42907329  0.82035823  0.31692050  1
  Si0+  Si98  1  0.07052007  0.17759910  0.98341834  1
  Si0+  Si99  1  0.57152085  0.68002865  0.32098343  1
  Si0+  Si100  1  0.32033872  0.07125052  0.01424584  1
  Si0+  Si101  1  0.92729708  0.32044797  0.98320759  1
  Si0+  Si102  1  0.42609471  0.32292180  0.65034574  1
  Si0+  Si103  1  0.82286094  0.57287217  0.68496805  1
  Si0+  Si104  1  0.07248310  0.18006696  0.65448163  1
  Si0+  Si105  1  0.67769406  0.92567475  0.68184833  1
  Si0+  Si106  1  0.67574428  0.42865388  0.34807706  1
  Si0+  Si107  1  0.57266382  0.17842767  0.98227663  1
  Si0+  Si108  1  0.67719660  0.92730219  0.35265680  1
  Si0+  Si109  1  0.57293511  0.67433657  0.64846750  1
  Si0+  Si110  1  0.92999580  0.82334505  0.98458003  1
  Si0+  Si111  1  0.17939244  0.92830908  0.01575060  1
  Si0+  Si112  1  0.82001354  0.56979995  0.01166442  1
  Si0+  Si113  1  0.92471216  0.82179811  0.31505944  1
  Si0+  Si114  1  0.92878365  0.31943105  0.65381919  1
  Si0+  Si115  1  0.32075457  0.57063119  0.68081938  1
  Si0+  Si116  1  0.42802168  0.82508288  0.98389051  1
  Si0+  Si117  1  0.32422491  0.57427441  0.35115894  1
  Si0+  Si118  1  0.17693846  0.42954936  0.68235831  1
  Si0+  Si119  1  0.17786469  0.92471937  0.34855533  1
  O2-  O120  1  0.25131693  -0.00141986  0.05713158  1
  O2-  O121  1  0.24156525  -0.00165535  0.39180351  1
  O2-  O122  1  0.25341879  -0.00082369  0.73284092  1
  O2-  O123  1  0.24855432  0.50181818  0.06537393  1
  O2-  O124  1  0.25639374  0.50517497  0.39590929  1
  O2-  O125  1  0.24861874  0.50044332  0.72276098  1
  O2-  O126  1  0.74853136  0.00105236  0.06561520  1
  O2-  O127  1  0.74402190  -0.00240977  0.39652925  1
  O2-  O128  1  0.74992789  -0.00879742  0.72517110  1
  O2-  O129  1  0.74773558  0.50165797  0.05681951  1
  O2-  O130  1  0.74787777  0.49414915  0.39212056  1
  O2-  O131  1  0.74989019  0.50898795  0.72972827  1
  O2-  O132  1  -0.00145124  0.24708581  0.26821450  1
  O2-  O133  1  0.00101263  0.25013030  0.61209531  1
  O2-  O134  1  -0.00315431  0.24707480  0.94193404  1
  O2-  O135  1  -0.00651160  0.75346514  0.26995550  1
  O2-  O136  1  -0.00064429  0.75031270  0.60144320  1
  O2-  O137  1  -0.00057033  0.75589787  0.93960331  1
  O2-  O138  1  0.49915263  0.25008492  0.26806959  1
  O2-  O139  1  0.49195472  0.25148491  0.60749055  1
  O2-  O140  1  0.50321299  0.24557938  0.93696874  1
  O2-  O141  1  0.50044758  0.74930157  0.27617399  1
  O2-  O142  1  0.50853559  0.74716827  0.60448128  1
  O2-  O143  1  0.49710699  0.75521497  0.94194609  1
  O2-  O144  1  0.07284419  0.17685136  0.08799149  1
  O2-  O145  1  0.07109669  0.17924660  0.43452986  1
  O2-  O146  1  0.07236480  0.18261522  0.76011420  1
  O2-  O147  1  0.06804597  0.67771913  0.09890253  1
  O2-  O148  1  0.06945949  0.68161307  0.42999146  1
  O2-  O149  1  0.07087930  0.67684148  0.76374736  1
  O2-  O150  1  0.57195385  0.18005492  0.08751394  1
  O2-  O151  1  0.57218002  0.17888014  0.42940886  1
  O2-  O152  1  0.57138102  0.18410875  0.76815260  1
  O2-  O153  1  0.57294302  0.68058966  0.10070264  1
  O2-  O154  1  0.56989710  0.68049919  0.42595161  1
  O2-  O155  1  0.57001900  0.67278010  0.75408307  1
  O2-  O156  1  0.18027834  0.43206695  0.23552271  1
  O2-  O157  1  0.17647026  0.42737368  0.57756332  1
  O2-  O158  1  0.17743483  0.42961149  0.90176076  1
  O2-  O159  1  0.18277972  0.92213843  0.24232707  1
  O2-  O160  1  0.18266974  0.93004332  0.56716279  1
  O2-  O161  1  0.17832377  0.92857229  0.91087763  1
  O2-  O162  1  0.67330653  0.43394954  0.24221154  1
  O2-  O163  1  0.68265856  0.43081371  0.56714281  1
  O2-  O164  1  0.67940252  0.42895581  0.91027565  1
  O2-  O165  1  0.67892914  0.92313779  0.24712953  1
  O2-  O166  1  0.67604151  0.92773452  0.57645314  1
  O2-  O167  1  0.67888587  0.92837632  0.90099059  1
  O2-  O168  1  0.42820202  0.31769243  0.09698636  1
  O2-  O169  1  0.43079286  0.32249839  0.43308268  1
  O2-  O170  1  0.42745656  0.32389842  0.75612750  1
  O2-  O171  1  0.42774651  0.82604485  0.08969281  1
  O2-  O172  1  0.42884514  0.82044213  0.42197316  1
  O2-  O173  1  0.43261201  0.81684585  0.76627386  1
  O2-  O174  1  0.92640721  0.32383917  0.08753618  1
  O2-  O175  1  0.93022611  0.32031257  0.43355534  1
  O2-  O176  1  0.92984445  0.32017913  0.75947869  1
  O2-  O177  1  0.93098510  0.82200071  0.09017126  1
  O2-  O178  1  0.92551216  0.82152951  0.42042956  1
  O2-  O179  1  0.93011887  0.82220150  0.76522974  1
  O2-  O180  1  0.31849020  0.06718313  0.23230763  1
  O2-  O181  1  0.32239958  0.07306949  0.56937729  1
  O2-  O182  1  0.31972816  0.06988245  0.90926024  1
  O2-  O183  1  0.32543940  0.57555019  0.24590181  1
  O2-  O184  1  0.32335410  0.56910494  0.57578761  1
  O2-  O185  1  0.32057892  0.57155922  0.90096236  1
  O2-  O186  1  0.81854368  0.06742471  0.23560150  1
  O2-  O187  1  0.82004348  0.07411258  0.56695536  1
  O2-  O188  1  0.82212150  0.07153400  0.90444070  1
  O2-  O189  1  0.81836508  0.57126101  0.23337295  1
  O2-  O190  1  0.82394866  0.56887984  0.57955056  1
  O2-  O191  1  0.81872417  0.56683993  0.90655421  1
  O2-  O192  1  0.04631130  0.07676674  0.26745422  1
  O2-  O193  1  0.04819674  0.08737075  0.60952270  1
  O2-  O194  1  0.04357277  0.08483915  0.93640778  1
  O2-  O195  1  0.03650452  0.58383118  0.26483421  1
  O2-  O196  1  0.04010596  0.57912733  0.59783509  1
  O2-  O197  1  0.03807993  0.58252215  0.93112824  1
  O2-  O198  1  0.54213447  0.07842157  0.26278196  1
  O2-  O199  1  0.54752525  0.08395869  0.59955024  1
  O2-  O200  1  0.54743192  0.08350106  0.93866052  1
  O2-  O201  1  0.54616769  0.58835020  0.27218804  1
  O2-  O202  1  0.54146042  0.58262329  0.60152498  1
  O2-  O203  1  0.54132779  0.58452443  0.93068613  1
  O2-  O204  1  0.16868813  0.20723902  0.26774628  1
  O2-  O205  1  0.16437806  0.21012662  0.60819804  1
  O2-  O206  1  0.16019056  0.20726154  0.93277457  1
  O2-  O207  1  0.16619489  0.71034636  0.26241009  1
  O2-  O208  1  0.17010007  0.70328090  0.59604667  1
  O2-  O209  1  0.16911360  0.70823028  0.93442828  1
  O2-  O210  1  0.66829988  0.20572880  0.26056671  1
  O2-  O211  1  0.66607305  0.21899618  0.60163102  1
  O2-  O212  1  0.66681163  0.20631282  0.93812392  1
  O2-  O213  1  0.66370229  0.70841990  0.27434879  1
  O2-  O214  1  0.66887954  0.69329452  0.60503394  1
  O2-  O215  1  0.66832559  0.70898390  0.92984437  1
  O2-  O216  1  0.07728717  0.45569291  0.06639980  1
  O2-  O217  1  0.08515025  0.46267491  0.40294413  1
  O2-  O218  1  0.08472779  0.45683260  0.73002665  1
  O2-  O219  1  0.08892296  0.95671484  0.06500925  1
  O2-  O220  1  0.08151787  0.94235554  0.39048430  1
  O2-  O221  1  0.08499008  0.95766841  0.73753260  1
  O2-  O222  1  0.58568951  0.45787749  0.06135784  1
  O2-  O223  1  0.58444071  0.45877224  0.39687493  1
  O2-  O224  1  0.58186199  0.45862484  0.73478015  1
  O2-  O225  1  0.57962227  0.95371784  0.06959448  1
  O2-  O226  1  0.58181398  0.95158564  0.39509629  1
  O2-  O227  1  0.58582324  0.95426947  0.72927188  1
  O2-  O228  1  0.20592826  0.32896047  0.06614705  1
  O2-  O229  1  0.21080125  0.33474850  0.40419230  1
  O2-  O230  1  0.20345088  0.33872068  0.73283786  1
  O2-  O231  1  0.20719409  0.83687024  0.06385667  1
  O2-  O232  1  0.21040709  0.83339020  0.39524372  1
  O2-  O233  1  0.21140220  0.82849381  0.73155399  1
  O2-  O234  1  0.70598444  0.33886007  0.06350513  1
  O2-  O235  1  0.69895040  0.33369052  0.39080038  1
  O2-  O236  1  0.71503209  0.33839524  0.73944617  1
  O2-  O237  1  0.70812479  0.82930798  0.06812322  1
  O2-  O238  1  0.70116114  0.83459401  0.40173322  1
  O2-  O239  1  0.69829269  0.82913203  0.72512916  1
  O2-  O240  1  0.45565599  0.42163116  0.26606577  1
  O2-  O241  1  0.45305619  0.41611505  0.60447668  1
  O2-  O242  1  0.45899160  0.41582367  0.92998189  1
  O2-  O243  1  0.45689341  0.91098908  0.26766584  1
  O2-  O244  1  0.46135632  0.91624255  0.59733889  1
  O2-  O245  1  0.45455427  0.91844155  0.93731016  1
  O2-  O246  1  0.95931432  0.41890249  0.26659201  1
  O2-  O247  1  0.95458023  0.41189753  0.60700231  1
  O2-  O248  1  0.95672344  0.41001785  0.93151118  1
  O2-  O249  1  0.94930003  0.91478736  0.26784118  1
  O2-  O250  1  0.96020960  0.92260119  0.59940192  1
  O2-  O251  1  0.95587912  0.91806327  0.94071759  1
  O2-  O252  1  0.33027626  0.29221627  0.26684398  1
  O2-  O253  1  0.33019470  0.30037032  0.60764694  1
  O2-  O254  1  0.33119753  0.28906641  0.92960785  1
  O2-  O255  1  0.33831762  0.79307708  0.26726482  1
  O2-  O256  1  0.33792068  0.78665056  0.59571038  1
  O2-  O257  1  0.33486129  0.79972310  0.93700538  1
  O2-  O258  1  0.83004002  0.29802616  0.26521482  1
  O2-  O259  1  0.83737006  0.29111171  0.60776563  1
  O2-  O260  1  0.83441898  0.29375293  0.93571774  1
  O2-  O261  1  0.82999919  0.79483982  0.27186195  1
  O2-  O262  1  0.82979451  0.79909207  0.59686682  1
  O2-  O263  1  0.83694549  0.79733009  0.93791182  1
  O2-  O264  1  0.41262444  0.04667907  0.06204389  1
  O2-  O265  1  0.41573801  0.03598706  0.39834400  1
  O2-  O266  1  0.42332602  0.04289803  0.73430617  1
  O2-  O267  1  0.42088404  0.54243386  0.06635900  1
  O2-  O268  1  0.41841875  0.55141704  0.39810683  1
  O2-  O269  1  0.41196669  0.54312514  0.73013870  1
  O2-  O270  1  0.92098108  0.04449759  0.07119894  1
  O2-  O271  1  0.91741501  0.03979111  0.40088805  1
  O2-  O272  1  0.91800734  0.04360940  0.73524760  1
  O2-  O273  1  0.91058064  0.53782849  0.05869908  1
  O2-  O274  1  0.91647366  0.54015614  0.40336805  1
  O2-  O275  1  0.91450659  0.54146792  0.73249136  1
  O2-  O276  1  0.28814169  0.16189254  0.06026721  1
  O2-  O277  1  0.29217590  0.16647213  0.40214796  1
  O2-  O278  1  0.29399451  0.17012662  0.73736126  1
  O2-  O279  1  0.29923946  0.67270805  0.06691024  1
  O2-  O280  1  0.29642557  0.66840922  0.39547015  1
  O2-  O281  1  0.29417502  0.66258140  0.72755705  1
  O2-  O282  1  0.79465901  0.17199812  0.06987081  1
  O2-  O283  1  0.79079082  0.17001787  0.39878841  1
  O2-  O284  1  0.78703713  0.16495507  0.73633873  1
  O2-  O285  1  0.79604755  0.66266525  0.05806174  1
  O2-  O286  1  0.78874362  0.66554220  0.40443387  1
  O2-  O287  1  0.80245752  0.66902805  0.72778435  1
