# generated using pymatgen
data_Ca2Al2SiO7
_symmetry_space_group_name_H-M   'P 1'
_cell_length_a   15.46839719
_cell_length_b   15.46716135
_cell_length_c   15.29057395
_cell_angle_alpha   90.00509528
_cell_angle_beta   90.01132890
_cell_angle_gamma   90.03710917
_symmetry_Int_Tables_number   1
_chemical_formula_structural   Ca2Al2SiO7
_chemical_formula_sum   'Ca48 Al48 Si24 O168'
_cell_volume   3658.30252900
_cell_formula_units_Z   24
loop_
 _symmetry_equiv_pos_site_id
 _symmetry_equiv_pos_as_xyz
  1  'x, y, z'
loop_
 _atom_type_symbol
 _atom_type_oxidation_number
  Ca2+  2.0
  Al0+  0.0
  Si0+  0.0
  O2-  -2.0
loop_
 _atom_site_type_symbol
 _atom_site_label
 _atom_site_symmetry_multiplicity
 _atom_site_fract_x
 _atom_site_fract_y
 _atom_site_fract_z
 _atom_site_occupancy
  Ca2+  Ca0  1  0.17266615  0.07072197  0.17377340  1
  Ca2+  Ca1  1  0.17899938  0.07793159  0.50517023  1
  Ca2+  Ca2  1  0.17057269  0.07385092  0.83598165  1
  Ca2+  Ca3  1  0.17555015  0.59000732  0.17104206  1
  Ca2+  Ca4  1  0.17012854  0.58680380  0.49652986  1
  Ca2+  Ca5  1  0.17298623  0.58443790  0.84167188  1
  Ca2+  Ca6  1  0.67476558  0.08835875  0.17107686  1
  Ca2+  Ca7  1  0.66691369  0.08638016  0.50498517  1
  Ca2+  Ca8  1  0.66599583  0.07395957  0.83754971  1
  Ca2+  Ca9  1  0.65652519  0.57133167  0.16576141  1
  Ca2+  Ca10  1  0.66048285  0.56794046  0.50470761  1
  Ca2+  Ca11  1  0.66843807  0.57407463  0.84490363  1
  Ca2+  Ca12  1  0.07965589  0.33064126  0.16119603  1
  Ca2+  Ca13  1  0.07876010  0.33141498  0.49518231  1
  Ca2+  Ca14  1  0.07840521  0.33218045  0.82968521  1
  Ca2+  Ca15  1  0.08997487  0.82686083  0.16044334  1
  Ca2+  Ca16  1  0.08337272  0.83758184  0.49468541  1
  Ca2+  Ca17  1  0.08101016  0.83457707  0.82956668  1
  Ca2+  Ca18  1  0.57899848  0.33283793  0.16524634  1
  Ca2+  Ca19  1  0.57816456  0.32529234  0.49513355  1
  Ca2+  Ca20  1  0.57778243  0.33295611  0.82741122  1
  Ca2+  Ca21  1  0.58264198  0.82670068  0.15645075  1
  Ca2+  Ca22  1  0.58383086  0.83397109  0.49788371  1
  Ca2+  Ca23  1  0.59717273  0.82765542  0.83063561  1
  Ca2+  Ca24  1  0.34582258  0.42576514  0.16855526  1
  Ca2+  Ca25  1  0.34631178  0.41992177  0.49992518  1
  Ca2+  Ca26  1  0.34053391  0.41902641  0.84021637  1
  Ca2+  Ca27  1  0.32260998  0.91676614  0.17450820  1
  Ca2+  Ca28  1  0.32592757  0.92808139  0.50448875  1
  Ca2+  Ca29  1  0.32503080  0.92060637  0.83542718  1
  Ca2+  Ca30  1  0.82045277  0.42188127  0.16904660  1
  Ca2+  Ca31  1  0.81726758  0.41428692  0.50387707  1
  Ca2+  Ca32  1  0.81937963  0.42027095  0.84233559  1
  Ca2+  Ca33  1  0.82753405  0.92451216  0.16581930  1
  Ca2+  Ca34  1  0.83000500  0.92014281  0.50510086  1
  Ca2+  Ca35  1  0.82639603  0.91740174  0.83740600  1
  Ca2+  Ca36  1  0.41418839  0.17716091  0.16339294  1
  Ca2+  Ca37  1  0.42440064  0.16769504  0.49186789  1
  Ca2+  Ca38  1  0.42121107  0.17713949  0.82103651  1
  Ca2+  Ca39  1  0.41643298  0.66402543  0.15840953  1
  Ca2+  Ca40  1  0.41429336  0.66874776  0.49408012  1
  Ca2+  Ca41  1  0.42124720  0.66592634  0.83726275  1
  Ca2+  Ca42  1  0.91263999  0.16041036  0.16356283  1
  Ca2+  Ca43  1  0.91526451  0.16439834  0.49323663  1
  Ca2+  Ca44  1  0.91538826  0.16045696  0.83360708  1
  Ca2+  Ca45  1  0.92945836  0.66205377  0.15733188  1
  Ca2+  Ca46  1  0.92309744  0.67726747  0.49338521  1
  Ca2+  Ca47  1  0.91846349  0.67035017  0.82908917  1
  Al0+  Al48  1  0.00129861  -0.00144628  0.00632835  1
  Al0+  Al49  1  -0.00360894  -0.00038019  0.33863861  1
  Al0+  Al50  1  0.00048808  -0.00087759  0.66443423  1
  Al0+  Al51  1  0.00042167  0.49803194  -0.00375085  1
  Al0+  Al52  1  -0.00019840  0.50188799  0.33012612  1
  Al0+  Al53  1  0.00260717  0.50102479  0.66368790  1
  Al0+  Al54  1  0.49787128  0.00095323  0.00259268  1
  Al0+  Al55  1  0.50088993  -0.00099163  0.32964745  1
  Al0+  Al56  1  0.50105789  -0.00095004  0.67171584  1
  Al0+  Al57  1  0.49920332  0.50123930  -0.00172308  1
  Al0+  Al58  1  0.49935799  0.49962447  0.34010548  1
  Al0+  Al59  1  0.50123218  0.50036835  0.66873645  1
  Al0+  Al60  1  0.24819105  0.24997306  -0.00619120  1
  Al0+  Al61  1  0.24845603  0.25151094  0.33105831  1
  Al0+  Al62  1  0.24890421  0.25378108  0.66596557  1
  Al0+  Al63  1  0.24985578  0.74856861  0.00037885  1
  Al0+  Al64  1  0.24932162  0.74828102  0.33850662  1
  Al0+  Al65  1  0.25124140  0.74862744  0.66979446  1
  Al0+  Al66  1  0.74938184  0.25036035  0.00530672  1
  Al0+  Al67  1  0.74915342  0.25060448  0.33806226  1
  Al0+  Al68  1  0.74944772  0.25128712  0.66904603  1
  Al0+  Al69  1  0.75298669  0.75045806  0.00346719  1
  Al0+  Al70  1  0.75176636  0.74967600  0.33051053  1
  Al0+  Al71  1  0.75392422  0.75033950  0.66134617  1
  Al0+  Al72  1  0.07204479  0.67784351  0.98420315  1
  Al0+  Al73  1  0.93037979  0.82101226  0.65184715  1
  Al0+  Al74  1  0.32240054  0.07398651  0.68223470  1
  Al0+  Al75  1  0.57179060  0.68202425  0.98732333  1
  Al0+  Al76  1  0.43034319  0.31964389  0.98518721  1
  Al0+  Al77  1  0.81962361  0.06979687  0.01406592  1
  Al0+  Al78  1  0.67952066  0.43130410  0.34919684  1
  Al0+  Al79  1  0.57111049  0.17702723  0.65285441  1
  Al0+  Al80  1  0.17858722  0.92892145  0.68280313  1
  Al0+  Al81  1  0.42817647  0.32320244  0.65040109  1
  Al0+  Al82  1  0.31847762  0.56815161  0.01210886  1
  Al0+  Al83  1  0.67578072  0.92712413  0.01521176  1
  Al0+  Al84  1  0.67958303  0.42969508  0.68272000  1
  Al0+  Al85  1  0.31946531  0.56835499  0.34762835  1
  Al0+  Al86  1  0.82435964  0.57188200  0.01399549  1
  Al0+  Al87  1  0.42828168  0.32161097  0.31671238  1
  Al0+  Al88  1  0.57249797  0.17741465  0.31653386  1
  Al0+  Al89  1  0.07044339  0.68143359  0.31846096  1
  Al0+  Al90  1  0.17921939  0.92850990  0.34878122  1
  Al0+  Al91  1  0.67993983  0.92740313  0.67835715  1
  Al0+  Al92  1  0.81746603  0.06998872  0.34886197  1
  Al0+  Al93  1  0.67727109  0.43045083  0.01636566  1
  Al0+  Al94  1  0.18185913  0.92952755  0.01369205  1
  Al0+  Al95  1  0.32273668  0.07383671  0.34625422  1
  Si0+  Si96  1  0.67733990  0.92422129  0.34934756  1
  Si0+  Si97  1  0.92846726  0.32090058  0.31866368  1
  Si0+  Si98  1  0.57420553  0.17709054  0.98306699  1
  Si0+  Si99  1  0.57100419  0.67856234  0.32075357  1
  Si0+  Si100  1  0.17355839  0.42762715  0.34927011  1
  Si0+  Si101  1  0.92691070  0.82393441  0.31262448  1
  Si0+  Si102  1  0.42904109  0.81967380  0.32036903  1
  Si0+  Si103  1  0.17684828  0.42501798  0.01524590  1
  Si0+  Si104  1  0.32108430  0.07585229  0.01556724  1
  Si0+  Si105  1  0.82371669  0.57129234  0.68050641  1
  Si0+  Si106  1  0.32127461  0.57007877  0.68308925  1
  Si0+  Si107  1  0.42756765  0.81978681  0.65255046  1
  Si0+  Si108  1  0.93088941  0.82296337  0.98343603  1
  Si0+  Si109  1  0.42650547  0.82328680  0.98367504  1
  Si0+  Si110  1  0.07458305  0.67779214  0.64816690  1
  Si0+  Si111  1  0.17578891  0.42995890  0.68182569  1
  Si0+  Si112  1  0.06929203  0.17725185  0.98488009  1
  Si0+  Si113  1  0.82244658  0.07282140  0.68219603  1
  Si0+  Si114  1  0.82504326  0.57268717  0.35096455  1
  Si0+  Si115  1  0.92763633  0.31999375  0.98485380  1
  Si0+  Si116  1  0.57183436  0.68024738  0.65188607  1
  Si0+  Si117  1  0.06933429  0.17792816  0.31860933  1
  Si0+  Si118  1  0.92929173  0.32223450  0.65220158  1
  Si0+  Si119  1  0.06993924  0.17953127  0.65140212  1
  O2-  O120  1  0.25905789  0.00145143  0.05984048  1
  O2-  O121  1  0.25003606  0.00253802  0.39664158  1
  O2-  O122  1  0.25031493  0.00143367  0.73211531  1
  O2-  O123  1  0.24464955  0.49335578  0.05974668  1
  O2-  O124  1  0.24604264  0.49197821  0.39397595  1
  O2-  O125  1  0.25066963  0.49730813  0.72269263  1
  O2-  O126  1  0.74358724  0.00293845  0.06507823  1
  O2-  O127  1  0.74226368  -0.00414978  0.39433351  1
  O2-  O128  1  0.75198268  0.00537814  0.72405583  1
  O2-  O129  1  0.74843610  0.50477669  0.06508322  1
  O2-  O130  1  0.75381552  0.50746108  0.39585916  1
  O2-  O131  1  0.75583131  0.50391015  0.72683959  1
  O2-  O132  1  -0.00060289  0.25002868  0.27558822  1
  O2-  O133  1  -0.00258898  0.24919262  0.60874390  1
  O2-  O134  1  -0.00264199  0.24750475  0.94231342  1
  O2-  O135  1  -0.00333040  0.75588815  0.26988266  1
  O2-  O136  1  0.00807599  0.74886044  0.60546704  1
  O2-  O137  1  -0.00441143  0.75064298  0.93820550  1
  O2-  O138  1  0.49703690  0.24637049  0.26702239  1
  O2-  O139  1  0.49606262  0.24629089  0.60277859  1
  O2-  O140  1  0.50337381  0.24346020  0.93895705  1
  O2-  O141  1  0.50365152  0.75246978  0.27862128  1
  O2-  O142  1  0.50128867  0.75149650  0.60924452  1
  O2-  O143  1  0.50253541  0.76207939  0.93924145  1
  O2-  O144  1  0.07017512  0.17914772  0.08998302  1
  O2-  O145  1  0.06767507  0.18015845  0.42395970  1
  O2-  O146  1  0.06805295  0.18074760  0.75679636  1
  O2-  O147  1  0.07338790  0.67981453  0.09716607  1
  O2-  O148  1  0.06822194  0.68125486  0.43182867  1
  O2-  O149  1  0.07372584  0.67435373  0.75347321  1
  O2-  O150  1  0.57491680  0.17894206  0.08840537  1
  O2-  O151  1  0.57386163  0.17901812  0.43010692  1
  O2-  O152  1  0.57272836  0.17888475  0.76653950  1
  O2-  O153  1  0.56582472  0.67991257  0.10071430  1
  O2-  O154  1  0.56987302  0.67957683  0.42642885  1
  O2-  O155  1  0.57166284  0.68013494  0.75680727  1
  O2-  O156  1  0.16736550  0.42904641  0.24417284  1
  O2-  O157  1  0.16770244  0.43198532  0.57731671  1
  O2-  O158  1  0.17660482  0.42450065  0.90927785  1
  O2-  O159  1  0.18152641  0.92793566  0.23502583  1
  O2-  O160  1  0.18000503  0.93047310  0.56957819  1
  O2-  O161  1  0.18051255  0.93211104  0.90070059  1
  O2-  O162  1  0.67987393  0.43326252  0.23649418  1
  O2-  O163  1  0.68070538  0.43104229  0.56949062  1
  O2-  O164  1  0.67969144  0.43050838  0.90263106  1
  O2-  O165  1  0.68007924  0.92010872  0.24434615  1
  O2-  O166  1  0.68263159  0.92439875  0.56537544  1
  O2-  O167  1  0.68111325  0.92726923  0.90145736  1
  O2-  O168  1  0.42890076  0.31946642  0.09788104  1
  O2-  O169  1  0.43202667  0.32325879  0.42999738  1
  O2-  O170  1  0.43112399  0.32516250  0.76416797  1
  O2-  O171  1  0.42364086  0.81866277  0.08945174  1
  O2-  O172  1  0.42960061  0.81800309  0.42589974  1
  O2-  O173  1  0.42382931  0.81545588  0.75727114  1
  O2-  O174  1  0.93043832  0.32093813  0.08998666  1
  O2-  O175  1  0.93091799  0.32025105  0.42431595  1
  O2-  O176  1  0.93217771  0.32386125  0.75720923  1
  O2-  O177  1  0.93462650  0.82560412  0.08877683  1
  O2-  O178  1  0.92515262  0.82206671  0.41847809  1
  O2-  O179  1  0.92896542  0.81842496  0.76480439  1
  O2-  O180  1  0.31843124  0.07157793  0.23247642  1
  O2-  O181  1  0.32018904  0.07222835  0.56869208  1
  O2-  O182  1  0.31683296  0.07765158  0.91014681  1
  O2-  O183  1  0.31990955  0.56975854  0.23495768  1
  O2-  O184  1  0.32087075  0.57213947  0.57800772  1
  O2-  O185  1  0.31823211  0.56750254  0.89864742  1
  O2-  O186  1  0.81950733  0.06913816  0.23625063  1
  O2-  O187  1  0.82350650  0.07297578  0.57669455  1
  O2-  O188  1  0.82238815  0.06820877  0.90031943  1
  O2-  O189  1  0.82789966  0.56961906  0.24589395  1
  O2-  O190  1  0.82296132  0.56850809  0.57479996  1
  O2-  O191  1  0.82437535  0.56760303  0.89984290  1
  O2-  O192  1  0.03832634  0.08649237  0.27240772  1
  O2-  O193  1  0.04344076  0.08830421  0.60299513  1
  O2-  O194  1  0.03972499  0.08590760  0.93763966  1
  O2-  O195  1  0.04104015  0.58394579  0.26470131  1
  O2-  O196  1  0.04707330  0.58510309  0.60004699  1
  O2-  O197  1  0.04487315  0.57951450  0.93041618  1
  O2-  O198  1  0.55224852  0.07619527  0.26507605  1
  O2-  O199  1  0.54791376  0.07588237  0.60212140  1
  O2-  O200  1  0.55134473  0.08117434  0.93965793  1
  O2-  O201  1  0.53847223  0.58821378  0.27494321  1
  O2-  O202  1  0.54039870  0.58947020  0.60469310  1
  O2-  O203  1  0.53564791  0.58793089  0.93116748  1
  O2-  O204  1  0.16030215  0.20428779  0.26937082  1
  O2-  O205  1  0.15999898  0.21092571  0.60323105  1
  O2-  O206  1  0.15868306  0.20636067  0.93351238  1
  O2-  O207  1  0.16869784  0.71096436  0.26697573  1
  O2-  O208  1  0.16962753  0.70117429  0.60395568  1
  O2-  O209  1  0.16802124  0.71048300  0.92984507  1
  O2-  O210  1  0.67064234  0.21211948  0.26588839  1
  O2-  O211  1  0.67042399  0.20812311  0.60148637  1
  O2-  O212  1  0.66801448  0.20409204  0.93797334  1
  O2-  O213  1  0.66441654  0.70093467  0.27388297  1
  O2-  O214  1  0.66331385  0.70566547  0.60285223  1
  O2-  O215  1  0.67110386  0.70699082  0.93460770  1
  O2-  O216  1  0.08268880  0.44836033  0.05995570  1
  O2-  O217  1  0.08198965  0.45777351  0.39858765  1
  O2-  O218  1  0.08585149  0.46093325  0.73264493  1
  O2-  O219  1  0.08770506  0.96244664  0.06982265  1
  O2-  O220  1  0.07995238  0.95558880  0.39939356  1
  O2-  O221  1  0.07980373  0.95880836  0.73422073  1
  O2-  O222  1  0.58019719  0.46226775  0.06855561  1
  O2-  O223  1  0.58538540  0.46446014  0.40570498  1
  O2-  O224  1  0.58435620  0.46411531  0.73617922  1
  O2-  O225  1  0.57398999  0.94670048  0.06514768  1
  O2-  O226  1  0.58152503  0.94433173  0.39231509  1
  O2-  O227  1  0.58290776  0.94993350  0.73446893  1
  O2-  O228  1  0.20023579  0.33060688  0.06040595  1
  O2-  O229  1  0.19360418  0.33235419  0.39378606  1
  O2-  O230  1  0.19726114  0.33706152  0.72935972  1
  O2-  O231  1  0.21218899  0.83288741  0.06655024  1
  O2-  O232  1  0.20943367  0.83186988  0.40311135  1
  O2-  O233  1  0.20741234  0.82964393  0.73403683  1
  O2-  O234  1  0.70816679  0.33354869  0.06932106  1
  O2-  O235  1  0.71423348  0.33686026  0.40405021  1
  O2-  O236  1  0.71193736  0.33400731  0.73690890  1
  O2-  O237  1  0.70691766  0.83050799  0.06962294  1
  O2-  O238  1  0.70578407  0.83115080  0.39674118  1
  O2-  O239  1  0.71597762  0.83126987  0.73119886  1
  O2-  O240  1  0.46215892  0.42086429  0.26744348  1
  O2-  O241  1  0.46173025  0.42137167  0.59906632  1
  O2-  O242  1  0.46161097  0.41624758  0.93170935  1
  O2-  O243  1  0.45105789  0.91134879  0.27060449  1
  O2-  O244  1  0.45378898  0.91224919  0.60685524  1
  O2-  O245  1  0.44129021  0.92069189  0.94131253  1
  O2-  O246  1  0.95632759  0.41231928  0.27093622  1
  O2-  O247  1  0.96052282  0.41236926  0.60279907  1
  O2-  O248  1  0.95787147  0.40903955  0.93340718  1
  O2-  O249  1  0.95119616  0.91886107  0.26947172  1
  O2-  O250  1  0.95826454  0.91829551  0.59678552  1
  O2-  O251  1  0.96218538  0.91495715  0.93657723  1
  O2-  O252  1  0.32638713  0.30124115  0.26564078  1
  O2-  O253  1  0.32503735  0.30641036  0.60183079  1
  O2-  O254  1  0.33162207  0.29281997  0.93122248  1
  O2-  O255  1  0.33870845  0.78658556  0.27382646  1
  O2-  O256  1  0.33783524  0.78715052  0.60299799  1
  O2-  O257  1  0.33741979  0.78797764  0.93449305  1
  O2-  O258  1  0.83727216  0.29233166  0.27236627  1
  O2-  O259  1  0.83714081  0.29619974  0.60526832  1
  O2-  O260  1  0.83568410  0.29246103  0.93771342  1
  O2-  O261  1  0.83343543  0.79761578  0.26632348  1
  O2-  O262  1  0.83670867  0.78720486  0.59243299  1
  O2-  O263  1  0.83579407  0.80115554  0.93901385  1
  O2-  O264  1  0.41700630  0.05905987  0.05893523  1
  O2-  O265  1  0.42147921  0.04318102  0.39694948  1
  O2-  O266  1  0.41945963  0.04468398  0.73627953  1
  O2-  O267  1  0.41467452  0.53861296  0.06605673  1
  O2-  O268  1  0.41508213  0.54093935  0.40552637  1
  O2-  O269  1  0.41319788  0.54374771  0.73042870  1
  O2-  O270  1  0.91681137  0.03948391  0.06892511  1
  O2-  O271  1  0.91353047  0.04029213  0.40485692  1
  O2-  O272  1  0.91577601  0.04559208  0.72755271  1
  O2-  O273  1  0.92125806  0.53671388  0.06649843  1
  O2-  O274  1  0.91735313  0.54469331  0.39859755  1
  O2-  O275  1  0.91848275  0.54665463  0.72480116  1
  O2-  O276  1  0.28702187  0.16662028  0.06202437  1
  O2-  O277  1  0.29313708  0.17251560  0.39805427  1
  O2-  O278  1  0.29128408  0.17319152  0.73267146  1
  O2-  O279  1  0.28848692  0.66425712  0.06647142  1
  O2-  O280  1  0.28696203  0.66292798  0.40500034  1
  O2-  O281  1  0.29276874  0.66063249  0.73204599  1
  O2-  O282  1  0.79724540  0.16937756  0.06749129  1
  O2-  O283  1  0.79154981  0.16731281  0.40376644  1
  O2-  O284  1  0.80150563  0.16728003  0.72831602  1
  O2-  O285  1  0.80630051  0.67216664  0.06511380  1
  O2-  O286  1  0.80152650  0.66829404  0.39389525  1
  O2-  O287  1  0.79886948  0.66533861  0.72434507  1
