# generated using pymatgen
data_Ca2Al2SiO7
_symmetry_space_group_name_H-M   'P 1'
_cell_length_a   15.46879603
_cell_length_b   15.46699367
_cell_length_c   15.29034479
_cell_angle_alpha   90.00627135
_cell_angle_beta   90.01151399
_cell_angle_gamma   90.02426322
_symmetry_Int_Tables_number   1
_chemical_formula_structural   Ca2Al2SiO7
_chemical_formula_sum   'Ca48 Al48 Si24 O168'
_cell_volume   3658.30279768
_cell_formula_units_Z   24
loop_
 _symmetry_equiv_pos_site_id
 _symmetry_equiv_pos_as_xyz
  1  'x, y, z'
loop_
 _atom_type_symbol
 _atom_type_oxidation_number
  Ca2+  2.0
  Al0+  0.0
  Si0+  0.0
  O2-  -2.0
loop_
 _atom_site_type_symbol
 _atom_site_label
 _atom_site_symmetry_multiplicity
 _atom_site_fract_x
 _atom_site_fract_y
 _atom_site_fract_z
 _atom_site_occupancy
  Ca2+  Ca0  1  0.16650221  0.08551391  0.16631205  1
  Ca2+  Ca1  1  0.17610251  0.07716996  0.51054792  1
  Ca2+  Ca2  1  0.16788101  0.08031816  0.83272720  1
  Ca2+  Ca3  1  0.16802633  0.56948409  0.17148902  1
  Ca2+  Ca4  1  0.16310501  0.57529842  0.50863882  1
  Ca2+  Ca5  1  0.15335337  0.57232797  0.83493287  1
  Ca2+  Ca6  1  0.67226911  0.07379714  0.17585703  1
  Ca2+  Ca7  1  0.67006076  0.07497568  0.50674241  1
  Ca2+  Ca8  1  0.68075726  0.07089154  0.83775206  1
  Ca2+  Ca9  1  0.66937888  0.58141349  0.17051889  1
  Ca2+  Ca10  1  0.66286593  0.57748687  0.50854654  1
  Ca2+  Ca11  1  0.67616012  0.59137837  0.83248707  1
  Ca2+  Ca12  1  0.08528693  0.32898777  0.15786706  1
  Ca2+  Ca13  1  0.08190626  0.33697612  0.49759872  1
  Ca2+  Ca14  1  0.08722274  0.33035820  0.83126978  1
  Ca2+  Ca15  1  0.07331515  0.83016963  0.15616074  1
  Ca2+  Ca16  1  0.07902118  0.83432599  0.50337071  1
  Ca2+  Ca17  1  0.06910904  0.83070119  0.82095166  1
  Ca2+  Ca18  1  0.58584794  0.32748795  0.16351533  1
  Ca2+  Ca19  1  0.58961165  0.32870745  0.49053828  1
  Ca2+  Ca20  1  0.57848572  0.33699719  0.82683588  1
  Ca2+  Ca21  1  0.58806220  0.83242990  0.16236979  1
  Ca2+  Ca22  1  0.59766257  0.82401654  0.49873285  1
  Ca2+  Ca23  1  0.58518993  0.83491360  0.82848691  1
  Ca2+  Ca24  1  0.32494309  0.40563995  0.16635625  1
  Ca2+  Ca25  1  0.32055466  0.41472112  0.50580511  1
  Ca2+  Ca26  1  0.32480958  0.41671246  0.83901499  1
  Ca2+  Ca27  1  0.33406662  0.91308843  0.16745132  1
  Ca2+  Ca28  1  0.32949931  0.92434453  0.51150677  1
  Ca2+  Ca29  1  0.33118636  0.91695836  0.83528349  1
  Ca2+  Ca30  1  0.83231647  0.42645653  0.17072469  1
  Ca2+  Ca31  1  0.81925027  0.42248345  0.50734738  1
  Ca2+  Ca32  1  0.82960002  0.43047282  0.83279614  1
  Ca2+  Ca33  1  0.82770987  0.92356142  0.16695566  1
  Ca2+  Ca34  1  0.82605950  0.92541478  0.50669120  1
  Ca2+  Ca35  1  0.82885639  0.91313229  0.83955867  1
  Ca2+  Ca36  1  0.42795309  0.17037487  0.16103012  1
  Ca2+  Ca37  1  0.42390501  0.16485479  0.49638104  1
  Ca2+  Ca38  1  0.41466268  0.17168200  0.83025290  1
  Ca2+  Ca39  1  0.42563231  0.67263576  0.16159471  1
  Ca2+  Ca40  1  0.43014489  0.66685427  0.49673983  1
  Ca2+  Ca41  1  0.42360755  0.67286442  0.82753228  1
  Ca2+  Ca42  1  0.91978078  0.16240065  0.15921964  1
  Ca2+  Ca43  1  0.91052883  0.16390906  0.49638392  1
  Ca2+  Ca44  1  0.91838443  0.15991941  0.82994639  1
  Ca2+  Ca45  1  0.91250413  0.67283710  0.15773149  1
  Ca2+  Ca46  1  0.91207626  0.67077038  0.50606114  1
  Ca2+  Ca47  1  0.91279712  0.67375060  0.82422845  1
  Al0+  Al48  1  0.00157328  -0.00131255  -0.00512780  1
  Al0+  Al49  1  0.00089925  0.00012765  0.33464966  1
  Al0+  Al50  1  0.00293097  0.00138984  0.66474227  1
  Al0+  Al51  1  -0.00019353  0.49719547  0.01072281  1
  Al0+  Al52  1  0.00084979  0.49986861  0.33646299  1
  Al0+  Al53  1  -0.00234692  0.49814456  0.66894259  1
  Al0+  Al54  1  0.49959056  -0.00070652  -0.00066194  1
  Al0+  Al55  1  0.49961797  0.00037798  0.33275384  1
  Al0+  Al56  1  0.50072269  0.00399744  0.67438283  1
  Al0+  Al57  1  0.49933571  0.50003999  -0.00390946  1
  Al0+  Al58  1  0.49745395  0.50197054  0.32966906  1
  Al0+  Al59  1  0.49439738  0.49929884  0.66435532  1
  Al0+  Al60  1  0.25064503  0.24852436  -0.00381589  1
  Al0+  Al61  1  0.24853438  0.24914450  0.33803930  1
  Al0+  Al62  1  0.24940248  0.25094845  0.67173947  1
  Al0+  Al63  1  0.25227144  0.74735973  -0.00287719  1
  Al0+  Al64  1  0.24902348  0.74836674  0.33245428  1
  Al0+  Al65  1  0.24961484  0.74969302  0.66476413  1
  Al0+  Al66  1  0.75256660  0.25032333  -0.00039131  1
  Al0+  Al67  1  0.75224002  0.25304411  0.33143723  1
  Al0+  Al68  1  0.74871110  0.24992011  0.67437721  1
  Al0+  Al69  1  0.75090152  0.74936384  0.00534488  1
  Al0+  Al70  1  0.75173910  0.75173972  0.32971517  1
  Al0+  Al71  1  0.74927021  0.75009923  0.66288201  1
  Al0+  Al72  1  0.82499854  0.07118091  0.01521903  1
  Al0+  Al73  1  0.81960380  0.56946760  0.01444018  1
  Al0+  Al74  1  0.92805690  0.82359559  0.64870510  1
  Al0+  Al75  1  0.18206338  0.42855768  0.01476440  1
  Al0+  Al76  1  0.42815787  0.82180402  0.98547355  1
  Al0+  Al77  1  0.57193039  0.67935085  0.31819051  1
  Al0+  Al78  1  0.67382661  0.42798900  0.68105084  1
  Al0+  Al79  1  0.43122497  0.31968871  0.98601443  1
  Al0+  Al80  1  0.82273489  0.07212238  0.68139357  1
  Al0+  Al81  1  0.17793117  0.43102265  0.68172575  1
  Al0+  Al82  1  0.17965007  0.92662786  0.68202196  1
  Al0+  Al83  1  0.67778556  0.43163244  0.34359106  1
  Al0+  Al84  1  0.32169168  0.07169788  0.68343817  1
  Al0+  Al85  1  0.68051786  0.92769030  0.68188840  1
  Al0+  Al86  1  0.67740030  0.92901198  0.34962835  1
  Al0+  Al87  1  0.93014645  0.81826502  0.98693880  1
  Al0+  Al88  1  0.67803435  0.92989953  0.01684245  1
  Al0+  Al89  1  0.81809762  0.57047223  0.67939584  1
  Al0+  Al90  1  0.57271895  0.17948836  0.32059647  1
  Al0+  Al91  1  0.18024320  0.42865406  0.34859808  1
  Al0+  Al92  1  0.07053684  0.67630834  0.65152285  1
  Al0+  Al93  1  0.07011230  0.17957693  0.98516860  1
  Al0+  Al94  1  0.56897555  0.67988114  0.65359376  1
  Al0+  Al95  1  0.82269527  0.07192099  0.34742146  1
  Si0+  Si96  1  0.42616678  0.32054213  0.64975842  1
  Si0+  Si97  1  0.93196651  0.82170807  0.31642258  1
  Si0+  Si98  1  0.42538977  0.82203669  0.31819736  1
  Si0+  Si99  1  0.07240715  0.18088765  0.64968191  1
  Si0+  Si100  1  0.92807329  0.32476294  0.98260529  1
  Si0+  Si101  1  0.42878650  0.82575667  0.65050547  1
  Si0+  Si102  1  0.07225764  0.67497699  0.98658900  1
  Si0+  Si103  1  0.82245611  0.57343343  0.35035982  1
  Si0+  Si104  1  0.57459686  0.17715731  0.98200725  1
  Si0+  Si105  1  0.67498727  0.42767150  0.01574109  1
  Si0+  Si106  1  0.32014607  0.07053407  0.01653999  1
  Si0+  Si107  1  0.17891234  0.92731039  0.34577825  1
  Si0+  Si108  1  0.32055874  0.57438714  0.35087108  1
  Si0+  Si109  1  0.32024599  0.07034861  0.34622810  1
  Si0+  Si110  1  0.07128208  0.17941557  0.31959013  1
  Si0+  Si111  1  0.57071608  0.18192339  0.65280610  1
  Si0+  Si112  1  0.57222016  0.67914007  0.98323965  1
  Si0+  Si113  1  0.07195629  0.67738024  0.31681928  1
  Si0+  Si114  1  0.32484663  0.57263236  0.01801858  1
  Si0+  Si115  1  0.42544840  0.32047867  0.31828032  1
  Si0+  Si116  1  0.92736192  0.31924728  0.65186981  1
  Si0+  Si117  1  0.93030309  0.32286102  0.31798736  1
  Si0+  Si118  1  0.32146767  0.57263559  0.68313984  1
  Si0+  Si119  1  0.18049042  0.92668051  0.01434216  1
  O2-  O120  1  0.25191288  -0.00345239  0.05934888  1
  O2-  O121  1  0.25309415  -0.00474310  0.38680011  1
  O2-  O122  1  0.25296772  -0.00343899  0.73308364  1
  O2-  O123  1  0.25681876  0.50291644  0.06233471  1
  O2-  O124  1  0.25405795  0.50362616  0.39513763  1
  O2-  O125  1  0.24738297  0.51035296  0.72794227  1
  O2-  O126  1  0.74793532  0.00504934  0.06537634  1
  O2-  O127  1  0.74708750  0.00435320  0.39732039  1
  O2-  O128  1  0.75860319  -0.00658142  0.73081213  1
  O2-  O129  1  0.74540137  0.49392111  0.06062055  1
  O2-  O130  1  0.74842394  0.50923853  0.39170527  1
  O2-  O131  1  0.74223888  0.50305923  0.73035060  1
  O2-  O132  1  0.00013408  0.24959097  0.27680085  1
  O2-  O133  1  -0.00273098  0.24734898  0.60735365  1
  O2-  O134  1  -0.00745904  0.25173144  0.93893194  1
  O2-  O135  1  0.00072758  0.74758339  0.27433740  1
  O2-  O136  1  0.00140941  0.75061490  0.59992660  1
  O2-  O137  1  0.00513975  0.74348128  0.94167263  1
  O2-  O138  1  0.49893570  0.25666671  0.27460196  1
  O2-  O139  1  0.50101912  0.25379742  0.60797229  1
  O2-  O140  1  0.50942469  0.24968820  0.93780971  1
  O2-  O141  1  0.49808553  0.75717654  0.27453764  1
  O2-  O142  1  0.49759790  0.75814807  0.60524887  1
  O2-  O143  1  0.50448729  0.74902131  0.93992173  1
  O2-  O144  1  0.07255062  0.18142915  0.09929080  1
  O2-  O145  1  0.07385119  0.17989495  0.42437559  1
  O2-  O146  1  0.07535100  0.18366777  0.75450298  1
  O2-  O147  1  0.07234627  0.67782817  0.09296810  1
  O2-  O148  1  0.07404557  0.67736458  0.42124419  1
  O2-  O149  1  0.06654593  0.67449843  0.76515604  1
  O2-  O150  1  0.57135020  0.17766594  0.08815954  1
  O2-  O151  1  0.56903609  0.17959110  0.43379646  1
  O2-  O152  1  0.56835627  0.18424824  0.75758691  1
  O2-  O153  1  0.56996206  0.67817789  0.08920089  1
  O2-  O154  1  0.56948785  0.67772375  0.43104832  1
  O2-  O155  1  0.56603026  0.67875457  0.76651508  1
  O2-  O156  1  0.18222893  0.42633070  0.23559155  1
  O2-  O157  1  0.18057638  0.42856308  0.56834555  1
  O2-  O158  1  0.18169437  0.42992347  0.90208897  1
  O2-  O159  1  0.17822395  0.92840941  0.24030789  1
  O2-  O160  1  0.18240171  0.93109348  0.56719278  1
  O2-  O161  1  0.18185157  0.92745046  0.91002095  1
  O2-  O162  1  0.68185613  0.43128098  0.23042037  1
  O2-  O163  1  0.67667301  0.42694684  0.56697536  1
  O2-  O164  1  0.67354432  0.43035252  0.91058966  1
  O2-  O165  1  0.67839536  0.92938929  0.23624051  1
  O2-  O166  1  0.67841006  0.93107959  0.56827429  1
  O2-  O167  1  0.67882933  0.92851446  0.90378073  1
  O2-  O168  1  0.43013939  0.31523668  0.09962664  1
  O2-  O169  1  0.42161806  0.31661416  0.42375169  1
  O2-  O170  1  0.42476285  0.31933393  0.75477359  1
  O2-  O171  1  0.42498631  0.81849224  0.09891408  1
  O2-  O172  1  0.41817092  0.81995366  0.42308742  1
  O2-  O173  1  0.42916283  0.82332830  0.75605294  1
  O2-  O174  1  0.93149120  0.32730475  0.08865818  1
  O2-  O175  1  0.93175928  0.32492510  0.42305241  1
  O2-  O176  1  0.92957759  0.31953962  0.75670798  1
  O2-  O177  1  0.93339852  0.81767084  0.10091455  1
  O2-  O178  1  0.93435423  0.82327955  0.42091672  1
  O2-  O179  1  0.92833314  0.82127639  0.76228071  1
  O2-  O180  1  0.31800640  0.07317641  0.24108447  1
  O2-  O181  1  0.32060979  0.07221183  0.56877483  1
  O2-  O182  1  0.31829447  0.07174800  0.91204671  1
  O2-  O183  1  0.31714077  0.57737576  0.24538892  1
  O2-  O184  1  0.32360690  0.56742881  0.57738266  1
  O2-  O185  1  0.32586833  0.57252597  0.91285855  1
  O2-  O186  1  0.82669860  0.06812939  0.23426210  1
  O2-  O187  1  0.81640449  0.07536618  0.56781042  1
  O2-  O188  1  0.82526415  0.06740311  0.90230990  1
  O2-  O189  1  0.82521760  0.57073179  0.24446853  1
  O2-  O190  1  0.81818104  0.56675231  0.56558606  1
  O2-  O191  1  0.81992668  0.57011153  0.90202350  1
  O2-  O192  1  0.04575565  0.08689656  0.27155354  1
  O2-  O193  1  0.05216810  0.08793001  0.60141962  1
  O2-  O194  1  0.04468595  0.08236749  0.93063848  1
  O2-  O195  1  0.04442847  0.58455433  0.27042343  1
  O2-  O196  1  0.03944863  0.57765131  0.59843237  1
  O2-  O197  1  0.04485931  0.58022467  0.94529246  1
  O2-  O198  1  0.53776381  0.08430542  0.26525930  1
  O2-  O199  1  0.54015619  0.09028862  0.60590105  1
  O2-  O200  1  0.54313563  0.08562783  0.93666221  1
  O2-  O201  1  0.53826601  0.58415292  0.26148880  1
  O2-  O202  1  0.53280773  0.58401220  0.59876797  1
  O2-  O203  1  0.54628655  0.58606280  0.93688825  1
  O2-  O204  1  0.16307811  0.20824915  0.27163958  1
  O2-  O205  1  0.16302370  0.21429877  0.60202512  1
  O2-  O206  1  0.16518244  0.21280171  0.93038679  1
  O2-  O207  1  0.16344644  0.70514112  0.26793956  1
  O2-  O208  1  0.17102990  0.70080676  0.59872000  1
  O2-  O209  1  0.16683160  0.69595741  0.94161353  1
  O2-  O210  1  0.66864064  0.21082395  0.26523327  1
  O2-  O211  1  0.66290167  0.20929346  0.60603365  1
  O2-  O212  1  0.67009089  0.19816234  0.93833771  1
  O2-  O213  1  0.66957028  0.70734003  0.26406222  1
  O2-  O214  1  0.66554442  0.70548233  0.59740731  1
  O2-  O215  1  0.66610631  0.70519693  0.93988982  1
  O2-  O216  1  0.08686674  0.45743141  0.07265369  1
  O2-  O217  1  0.08352173  0.45941517  0.40187330  1
  O2-  O218  1  0.08052132  0.45608816  0.73555138  1
  O2-  O219  1  0.08981763  0.95679420  0.06226904  1
  O2-  O220  1  0.08999641  0.95917783  0.39500238  1
  O2-  O221  1  0.08268979  0.95882548  0.73358191  1
  O2-  O222  1  0.58183943  0.45448517  0.06258550  1
  O2-  O223  1  0.57796164  0.45545488  0.39448641  1
  O2-  O224  1  0.57257288  0.45095890  0.72914924  1
  O2-  O225  1  0.57761287  0.95560550  0.06835446  1
  O2-  O226  1  0.57661391  0.95298103  0.39987178  1
  O2-  O227  1  0.58428008  0.96091226  0.73555319  1
  O2-  O228  1  0.21557614  0.33147499  0.06725983  1
  O2-  O229  1  0.21038560  0.33235024  0.40399799  1
  O2-  O230  1  0.21361541  0.33690581  0.73587848  1
  O2-  O231  1  0.20748051  0.83404271  0.06190691  1
  O2-  O232  1  0.20255947  0.83433673  0.39214525  1
  O2-  O233  1  0.20297368  0.82674966  0.73315658  1
  O2-  O234  1  0.69810606  0.33232647  0.05916558  1
  O2-  O235  1  0.71193473  0.33650649  0.39802807  1
  O2-  O236  1  0.70545792  0.33303603  0.73718817  1
  O2-  O237  1  0.70909967  0.83245153  0.07014135  1
  O2-  O238  1  0.71078545  0.83060201  0.39903854  1
  O2-  O239  1  0.70201992  0.82726053  0.73177062  1
  O2-  O240  1  0.44250641  0.41628844  0.27406358  1
  O2-  O241  1  0.44650484  0.41340687  0.60151556  1
  O2-  O242  1  0.45522371  0.41801292  0.93172809  1
  O2-  O243  1  0.44564072  0.91730465  0.27309228  1
  O2-  O244  1  0.45227159  0.92163086  0.60791807  1
  O2-  O245  1  0.45371195  0.91992505  0.93258944  1
  O2-  O246  1  0.96169360  0.41389652  0.26980204  1
  O2-  O247  1  0.95714480  0.40954939  0.60281603  1
  O2-  O248  1  0.96057515  0.41669157  0.93746783  1
  O2-  O249  1  0.96525321  0.91203183  0.26853663  1
  O2-  O250  1  0.96027906  0.92158635  0.59520563  1
  O2-  O251  1  0.96252427  0.91293565  0.93220832  1
  O2-  O252  1  0.33388648  0.28697180  0.27111224  1
  O2-  O253  1  0.33576040  0.28713801  0.60209184  1
  O2-  O254  1  0.33666947  0.28484345  0.93106730  1
  O2-  O255  1  0.33319739  0.79260725  0.26856308  1
  O2-  O256  1  0.33475619  0.80120186  0.60441009  1
  O2-  O257  1  0.33255906  0.78915867  0.92967621  1
  O2-  O258  1  0.83924169  0.29921688  0.26778578  1
  O2-  O259  1  0.83444391  0.29178581  0.60567008  1
  O2-  O260  1  0.83226048  0.30668186  0.93812119  1
  O2-  O261  1  0.84027369  0.79581707  0.26829871  1
  O2-  O262  1  0.83096114  0.79308818  0.59432706  1
  O2-  O263  1  0.83315963  0.78624842  0.93599491  1
  O2-  O264  1  0.41251763  0.04505653  0.06379007  1
  O2-  O265  1  0.41215298  0.04639794  0.39444549  1
  O2-  O266  1  0.41959987  0.04960119  0.73851533  1
  O2-  O267  1  0.41852347  0.54692538  0.06425443  1
  O2-  O268  1  0.41510816  0.55036497  0.39464414  1
  O2-  O269  1  0.41097858  0.54020376  0.73261911  1
  O2-  O270  1  0.92336882  0.03873154  0.06721451  1
  O2-  O271  1  0.92082423  0.04116321  0.40110313  1
  O2-  O272  1  0.92596870  0.05523834  0.72621308  1
  O2-  O273  1  0.91451818  0.53862205  0.07331132  1
  O2-  O274  1  0.91422168  0.54296425  0.39671045  1
  O2-  O275  1  0.91372825  0.53710674  0.73387729  1
  O2-  O276  1  0.28794748  0.16035518  0.06492070  1
  O2-  O277  1  0.28820377  0.15899289  0.39711412  1
  O2-  O278  1  0.28776380  0.16768451  0.73705890  1
  O2-  O279  1  0.29793048  0.66571920  0.06520040  1
  O2-  O280  1  0.29291745  0.66657679  0.39877220  1
  O2-  O281  1  0.30477364  0.66899776  0.72547533  1
  O2-  O282  1  0.80521690  0.17424166  0.06337233  1
  O2-  O283  1  0.80154905  0.17381885  0.39494263  1
  O2-  O284  1  0.78979216  0.16701663  0.73808113  1
  O2-  O285  1  0.78825406  0.66390515  0.07201455  1
  O2-  O286  1  0.80236348  0.66916577  0.39205526  1
  O2-  O287  1  0.79257071  0.66938323  0.73075446  1
