# generated using pymatgen
data_Ca2Al2SiO7
_symmetry_space_group_name_H-M   'P 1'
_cell_length_a   15.46666262
_cell_length_b   15.46889912
_cell_length_c   15.29122496
_cell_angle_alpha   90.00929385
_cell_angle_beta   89.98008337
_cell_angle_gamma   90.01660589
_symmetry_Int_Tables_number   1
_chemical_formula_structural   Ca2Al2SiO7
_chemical_formula_sum   'Ca48 Al48 Si24 O168'
_cell_volume   3658.45946060
_cell_formula_units_Z   24
loop_
 _symmetry_equiv_pos_site_id
 _symmetry_equiv_pos_as_xyz
  1  'x, y, z'
loop_
 _atom_type_symbol
 _atom_type_oxidation_number
  Ca2+  2.0
  Al0+  0.0
  Si0+  0.0
  O2-  -2.0
loop_
 _atom_site_type_symbol
 _atom_site_label
 _atom_site_symmetry_multiplicity
 _atom_site_fract_x
 _atom_site_fract_y
 _atom_site_fract_z
 _atom_site_occupancy
  Ca2+  Ca0  1  0.16939792  0.07915932  0.16909927  1
  Ca2+  Ca1  1  0.16766199  0.07425168  0.50051760  1
  Ca2+  Ca2  1  0.17446806  0.08681860  0.84258823  1
  Ca2+  Ca3  1  0.17770011  0.59562990  0.17183576  1
  Ca2+  Ca4  1  0.17029251  0.59890193  0.50125330  1
  Ca2+  Ca5  1  0.17137533  0.59144737  0.83809487  1
  Ca2+  Ca6  1  0.67252155  0.07143432  0.16996937  1
  Ca2+  Ca7  1  0.67584824  0.07335049  0.49975214  1
  Ca2+  Ca8  1  0.67441564  0.07269758  0.83067601  1
  Ca2+  Ca9  1  0.67307237  0.57460685  0.16582857  1
  Ca2+  Ca10  1  0.67025582  0.57286303  0.50730762  1
  Ca2+  Ca11  1  0.67915864  0.57604373  0.83825648  1
  Ca2+  Ca12  1  0.07639655  0.32306246  0.15493897  1
  Ca2+  Ca13  1  0.07477251  0.33087379  0.49860786  1
  Ca2+  Ca14  1  0.07231702  0.32742692  0.83144005  1
  Ca2+  Ca15  1  0.07852080  0.83337909  0.16599191  1
  Ca2+  Ca16  1  0.07755074  0.82663443  0.49753426  1
  Ca2+  Ca17  1  0.06674622  0.82790683  0.82882040  1
  Ca2+  Ca18  1  0.58840319  0.33619206  0.16206350  1
  Ca2+  Ca19  1  0.59243298  0.33443597  0.49385748  1
  Ca2+  Ca20  1  0.58793659  0.33760465  0.82904821  1
  Ca2+  Ca21  1  0.57557419  0.84241569  0.16064797  1
  Ca2+  Ca22  1  0.57494294  0.84565037  0.49653779  1
  Ca2+  Ca23  1  0.57403783  0.84521839  0.82920577  1
  Ca2+  Ca24  1  0.33168791  0.43138740  0.17028822  1
  Ca2+  Ca25  1  0.33089419  0.42692697  0.50213254  1
  Ca2+  Ca26  1  0.32821207  0.42560554  0.84296243  1
  Ca2+  Ca27  1  0.33104947  0.91470481  0.17036910  1
  Ca2+  Ca28  1  0.32857215  0.90357714  0.50009826  1
  Ca2+  Ca29  1  0.33347966  0.91636853  0.84054201  1
  Ca2+  Ca30  1  0.82967863  0.41564627  0.16664294  1
  Ca2+  Ca31  1  0.82632672  0.42016513  0.51043243  1
  Ca2+  Ca32  1  0.83516695  0.42389633  0.83758758  1
  Ca2+  Ca33  1  0.82569439  0.91674665  0.17367410  1
  Ca2+  Ca34  1  0.82756270  0.92318318  0.51328689  1
  Ca2+  Ca35  1  0.82527345  0.90660494  0.83977524  1
  Ca2+  Ca36  1  0.41895505  0.16633626  0.15757396  1
  Ca2+  Ca37  1  0.42114106  0.17147564  0.49591652  1
  Ca2+  Ca38  1  0.41976818  0.16465133  0.83008940  1
  Ca2+  Ca39  1  0.41633486  0.67323337  0.16249271  1
  Ca2+  Ca40  1  0.42021212  0.67547359  0.49225857  1
  Ca2+  Ca41  1  0.41899240  0.67534939  0.83039519  1
  Ca2+  Ca42  1  0.91925373  0.16769273  0.15776905  1
  Ca2+  Ca43  1  0.89955895  0.17032597  0.49891214  1
  Ca2+  Ca44  1  0.90599542  0.17804657  0.83051108  1
  Ca2+  Ca45  1  0.92116193  0.66876640  0.15904468  1
  Ca2+  Ca46  1  0.92533362  0.66262686  0.49989789  1
  Ca2+  Ca47  1  0.91327553  0.66958926  0.82614323  1
  Al0+  Al48  1  0.00204870  -0.00234405  -0.00857390  1
  Al0+  Al49  1  0.00264248  0.00256511  0.34099993  1
  Al0+  Al50  1  0.00250979  0.00124095  0.66891313  1
  Al0+  Al51  1  0.00158431  0.49788587  0.00019955  1
  Al0+  Al52  1  0.00199707  0.49835327  0.32636151  1
  Al0+  Al53  1  0.00166010  0.49631793  0.66075335  1
  Al0+  Al54  1  0.49909949  0.00207801  0.00224530  1
  Al0+  Al55  1  0.50125908  0.00477367  0.33139044  1
  Al0+  Al56  1  0.49922994  0.00360092  0.66269564  1
  Al0+  Al57  1  0.49899574  0.50080902  0.00618558  1
  Al0+  Al58  1  0.49862257  0.50176739  0.33988510  1
  Al0+  Al59  1  0.49641687  0.50200820  0.66954427  1
  Al0+  Al60  1  0.25229850  0.25089578  0.00083802  1
  Al0+  Al61  1  0.24970332  0.25226366  0.33276978  1
  Al0+  Al62  1  0.25016571  0.25123294  0.66499908  1
  Al0+  Al63  1  0.25116353  0.75255238  0.00028659  1
  Al0+  Al64  1  0.25109649  0.75226485  0.33323082  1
  Al0+  Al65  1  0.25079723  0.75216934  0.66335330  1
  Al0+  Al66  1  0.74883586  0.24745718  -0.00176948  1
  Al0+  Al67  1  0.74830058  0.24970130  0.33595739  1
  Al0+  Al68  1  0.74700828  0.24625797  0.66776699  1
  Al0+  Al69  1  0.74719150  0.74592835  0.00721237  1
  Al0+  Al70  1  0.74777420  0.74766158  0.33737518  1
  Al0+  Al71  1  0.74581887  0.74806955  0.66983868  1
  Al0+  Al72  1  0.82333229  0.06949890  0.68370589  1
  Al0+  Al73  1  0.32070273  0.07186218  0.01289496  1
  Al0+  Al74  1  0.31911996  0.57336077  0.01376922  1
  Al0+  Al75  1  0.92856054  0.31649201  0.65124428  1
  Al0+  Al76  1  0.68142413  0.43150723  0.34680582  1
  Al0+  Al77  1  0.67718017  0.92655976  0.34792286  1
  Al0+  Al78  1  0.07348209  0.17709690  0.98486870  1
  Al0+  Al79  1  0.43199859  0.82189560  0.65212417  1
  Al0+  Al80  1  0.92426676  0.82208419  0.65289319  1
  Al0+  Al81  1  0.06996748  0.67898580  0.65312944  1
  Al0+  Al82  1  0.92756842  0.31953803  0.98435449  1
  Al0+  Al83  1  0.67865126  0.92778636  0.01337958  1
  Al0+  Al84  1  0.67677370  0.42812086  0.68154625  1
  Al0+  Al85  1  0.92533191  0.81835965  0.98995891  1
  Al0+  Al86  1  0.67996880  0.42662413  0.01482934  1
  Al0+  Al87  1  0.31854773  0.57166354  0.34882619  1
  Al0+  Al88  1  0.06973728  0.68049495  0.31804407  1
  Al0+  Al89  1  0.67746743  0.92793996  0.68132978  1
  Al0+  Al90  1  0.43091104  0.82165418  0.98637749  1
  Al0+  Al91  1  0.18105086  0.93011174  0.34766469  1
  Al0+  Al92  1  0.43288140  0.82182802  0.31775484  1
  Al0+  Al93  1  0.82467257  0.57060291  0.01651507  1
  Al0+  Al94  1  0.82363738  0.56946799  0.68002159  1
  Al0+  Al95  1  0.82193115  0.06893973  0.34585408  1
  Si0+  Si96  1  0.17923152  0.42759784  0.01710006  1
  Si0+  Si97  1  0.43046345  0.32277464  0.98538357  1
  Si0+  Si98  1  0.31921867  0.07296724  0.68021875  1
  Si0+  Si99  1  0.42698468  0.32356284  0.65165187  1
  Si0+  Si100  1  0.82329542  0.06916649  0.01396895  1
  Si0+  Si101  1  0.18077035  0.92788232  0.68337363  1
  Si0+  Si102  1  0.17753534  0.92864719  0.01589295  1
  Si0+  Si103  1  0.56992573  0.67456257  0.64987542  1
  Si0+  Si104  1  0.57018661  0.67537417  0.98372327  1
  Si0+  Si105  1  0.07406214  0.17835790  0.31818791  1
  Si0+  Si106  1  0.31747927  0.57289887  0.68274300  1
  Si0+  Si107  1  0.18028451  0.42608941  0.68183667  1
  Si0+  Si108  1  0.07267345  0.67862398  0.98604247  1
  Si0+  Si109  1  0.07713796  0.17832244  0.64768815  1
  Si0+  Si110  1  0.57015909  0.18334155  0.31527068  1
  Si0+  Si111  1  0.42757052  0.32342479  0.31748012  1
  Si0+  Si112  1  0.57258524  0.67388563  0.31583008  1
  Si0+  Si113  1  0.56831655  0.18141081  0.64872865  1
  Si0+  Si114  1  0.92688457  0.82420947  0.32063394  1
  Si0+  Si115  1  0.92812750  0.31780197  0.31796866  1
  Si0+  Si116  1  0.32264047  0.07570559  0.35016731  1
  Si0+  Si117  1  0.56987407  0.17876372  0.98315923  1
  Si0+  Si118  1  0.82679536  0.57148115  0.34975214  1
  Si0+  Si119  1  0.17753983  0.42679495  0.35068096  1
  O2-  O120  1  0.24420862  -0.00003357  0.05944403  1
  O2-  O121  1  0.25777618  0.00415235  0.39462351  1
  O2-  O122  1  0.24792625  0.00375397  0.72357133  1
  O2-  O123  1  0.24165742  0.50179363  0.06136087  1
  O2-  O124  1  0.24165684  0.49898367  0.39626899  1
  O2-  O125  1  0.24592454  0.50217445  0.72437386  1
  O2-  O126  1  0.75963941  -0.00343489  0.05891853  1
  O2-  O127  1  0.75853665  -0.01089122  0.39570575  1
  O2-  O128  1  0.75928161  -0.01102013  0.73184293  1
  O2-  O129  1  0.75482203  0.49515479  0.06488351  1
  O2-  O130  1  0.75495965  0.50606859  0.39373660  1
  O2-  O131  1  0.75175215  0.49681388  0.73006445  1
  O2-  O132  1  0.00045699  0.24714422  0.27716381  1
  O2-  O133  1  0.00112930  0.23890020  0.60339905  1
  O2-  O134  1  -0.00173310  0.24530613  0.93481610  1
  O2-  O135  1  -0.00923061  0.75186722  0.27379250  1
  O2-  O136  1  -0.00564824  0.74756230  0.60312516  1
  O2-  O137  1  -0.00253546  0.74014798  0.94345930  1
  O2-  O138  1  0.49771791  0.25316901  0.27313596  1
  O2-  O139  1  0.50220242  0.25848784  0.60767369  1
  O2-  O140  1  0.50179975  0.25349622  0.94120838  1
  O2-  O141  1  0.51152714  0.75027267  0.27214797  1
  O2-  O142  1  0.50861353  0.74986921  0.60517986  1
  O2-  O143  1  0.50668715  0.74893223  0.93865750  1
  O2-  O144  1  0.07330433  0.17887783  0.09919399  1
  O2-  O145  1  0.08054120  0.18169412  0.42269607  1
  O2-  O146  1  0.08838457  0.18593074  0.75203875  1
  O2-  O147  1  0.07536685  0.68297846  0.09162879  1
  O2-  O148  1  0.06934274  0.68138635  0.43078154  1
  O2-  O149  1  0.07544388  0.68229039  0.76667551  1
  O2-  O150  1  0.56801014  0.17862702  0.08844470  1
  O2-  O151  1  0.56833490  0.18485524  0.42047539  1
  O2-  O152  1  0.56388475  0.17824232  0.75377914  1
  O2-  O153  1  0.56645794  0.67324170  0.08934412  1
  O2-  O154  1  0.56735511  0.66727718  0.42103768  1
  O2-  O155  1  0.56282448  0.66761984  0.75484814  1
  O2-  O156  1  0.18129432  0.42236915  0.24549553  1
  O2-  O157  1  0.18586649  0.42048732  0.57704293  1
  O2-  O158  1  0.18331478  0.42572417  0.91130894  1
  O2-  O159  1  0.18002736  0.93334667  0.23457628  1
  O2-  O160  1  0.18387879  0.92741539  0.57817695  1
  O2-  O161  1  0.18087091  0.92628264  0.91035308  1
  O2-  O162  1  0.68290598  0.42933844  0.23420617  1
  O2-  O163  1  0.67694807  0.43019738  0.56763464  1
  O2-  O164  1  0.67691174  0.42980817  0.90194226  1
  O2-  O165  1  0.67516032  0.93277563  0.23425618  1
  O2-  O166  1  0.67239572  0.93554237  0.56826154  1
  O2-  O167  1  0.67604077  0.93225497  0.90075328  1
  O2-  O168  1  0.43001584  0.32101665  0.09056500  1
  O2-  O169  1  0.42640433  0.32077839  0.42284519  1
  O2-  O170  1  0.42413268  0.32075153  0.75666304  1
  O2-  O171  1  0.43024885  0.82118621  0.09932556  1
  O2-  O172  1  0.43246370  0.81942149  0.43105042  1
  O2-  O173  1  0.42976735  0.82113011  0.76527225  1
  O2-  O174  1  0.92848472  0.31583418  0.09872159  1
  O2-  O175  1  0.92825653  0.31715904  0.42300040  1
  O2-  O176  1  0.93103432  0.31720988  0.76374554  1
  O2-  O177  1  0.92919555  0.82089613  0.10344815  1
  O2-  O178  1  0.93040511  0.82430974  0.42577239  1
  O2-  O179  1  0.92795363  0.81942295  0.76667781  1
  O2-  O180  1  0.32029120  0.07936530  0.24484318  1
  O2-  O181  1  0.31819731  0.07668630  0.57521684  1
  O2-  O182  1  0.32152312  0.07148604  0.89934807  1
  O2-  O183  1  0.31847050  0.56947530  0.23580256  1
  O2-  O184  1  0.31778559  0.57170000  0.57772231  1
  O2-  O185  1  0.31809637  0.57139718  0.90018361  1
  O2-  O186  1  0.82058945  0.07081638  0.23188230  1
  O2-  O187  1  0.81633556  0.07185851  0.57025124  1
  O2-  O188  1  0.81927701  0.07108043  0.90890276  1
  O2-  O189  1  0.82824468  0.56852021  0.24438621  1
  O2-  O190  1  0.82358273  0.56546853  0.56600357  1
  O2-  O191  1  0.82403019  0.57044805  0.90323764  1
  O2-  O192  1  0.04896853  0.08545375  0.27212701  1
  O2-  O193  1  0.06120206  0.08077384  0.60764756  1
  O2-  O194  1  0.05490542  0.07741839  0.93160152  1
  O2-  O195  1  0.04717684  0.58130186  0.26369367  1
  O2-  O196  1  0.05106791  0.57846807  0.59913775  1
  O2-  O197  1  0.05784444  0.58148349  0.94380615  1
  O2-  O198  1  0.54258706  0.09239409  0.26643591  1
  O2-  O199  1  0.53193007  0.09444194  0.59755361  1
  O2-  O200  1  0.53514833  0.09033784  0.93417868  1
  O2-  O201  1  0.53742290  0.58360208  0.26791603  1
  O2-  O202  1  0.53524679  0.58447779  0.59989189  1
  O2-  O203  1  0.53716156  0.58433447  0.93660304  1
  O2-  O204  1  0.16468504  0.20922903  0.26873917  1
  O2-  O205  1  0.16694163  0.21228786  0.59661030  1
  O2-  O206  1  0.17160459  0.21098282  0.93288579  1
  O2-  O207  1  0.16548181  0.71626928  0.26551899  1
  O2-  O208  1  0.16653671  0.71439764  0.59909256  1
  O2-  O209  1  0.16367096  0.71067252  0.93810174  1
  O2-  O210  1  0.66082749  0.21402137  0.26758996  1
  O2-  O211  1  0.66018290  0.20471847  0.60012165  1
  O2-  O212  1  0.66186226  0.20242900  0.93511051  1
  O2-  O213  1  0.67025484  0.68934773  0.27390735  1
  O2-  O214  1  0.66610867  0.69071114  0.60698100  1
  O2-  O215  1  0.66611506  0.69463433  0.94164805  1
  O2-  O216  1  0.08388367  0.44472618  0.06160682  1
  O2-  O217  1  0.08167865  0.44793650  0.39320680  1
  O2-  O218  1  0.08660724  0.44788096  0.72602742  1
  O2-  O219  1  0.08317131  0.95206722  0.06148432  1
  O2-  O220  1  0.08738413  0.96284331  0.40598865  1
  O2-  O221  1  0.08802848  0.95046823  0.73035450  1
  O2-  O222  1  0.58197630  0.45676942  0.06877058  1
  O2-  O223  1  0.58346744  0.45775261  0.40046161  1
  O2-  O224  1  0.57680840  0.45622956  0.73253514  1
  O2-  O225  1  0.58542509  0.96807256  0.06764630  1
  O2-  O226  1  0.58265767  0.96880230  0.40060375  1
  O2-  O227  1  0.58162978  0.97067166  0.73282131  1
  O2-  O228  1  0.21197570  0.33727917  0.06562474  1
  O2-  O229  1  0.20783733  0.33532724  0.39952710  1
  O2-  O230  1  0.21547475  0.33788458  0.73206947  1
  O2-  O231  1  0.20733352  0.83753750  0.06425373  1
  O2-  O232  1  0.21368139  0.83533639  0.40301629  1
  O2-  O233  1  0.21567733  0.83910358  0.73152588  1
  O2-  O234  1  0.70428839  0.32599587  0.06643291  1
  O2-  O235  1  0.71198274  0.33502321  0.40080185  1
  O2-  O236  1  0.69834789  0.32708690  0.72981825  1
  O2-  O237  1  0.69929329  0.82967499  0.06791837  1
  O2-  O238  1  0.68911186  0.82341722  0.39651901  1
  O2-  O239  1  0.68888618  0.82544542  0.73126377  1
  O2-  O240  1  0.45570530  0.41581459  0.27234675  1
  O2-  O241  1  0.44796820  0.41764462  0.60568077  1
  O2-  O242  1  0.45609614  0.41528182  0.93827970  1
  O2-  O243  1  0.45783388  0.92208071  0.26695073  1
  O2-  O244  1  0.45745554  0.92020749  0.59803158  1
  O2-  O245  1  0.46016818  0.91959439  0.93351534  1
  O2-  O246  1  0.95545788  0.40899877  0.26939087  1
  O2-  O247  1  0.96281765  0.41062778  0.59418902  1
  O2-  O248  1  0.95878443  0.41781177  0.93239389  1
  O2-  O249  1  0.95824036  0.91731836  0.27588289  1
  O2-  O250  1  0.95713837  0.92134889  0.60266751  1
  O2-  O251  1  0.95742267  0.91248361  0.93198823  1
  O2-  O252  1  0.33569846  0.29594557  0.26971500  1
  O2-  O253  1  0.33834171  0.29001238  0.60097711  1
  O2-  O254  1  0.33933943  0.29462915  0.93680206  1
  O2-  O255  1  0.33615587  0.78913538  0.26562555  1
  O2-  O256  1  0.33679372  0.78705314  0.59824880  1
  O2-  O257  1  0.33397467  0.79070550  0.93254270  1
  O2-  O258  1  0.83679312  0.28779601  0.27129018  1
  O2-  O259  1  0.83026144  0.28605152  0.59900177  1
  O2-  O260  1  0.82906423  0.29081033  0.93148540  1
  O2-  O261  1  0.83002681  0.80389254  0.27834719  1
  O2-  O262  1  0.82256630  0.80057830  0.60391219  1
  O2-  O263  1  0.82714958  0.78947770  0.93863430  1
  O2-  O264  1  0.41544199  0.04098858  0.06937758  1
  O2-  O265  1  0.41782941  0.05512343  0.39395083  1
  O2-  O266  1  0.41097681  0.04502283  0.72652296  1
  O2-  O267  1  0.41271534  0.53844570  0.06989099  1
  O2-  O268  1  0.41244562  0.53726637  0.40554472  1
  O2-  O269  1  0.40795111  0.54362978  0.73102984  1
  O2-  O270  1  0.92007000  0.04904583  0.05545699  1
  O2-  O271  1  0.92288223  0.05657779  0.39899834  1
  O2-  O272  1  0.92740209  0.05893441  0.73061062  1
  O2-  O273  1  0.92465471  0.54485685  0.06836533  1
  O2-  O274  1  0.91986989  0.54124655  0.39421985  1
  O2-  O275  1  0.92341836  0.54027522  0.73018671  1
  O2-  O276  1  0.29460631  0.16962124  0.06773657  1
  O2-  O277  1  0.29407799  0.16853127  0.39755786  1
  O2-  O278  1  0.29305087  0.16538652  0.72838064  1
  O2-  O279  1  0.28959215  0.67001227  0.06835156  1
  O2-  O280  1  0.28872440  0.66809176  0.40225532  1
  O2-  O281  1  0.28926131  0.66455314  0.72993504  1
  O2-  O282  1  0.79269763  0.16088871  0.06104626  1
  O2-  O283  1  0.78156128  0.16335191  0.39983905  1
  O2-  O284  1  0.78178859  0.16325811  0.73723247  1
  O2-  O285  1  0.79224131  0.66553247  0.07423018  1
  O2-  O286  1  0.80591782  0.66647426  0.39432186  1
  O2-  O287  1  0.79473668  0.66739076  0.73320597  1
