# generated using pymatgen
data_Ca2Al2SiO7
_symmetry_space_group_name_H-M   'P 1'
_cell_length_a   15.45366506
_cell_length_b   15.45377685
_cell_length_c   15.28119556
_cell_angle_alpha   90.00108308
_cell_angle_beta   90.00400758
_cell_angle_gamma   90.00029934
_symmetry_Int_Tables_number   1
_chemical_formula_structural   Ca2Al2SiO7
_chemical_formula_sum   'Ca48 Al48 Si24 O168'
_cell_volume   3649.41677898
_cell_formula_units_Z   24
loop_
 _symmetry_equiv_pos_site_id
 _symmetry_equiv_pos_as_xyz
  1  'x, y, z'
loop_
 _atom_type_symbol
 _atom_type_oxidation_number
  Ca2+  2.0
  Al0+  0.0
  Si0+  0.0
  O2-  -2.0
loop_
 _atom_site_type_symbol
 _atom_site_label
 _atom_site_symmetry_multiplicity
 _atom_site_fract_x
 _atom_site_fract_y
 _atom_site_fract_z
 _atom_site_occupancy
  Ca2+  Ca0  1  0.16834231  0.09485880  0.16849550  1
  Ca2+  Ca1  1  0.16474790  0.07945517  0.50350675  1
  Ca2+  Ca2  1  0.17111525  0.08139022  0.83987557  1
  Ca2+  Ca3  1  0.16324012  0.57680912  0.17410404  1
  Ca2+  Ca4  1  0.17357746  0.56878412  0.51009826  1
  Ca2+  Ca5  1  0.16918394  0.58412242  0.83471083  1
  Ca2+  Ca6  1  0.67877925  0.07419630  0.17469609  1
  Ca2+  Ca7  1  0.66662082  0.08554164  0.49821561  1
  Ca2+  Ca8  1  0.67328360  0.07409423  0.84749636  1
  Ca2+  Ca9  1  0.66950673  0.58398327  0.17039937  1
  Ca2+  Ca10  1  0.66622794  0.58295846  0.50272648  1
  Ca2+  Ca11  1  0.65801768  0.57430518  0.83779076  1
  Ca2+  Ca12  1  0.07621158  0.32661124  0.16009783  1
  Ca2+  Ca13  1  0.08304690  0.33403901  0.49370806  1
  Ca2+  Ca14  1  0.07089731  0.33132519  0.82997635  1
  Ca2+  Ca15  1  0.07348664  0.82450217  0.15489168  1
  Ca2+  Ca16  1  0.08510390  0.83354484  0.49791889  1
  Ca2+  Ca17  1  0.08122548  0.83503158  0.83277153  1
  Ca2+  Ca18  1  0.58207959  0.33197692  0.16442685  1
  Ca2+  Ca19  1  0.57766829  0.33252786  0.49309019  1
  Ca2+  Ca20  1  0.58867152  0.33449897  0.82790879  1
  Ca2+  Ca21  1  0.59776685  0.82525067  0.16322915  1
  Ca2+  Ca22  1  0.58064922  0.82489332  0.49456326  1
  Ca2+  Ca23  1  0.58318652  0.82260324  0.82683737  1
  Ca2+  Ca24  1  0.32585921  0.41399573  0.17450847  1
  Ca2+  Ca25  1  0.32494264  0.41449370  0.50528950  1
  Ca2+  Ca26  1  0.32907532  0.42349683  0.83384383  1
  Ca2+  Ca27  1  0.33338060  0.92427781  0.16615717  1
  Ca2+  Ca28  1  0.32982936  0.91563187  0.50884770  1
  Ca2+  Ca29  1  0.33154025  0.91717454  0.83615445  1
  Ca2+  Ca30  1  0.83179308  0.42021453  0.16798397  1
  Ca2+  Ca31  1  0.83022472  0.42226216  0.50651762  1
  Ca2+  Ca32  1  0.82484737  0.40993067  0.83825933  1
  Ca2+  Ca33  1  0.82968901  0.92051223  0.16983669  1
  Ca2+  Ca34  1  0.82700373  0.92351258  0.49708933  1
  Ca2+  Ca35  1  0.82920089  0.92097973  0.84550652  1
  Ca2+  Ca36  1  0.41907283  0.17072690  0.16634670  1
  Ca2+  Ca37  1  0.42378554  0.17425830  0.48838682  1
  Ca2+  Ca38  1  0.41656596  0.16470753  0.83341266  1
  Ca2+  Ca39  1  0.43073467  0.66826650  0.16126176  1
  Ca2+  Ca40  1  0.42439571  0.66315617  0.50016299  1
  Ca2+  Ca41  1  0.42592775  0.66818802  0.82387877  1
  Ca2+  Ca42  1  0.92346592  0.16242988  0.15898270  1
  Ca2+  Ca43  1  0.92088717  0.17366134  0.49331382  1
  Ca2+  Ca44  1  0.91102592  0.17557861  0.83328200  1
  Ca2+  Ca45  1  0.91721488  0.66990695  0.15819108  1
  Ca2+  Ca46  1  0.91374690  0.66629981  0.49438698  1
  Ca2+  Ca47  1  0.92033128  0.67170950  0.83578203  1
  Al0+  Al48  1  0.00200075  -0.00124976  -0.00473011  1
  Al0+  Al49  1  -0.00083573  0.00063007  0.33344840  1
  Al0+  Al50  1  0.00063612  0.00067844  0.67024264  1
  Al0+  Al51  1  -0.00036597  0.49873867  -0.00862594  1
  Al0+  Al52  1  0.00014911  0.49987102  0.34251000  1
  Al0+  Al53  1  -0.00161389  0.50058176  0.66663025  1
  Al0+  Al54  1  0.49812956  0.00000703  0.00982742  1
  Al0+  Al55  1  0.49903069  -0.00037075  0.33398728  1
  Al0+  Al56  1  0.50088613  -0.00135474  0.66287818  1
  Al0+  Al57  1  0.49847720  0.49976023  0.00141854  1
  Al0+  Al58  1  0.49896975  0.50267302  0.32414775  1
  Al0+  Al59  1  0.50051618  0.49832297  0.66912968  1
  Al0+  Al60  1  0.25005423  0.25080663  -0.00122177  1
  Al0+  Al61  1  0.24888518  0.25006165  0.33186731  1
  Al0+  Al62  1  0.24950897  0.24858270  0.67159005  1
  Al0+  Al63  1  0.25235023  0.74972206  -0.00076088  1
  Al0+  Al64  1  0.25136975  0.74987989  0.33190797  1
  Al0+  Al65  1  0.24986326  0.75131123  0.67085279  1
  Al0+  Al66  1  0.74832260  0.24895840  0.00671841  1
  Al0+  Al67  1  0.75016464  0.25090204  0.33320634  1
  Al0+  Al68  1  0.75261991  0.25148474  0.66389973  1
  Al0+  Al69  1  0.75041761  0.74685874  -0.00845878  1
  Al0+  Al70  1  0.75001689  0.75098308  0.33897985  1
  Al0+  Al71  1  0.75163460  0.75082709  0.66200053  1
  Al0+  Al72  1  0.07394774  0.67721745  0.98493406  1
  Al0+  Al73  1  0.82314349  0.07304665  0.35008924  1
  Al0+  Al74  1  0.57156473  0.68201003  0.31811324  1
  Al0+  Al75  1  0.82324001  0.07071375  0.01469396  1
  Al0+  Al76  1  0.18052509  0.42876729  0.34612994  1
  Al0+  Al77  1  0.31923026  0.07252489  0.01573808  1
  Al0+  Al78  1  0.17608243  0.42631335  0.68508639  1
  Al0+  Al79  1  0.57045939  0.67861723  0.98491614  1
  Al0+  Al80  1  0.42807590  0.82167774  0.65157204  1
  Al0+  Al81  1  0.92910900  0.32152659  0.65012826  1
  Al0+  Al82  1  0.17863162  0.92969346  0.68076082  1
  Al0+  Al83  1  0.06844107  0.17902129  0.32068781  1
  Al0+  Al84  1  0.67798536  0.92914150  0.35122686  1
  Al0+  Al85  1  0.07336836  0.17875155  0.98304284  1
  Al0+  Al86  1  0.57348297  0.17763406  0.31640682  1
  Al0+  Al87  1  0.82007490  0.57058736  0.34595292  1
  Al0+  Al88  1  0.68139262  0.43012364  0.67819849  1
  Al0+  Al89  1  0.32099443  0.56977141  0.68177043  1
  Al0+  Al90  1  0.92882598  0.82057467  0.98478929  1
  Al0+  Al91  1  0.67912163  0.92527489  0.01338824  1
  Al0+  Al92  1  0.57138692  0.67673088  0.64957293  1
  Al0+  Al93  1  0.67696489  0.42884432  0.01535523  1
  Al0+  Al94  1  0.92582171  0.31961058  0.98565690  1
  Al0+  Al95  1  0.42873220  0.32143368  0.31819674  1
  Si0+  Si96  1  0.82237891  0.57561273  0.68523370  1
  Si0+  Si97  1  0.42811129  0.31904327  0.65434504  1
  Si0+  Si98  1  0.07083795  0.68017259  0.65024156  1
  Si0+  Si99  1  0.17877437  0.92643647  0.01810887  1
  Si0+  Si100  1  0.17899388  0.92746427  0.34612554  1
  Si0+  Si101  1  0.92831091  0.32535847  0.31782173  1
  Si0+  Si102  1  0.92989966  0.82365079  0.64879280  1
  Si0+  Si103  1  0.32474508  0.07132867  0.68201720  1
  Si0+  Si104  1  0.31942255  0.07100006  0.34900480  1
  Si0+  Si105  1  0.56879961  0.17874976  0.98706621  1
  Si0+  Si106  1  0.42876629  0.32114903  0.98305499  1
  Si0+  Si107  1  0.67895006  0.92900760  0.68104880  1
  Si0+  Si108  1  0.42877957  0.82405397  0.98426763  1
  Si0+  Si109  1  0.93081512  0.81987633  0.32088785  1
  Si0+  Si110  1  0.32105630  0.57190408  0.01701123  1
  Si0+  Si111  1  0.32284418  0.57376542  0.34864333  1
  Si0+  Si112  1  0.07199561  0.17824797  0.65015202  1
  Si0+  Si113  1  0.81975278  0.07077551  0.68155949  1
  Si0+  Si114  1  0.42492832  0.82293036  0.31443352  1
  Si0+  Si115  1  0.67546278  0.42924594  0.34836187  1
  Si0+  Si116  1  0.57228967  0.17848331  0.65410681  1
  Si0+  Si117  1  0.07178186  0.67783738  0.32246807  1
  Si0+  Si118  1  0.17861822  0.43124478  0.01429652  1
  Si0+  Si119  1  0.82274959  0.56979145  0.01332448  1
  O2-  O120  1  0.24250619  -0.00058288  0.06315987  1
  O2-  O121  1  0.25026517  -0.00245270  0.38992958  1
  O2-  O122  1  0.25616141  0.00240349  0.72535687  1
  O2-  O123  1  0.24588270  0.50504741  0.05864008  1
  O2-  O124  1  0.25603192  0.50319941  0.39216645  1
  O2-  O125  1  0.24715437  0.50016316  0.73388553  1
  O2-  O126  1  0.75300070  -0.00420309  0.06265137  1
  O2-  O127  1  0.74556076  0.00652694  0.40070222  1
  O2-  O128  1  0.74890628  0.00001250  0.72407210  1
  O2-  O129  1  0.75391671  0.50240910  0.05932893  1
  O2-  O130  1  0.74575272  0.49561828  0.39307588  1
  O2-  O131  1  0.75280555  0.50709099  0.72729427  1
  O2-  O132  1  -0.00842937  0.25165623  0.27440415  1
  O2-  O133  1  0.00868589  0.25098684  0.60473602  1
  O2-  O134  1  -0.00374321  0.24592170  0.93459504  1
  O2-  O135  1  0.00142911  0.74816462  0.27921641  1
  O2-  O136  1  -0.00065448  0.75059504  0.60656680  1
  O2-  O137  1  0.00441535  0.75162247  0.93472662  1
  O2-  O138  1  0.50313122  0.25219218  0.26724842  1
  O2-  O139  1  0.49847779  0.24720202  0.61290948  1
  O2-  O140  1  0.50071541  0.25082270  0.94078893  1
  O2-  O141  1  0.49751936  0.75805467  0.27143158  1
  O2-  O142  1  0.49905860  0.74940271  0.60060311  1
  O2-  O143  1  0.49875751  0.75720125  0.94022643  1
  O2-  O144  1  0.07502554  0.18467299  0.09684338  1
  O2-  O145  1  0.06976551  0.17854792  0.43406619  1
  O2-  O146  1  0.06983955  0.17656127  0.75520211  1
  O2-  O147  1  0.07216650  0.67666328  0.09955783  1
  O2-  O148  1  0.07284713  0.68049284  0.42763692  1
  O2-  O149  1  0.06936952  0.68153313  0.75503397  1
  O2-  O150  1  0.56586732  0.18062081  0.09149883  1
  O2-  O151  1  0.56882046  0.17969244  0.43126529  1
  O2-  O152  1  0.57234452  0.17744755  0.75950901  1
  O2-  O153  1  0.56977357  0.67857597  0.09813940  1
  O2-  O154  1  0.56922862  0.68058381  0.43093541  1
  O2-  O155  1  0.57039301  0.67809318  0.76315589  1
  O2-  O156  1  0.17860233  0.43178199  0.23267118  1
  O2-  O157  1  0.17981795  0.42562652  0.57110283  1
  O2-  O158  1  0.18183897  0.43146745  0.90951115  1
  O2-  O159  1  0.18003306  0.92477933  0.24150824  1
  O2-  O160  1  0.17704316  0.93274895  0.56675183  1
  O2-  O161  1  0.18312727  0.92510251  0.91259302  1
  O2-  O162  1  0.67628094  0.43169949  0.24278550  1
  O2-  O163  1  0.68179515  0.42824818  0.56515095  1
  O2-  O164  1  0.67556901  0.42927306  0.90200571  1
  O2-  O165  1  0.68488476  0.92539676  0.23815693  1
  O2-  O166  1  0.67970984  0.93081381  0.57616576  1
  O2-  O167  1  0.67774405  0.92911802  0.89885521  1
  O2-  O168  1  0.42704852  0.32081920  0.08789405  1
  O2-  O169  1  0.42804524  0.31916104  0.43262980  1
  O2-  O170  1  0.42835244  0.31761615  0.75970091  1
  O2-  O171  1  0.42504687  0.82095032  0.08984393  1
  O2-  O172  1  0.41944158  0.82038353  0.41968694  1
  O2-  O173  1  0.43269067  0.82534830  0.76506179  1
  O2-  O174  1  0.93001847  0.32486673  0.09921072  1
  O2-  O175  1  0.93213058  0.32658591  0.42364187  1
  O2-  O176  1  0.92403493  0.31608290  0.76262970  1
  O2-  O177  1  0.92962988  0.81673687  0.09912769  1
  O2-  O178  1  0.93390337  0.81997280  0.42647745  1
  O2-  O179  1  0.92959089  0.82454354  0.75335304  1
  O2-  O180  1  0.31769534  0.07182677  0.24402216  1
  O2-  O181  1  0.32455233  0.07320976  0.57637120  1
  O2-  O182  1  0.32123222  0.07075682  0.90239462  1
  O2-  O183  1  0.31861168  0.57618961  0.24289140  1
  O2-  O184  1  0.31993753  0.56598203  0.56776127  1
  O2-  O185  1  0.32257315  0.56966712  0.91212486  1
  O2-  O186  1  0.82811474  0.06637284  0.23738603  1
  O2-  O187  1  0.81964404  0.07005075  0.57656323  1
  O2-  O188  1  0.81675865  0.07184260  0.90020877  1
  O2-  O189  1  0.82276680  0.57111718  0.23286496  1
  O2-  O190  1  0.82245690  0.57515564  0.57927080  1
  O2-  O191  1  0.82241148  0.56935681  0.90788264  1
  O2-  O192  1  0.04170811  0.08126646  0.26617711  1
  O2-  O193  1  0.04157859  0.08556452  0.60380126  1
  O2-  O194  1  0.05501601  0.07723811  0.93347889  1
  O2-  O195  1  0.04312653  0.58583476  0.27670728  1
  O2-  O196  1  0.04374487  0.58789746  0.60312114  1
  O2-  O197  1  0.04463695  0.58136117  0.92834148  1
  O2-  O198  1  0.54212764  0.07909592  0.26615203  1
  O2-  O199  1  0.54662632  0.08709063  0.60482312  1
  O2-  O200  1  0.53804063  0.08668352  0.94090259  1
  O2-  O201  1  0.54127293  0.58692024  0.26113816  1
  O2-  O202  1  0.54150995  0.57757164  0.59824337  1
  O2-  O203  1  0.53303379  0.58299177  0.93262128  1
  O2-  O204  1  0.16427633  0.21122559  0.26699600  1
  O2-  O205  1  0.16880701  0.19782540  0.60694652  1
  O2-  O206  1  0.17044441  0.21144340  0.92917688  1
  O2-  O207  1  0.16342350  0.70432328  0.27351032  1
  O2-  O208  1  0.16246492  0.70911180  0.60363139  1
  O2-  O209  1  0.17328467  0.70473845  0.93319906  1
  O2-  O210  1  0.67351345  0.20239675  0.26546133  1
  O2-  O211  1  0.66203170  0.20912472  0.60513059  1
  O2-  O212  1  0.66127723  0.20427417  0.94053112  1
  O2-  O213  1  0.66961828  0.71334889  0.26689201  1
  O2-  O214  1  0.67072827  0.70592940  0.59817413  1
  O2-  O215  1  0.66685446  0.70241956  0.92825729  1
  O2-  O216  1  0.08507378  0.45645429  0.05944634  1
  O2-  O217  1  0.08665542  0.46093982  0.40434232  1
  O2-  O218  1  0.07678533  0.45561644  0.73455431  1
  O2-  O219  1  0.08274003  0.94536700  0.06060674  1
  O2-  O220  1  0.08813231  0.95576727  0.39480415  1
  O2-  O221  1  0.08332983  0.96213898  0.73676650  1
  O2-  O222  1  0.58053342  0.46089280  0.06921248  1
  O2-  O223  1  0.58123947  0.45750078  0.39219305  1
  O2-  O224  1  0.58405768  0.45523594  0.73360246  1
  O2-  O225  1  0.58177194  0.95265515  0.06821191  1
  O2-  O226  1  0.57664184  0.95220028  0.40159016  1
  O2-  O227  1  0.58660828  0.95599970  0.72740260  1
  O2-  O228  1  0.21101525  0.34083095  0.06124986  1
  O2-  O229  1  0.21208533  0.33276262  0.40118571  1
  O2-  O230  1  0.20554988  0.32814443  0.73769594  1
  O2-  O231  1  0.20863052  0.83386727  0.06557993  1
  O2-  O232  1  0.20628315  0.83531431  0.39486528  1
  O2-  O233  1  0.20562627  0.83361531  0.73643183  1
  O2-  O234  1  0.70482646  0.33268900  0.07067846  1
  O2-  O235  1  0.69619074  0.33409382  0.39308864  1
  O2-  O236  1  0.71406469  0.33336855  0.73264203  1
  O2-  O237  1  0.70884470  0.82542507  0.06218524  1
  O2-  O238  1  0.71347163  0.83439189  0.40747723  1
  O2-  O239  1  0.70845266  0.83671296  0.72603965  1
  O2-  O240  1  0.45072082  0.42039804  0.26349504  1
  O2-  O241  1  0.45673259  0.40960160  0.60644797  1
  O2-  O242  1  0.45633051  0.41293996  0.93614493  1
  O2-  O243  1  0.44527814  0.91871268  0.27164487  1
  O2-  O244  1  0.45629892  0.91997259  0.59606161  1
  O2-  O245  1  0.45088029  0.91971111  0.94115702  1
  O2-  O246  1  0.96017866  0.41756793  0.27226353  1
  O2-  O247  1  0.95436202  0.42091137  0.59848574  1
  O2-  O248  1  0.95507644  0.41605338  0.92909254  1
  O2-  O249  1  0.96010993  0.91017774  0.27250754  1
  O2-  O250  1  0.96096818  0.91496880  0.60176267  1
  O2-  O251  1  0.95496950  0.91852204  0.92983945  1
  O2-  O252  1  0.33203730  0.28823216  0.26429442  1
  O2-  O253  1  0.33582517  0.29129948  0.60697027  1
  O2-  O254  1  0.33832919  0.29166752  0.93437832  1
  O2-  O255  1  0.33294867  0.79396052  0.26493817  1
  O2-  O256  1  0.32748336  0.79646688  0.60080012  1
  O2-  O257  1  0.33597010  0.79696553  0.93715280  1
  O2-  O258  1  0.83181020  0.30807792  0.27565320  1
  O2-  O259  1  0.83479978  0.28637554  0.59346050  1
  O2-  O260  1  0.82597736  0.29056623  0.93432750  1
  O2-  O261  1  0.83933858  0.79117686  0.27544561  1
  O2-  O262  1  0.83832836  0.79705002  0.59991395  1
  O2-  O263  1  0.83380918  0.78911823  0.92658988  1
  O2-  O264  1  0.41329275  0.04080854  0.07423842  1
  O2-  O265  1  0.41153722  0.04580019  0.39678997  1
  O2-  O266  1  0.41868840  0.04588599  0.72845671  1
  O2-  O267  1  0.41004047  0.53860379  0.06616570  1
  O2-  O268  1  0.41773431  0.54961183  0.39165419  1
  O2-  O269  1  0.41764993  0.53794784  0.73631764  1
  O2-  O270  1  0.92412926  0.04487773  0.06330482  1
  O2-  O271  1  0.91925249  0.03746862  0.40560521  1
  O2-  O272  1  0.91116974  0.04267140  0.72865224  1
  O2-  O273  1  0.91715731  0.54458367  0.05897928  1
  O2-  O274  1  0.91529108  0.54158691  0.40503353  1
  O2-  O275  1  0.91635213  0.55088659  0.72979737  1
  O2-  O276  1  0.28953614  0.17012697  0.06920288  1
  O2-  O277  1  0.28928744  0.16141349  0.39752605  1
  O2-  O278  1  0.29943672  0.16375387  0.73078201  1
  O2-  O279  1  0.29875304  0.66549014  0.06379227  1
  O2-  O280  1  0.29586532  0.66671786  0.39600830  1
  O2-  O281  1  0.29462338  0.66865645  0.73433394  1
  O2-  O282  1  0.79306689  0.16681873  0.07012727  1
  O2-  O283  1  0.79936460  0.17406709  0.40107917  1
  O2-  O284  1  0.79051737  0.16234835  0.72753055  1
  O2-  O285  1  0.79709418  0.66368407  0.05818638  1
  O2-  O286  1  0.79059130  0.66582688  0.40322036  1
  O2-  O287  1  0.79933203  0.67093454  0.72915676  1
