# generated using pymatgen
data_Ca2Al2SiO7
_symmetry_space_group_name_H-M   'P 1'
_cell_length_a   15.45693443
_cell_length_b   15.45763205
_cell_length_c   15.28345738
_cell_angle_alpha   90.01482601
_cell_angle_beta   89.99609661
_cell_angle_gamma   90.00174587
_symmetry_Int_Tables_number   1
_chemical_formula_structural   Ca2Al2SiO7
_chemical_formula_sum   'Ca48 Al48 Si24 O168'
_cell_volume   3651.63973614
_cell_formula_units_Z   24
loop_
 _symmetry_equiv_pos_site_id
 _symmetry_equiv_pos_as_xyz
  1  'x, y, z'
loop_
 _atom_type_symbol
 _atom_type_oxidation_number
  Ca2+  2.0
  Al0+  0.0
  Si0+  0.0
  O2-  -2.0
loop_
 _atom_site_type_symbol
 _atom_site_label
 _atom_site_symmetry_multiplicity
 _atom_site_fract_x
 _atom_site_fract_y
 _atom_site_fract_z
 _atom_site_occupancy
  Ca2+  Ca0  1  0.16657062  0.08287414  0.17359578  1
  Ca2+  Ca1  1  0.17304363  0.08191840  0.50963977  1
  Ca2+  Ca2  1  0.17085058  0.07591134  0.83014469  1
  Ca2+  Ca3  1  0.16436002  0.57931345  0.17210542  1
  Ca2+  Ca4  1  0.16215936  0.57233592  0.50627439  1
  Ca2+  Ca5  1  0.15584580  0.58354963  0.83278119  1
  Ca2+  Ca6  1  0.66218991  0.07557053  0.16592630  1
  Ca2+  Ca7  1  0.67107910  0.07457971  0.50806440  1
  Ca2+  Ca8  1  0.67202392  0.07534778  0.83440526  1
  Ca2+  Ca9  1  0.68108883  0.58623314  0.16972854  1
  Ca2+  Ca10  1  0.67385109  0.57614894  0.50459013  1
  Ca2+  Ca11  1  0.67118845  0.57148519  0.84148163  1
  Ca2+  Ca12  1  0.08122855  0.33298755  0.17189263  1
  Ca2+  Ca13  1  0.07749242  0.33150729  0.49278799  1
  Ca2+  Ca14  1  0.07453595  0.33403667  0.82295144  1
  Ca2+  Ca15  1  0.07191596  0.82323704  0.15264274  1
  Ca2+  Ca16  1  0.08047026  0.83410982  0.50248207  1
  Ca2+  Ca17  1  0.07373284  0.82354762  0.82315958  1
  Ca2+  Ca18  1  0.58204260  0.33082980  0.15862766  1
  Ca2+  Ca19  1  0.57818028  0.33365941  0.49517586  1
  Ca2+  Ca20  1  0.59418446  0.32884595  0.82888159  1
  Ca2+  Ca21  1  0.57604652  0.84250956  0.16171331  1
  Ca2+  Ca22  1  0.57598898  0.84522649  0.49732347  1
  Ca2+  Ca23  1  0.57690928  0.84428675  0.82922776  1
  Ca2+  Ca24  1  0.32904719  0.41751556  0.17627521  1
  Ca2+  Ca25  1  0.32143258  0.41027813  0.50460265  1
  Ca2+  Ca26  1  0.32367114  0.41891636  0.83451064  1
  Ca2+  Ca27  1  0.33630467  0.91456494  0.17078721  1
  Ca2+  Ca28  1  0.33019127  0.91967522  0.51133206  1
  Ca2+  Ca29  1  0.33289580  0.91241359  0.83134224  1
  Ca2+  Ca30  1  0.83481545  0.42724903  0.17056732  1
  Ca2+  Ca31  1  0.83847324  0.41843754  0.50558589  1
  Ca2+  Ca32  1  0.82688071  0.41924422  0.83787447  1
  Ca2+  Ca33  1  0.82003676  0.90739666  0.17068287  1
  Ca2+  Ca34  1  0.82442081  0.92142089  0.51172058  1
  Ca2+  Ca35  1  0.82817047  0.91073199  0.83729091  1
  Ca2+  Ca36  1  0.42368112  0.17431646  0.16290982  1
  Ca2+  Ca37  1  0.41551899  0.16926728  0.49492361  1
  Ca2+  Ca38  1  0.42430080  0.16208855  0.83043548  1
  Ca2+  Ca39  1  0.41907380  0.67856417  0.16106998  1
  Ca2+  Ca40  1  0.41834724  0.67952485  0.49693964  1
  Ca2+  Ca41  1  0.41960163  0.67820401  0.82676371  1
  Ca2+  Ca42  1  0.91924258  0.17126155  0.16744380  1
  Ca2+  Ca43  1  0.91671551  0.17635027  0.49618341  1
  Ca2+  Ca44  1  0.91012094  0.17302356  0.82343040  1
  Ca2+  Ca45  1  0.91689730  0.66494638  0.15898647  1
  Ca2+  Ca46  1  0.91838653  0.66715491  0.50193052  1
  Ca2+  Ca47  1  0.91922317  0.67219398  0.83041235  1
  Al0+  Al48  1  0.00098232  0.00068698  -0.00232193  1
  Al0+  Al49  1  -0.00087887  -0.00067595  0.32879492  1
  Al0+  Al50  1  0.00199843  0.00072256  0.67035555  1
  Al0+  Al51  1  0.00038148  0.49725767  0.00099323  1
  Al0+  Al52  1  0.00043385  0.49980956  0.33776075  1
  Al0+  Al53  1  -0.00028844  0.49975381  0.66404222  1
  Al0+  Al54  1  0.49981555  0.00432275  -0.00367807  1
  Al0+  Al55  1  0.49863236  0.00076818  0.33286936  1
  Al0+  Al56  1  0.50149770  0.00220015  0.66821840  1
  Al0+  Al57  1  0.49539118  0.50009095  0.00349151  1
  Al0+  Al58  1  0.50105343  0.50334549  0.32845433  1
  Al0+  Al59  1  0.49934685  0.49972161  0.66961900  1
  Al0+  Al60  1  0.25053847  0.24931650  0.00028483  1
  Al0+  Al61  1  0.25094845  0.24975721  0.32853452  1
  Al0+  Al62  1  0.25077467  0.25121717  0.67812758  1
  Al0+  Al63  1  0.24938446  0.74930913  -0.00624732  1
  Al0+  Al64  1  0.25081976  0.75023797  0.32912957  1
  Al0+  Al65  1  0.25157469  0.74887269  0.66043173  1
  Al0+  Al66  1  0.74940387  0.24796790  0.00128667  1
  Al0+  Al67  1  0.75054558  0.25012868  0.32706011  1
  Al0+  Al68  1  0.74935923  0.24901477  0.66596160  1
  Al0+  Al69  1  0.74761384  0.74904733  0.00494080  1
  Al0+  Al70  1  0.74904720  0.74859166  0.34529147  1
  Al0+  Al71  1  0.74923400  0.74827967  0.66648777  1
  Al0+  Al72  1  0.07148547  0.17739873  0.31954223  1
  Al0+  Al73  1  0.67704380  0.42618454  0.01652396  1
  Al0+  Al74  1  0.92672741  0.82317867  0.65033061  1
  Al0+  Al75  1  0.92837505  0.32345717  0.31628726  1
  Al0+  Al76  1  0.57072657  0.18251114  0.98427847  1
  Al0+  Al77  1  0.06997967  0.67628297  0.98555605  1
  Al0+  Al78  1  0.17791721  0.43078581  0.68121887  1
  Al0+  Al79  1  0.67843132  0.93166656  0.34798773  1
  Al0+  Al80  1  0.92513937  0.82154538  0.98657569  1
  Al0+  Al81  1  0.67892592  0.93113623  0.01404624  1
  Al0+  Al82  1  0.43073247  0.82174906  0.98483291  1
  Al0+  Al83  1  0.43025425  0.82112075  0.31908100  1
  Al0+  Al84  1  0.82248415  0.07126322  0.67955320  1
  Al0+  Al85  1  0.92805887  0.31890910  0.65414186  1
  Al0+  Al86  1  0.43298485  0.82167938  0.65169499  1
  Al0+  Al87  1  0.67769889  0.42918559  0.67794354  1
  Al0+  Al88  1  0.82085528  0.56919100  0.01421557  1
  Al0+  Al89  1  0.32225525  0.07223215  0.68263727  1
  Al0+  Al90  1  0.18278145  0.42971739  0.34712241  1
  Al0+  Al91  1  0.07073933  0.67895559  0.64826731  1
  Al0+  Al92  1  0.42986277  0.32252133  0.32139255  1
  Al0+  Al93  1  0.17929876  0.92563619  0.68165702  1
  Al0+  Al94  1  0.68018767  0.92731712  0.68257031  1
  Al0+  Al95  1  0.82165637  0.56950190  0.35083160  1
  Si0+  Si96  1  0.07033257  0.67996687  0.31904548  1
  Si0+  Si97  1  0.31945412  0.57320211  0.01578807  1
  Si0+  Si98  1  0.93128901  0.31785110  0.98547703  1
  Si0+  Si99  1  0.57438387  0.67884638  0.31595747  1
  Si0+  Si100  1  0.42736275  0.32233108  0.65382709  1
  Si0+  Si101  1  0.17740467  0.92693430  0.34497545  1
  Si0+  Si102  1  0.32400500  0.57498919  0.34985835  1
  Si0+  Si103  1  0.32255044  0.57194508  0.68292876  1
  Si0+  Si104  1  0.82406688  0.07331322  0.34863919  1
  Si0+  Si105  1  0.31993525  0.07089763  0.01784273  1
  Si0+  Si106  1  0.31898969  0.06959205  0.34573288  1
  Si0+  Si107  1  0.57156104  0.17813030  0.31704405  1
  Si0+  Si108  1  0.57205782  0.67378248  0.64974807  1
  Si0+  Si109  1  0.57093359  0.67589027  0.98423796  1
  Si0+  Si110  1  0.07439532  0.17781252  0.98275118  1
  Si0+  Si111  1  0.82237207  0.57096944  0.68413917  1
  Si0+  Si112  1  0.67655731  0.42648408  0.34831894  1
  Si0+  Si113  1  0.82531348  0.07252390  0.01872888  1
  Si0+  Si114  1  0.56991641  0.18090586  0.65029508  1
  Si0+  Si115  1  0.07543370  0.17926930  0.65313698  1
  Si0+  Si116  1  0.17953971  0.92837654  0.01538451  1
  Si0+  Si117  1  0.42569457  0.32368326  0.98119268  1
  Si0+  Si118  1  0.92707189  0.82045107  0.32005789  1
  Si0+  Si119  1  0.17989795  0.42755792  0.01670600  1
  O2-  O120  1  0.24952822  -0.00057270  0.06062949  1
  O2-  O121  1  0.24663781  -0.00014191  0.38690823  1
  O2-  O122  1  0.25255299  -0.00282346  0.73179875  1
  O2-  O123  1  0.24991870  0.50020594  0.05791031  1
  O2-  O124  1  0.25914054  0.50296370  0.39424369  1
  O2-  O125  1  0.25011185  0.50762302  0.72852227  1
  O2-  O126  1  0.75955271  -0.00010481  0.06175828  1
  O2-  O127  1  0.75451521  0.00570045  0.39249959  1
  O2-  O128  1  0.75878742  -0.00722974  0.73138829  1
  O2-  O129  1  0.74736159  0.49932519  0.06657649  1
  O2-  O130  1  0.74839805  0.49084035  0.39367526  1
  O2-  O131  1  0.75109463  0.50373366  0.72609881  1
  O2-  O132  1  -0.00080343  0.24867065  0.26792355  1
  O2-  O133  1  0.00391762  0.24439979  0.60873775  1
  O2-  O134  1  0.00011599  0.24535149  0.94182414  1
  O2-  O135  1  -0.00075082  0.75080195  0.27709411  1
  O2-  O136  1  0.00004456  0.75282503  0.59839883  1
  O2-  O137  1  -0.00216402  0.74929274  0.93837971  1
  O2-  O138  1  0.50905210  0.25331728  0.27365416  1
  O2-  O139  1  0.49744995  0.25155446  0.60970173  1
  O2-  O140  1  0.50020159  0.26187740  0.93712037  1
  O2-  O141  1  0.50611713  0.74829756  0.27162597  1
  O2-  O142  1  0.50946152  0.74842493  0.60512032  1
  O2-  O143  1  0.50660298  0.74800472  0.93884369  1
  O2-  O144  1  0.07688415  0.17899317  0.08781851  1
  O2-  O145  1  0.07344878  0.17699362  0.43278106  1
  O2-  O146  1  0.07678120  0.18386947  0.75919994  1
  O2-  O147  1  0.07159088  0.67770082  0.10009464  1
  O2-  O148  1  0.07239272  0.68134597  0.42346925  1
  O2-  O149  1  0.06683216  0.67781160  0.76172251  1
  O2-  O150  1  0.56550319  0.18103161  0.09780671  1
  O2-  O151  1  0.56862872  0.17662026  0.42265582  1
  O2-  O152  1  0.57033851  0.18200258  0.75524258  1
  O2-  O153  1  0.56755045  0.67557903  0.08998657  1
  O2-  O154  1  0.57157275  0.67591112  0.42133189  1
  O2-  O155  1  0.56717629  0.66858270  0.75508388  1
  O2-  O156  1  0.18360221  0.43252487  0.23337128  1
  O2-  O157  1  0.18102213  0.42747672  0.56822408  1
  O2-  O158  1  0.18031397  0.42602519  0.91175806  1
  O2-  O159  1  0.17922944  0.92645585  0.23952031  1
  O2-  O160  1  0.18159628  0.92892983  0.56703767  1
  O2-  O161  1  0.18093965  0.92995247  0.91101659  1
  O2-  O162  1  0.67524940  0.42926876  0.24305558  1
  O2-  O163  1  0.67505695  0.43057387  0.56472757  1
  O2-  O164  1  0.68105580  0.42698353  0.90277880  1
  O2-  O165  1  0.67735328  0.93291851  0.23453824  1
  O2-  O166  1  0.67689396  0.93383811  0.56881384  1
  O2-  O167  1  0.67711565  0.93421581  0.90176313  1
  O2-  O168  1  0.42184556  0.31978697  0.08694995  1
  O2-  O169  1  0.42843704  0.31795588  0.43474139  1
  O2-  O170  1  0.42790180  0.32293510  0.75872418  1
  O2-  O171  1  0.43022679  0.82057192  0.09840513  1
  O2-  O172  1  0.42939453  0.82219385  0.43169909  1
  O2-  O173  1  0.43384768  0.81986520  0.76483921  1
  O2-  O174  1  0.93447933  0.31855736  0.09040650  1
  O2-  O175  1  0.92962246  0.32183246  0.42972139  1
  O2-  O176  1  0.92858229  0.31877467  0.76791563  1
  O2-  O177  1  0.92795137  0.82092630  0.10131591  1
  O2-  O178  1  0.92981522  0.82259888  0.42458629  1
  O2-  O179  1  0.92591449  0.81899925  0.76370352  1
  O2-  O180  1  0.32013992  0.06811272  0.24028468  1
  O2-  O181  1  0.32065725  0.07501835  0.56826355  1
  O2-  O182  1  0.31810924  0.07295835  0.91340224  1
  O2-  O183  1  0.32011545  0.57658803  0.24389580  1
  O2-  O184  1  0.32507016  0.56751684  0.57739181  1
  O2-  O185  1  0.32113722  0.57185091  0.91099783  1
  O2-  O186  1  0.82487127  0.07148552  0.24293805  1
  O2-  O187  1  0.81630216  0.07500883  0.56571502  1
  O2-  O188  1  0.82410265  0.07634799  0.91359313  1
  O2-  O189  1  0.82168430  0.57171988  0.23783626  1
  O2-  O190  1  0.82199192  0.56850778  0.57821974  1
  O2-  O191  1  0.82156111  0.56573935  0.90088829  1
  O2-  O192  1  0.04437070  0.07911955  0.26261249  1
  O2-  O193  1  0.05742955  0.08354578  0.60980014  1
  O2-  O194  1  0.05171799  0.08458821  0.93660934  1
  O2-  O195  1  0.04233706  0.58787205  0.27297422  1
  O2-  O196  1  0.03939595  0.58110769  0.59514566  1
  O2-  O197  1  0.04335030  0.57681049  0.93396905  1
  O2-  O198  1  0.53647970  0.08862096  0.26835796  1
  O2-  O199  1  0.54119978  0.09020979  0.60169116  1
  O2-  O200  1  0.53367293  0.08943237  0.92859005  1
  O2-  O201  1  0.54975940  0.58658813  0.26618983  1
  O2-  O202  1  0.53954023  0.58294221  0.60044820  1
  O2-  O203  1  0.54029402  0.58321985  0.93796850  1
  O2-  O204  1  0.16840105  0.20729231  0.26301330  1
  O2-  O205  1  0.16875046  0.20957705  0.60846978  1
  O2-  O206  1  0.16511309  0.20930163  0.93546360  1
  O2-  O207  1  0.16205304  0.70659208  0.26983507  1
  O2-  O208  1  0.17076887  0.70170441  0.59579607  1
  O2-  O209  1  0.16775946  0.70367590  0.93177442  1
  O2-  O210  1  0.66664481  0.19501721  0.27079244  1
  O2-  O211  1  0.65967423  0.21056261  0.60061786  1
  O2-  O212  1  0.66908502  0.20807429  0.93093958  1
  O2-  O213  1  0.66893712  0.70580459  0.27308851  1
  O2-  O214  1  0.66781534  0.69216181  0.60618648  1
  O2-  O215  1  0.66623898  0.69586020  0.94126247  1
  O2-  O216  1  0.08824190  0.45385167  0.06449089  1
  O2-  O217  1  0.08702630  0.46092363  0.40090565  1
  O2-  O218  1  0.08108032  0.46065750  0.73509287  1
  O2-  O219  1  0.08721966  0.95633208  0.06290790  1
  O2-  O220  1  0.08424782  0.95175492  0.39075464  1
  O2-  O221  1  0.08231287  0.95427039  0.73683403  1
  O2-  O222  1  0.57487074  0.44966726  0.06482877  1
  O2-  O223  1  0.58310365  0.45570706  0.39401523  1
  O2-  O224  1  0.58120555  0.45680314  0.73444236  1
  O2-  O225  1  0.58311953  0.96952052  0.06706466  1
  O2-  O226  1  0.58191660  0.96578884  0.40074377  1
  O2-  O227  1  0.58482276  0.96472190  0.73508947  1
  O2-  O228  1  0.21037205  0.33616343  0.06423849  1
  O2-  O229  1  0.21401014  0.33195619  0.39850196  1
  O2-  O230  1  0.21120426  0.33773022  0.74038774  1
  O2-  O231  1  0.20779796  0.83571337  0.06138219  1
  O2-  O232  1  0.20771344  0.83612844  0.39233697  1
  O2-  O233  1  0.20928150  0.82667538  0.73203702  1
  O2-  O234  1  0.70585347  0.32768784  0.06874823  1
  O2-  O235  1  0.69642835  0.32974735  0.39050634  1
  O2-  O236  1  0.70992982  0.33344851  0.73134039  1
  O2-  O237  1  0.70164358  0.83259579  0.06897804  1
  O2-  O238  1  0.70488190  0.83514135  0.40297834  1
  O2-  O239  1  0.69799902  0.82518849  0.73198007  1
  O2-  O240  1  0.45308900  0.42118967  0.26693435  1
  O2-  O241  1  0.45429576  0.41383354  0.60546577  1
  O2-  O242  1  0.44157981  0.42073266  0.93918875  1
  O2-  O243  1  0.45970445  0.91837845  0.26488379  1
  O2-  O244  1  0.46196631  0.91998921  0.59917625  1
  O2-  O245  1  0.45887519  0.91929024  0.93293702  1
  O2-  O246  1  0.96306013  0.42067291  0.26421176  1
  O2-  O247  1  0.95922293  0.41467552  0.60033163  1
  O2-  O248  1  0.96160705  0.40830230  0.93763066  1
  O2-  O249  1  0.95156661  0.91194445  0.27025282  1
  O2-  O250  1  0.95490545  0.92363358  0.60000138  1
  O2-  O251  1  0.95319826  0.92095409  0.93561669  1
  O2-  O252  1  0.33692951  0.28726925  0.26302782  1
  O2-  O253  1  0.33498276  0.29262721  0.60852954  1
  O2-  O254  1  0.33426645  0.29072991  0.93427752  1
  O2-  O255  1  0.33406240  0.78967738  0.26295022  1
  O2-  O256  1  0.33736008  0.79008064  0.59633149  1
  O2-  O257  1  0.33490565  0.78928053  0.93128092  1
  O2-  O258  1  0.82952212  0.29803751  0.26190801  1
  O2-  O259  1  0.83247394  0.28774971  0.59806342  1
  O2-  O260  1  0.83826284  0.29160670  0.94041803  1
  O2-  O261  1  0.83440199  0.78926750  0.27675438  1
  O2-  O262  1  0.82757094  0.79385135  0.59774364  1
  O2-  O263  1  0.82579782  0.79386972  0.93630532  1
  O2-  O264  1  0.41181304  0.04363149  0.06466061  1
  O2-  O265  1  0.40987861  0.04200329  0.39448462  1
  O2-  O266  1  0.42052388  0.04499985  0.73498651  1
  O2-  O267  1  0.41050037  0.54750365  0.06654796  1
  O2-  O268  1  0.42006035  0.55476412  0.39245119  1
  O2-  O269  1  0.41317642  0.54199783  0.73287794  1
  O2-  O270  1  0.92144305  0.05262154  0.06304157  1
  O2-  O271  1  0.91791634  0.04743423  0.39396348  1
  O2-  O272  1  0.92414665  0.05713061  0.73035038  1
  O2-  O273  1  0.91881324  0.53717535  0.06834091  1
  O2-  O274  1  0.91788078  0.53980746  0.40517651  1
  O2-  O275  1  0.91462008  0.54231875  0.72957372  1
  O2-  O276  1  0.29090096  0.16306100  0.06568555  1
  O2-  O277  1  0.29269021  0.16178807  0.39253543  1
  O2-  O278  1  0.29356259  0.16797177  0.74122281  1
  O2-  O279  1  0.29016710  0.66465065  0.06380564  1
  O2-  O280  1  0.29442555  0.66760973  0.39607917  1
  O2-  O281  1  0.30115907  0.66693546  0.72648284  1
  O2-  O282  1  0.79458032  0.16382853  0.06686328  1
  O2-  O283  1  0.79973499  0.16878383  0.39169516  1
  O2-  O284  1  0.78482473  0.16601587  0.73486192  1
  O2-  O285  1  0.79331411  0.66714161  0.06985553  1
  O2-  O286  1  0.78869416  0.66328689  0.40884651  1
  O2-  O287  1  0.79859862  0.66487265  0.72894454  1
