# generated using pymatgen
data_Ca2Al2SiO7
_symmetry_space_group_name_H-M   'P 1'
_cell_length_a   15.46206711
_cell_length_b   15.46223358
_cell_length_c   15.28633975
_cell_angle_alpha   90.00349784
_cell_angle_beta   89.98360400
_cell_angle_gamma   89.99803095
_symmetry_Int_Tables_number   1
_chemical_formula_structural   Ca2Al2SiO7
_chemical_formula_sum   'Ca48 Al48 Si24 O168'
_cell_volume   3654.62880238
_cell_formula_units_Z   24
loop_
 _symmetry_equiv_pos_site_id
 _symmetry_equiv_pos_as_xyz
  1  'x, y, z'
loop_
 _atom_type_symbol
 _atom_type_oxidation_number
  Ca2+  2.0
  Al0+  0.0
  Si0+  0.0
  O2-  -2.0
loop_
 _atom_site_type_symbol
 _atom_site_label
 _atom_site_symmetry_multiplicity
 _atom_site_fract_x
 _atom_site_fract_y
 _atom_site_fract_z
 _atom_site_occupancy
  Ca2+  Ca0  1  0.17868876  0.09202169  0.16564909  1
  Ca2+  Ca1  1  0.18145946  0.08507481  0.50453433  1
  Ca2+  Ca2  1  0.17719364  0.09014562  0.84035676  1
  Ca2+  Ca3  1  0.17099897  0.57726138  0.16186349  1
  Ca2+  Ca4  1  0.16578784  0.57774200  0.50977020  1
  Ca2+  Ca5  1  0.16669162  0.57237867  0.84043292  1
  Ca2+  Ca6  1  0.67073190  0.08813107  0.16588333  1
  Ca2+  Ca7  1  0.66798529  0.08424270  0.50096004  1
  Ca2+  Ca8  1  0.66826436  0.07444986  0.84241035  1
  Ca2+  Ca9  1  0.67154505  0.58113577  0.16343474  1
  Ca2+  Ca10  1  0.66910143  0.57999785  0.50385111  1
  Ca2+  Ca11  1  0.67320416  0.57946290  0.84296360  1
  Ca2+  Ca12  1  0.07625756  0.32649372  0.15704947  1
  Ca2+  Ca13  1  0.07502598  0.33596388  0.50052515  1
  Ca2+  Ca14  1  0.08062209  0.33431460  0.83369064  1
  Ca2+  Ca15  1  0.07582626  0.83363779  0.15711738  1
  Ca2+  Ca16  1  0.08968209  0.82432332  0.49925850  1
  Ca2+  Ca17  1  0.07710408  0.82773056  0.83130400  1
  Ca2+  Ca18  1  0.57838392  0.31816366  0.15710927  1
  Ca2+  Ca19  1  0.57432201  0.32628895  0.49336227  1
  Ca2+  Ca20  1  0.57125463  0.32869912  0.83263747  1
  Ca2+  Ca21  1  0.57499975  0.83844171  0.15936287  1
  Ca2+  Ca22  1  0.57492663  0.84325865  0.50101955  1
  Ca2+  Ca23  1  0.57635246  0.84261210  0.83213369  1
  Ca2+  Ca24  1  0.33031233  0.41164625  0.16288258  1
  Ca2+  Ca25  1  0.32555238  0.41550848  0.51339309  1
  Ca2+  Ca26  1  0.32522869  0.41466322  0.84481795  1
  Ca2+  Ca27  1  0.34238260  0.92592646  0.16744226  1
  Ca2+  Ca28  1  0.34408311  0.92601482  0.50353907  1
  Ca2+  Ca29  1  0.33958375  0.92561779  0.83883432  1
  Ca2+  Ca30  1  0.84215028  0.41719362  0.16769690  1
  Ca2+  Ca31  1  0.83586357  0.41148756  0.50428900  1
  Ca2+  Ca32  1  0.84154011  0.42020945  0.84093148  1
  Ca2+  Ca33  1  0.83253471  0.92963369  0.16613527  1
  Ca2+  Ca34  1  0.82563223  0.92699600  0.50771595  1
  Ca2+  Ca35  1  0.82185596  0.91769035  0.84656627  1
  Ca2+  Ca36  1  0.42549221  0.16130943  0.15666836  1
  Ca2+  Ca37  1  0.41817387  0.16420449  0.49695637  1
  Ca2+  Ca38  1  0.41411377  0.16972049  0.83277489  1
  Ca2+  Ca39  1  0.41291554  0.67758835  0.15768491  1
  Ca2+  Ca40  1  0.41486810  0.68186143  0.49587187  1
  Ca2+  Ca41  1  0.40679031  0.67883011  0.83238375  1
  Ca2+  Ca42  1  0.91754015  0.17097524  0.15451102  1
  Ca2+  Ca43  1  0.91239544  0.17695472  0.49222394  1
  Ca2+  Ca44  1  0.91972384  0.17243529  0.83438994  1
  Ca2+  Ca45  1  0.91479128  0.67329655  0.15595558  1
  Ca2+  Ca46  1  0.92472656  0.66633851  0.50043319  1
  Ca2+  Ca47  1  0.91744643  0.66942726  0.83256504  1
  Al0+  Al48  1  -0.00108836  -0.00091240  -0.00764462  1
  Al0+  Al49  1  0.00090249  -0.00067090  0.34112553  1
  Al0+  Al50  1  0.00163277  0.00117239  0.66496698  1
  Al0+  Al51  1  0.00109652  0.50002845  0.00785117  1
  Al0+  Al52  1  0.00108231  0.50099832  0.33087498  1
  Al0+  Al53  1  0.00074820  0.50030097  0.66223303  1
  Al0+  Al54  1  0.50022724  -0.00199379  -0.00097013  1
  Al0+  Al55  1  0.50021541  0.00011409  0.32990207  1
  Al0+  Al56  1  0.50190777  0.00076966  0.67037517  1
  Al0+  Al57  1  0.50063988  0.50120358  0.00244852  1
  Al0+  Al58  1  0.50034079  0.50198563  0.33480129  1
  Al0+  Al59  1  0.50046018  0.50114479  0.66298066  1
  Al0+  Al60  1  0.24875520  0.24939085  0.00433611  1
  Al0+  Al61  1  0.24767600  0.25110745  0.34058333  1
  Al0+  Al62  1  0.24904958  0.25087944  0.67003136  1
  Al0+  Al63  1  0.24928062  0.74893441  -0.00054676  1
  Al0+  Al64  1  0.25010281  0.74847877  0.32846790  1
  Al0+  Al65  1  0.24983689  0.75140189  0.65679023  1
  Al0+  Al66  1  0.74890654  0.24943102  -0.00711209  1
  Al0+  Al67  1  0.74840638  0.25175558  0.33017760  1
  Al0+  Al68  1  0.74948067  0.25076452  0.66412396  1
  Al0+  Al69  1  0.74835978  0.74873099  0.00558118  1
  Al0+  Al70  1  0.75022289  0.74851653  0.33686227  1
  Al0+  Al71  1  0.74960797  0.75008661  0.66834592  1
  Al0+  Al72  1  0.06869394  0.68084622  0.65406103  1
  Al0+  Al73  1  0.93025844  0.31901286  0.65248179  1
  Al0+  Al74  1  0.42882679  0.81936794  0.98523601  1
  Al0+  Al75  1  0.17888377  0.43133945  0.68096159  1
  Al0+  Al76  1  0.56851008  0.18064344  0.31978458  1
  Al0+  Al77  1  0.43168214  0.82147116  0.65265808  1
  Al0+  Al78  1  0.68190430  0.93036121  0.68062886  1
  Al0+  Al79  1  0.57100728  0.17660095  0.98194761  1
  Al0+  Al80  1  0.67806974  0.92880932  0.01766942  1
  Al0+  Al81  1  0.31973399  0.06910562  0.68168211  1
  Al0+  Al82  1  0.42838064  0.32175455  0.98723033  1
  Al0+  Al83  1  0.32252418  0.57258389  0.01458807  1
  Al0+  Al84  1  0.92929360  0.32251427  0.98534786  1
  Al0+  Al85  1  0.32110389  0.06950225  0.34703664  1
  Al0+  Al86  1  0.43137628  0.81922513  0.31769993  1
  Al0+  Al87  1  0.31951584  0.06921045  0.01326888  1
  Al0+  Al88  1  0.92655152  0.82064687  0.98787529  1
  Al0+  Al89  1  0.82104207  0.56885778  0.01331854  1
  Al0+  Al90  1  0.82193666  0.07228436  0.01251481  1
  Al0+  Al91  1  0.82157999  0.07314738  0.34721735  1
  Al0+  Al92  1  0.93040205  0.31984158  0.31878019  1
  Al0+  Al93  1  0.42730371  0.32172287  0.65340044  1
  Al0+  Al94  1  0.07186242  0.17705324  0.98528417  1
  Al0+  Al95  1  0.17922315  0.42752455  0.01792911  1
  Si0+  Si96  1  0.32304259  0.57431214  0.68048990  1
  Si0+  Si97  1  0.32134556  0.57267232  0.35006621  1
  Si0+  Si98  1  0.67688223  0.42658084  0.01619593  1
  Si0+  Si99  1  0.07382424  0.17644989  0.64775885  1
  Si0+  Si100  1  0.42473172  0.32432285  0.31884434  1
  Si0+  Si101  1  0.17743036  0.92439513  0.35044566  1
  Si0+  Si102  1  0.07307434  0.17633647  0.31912210  1
  Si0+  Si103  1  0.67896088  0.42975122  0.34866501  1
  Si0+  Si104  1  0.82042736  0.56884288  0.67974056  1
  Si0+  Si105  1  0.82244091  0.57104223  0.35090012  1
  Si0+  Si106  1  0.67931848  0.92749452  0.35055366  1
  Si0+  Si107  1  0.07103629  0.67821854  0.98462567  1
  Si0+  Si108  1  0.57458548  0.67530591  0.31539815  1
  Si0+  Si109  1  0.17641902  0.92610527  0.01395592  1
  Si0+  Si110  1  0.57259161  0.67723221  0.98367859  1
  Si0+  Si111  1  0.92826810  0.82136130  0.32092677  1
  Si0+  Si112  1  0.92523161  0.82319639  0.64943387  1
  Si0+  Si113  1  0.17904179  0.43173829  0.35129808  1
  Si0+  Si114  1  0.07016921  0.67927986  0.31578861  1
  Si0+  Si115  1  0.67692176  0.42814819  0.68061377  1
  Si0+  Si116  1  0.57549279  0.67681829  0.64927601  1
  Si0+  Si117  1  0.17683282  0.92496312  0.68302045  1
  Si0+  Si118  1  0.82402775  0.07511148  0.68300966  1
  Si0+  Si119  1  0.57050516  0.17934055  0.64910365  1
  O2-  O120  1  0.24356714  -0.00481129  0.05976638  1
  O2-  O121  1  0.24628021  -0.00614690  0.39349405  1
  O2-  O122  1  0.24324259  -0.00491075  0.72697667  1
  O2-  O123  1  0.25508579  0.49718464  0.06658780  1
  O2-  O124  1  0.25459810  0.49833544  0.39365242  1
  O2-  O125  1  0.25838829  0.50239649  0.72463546  1
  O2-  O126  1  0.74929558  0.00255141  0.06567616  1
  O2-  O127  1  0.74842789  -0.00361237  0.39421236  1
  O2-  O128  1  0.76100536  0.00082705  0.72543242  1
  O2-  O129  1  0.75017273  0.49081191  0.06102383  1
  O2-  O130  1  0.75121354  0.49993128  0.39261584  1
  O2-  O131  1  0.74827205  0.49935555  0.72154723  1
  O2-  O132  1  0.00036797  0.24036179  0.27481376  1
  O2-  O133  1  0.00044985  0.24083534  0.60390421  1
  O2-  O134  1  0.00001870  0.24971763  0.93548302  1
  O2-  O135  1  0.00052472  0.75257942  0.27670012  1
  O2-  O136  1  -0.00269620  0.75820663  0.60423671  1
  O2-  O137  1  0.00123217  0.74589699  0.94107208  1
  O2-  O138  1  0.49062238  0.25333096  0.27558493  1
  O2-  O139  1  0.50178451  0.24811719  0.60442100  1
  O2-  O140  1  0.49771784  0.24891552  0.93466117  1
  O2-  O141  1  0.50672576  0.74445307  0.27222407  1
  O2-  O142  1  0.50582733  0.74527157  0.60596686  1
  O2-  O143  1  0.50221975  0.74323219  0.93868470  1
  O2-  O144  1  0.07157978  0.17777690  0.09956314  1
  O2-  O145  1  0.07504059  0.18020232  0.42492122  1
  O2-  O146  1  0.07446466  0.17657279  0.75262856  1
  O2-  O147  1  0.07032734  0.68073618  0.09083664  1
  O2-  O148  1  0.06936896  0.67744767  0.42130184  1
  O2-  O149  1  0.06481732  0.68047842  0.76645837  1
  O2-  O150  1  0.57012162  0.17826692  0.09604119  1
  O2-  O151  1  0.56812997  0.18264278  0.43351302  1
  O2-  O152  1  0.57137507  0.18074210  0.75385524  1
  O2-  O153  1  0.57320396  0.67816434  0.08958676  1
  O2-  O154  1  0.57461971  0.67259715  0.42122545  1
  O2-  O155  1  0.57955898  0.67397014  0.75394460  1
  O2-  O156  1  0.17800576  0.43253054  0.24709200  1
  O2-  O157  1  0.17808973  0.43452055  0.56680772  1
  O2-  O158  1  0.17671977  0.43169190  0.90432525  1
  O2-  O159  1  0.17389051  0.92184704  0.24544506  1
  O2-  O160  1  0.17755320  0.92473817  0.57695586  1
  O2-  O161  1  0.17885442  0.92338510  0.90838961  1
  O2-  O162  1  0.67827676  0.43236911  0.24433843  1
  O2-  O163  1  0.67751207  0.42938158  0.57489820  1
  O2-  O164  1  0.67466667  0.43169893  0.91035388  1
  O2-  O165  1  0.68136116  0.92415551  0.24590729  1
  O2-  O166  1  0.68193839  0.93287861  0.56673310  1
  O2-  O167  1  0.68004479  0.92800563  0.90383191  1
  O2-  O168  1  0.43194608  0.32030110  0.10143046  1
  O2-  O169  1  0.42692569  0.32600115  0.42491831  1
  O2-  O170  1  0.42916588  0.32374593  0.76550972  1
  O2-  O171  1  0.42964963  0.81844980  0.09848001  1
  O2-  O172  1  0.43328947  0.81893411  0.43129727  1
  O2-  O173  1  0.43101034  0.81999325  0.76504298  1
  O2-  O174  1  0.93185164  0.32188682  0.09919843  1
  O2-  O175  1  0.93271089  0.32205938  0.43233712  1
  O2-  O176  1  0.93095462  0.32228922  0.76438094  1
  O2-  O177  1  0.92962214  0.81946787  0.10183446  1
  O2-  O178  1  0.92845980  0.81766951  0.42623863  1
  O2-  O179  1  0.92323674  0.81917992  0.75442298  1
  O2-  O180  1  0.32049619  0.06958646  0.23457055  1
  O2-  O181  1  0.32077621  0.06733455  0.56782592  1
  O2-  O182  1  0.31929901  0.06824357  0.90025330  1
  O2-  O183  1  0.31917296  0.57439343  0.24576890  1
  O2-  O184  1  0.32040846  0.57351459  0.57405308  1
  O2-  O185  1  0.31743423  0.57546848  0.90094742  1
  O2-  O186  1  0.82376365  0.07193316  0.23511283  1
  O2-  O187  1  0.82073642  0.07576174  0.57664562  1
  O2-  O188  1  0.82183347  0.06886583  0.89884232  1
  O2-  O189  1  0.82279040  0.57328352  0.24650737  1
  O2-  O190  1  0.81982141  0.56844580  0.57390714  1
  O2-  O191  1  0.81974239  0.56957167  0.89963689  1
  O2-  O192  1  0.05428308  0.07938525  0.27848205  1
  O2-  O193  1  0.05506846  0.08063052  0.60161249  1
  O2-  O194  1  0.04674898  0.07971309  0.92859764  1
  O2-  O195  1  0.03912068  0.58931931  0.26784406  1
  O2-  O196  1  0.03333316  0.58767669  0.59485020  1
  O2-  O197  1  0.04418460  0.58461490  0.94125447  1
  O2-  O198  1  0.54178002  0.08376739  0.26612909  1
  O2-  O199  1  0.54369604  0.08613133  0.60314504  1
  O2-  O200  1  0.54166844  0.07869301  0.93039498  1
  O2-  O201  1  0.54902461  0.58185845  0.26899868  1
  O2-  O202  1  0.55091629  0.58383621  0.60022680  1
  O2-  O203  1  0.55139593  0.58270905  0.93822376  1
  O2-  O204  1  0.16521732  0.20826763  0.27328187  1
  O2-  O205  1  0.16514202  0.20822883  0.60053988  1
  O2-  O206  1  0.16975094  0.20761765  0.93363077  1
  O2-  O207  1  0.16208565  0.70440876  0.26841092  1
  O2-  O208  1  0.16407625  0.70885583  0.59420612  1
  O2-  O209  1  0.16309524  0.70403917  0.93696738  1
  O2-  O210  1  0.66304739  0.21529316  0.26508761  1
  O2-  O211  1  0.66385562  0.20586522  0.60186383  1
  O2-  O212  1  0.66811525  0.20459678  0.92704861  1
  O2-  O213  1  0.66994997  0.69936294  0.27210086  1
  O2-  O214  1  0.66862454  0.70316055  0.60069481  1
  O2-  O215  1  0.66585182  0.70350957  0.93773895  1
  O2-  O216  1  0.08438799  0.46180683  0.07494533  1
  O2-  O217  1  0.08858198  0.46667180  0.39839648  1
  O2-  O218  1  0.08354764  0.46809696  0.73277426  1
  O2-  O219  1  0.08170817  0.94978027  0.05814828  1
  O2-  O220  1  0.08462076  0.94668414  0.40071398  1
  O2-  O221  1  0.08076740  0.94606291  0.72654967  1
  O2-  O222  1  0.58689705  0.45722399  0.06685821  1
  O2-  O223  1  0.58747389  0.45903810  0.39832897  1
  O2-  O224  1  0.58573054  0.45729628  0.72810099  1
  O2-  O225  1  0.57986853  0.95707884  0.06964969  1
  O2-  O226  1  0.58603805  0.95614659  0.39555390  1
  O2-  O227  1  0.58718777  0.96325444  0.73515438  1
  O2-  O228  1  0.20559841  0.33010858  0.07355641  1
  O2-  O229  1  0.20082090  0.33897365  0.40022615  1
  O2-  O230  1  0.20453070  0.33383415  0.73331513  1
  O2-  O231  1  0.20091960  0.83303399  0.06183457  1
  O2-  O232  1  0.20518709  0.83021561  0.39579349  1
  O2-  O233  1  0.20315914  0.83071604  0.72643574  1
  O2-  O234  1  0.69830528  0.33127017  0.05878514  1
  O2-  O235  1  0.70621664  0.33888837  0.39778714  1
  O2-  O236  1  0.70385974  0.33619812  0.72666149  1
  O2-  O237  1  0.70580123  0.83066249  0.07101316  1
  O2-  O238  1  0.70398763  0.83343703  0.39839860  1
  O2-  O239  1  0.70773859  0.83162766  0.73305070  1
  O2-  O240  1  0.45179855  0.41839112  0.27478442  1
  O2-  O241  1  0.45721410  0.41900646  0.59789289  1
  O2-  O242  1  0.45688115  0.42114960  0.93585549  1
  O2-  O243  1  0.46194912  0.91529467  0.26447261  1
  O2-  O244  1  0.46732331  0.91728410  0.59893195  1
  O2-  O245  1  0.46157767  0.91411260  0.93071375  1
  O2-  O246  1  0.96366076  0.41683943  0.26710342  1
  O2-  O247  1  0.96325160  0.41462228  0.59640153  1
  O2-  O248  1  0.95976187  0.42239534  0.93610739  1
  O2-  O249  1  0.95483284  0.91449316  0.27625003  1
  O2-  O250  1  0.94701564  0.91884107  0.60531959  1
  O2-  O251  1  0.95615501  0.91390682  0.92863771  1
  O2-  O252  1  0.32876609  0.30191919  0.27769025  1
  O2-  O253  1  0.33033642  0.29116681  0.59965048  1
  O2-  O254  1  0.32865393  0.29597416  0.93807999  1
  O2-  O255  1  0.33438787  0.78766055  0.26528235  1
  O2-  O256  1  0.33585106  0.79303888  0.59486581  1
  O2-  O257  1  0.33151916  0.78900843  0.93196114  1
  O2-  O258  1  0.83140118  0.29730588  0.26783173  1
  O2-  O259  1  0.83170513  0.29234772  0.59763748  1
  O2-  O260  1  0.83004620  0.30041432  0.93210810  1
  O2-  O261  1  0.83695321  0.79052021  0.27495251  1
  O2-  O262  1  0.83384212  0.79259672  0.60094010  1
  O2-  O263  1  0.83092426  0.78550188  0.93532877  1
  O2-  O264  1  0.41496576  0.03499226  0.06646718  1
  O2-  O265  1  0.41785481  0.03720726  0.40086425  1
  O2-  O266  1  0.41596827  0.03791432  0.73436485  1
  O2-  O267  1  0.42251554  0.55100029  0.06782954  1
  O2-  O268  1  0.41576630  0.55138196  0.39624519  1
  O2-  O269  1  0.41936776  0.55569695  0.72269038  1
  O2-  O270  1  0.92060864  0.04089903  0.06414107  1
  O2-  O271  1  0.91792958  0.04411849  0.40461947  1
  O2-  O272  1  0.92110358  0.05633465  0.72363761  1
  O2-  O273  1  0.91686051  0.54394014  0.07161876  1
  O2-  O274  1  0.91482862  0.54241926  0.39762515  1
  O2-  O275  1  0.91132014  0.53916711  0.72594038  1
  O2-  O276  1  0.29088786  0.16481765  0.06979648  1
  O2-  O277  1  0.29024301  0.16630838  0.40304633  1
  O2-  O278  1  0.28908376  0.16595199  0.73387585  1
  O2-  O279  1  0.28716097  0.66855103  0.07030211  1
  O2-  O280  1  0.28847472  0.66322173  0.39791305  1
  O2-  O281  1  0.29310214  0.66784598  0.72317253  1
  O2-  O282  1  0.79482240  0.17232840  0.06297911  1
  O2-  O283  1  0.78690444  0.16958829  0.40066263  1
  O2-  O284  1  0.79412912  0.16744998  0.72822593  1
  O2-  O285  1  0.78638835  0.66243185  0.07135595  1
  O2-  O286  1  0.79449888  0.66200975  0.40121567  1
  O2-  O287  1  0.79525020  0.66140353  0.72631494  1
