# generated using pymatgen
data_Ca2Al2SiO7
_symmetry_space_group_name_H-M   'P 1'
_cell_length_a   15.46553897
_cell_length_b   15.46565459
_cell_length_c   15.28802890
_cell_angle_alpha   90.00948903
_cell_angle_beta   89.99475070
_cell_angle_gamma   89.99640781
_symmetry_Int_Tables_number   1
_chemical_formula_structural   Ca2Al2SiO7
_chemical_formula_sum   'Ca48 Al48 Si24 O168'
_cell_volume   3656.66228394
_cell_formula_units_Z   24
loop_
 _symmetry_equiv_pos_site_id
 _symmetry_equiv_pos_as_xyz
  1  'x, y, z'
loop_
 _atom_type_symbol
 _atom_type_oxidation_number
  Ca2+  2.0
  Al0+  0.0
  Si0+  0.0
  O2-  -2.0
loop_
 _atom_site_type_symbol
 _atom_site_label
 _atom_site_symmetry_multiplicity
 _atom_site_fract_x
 _atom_site_fract_y
 _atom_site_fract_z
 _atom_site_occupancy
  Ca2+  Ca0  1  0.17024600  0.07707852  0.17492856  1
  Ca2+  Ca1  1  0.17397386  0.07958158  0.49882830  1
  Ca2+  Ca2  1  0.16661814  0.08398943  0.83862056  1
  Ca2+  Ca3  1  0.17843634  0.59188543  0.16851415  1
  Ca2+  Ca4  1  0.18055502  0.57915625  0.50754262  1
  Ca2+  Ca5  1  0.17469257  0.58641141  0.83547986  1
  Ca2+  Ca6  1  0.66488600  0.07149313  0.17223764  1
  Ca2+  Ca7  1  0.65365724  0.07562198  0.50280995  1
  Ca2+  Ca8  1  0.66337356  0.07130186  0.83567980  1
  Ca2+  Ca9  1  0.66509310  0.58710778  0.16666406  1
  Ca2+  Ca10  1  0.67181939  0.57455137  0.51137514  1
  Ca2+  Ca11  1  0.66896528  0.58281002  0.83548091  1
  Ca2+  Ca12  1  0.07922110  0.32497770  0.15604611  1
  Ca2+  Ca13  1  0.07898423  0.34541685  0.50203357  1
  Ca2+  Ca14  1  0.07824135  0.33403165  0.82810662  1
  Ca2+  Ca15  1  0.08191230  0.83091184  0.15640984  1
  Ca2+  Ca16  1  0.07778211  0.83646204  0.49688212  1
  Ca2+  Ca17  1  0.07289088  0.82626645  0.83026366  1
  Ca2+  Ca18  1  0.57699281  0.32792890  0.16801221  1
  Ca2+  Ca19  1  0.58480283  0.32360052  0.49390219  1
  Ca2+  Ca20  1  0.58874676  0.32471452  0.82378767  1
  Ca2+  Ca21  1  0.57398654  0.83416035  0.16040210  1
  Ca2+  Ca22  1  0.57403513  0.83819919  0.49632732  1
  Ca2+  Ca23  1  0.57644820  0.83378394  0.82862618  1
  Ca2+  Ca24  1  0.33844149  0.42957654  0.17356079  1
  Ca2+  Ca25  1  0.33618814  0.42630484  0.50740908  1
  Ca2+  Ca26  1  0.33139306  0.43017492  0.83835968  1
  Ca2+  Ca27  1  0.33104421  0.91683839  0.17675689  1
  Ca2+  Ca28  1  0.33576419  0.91634257  0.50000949  1
  Ca2+  Ca29  1  0.33809863  0.91363930  0.83695454  1
  Ca2+  Ca30  1  0.83496090  0.41586412  0.16757811  1
  Ca2+  Ca31  1  0.82866997  0.42159745  0.51434914  1
  Ca2+  Ca32  1  0.83415312  0.41424397  0.83182441  1
  Ca2+  Ca33  1  0.82085871  0.90659178  0.16818053  1
  Ca2+  Ca34  1  0.81861527  0.91613212  0.50914343  1
  Ca2+  Ca35  1  0.82319949  0.90548044  0.83749231  1
  Ca2+  Ca36  1  0.41611416  0.16540552  0.17041719  1
  Ca2+  Ca37  1  0.42549623  0.17198365  0.49118940  1
  Ca2+  Ca38  1  0.42425167  0.16862791  0.82477854  1
  Ca2+  Ca39  1  0.41613808  0.67572425  0.15885476  1
  Ca2+  Ca40  1  0.40948382  0.67335560  0.49637224  1
  Ca2+  Ca41  1  0.41517640  0.67365297  0.83253419  1
  Ca2+  Ca42  1  0.92414682  0.17096430  0.15654446  1
  Ca2+  Ca43  1  0.91564589  0.17328502  0.50006581  1
  Ca2+  Ca44  1  0.91994785  0.17581190  0.83120255  1
  Ca2+  Ca45  1  0.92803639  0.67408097  0.15491643  1
  Ca2+  Ca46  1  0.91242829  0.66866661  0.50225017  1
  Ca2+  Ca47  1  0.91406504  0.67365133  0.82814504  1
  Al0+  Al48  1  -0.00098344  0.00197442  -0.00769099  1
  Al0+  Al49  1  -0.00309592  0.00131931  0.33631539  1
  Al0+  Al50  1  0.00015982  -0.00018498  0.66179738  1
  Al0+  Al51  1  0.00052175  0.49881272  -0.00500338  1
  Al0+  Al52  1  0.00050159  0.50286273  0.33095157  1
  Al0+  Al53  1  0.00176987  0.50022252  0.66891397  1
  Al0+  Al54  1  0.50014628  0.00077606  0.00224564  1
  Al0+  Al55  1  0.49947600  0.00015285  0.33217821  1
  Al0+  Al56  1  0.49937291  -0.00025750  0.66340916  1
  Al0+  Al57  1  0.50015629  0.50022766  0.00266237  1
  Al0+  Al58  1  0.50208427  0.49963966  0.33529551  1
  Al0+  Al59  1  0.50075164  0.50039332  0.67649829  1
  Al0+  Al60  1  0.25089687  0.25066522  -0.00248065  1
  Al0+  Al61  1  0.24753383  0.25104682  0.33356027  1
  Al0+  Al62  1  0.25131363  0.24848397  0.66927556  1
  Al0+  Al63  1  0.24999235  0.75192714  -0.00350069  1
  Al0+  Al64  1  0.24802558  0.74903515  0.33871281  1
  Al0+  Al65  1  0.24881113  0.75159935  0.66593137  1
  Al0+  Al66  1  0.74959082  0.24876708  -0.00004829  1
  Al0+  Al67  1  0.75024672  0.24977121  0.32725836  1
  Al0+  Al68  1  0.75326113  0.24715704  0.66076985  1
  Al0+  Al69  1  0.74808134  0.74682306  0.00138191  1
  Al0+  Al70  1  0.75012039  0.74981531  0.33831556  1
  Al0+  Al71  1  0.74845299  0.74977834  0.66866093  1
  Al0+  Al72  1  0.18048467  0.42745684  0.68248543  1
  Al0+  Al73  1  0.32258617  0.56991393  0.34688959  1
  Al0+  Al74  1  0.42693013  0.32335861  0.31940997  1
  Al0+  Al75  1  0.32047799  0.07252475  0.34882199  1
  Al0+  Al76  1  0.31983107  0.57173650  0.01617844  1
  Al0+  Al77  1  0.57114711  0.17818421  0.31508145  1
  Al0+  Al78  1  0.42815479  0.81852356  0.32070499  1
  Al0+  Al79  1  0.57060888  0.67643002  0.98523876  1
  Al0+  Al80  1  0.17627427  0.92769356  0.34814584  1
  Al0+  Al81  1  0.67957188  0.92934847  0.34793187  1
  Al0+  Al82  1  0.07348906  0.67895905  0.98436448  1
  Al0+  Al83  1  0.07350085  0.17896426  0.98464316  1
  Al0+  Al84  1  0.43032747  0.82306448  0.98584417  1
  Al0+  Al85  1  0.92715956  0.82063725  0.98612231  1
  Al0+  Al86  1  0.92685892  0.82046278  0.65053156  1
  Al0+  Al87  1  0.92730957  0.32093129  0.98419738  1
  Al0+  Al88  1  0.82061625  0.57108683  0.68292234  1
  Al0+  Al89  1  0.67998640  0.42504752  0.68143527  1
  Al0+  Al90  1  0.93287702  0.32055634  0.65121330  1
  Al0+  Al91  1  0.32214055  0.57429126  0.68431887  1
  Al0+  Al92  1  0.67936022  0.92725435  0.01474093  1
  Al0+  Al93  1  0.42880667  0.81917419  0.65092542  1
  Al0+  Al94  1  0.57154281  0.17955981  0.65383452  1
  Al0+  Al95  1  0.67798748  0.93144193  0.68092447  1
  Si0+  Si96  1  0.82272109  0.56974035  0.34717681  1
  Si0+  Si97  1  0.67936286  0.42608996  0.01760398  1
  Si0+  Si98  1  0.82134456  0.07488363  0.35016580  1
  Si0+  Si99  1  0.42819185  0.32270054  0.65329657  1
  Si0+  Si100  1  0.82104193  0.07244751  0.01617537  1
  Si0+  Si101  1  0.17802853  0.42703771  0.01772590  1
  Si0+  Si102  1  0.93039814  0.32291119  0.31830686  1
  Si0+  Si103  1  0.17829404  0.93192303  0.01144253  1
  Si0+  Si104  1  0.06963132  0.17773812  0.31900929  1
  Si0+  Si105  1  0.56944344  0.17977471  0.98533449  1
  Si0+  Si106  1  0.07566317  0.17691867  0.64634001  1
  Si0+  Si107  1  0.57172970  0.67625405  0.65022044  1
  Si0+  Si108  1  0.17673100  0.93000958  0.68298840  1
  Si0+  Si109  1  0.32195584  0.07334514  0.01440262  1
  Si0+  Si110  1  0.42948137  0.32200135  0.98505581  1
  Si0+  Si111  1  0.68132754  0.42786663  0.34669955  1
  Si0+  Si112  1  0.06901082  0.68039110  0.31909851  1
  Si0+  Si113  1  0.82542419  0.07084869  0.68365473  1
  Si0+  Si114  1  0.92699834  0.82162759  0.31960014  1
  Si0+  Si115  1  0.32062230  0.06869603  0.68183880  1
  Si0+  Si116  1  0.82218219  0.56977768  0.01658181  1
  Si0+  Si117  1  0.17579801  0.42893039  0.34740873  1
  Si0+  Si118  1  0.57447951  0.67744678  0.31912559  1
  Si0+  Si119  1  0.07144383  0.67905582  0.64732013  1
  O2-  O120  1  0.24892042  0.00315011  0.05403875  1
  O2-  O121  1  0.25102165  -0.00273316  0.39840613  1
  O2-  O122  1  0.24829872  0.00009482  0.72555147  1
  O2-  O123  1  0.24360412  0.49776755  0.06335835  1
  O2-  O124  1  0.25126919  0.49018316  0.39065338  1
  O2-  O125  1  0.25201146  0.49930786  0.73279162  1
  O2-  O126  1  0.75753401  -0.00055038  0.06116499  1
  O2-  O127  1  0.75199468  0.00708857  0.39390659  1
  O2-  O128  1  0.75694857  0.00200658  0.72773661  1
  O2-  O129  1  0.75136731  0.49754571  0.05907281  1
  O2-  O130  1  0.75190123  0.49887515  0.38868581  1
  O2-  O131  1  0.74980397  0.49801044  0.73345436  1
  O2-  O132  1  0.00021937  0.25079033  0.27699336  1
  O2-  O133  1  0.00947461  0.24837198  0.60221348  1
  O2-  O134  1  0.00282176  0.25219938  0.93551936  1
  O2-  O135  1  0.00197115  0.75544111  0.27699115  1
  O2-  O136  1  0.00086711  0.74573850  0.60210775  1
  O2-  O137  1  -0.00264072  0.74722806  0.93557443  1
  O2-  O138  1  0.49595917  0.24887525  0.26723914  1
  O2-  O139  1  0.50191363  0.25995510  0.60889090  1
  O2-  O140  1  0.49970411  0.25092457  0.94214827  1
  O2-  O141  1  0.50363165  0.74392564  0.27535506  1
  O2-  O142  1  0.50077045  0.74149607  0.60462527  1
  O2-  O143  1  0.50179105  0.75110649  0.93550059  1
  O2-  O144  1  0.07246255  0.17899960  0.09899978  1
  O2-  O145  1  0.06791556  0.17647390  0.42372915  1
  O2-  O146  1  0.07463356  0.17542605  0.75164952  1
  O2-  O147  1  0.07309867  0.68304305  0.09904108  1
  O2-  O148  1  0.06468669  0.67554738  0.42360696  1
  O2-  O149  1  0.07264848  0.68275164  0.75262606  1
  O2-  O150  1  0.56865035  0.18032687  0.09018930  1
  O2-  O151  1  0.57306611  0.18239935  0.42847006  1
  O2-  O152  1  0.56755117  0.17802304  0.76766078  1
  O2-  O153  1  0.56878308  0.67685066  0.09955650  1
  O2-  O154  1  0.57804680  0.67708870  0.42436879  1
  O2-  O155  1  0.57300507  0.67897061  0.75548464  1
  O2-  O156  1  0.16970837  0.43270076  0.24216194  1
  O2-  O157  1  0.18262230  0.42928354  0.56799075  1
  O2-  O158  1  0.18227605  0.42420637  0.91273413  1
  O2-  O159  1  0.17324987  0.92974492  0.23402002  1
  O2-  O160  1  0.17595542  0.93167491  0.57796173  1
  O2-  O161  1  0.17902183  0.93342129  0.90629108  1
  O2-  O162  1  0.68329257  0.42777207  0.24129930  1
  O2-  O163  1  0.68195330  0.42640129  0.56708497  1
  O2-  O164  1  0.67950005  0.42248786  0.91315578  1
  O2-  O165  1  0.68335699  0.92666426  0.23475968  1
  O2-  O166  1  0.67716233  0.93396804  0.56769120  1
  O2-  O167  1  0.67749995  0.93134776  0.90186031  1
  O2-  O168  1  0.43021914  0.32125260  0.09014933  1
  O2-  O169  1  0.43173737  0.32540420  0.43293198  1
  O2-  O170  1  0.42642347  0.31685376  0.75918256  1
  O2-  O171  1  0.42912542  0.82382210  0.09968750  1
  O2-  O172  1  0.42924384  0.81693307  0.43375184  1
  O2-  O173  1  0.43050619  0.82217078  0.76371170  1
  O2-  O174  1  0.92774255  0.31826867  0.09900545  1
  O2-  O175  1  0.93090353  0.32478278  0.42302039  1
  O2-  O176  1  0.93191907  0.31698348  0.76356481  1
  O2-  O177  1  0.92985808  0.81914288  0.10074723  1
  O2-  O178  1  0.92593166  0.81810758  0.42444854  1
  O2-  O179  1  0.92935785  0.82011784  0.76324899  1
  O2-  O180  1  0.31578526  0.07205750  0.23465514  1
  O2-  O181  1  0.31993580  0.06893852  0.57713226  1
  O2-  O182  1  0.32385951  0.07421710  0.90910081  1
  O2-  O183  1  0.31978584  0.57178776  0.23372268  1
  O2-  O184  1  0.32017335  0.57324866  0.57021513  1
  O2-  O185  1  0.31966626  0.56996339  0.90375250  1
  O2-  O186  1  0.82395783  0.07520378  0.24459877  1
  O2-  O187  1  0.82695950  0.06947193  0.57781850  1
  O2-  O188  1  0.81670258  0.07731205  0.91117178  1
  O2-  O189  1  0.82504677  0.56871433  0.24203018  1
  O2-  O190  1  0.81841472  0.56902663  0.56809186  1
  O2-  O191  1  0.82109971  0.57079243  0.91221550  1
  O2-  O192  1  0.03905803  0.08698095  0.27022816  1
  O2-  O193  1  0.04680883  0.08483254  0.59898124  1
  O2-  O194  1  0.04486491  0.08278810  0.92817464  1
  O2-  O195  1  0.03731653  0.59119595  0.26756324  1
  O2-  O196  1  0.04817518  0.58460137  0.60259831  1
  O2-  O197  1  0.05166596  0.57858054  0.93496283  1
  O2-  O198  1  0.54352606  0.07988634  0.26247034  1
  O2-  O199  1  0.53271719  0.08694107  0.59833479  1
  O2-  O200  1  0.53999410  0.08887429  0.93805227  1
  O2-  O201  1  0.55314236  0.58264294  0.27385818  1
  O2-  O202  1  0.55008693  0.57966798  0.60756256  1
  O2-  O203  1  0.54295399  0.57760016  0.93320942  1
  O2-  O204  1  0.16131795  0.20329927  0.27088233  1
  O2-  O205  1  0.17082893  0.19976348  0.60215089  1
  O2-  O206  1  0.17243643  0.20515802  0.93121286  1
  O2-  O207  1  0.16151519  0.70587072  0.27300101  1
  O2-  O208  1  0.16342244  0.70885907  0.60022674  1
  O2-  O209  1  0.16796507  0.71278652  0.92891127  1
  O2-  O210  1  0.66888320  0.20944288  0.26050946  1
  O2-  O211  1  0.66908833  0.20241839  0.59858392  1
  O2-  O212  1  0.66122130  0.20732402  0.93891573  1
  O2-  O213  1  0.66806880  0.70473993  0.27217384  1
  O2-  O214  1  0.66459451  0.70291657  0.60328097  1
  O2-  O215  1  0.67059948  0.69915673  0.93507989  1
  O2-  O216  1  0.08166574  0.44751499  0.06084867  1
  O2-  O217  1  0.08514126  0.46340856  0.39620903  1
  O2-  O218  1  0.08215520  0.45493741  0.73440570  1
  O2-  O219  1  0.08549092  0.95886106  0.05828009  1
  O2-  O220  1  0.07817344  0.95902103  0.40167325  1
  O2-  O221  1  0.08510287  0.95913875  0.72979200  1
  O2-  O222  1  0.58823301  0.45498358  0.06603413  1
  O2-  O223  1  0.59029115  0.45387521  0.39525907  1
  O2-  O224  1  0.58139363  0.44809363  0.73602018  1
  O2-  O225  1  0.58423583  0.96381458  0.06908666  1
  O2-  O226  1  0.58238569  0.95905421  0.39995243  1
  O2-  O227  1  0.58265382  0.96702259  0.73444621  1
  O2-  O228  1  0.20639838  0.33353425  0.06428557  1
  O2-  O229  1  0.19038472  0.33284807  0.39146677  1
  O2-  O230  1  0.20573353  0.32749497  0.73452190  1
  O2-  O231  1  0.20579378  0.84050659  0.05941812  1
  O2-  O232  1  0.20019074  0.82950795  0.40281223  1
  O2-  O233  1  0.20381468  0.83822757  0.72925777  1
  O2-  O234  1  0.70838977  0.33496242  0.06695896  1
  O2-  O235  1  0.71043321  0.33594310  0.39269735  1
  O2-  O236  1  0.71162530  0.32609763  0.73173973  1
  O2-  O237  1  0.70788644  0.82996361  0.06942991  1
  O2-  O238  1  0.71285018  0.83389156  0.40344020  1
  O2-  O239  1  0.70599807  0.83381544  0.73264170  1
  O2-  O240  1  0.46184519  0.41993495  0.26479580  1
  O2-  O241  1  0.44791786  0.41955987  0.61259775  1
  O2-  O242  1  0.45815075  0.41312806  0.93875826  1
  O2-  O243  1  0.45637051  0.91591260  0.26790280  1
  O2-  O244  1  0.46246687  0.91495342  0.59709754  1
  O2-  O245  1  0.45844951  0.92212825  0.93331265  1
  O2-  O246  1  0.95883732  0.41439546  0.26981981  1
  O2-  O247  1  0.96187456  0.41842457  0.59729362  1
  O2-  O248  1  0.95024338  0.41999686  0.93254669  1
  O2-  O249  1  0.94811476  0.91608106  0.27500662  1
  O2-  O250  1  0.95891214  0.91689091  0.59626083  1
  O2-  O251  1  0.95230743  0.91887632  0.93283647  1
  O2-  O252  1  0.32630869  0.29965085  0.26772958  1
  O2-  O253  1  0.33682561  0.29169842  0.60576528  1
  O2-  O254  1  0.33829901  0.29470217  0.93723454  1
  O2-  O255  1  0.32949275  0.78889458  0.26939540  1
  O2-  O256  1  0.33006660  0.79310792  0.59828099  1
  O2-  O257  1  0.33210468  0.79653271  0.93299446  1
  O2-  O258  1  0.83905066  0.29652189  0.26957918  1
  O2-  O259  1  0.83802850  0.28753503  0.59422247  1
  O2-  O260  1  0.82964982  0.28874032  0.93231066  1
  O2-  O261  1  0.83715750  0.78782664  0.27176918  1
  O2-  O262  1  0.82994246  0.78891311  0.59713855  1
  O2-  O263  1  0.82912388  0.79024360  0.93561733  1
  O2-  O264  1  0.41233290  0.04480231  0.06373918  1
  O2-  O265  1  0.42012043  0.04759564  0.39932891  1
  O2-  O266  1  0.41103589  0.03848397  0.73018303  1
  O2-  O267  1  0.41625049  0.53820131  0.06995010  1
  O2-  O268  1  0.42048163  0.54341663  0.40073940  1
  O2-  O269  1  0.42059303  0.54994980  0.73825815  1
  O2-  O270  1  0.91771100  0.05172405  0.05868548  1
  O2-  O271  1  0.91396890  0.05021001  0.39837412  1
  O2-  O272  1  0.91982089  0.04704800  0.72880707  1
  O2-  O273  1  0.91499588  0.54232673  0.06389661  1
  O2-  O274  1  0.91391257  0.54143445  0.39557306  1
  O2-  O275  1  0.92014040  0.54583963  0.73282862  1
  O2-  O276  1  0.29546855  0.16560492  0.06209006  1
  O2-  O277  1  0.28914836  0.17061713  0.40217351  1
  O2-  O278  1  0.29574852  0.16067405  0.73079240  1
  O2-  O279  1  0.28769725  0.66988728  0.06758991  1
  O2-  O280  1  0.28555880  0.66287241  0.40295388  1
  O2-  O281  1  0.28840205  0.67205390  0.73549582  1
  O2-  O282  1  0.79096527  0.16375598  0.06612193  1
  O2-  O283  1  0.79719114  0.16985798  0.39469707  1
  O2-  O284  1  0.79922687  0.16450848  0.72780641  1
  O2-  O285  1  0.79348394  0.65989120  0.06755744  1
  O2-  O286  1  0.79543586  0.66078245  0.39579569  1
  O2-  O287  1  0.79123296  0.66875331  0.73562481  1
