# generated using pymatgen
data_Ca2Al2SiO7
_symmetry_space_group_name_H-M   'P 1'
_cell_length_a   15.46590970
_cell_length_b   15.46452205
_cell_length_c   15.28782434
_cell_angle_alpha   89.99969924
_cell_angle_beta   90.01419637
_cell_angle_gamma   89.98599160
_symmetry_Int_Tables_number   1
_chemical_formula_structural   Ca2Al2SiO7
_chemical_formula_sum   'Ca48 Al48 Si24 O168'
_cell_volume   3656.43308658
_cell_formula_units_Z   24
loop_
 _symmetry_equiv_pos_site_id
 _symmetry_equiv_pos_as_xyz
  1  'x, y, z'
loop_
 _atom_type_symbol
 _atom_type_oxidation_number
  Ca2+  2.0
  Al0+  0.0
  Si0+  0.0
  O2-  -2.0
loop_
 _atom_site_type_symbol
 _atom_site_label
 _atom_site_symmetry_multiplicity
 _atom_site_fract_x
 _atom_site_fract_y
 _atom_site_fract_z
 _atom_site_occupancy
  Ca2+  Ca0  1  0.16626153  0.08175827  0.16359189  1
  Ca2+  Ca1  1  0.16647537  0.08321597  0.50603101  1
  Ca2+  Ca2  1  0.16611979  0.08112417  0.84611381  1
  Ca2+  Ca3  1  0.16894318  0.58846295  0.17278488  1
  Ca2+  Ca4  1  0.15406786  0.57160245  0.49911465  1
  Ca2+  Ca5  1  0.17060771  0.58011280  0.84319331  1
  Ca2+  Ca6  1  0.66482517  0.08088982  0.17320424  1
  Ca2+  Ca7  1  0.67459930  0.08607103  0.49650552  1
  Ca2+  Ca8  1  0.66832010  0.07417900  0.84536173  1
  Ca2+  Ca9  1  0.67049020  0.57311639  0.16965973  1
  Ca2+  Ca10  1  0.65969991  0.58239086  0.50118141  1
  Ca2+  Ca11  1  0.67212838  0.58289729  0.84593289  1
  Ca2+  Ca12  1  0.07855669  0.33305465  0.16288809  1
  Ca2+  Ca13  1  0.08321550  0.33196039  0.49317638  1
  Ca2+  Ca14  1  0.09332213  0.32195027  0.83062711  1
  Ca2+  Ca15  1  0.07464486  0.82757886  0.15888503  1
  Ca2+  Ca16  1  0.07377625  0.82758668  0.49085327  1
  Ca2+  Ca17  1  0.07515899  0.83301652  0.83561472  1
  Ca2+  Ca18  1  0.58721536  0.32580548  0.15793602  1
  Ca2+  Ca19  1  0.58460643  0.32874423  0.48834309  1
  Ca2+  Ca20  1  0.57841668  0.33772441  0.83951096  1
  Ca2+  Ca21  1  0.58103315  0.83239415  0.16462147  1
  Ca2+  Ca22  1  0.57789533  0.82009886  0.49116623  1
  Ca2+  Ca23  1  0.58534347  0.82837361  0.82994287  1
  Ca2+  Ca24  1  0.32940715  0.41853680  0.16690795  1
  Ca2+  Ca25  1  0.32016006  0.41715936  0.50249035  1
  Ca2+  Ca26  1  0.33096008  0.42072242  0.84165658  1
  Ca2+  Ca27  1  0.33021128  0.91824486  0.16889094  1
  Ca2+  Ca28  1  0.33626250  0.91487549  0.49926439  1
  Ca2+  Ca29  1  0.32442001  0.92593907  0.84926817  1
  Ca2+  Ca30  1  0.82639170  0.41536114  0.17328515  1
  Ca2+  Ca31  1  0.83009262  0.41456134  0.49676941  1
  Ca2+  Ca32  1  0.82506625  0.42683560  0.84428031  1
  Ca2+  Ca33  1  0.83496542  0.91984982  0.16873599  1
  Ca2+  Ca34  1  0.84341159  0.91995881  0.50019368  1
  Ca2+  Ca35  1  0.83065989  0.91053711  0.84254049  1
  Ca2+  Ca36  1  0.42604390  0.17202667  0.15654856  1
  Ca2+  Ca37  1  0.42560152  0.16909464  0.49199295  1
  Ca2+  Ca38  1  0.41713829  0.16813460  0.83979550  1
  Ca2+  Ca39  1  0.41865750  0.66623124  0.16512815  1
  Ca2+  Ca40  1  0.42656818  0.66879466  0.49217110  1
  Ca2+  Ca41  1  0.42157110  0.66236817  0.83299340  1
  Ca2+  Ca42  1  0.91480837  0.17194341  0.16383880  1
  Ca2+  Ca43  1  0.92129240  0.17146427  0.49143413  1
  Ca2+  Ca44  1  0.92979737  0.16553772  0.83238764  1
  Ca2+  Ca45  1  0.92598560  0.66981111  0.15857600  1
  Ca2+  Ca46  1  0.91911211  0.67916414  0.49062386  1
  Ca2+  Ca47  1  0.91382440  0.67484686  0.83574718  1
  Al0+  Al48  1  -0.00125685  -0.00001538  -0.00304375  1
  Al0+  Al49  1  0.00193674  0.00032151  0.33579155  1
  Al0+  Al50  1  0.00158888  0.00228552  0.65997861  1
  Al0+  Al51  1  0.00019955  0.50112011  -0.00300264  1
  Al0+  Al52  1  -0.00143135  0.49859871  0.33114080  1
  Al0+  Al53  1  -0.00288315  0.49834579  0.67455143  1
  Al0+  Al54  1  0.50004703  0.00062305  0.00306211  1
  Al0+  Al55  1  0.50068553  -0.00002077  0.33014769  1
  Al0+  Al56  1  0.50143279  0.00096046  0.66680504  1
  Al0+  Al57  1  0.49842527  0.49885490  0.00410107  1
  Al0+  Al58  1  0.49795628  0.49946656  0.33546928  1
  Al0+  Al59  1  0.49846725  0.49814132  0.66198909  1
  Al0+  Al60  1  0.25202217  0.25102775  -0.00281812  1
  Al0+  Al61  1  0.25184572  0.24931377  0.33870478  1
  Al0+  Al62  1  0.25154988  0.24949082  0.66571990  1
  Al0+  Al63  1  0.24921845  0.74961012  0.00324974  1
  Al0+  Al64  1  0.25119474  0.75141744  0.33164990  1
  Al0+  Al65  1  0.24945446  0.74985789  0.66660301  1
  Al0+  Al66  1  0.74990225  0.24855147  -0.00556098  1
  Al0+  Al67  1  0.75201976  0.24861426  0.33524958  1
  Al0+  Al68  1  0.75088376  0.24929210  0.67033261  1
  Al0+  Al69  1  0.75022400  0.75026695  0.00716492  1
  Al0+  Al70  1  0.74831222  0.75051343  0.32652637  1
  Al0+  Al71  1  0.74945754  0.75047887  0.65679461  1
  Al0+  Al72  1  0.06919874  0.67786775  0.31990036  1
  Al0+  Al73  1  0.67820885  0.92859547  0.01356113  1
  Al0+  Al74  1  0.57295395  0.17650887  0.98309952  1
  Al0+  Al75  1  0.43027724  0.32223122  0.98487147  1
  Al0+  Al76  1  0.57094043  0.67491553  0.31428136  1
  Al0+  Al77  1  0.92809528  0.81971105  0.98512898  1
  Al0+  Al78  1  0.07175842  0.18211163  0.65153698  1
  Al0+  Al79  1  0.92867862  0.82482942  0.31631818  1
  Al0+  Al80  1  0.82162014  0.06893080  0.34685297  1
  Al0+  Al81  1  0.17814224  0.42894162  0.68192693  1
  Al0+  Al82  1  0.57177774  0.18165960  0.32115149  1
  Al0+  Al83  1  0.32025680  0.57140179  0.01398761  1
  Al0+  Al84  1  0.17813541  0.42921467  0.34563207  1
  Al0+  Al85  1  0.56934169  0.67882192  0.65521969  1
  Al0+  Al86  1  0.93047568  0.31897365  0.32087193  1
  Al0+  Al87  1  0.32045923  0.07317147  0.01665952  1
  Al0+  Al88  1  0.06933572  0.18194310  0.98901793  1
  Al0+  Al89  1  0.17657247  0.92956456  0.01579977  1
  Al0+  Al90  1  0.42951749  0.82120468  0.31708742  1
  Al0+  Al91  1  0.82308108  0.57194112  0.01627710  1
  Al0+  Al92  1  0.07395988  0.67729740  0.98310689  1
  Al0+  Al93  1  0.93042710  0.82004548  0.65188961  1
  Al0+  Al94  1  0.67981750  0.42826674  0.01428261  1
  Al0+  Al95  1  0.67911526  0.42942315  0.34749610  1
  Si0+  Si96  1  0.81774248  0.57325463  0.68010860  1
  Si0+  Si97  1  0.92602902  0.32404574  0.98133593  1
  Si0+  Si98  1  0.07569762  0.17794846  0.31734767  1
  Si0+  Si99  1  0.17822042  0.92939489  0.68046389  1
  Si0+  Si100  1  0.56891865  0.68011701  0.98754728  1
  Si0+  Si101  1  0.32298428  0.57123905  0.68221564  1
  Si0+  Si102  1  0.17798521  0.42742058  0.01553137  1
  Si0+  Si103  1  0.18039185  0.92900652  0.35066917  1
  Si0+  Si104  1  0.82271979  0.07115308  0.68267290  1
  Si0+  Si105  1  0.82224105  0.07183313  0.01414879  1
  Si0+  Si106  1  0.43044556  0.31980038  0.64940816  1
  Si0+  Si107  1  0.67613846  0.92730415  0.35213475  1
  Si0+  Si108  1  0.67720439  0.42759582  0.68135900  1
  Si0+  Si109  1  0.32062981  0.57424099  0.35246196  1
  Si0+  Si110  1  0.68095019  0.92951080  0.67903514  1
  Si0+  Si111  1  0.42700956  0.82447124  0.65303406  1
  Si0+  Si112  1  0.82113382  0.57269494  0.35063686  1
  Si0+  Si113  1  0.42814484  0.82204308  0.98530608  1
  Si0+  Si114  1  0.07319483  0.67531617  0.65142194  1
  Si0+  Si115  1  0.32307016  0.06960290  0.68155816  1
  Si0+  Si116  1  0.32251828  0.07039020  0.35040125  1
  Si0+  Si117  1  0.57259058  0.17752644  0.65097469  1
  Si0+  Si118  1  0.42585832  0.32104066  0.31817799  1
  Si0+  Si119  1  0.92563707  0.32238555  0.65057199  1
  O2-  O120  1  0.24927741  0.00073340  0.06677528  1
  O2-  O121  1  0.25148855  0.00009310  0.39426166  1
  O2-  O122  1  0.25317039  -0.00317309  0.72201941  1
  O2-  O123  1  0.24074433  0.50122608  0.05942810  1
  O2-  O124  1  0.24965800  0.50658001  0.39507219  1
  O2-  O125  1  0.25002116  0.50747594  0.72661250  1
  O2-  O126  1  0.74969174  0.00734498  0.05746947  1
  O2-  O127  1  0.74977089  -0.00851736  0.39634331  1
  O2-  O128  1  0.75237820  -0.00105403  0.72355194  1
  O2-  O129  1  0.75595301  0.49479288  0.06473977  1
  O2-  O130  1  0.74896703  0.50791007  0.39717898  1
  O2-  O131  1  0.74631004  0.50128812  0.72149969  1
  O2-  O132  1  0.00704395  0.24640366  0.27435242  1
  O2-  O133  1  -0.00195430  0.25785713  0.60586763  1
  O2-  O134  1  -0.00220534  0.25780185  0.93814242  1
  O2-  O135  1  -0.00281321  0.74882474  0.26917730  1
  O2-  O136  1  0.00629441  0.74547596  0.60713833  1
  O2-  O137  1  0.00013951  0.74816685  0.93385691  1
  O2-  O138  1  0.49986229  0.25845345  0.27525875  1
  O2-  O139  1  0.50389709  0.25052604  0.60823347  1
  O2-  O140  1  0.50192299  0.24998863  0.93315011  1
  O2-  O141  1  0.50013261  0.74894459  0.26605088  1
  O2-  O142  1  0.49225831  0.75217528  0.61025005  1
  O2-  O143  1  0.49954457  0.75158107  0.94245529  1
  O2-  O144  1  0.06741671  0.18343702  0.10200008  1
  O2-  O145  1  0.07560426  0.17941862  0.42356360  1
  O2-  O146  1  0.07107809  0.18013497  0.76441788  1
  O2-  O147  1  0.07427946  0.67905412  0.09623000  1
  O2-  O148  1  0.06670892  0.67912782  0.43468024  1
  O2-  O149  1  0.07492272  0.67703338  0.75634942  1
  O2-  O150  1  0.57245242  0.17751451  0.09648688  1
  O2-  O151  1  0.56938345  0.18220268  0.43556137  1
  O2-  O152  1  0.57137125  0.17383010  0.75512889  1
  O2-  O153  1  0.56640735  0.68026782  0.09181465  1
  O2-  O154  1  0.56731315  0.67615343  0.42899515  1
  O2-  O155  1  0.57018404  0.68045400  0.76861148  1
  O2-  O156  1  0.18195130  0.42510388  0.23333113  1
  O2-  O157  1  0.17936663  0.42895374  0.56862000  1
  O2-  O158  1  0.18238757  0.42635724  0.90944649  1
  O2-  O159  1  0.17983818  0.93066459  0.24643682  1
  O2-  O160  1  0.17941289  0.93070467  0.57510206  1
  O2-  O161  1  0.17858186  0.93205893  0.90092989  1
  O2-  O162  1  0.68201067  0.42646700  0.23542270  1
  O2-  O163  1  0.67790301  0.42501709  0.57633307  1
  O2-  O164  1  0.67887914  0.43392973  0.89943667  1
  O2-  O165  1  0.67214652  0.93200687  0.24715337  1
  O2-  O166  1  0.67900371  0.93220872  0.57441097  1
  O2-  O167  1  0.67956215  0.92664251  0.89901355  1
  O2-  O168  1  0.43005476  0.32157711  0.09814405  1
  O2-  O169  1  0.42444386  0.31644063  0.42471046  1
  O2-  O170  1  0.43084883  0.32160036  0.75393072  1
  O2-  O171  1  0.42905329  0.82178940  0.08980783  1
  O2-  O172  1  0.43126813  0.82061595  0.43202395  1
  O2-  O173  1  0.42825023  0.82818241  0.75828038  1
  O2-  O174  1  0.92473444  0.32178248  0.08685629  1
  O2-  O175  1  0.93122597  0.31769281  0.43459928  1
  O2-  O176  1  0.92171727  0.31889740  0.75563758  1
  O2-  O177  1  0.92920039  0.82062800  0.09776117  1
  O2-  O178  1  0.93378988  0.82424355  0.43093058  1
  O2-  O179  1  0.92726219  0.81921986  0.76433906  1
  O2-  O180  1  0.32149232  0.07250590  0.24631254  1
  O2-  O181  1  0.32537294  0.06863112  0.57609424  1
  O2-  O182  1  0.31890427  0.07035500  0.90186809  1
  O2-  O183  1  0.32113728  0.57361596  0.24722215  1
  O2-  O184  1  0.32625916  0.56870770  0.57700534  1
  O2-  O185  1  0.32261420  0.56931613  0.90001670  1
  O2-  O186  1  0.82017957  0.07030621  0.23427755  1
  O2-  O187  1  0.82102084  0.07332206  0.57766857  1
  O2-  O188  1  0.82288351  0.06947426  0.90777571  1
  O2-  O189  1  0.82256688  0.56785741  0.24586518  1
  O2-  O190  1  0.81833705  0.57307675  0.57517790  1
  O2-  O191  1  0.81662960  0.57330759  0.90127965  1
  O2-  O192  1  0.05094175  0.08397385  0.27434747  1
  O2-  O193  1  0.04076438  0.08683303  0.59510202  1
  O2-  O194  1  0.03706451  0.08679308  0.93228582  1
  O2-  O195  1  0.04464822  0.57931383  0.26728484  1
  O2-  O196  1  0.04377960  0.58092615  0.60886353  1
  O2-  O197  1  0.04799297  0.57810862  0.92926269  1
  O2-  O198  1  0.54006864  0.08585978  0.26894869  1
  O2-  O199  1  0.54274144  0.08673949  0.60182816  1
  O2-  O200  1  0.54107039  0.07840171  0.92980817  1
  O2-  O201  1  0.54019448  0.57621835  0.26440987  1
  O2-  O202  1  0.54008138  0.58215125  0.59963471  1
  O2-  O203  1  0.53924051  0.58905398  0.93975600  1
  O2-  O204  1  0.16994917  0.20296713  0.27385180  1
  O2-  O205  1  0.16965764  0.20969142  0.59768693  1
  O2-  O206  1  0.16600814  0.21058671  0.93336882  1
  O2-  O207  1  0.16877694  0.70565865  0.27144899  1
  O2-  O208  1  0.16809855  0.69750719  0.60524042  1
  O2-  O209  1  0.17256651  0.70709998  0.93007820  1
  O2-  O210  1  0.66846758  0.20921154  0.26880022  1
  O2-  O211  1  0.66582337  0.20514828  0.60605532  1
  O2-  O212  1  0.67132949  0.20170766  0.92745910  1
  O2-  O213  1  0.67000001  0.69967065  0.26353709  1
  O2-  O214  1  0.66246158  0.71087788  0.59597220  1
  O2-  O215  1  0.66110379  0.70840357  0.94152769  1
  O2-  O216  1  0.08120000  0.44509710  0.05648022  1
  O2-  O217  1  0.08081186  0.45769387  0.40126200  1
  O2-  O218  1  0.07981352  0.45182301  0.73651054  1
  O2-  O219  1  0.07895688  0.96108914  0.06739864  1
  O2-  O220  1  0.08991087  0.95815342  0.40067046  1
  O2-  O221  1  0.08764182  0.96223777  0.72667119  1
  O2-  O222  1  0.58314753  0.45860456  0.06719969  1
  O2-  O223  1  0.58001460  0.45484443  0.40175275  1
  O2-  O224  1  0.58351679  0.45321093  0.72570753  1
  O2-  O225  1  0.58185023  0.95661127  0.06806966  1
  O2-  O226  1  0.58442409  0.95870218  0.40043698  1
  O2-  O227  1  0.58897963  0.95753006  0.72728963  1
  O2-  O228  1  0.20891891  0.33646923  0.06249630  1
  O2-  O229  1  0.21248937  0.33388090  0.40329058  1
  O2-  O230  1  0.21513720  0.33283791  0.73354392  1
  O2-  O231  1  0.20544836  0.83191150  0.06760561  1
  O2-  O232  1  0.20935488  0.83777891  0.39971521  1
  O2-  O233  1  0.20037808  0.83523515  0.72628880  1
  O2-  O234  1  0.70443448  0.32670178  0.06142839  1
  O2-  O235  1  0.71481435  0.33463708  0.40370450  1
  O2-  O236  1  0.70622315  0.33663894  0.73015218  1
  O2-  O237  1  0.70876291  0.83470920  0.07077269  1
  O2-  O238  1  0.69633220  0.83059233  0.39449527  1
  O2-  O239  1  0.70779860  0.83628961  0.72405734  1
  O2-  O240  1  0.44307984  0.41732996  0.27733909  1
  O2-  O241  1  0.45545605  0.41113747  0.59963740  1
  O2-  O242  1  0.46141144  0.41986310  0.92941277  1
  O2-  O243  1  0.45702142  0.91955762  0.26500989  1
  O2-  O244  1  0.45639713  0.91638602  0.60439792  1
  O2-  O245  1  0.45588514  0.91350319  0.93730920  1
  O2-  O246  1  0.95782710  0.41480110  0.26573746  1
  O2-  O247  1  0.94684191  0.41849580  0.60798993  1
  O2-  O248  1  0.94789953  0.41834688  0.93551481  1
  O2-  O249  1  0.96165298  0.92239084  0.26579681  1
  O2-  O250  1  0.96185095  0.91657019  0.59809452  1
  O2-  O251  1  0.95592508  0.91793858  0.93052287  1
  O2-  O252  1  0.33511970  0.28877037  0.27145914  1
  O2-  O253  1  0.34023666  0.28817330  0.60126141  1
  O2-  O254  1  0.33324853  0.29309484  0.92882514  1
  O2-  O255  1  0.33037617  0.79674991  0.26569848  1
  O2-  O256  1  0.33213885  0.80272068  0.60685452  1
  O2-  O257  1  0.33698488  0.79379881  0.93732021  1
  O2-  O258  1  0.83621128  0.28417102  0.26661314  1
  O2-  O259  1  0.83308015  0.29227314  0.60332540  1
  O2-  O260  1  0.83459914  0.29614164  0.93184901  1
  O2-  O261  1  0.82675759  0.80652343  0.26953133  1
  O2-  O262  1  0.83511683  0.79033745  0.59461393  1
  O2-  O263  1  0.82871332  0.78881294  0.93317543  1
  O2-  O264  1  0.41870140  0.04504979  0.06792189  1
  O2-  O265  1  0.41402244  0.04081980  0.39906495  1
  O2-  O266  1  0.41523926  0.04333594  0.72969534  1
  O2-  O267  1  0.41380386  0.53664941  0.07023837  1
  O2-  O268  1  0.41285437  0.54511289  0.40028420  1
  O2-  O269  1  0.41516002  0.54004974  0.72928470  1
  O2-  O270  1  0.91357929  0.04375749  0.06188275  1
  O2-  O271  1  0.91946269  0.04178199  0.40332022  1
  O2-  O272  1  0.91606782  0.04427296  0.72696302  1
  O2-  O273  1  0.92425675  0.54903875  0.06466284  1
  O2-  O274  1  0.91295041  0.54259447  0.39858665  1
  O2-  O275  1  0.90853217  0.54693059  0.73045695  1
  O2-  O276  1  0.29245505  0.17183746  0.06785160  1
  O2-  O277  1  0.29537262  0.16128955  0.40146437  1
  O2-  O278  1  0.29496045  0.16158662  0.72709107  1
  O2-  O279  1  0.29508139  0.66839386  0.06864267  1
  O2-  O280  1  0.29857845  0.66885814  0.39875473  1
  O2-  O281  1  0.30406303  0.66798744  0.72578363  1
  O2-  O282  1  0.80162572  0.16749173  0.05702387  1
  O2-  O283  1  0.78780497  0.16325060  0.40502521  1
  O2-  O284  1  0.79414126  0.16208804  0.73156718  1
  O2-  O285  1  0.79081439  0.66682319  0.07124288  1
  O2-  O286  1  0.79848089  0.66901268  0.39349660  1
  O2-  O287  1  0.78701367  0.66499158  0.72604996  1
