# generated using pymatgen
data_Ca2Al2SiO7
_symmetry_space_group_name_H-M   'P 1'
_cell_length_a   15.46338369
_cell_length_b   15.46152443
_cell_length_c   15.28567920
_cell_angle_alpha   90.01887297
_cell_angle_beta   89.98306391
_cell_angle_gamma   89.99830393
_symmetry_Int_Tables_number   1
_chemical_formula_structural   Ca2Al2SiO7
_chemical_formula_sum   'Ca48 Al48 Si24 O168'
_cell_volume   3654.61423280
_cell_formula_units_Z   24
loop_
 _symmetry_equiv_pos_site_id
 _symmetry_equiv_pos_as_xyz
  1  'x, y, z'
loop_
 _atom_type_symbol
 _atom_type_oxidation_number
  Ca2+  2.0
  Al0+  0.0
  Si0+  0.0
  O2-  -2.0
loop_
 _atom_site_type_symbol
 _atom_site_label
 _atom_site_symmetry_multiplicity
 _atom_site_fract_x
 _atom_site_fract_y
 _atom_site_fract_z
 _atom_site_occupancy
  Ca2+  Ca0  1  0.16836276  0.07903896  0.16972447  1
  Ca2+  Ca1  1  0.17849617  0.08632674  0.50721713  1
  Ca2+  Ca2  1  0.16587158  0.08438255  0.83686204  1
  Ca2+  Ca3  1  0.16032690  0.56990047  0.16880769  1
  Ca2+  Ca4  1  0.16528329  0.57694732  0.49902258  1
  Ca2+  Ca5  1  0.16780476  0.57703727  0.83945748  1
  Ca2+  Ca6  1  0.67446509  0.08452439  0.17623311  1
  Ca2+  Ca7  1  0.67030569  0.08680075  0.49646175  1
  Ca2+  Ca8  1  0.66909186  0.08072142  0.83533027  1
  Ca2+  Ca9  1  0.67629423  0.57302490  0.17081028  1
  Ca2+  Ca10  1  0.67373919  0.57717855  0.50612372  1
  Ca2+  Ca11  1  0.67618927  0.57186227  0.83857562  1
  Ca2+  Ca12  1  0.08038890  0.32990405  0.15647458  1
  Ca2+  Ca13  1  0.07993706  0.33084934  0.49945063  1
  Ca2+  Ca14  1  0.07765169  0.32986125  0.82876453  1
  Ca2+  Ca15  1  0.07353408  0.83479717  0.15899861  1
  Ca2+  Ca16  1  0.07290734  0.82984598  0.49635195  1
  Ca2+  Ca17  1  0.07556987  0.83484261  0.83185753  1
  Ca2+  Ca18  1  0.59391880  0.33050283  0.16603979  1
  Ca2+  Ca19  1  0.58169018  0.33580042  0.49509840  1
  Ca2+  Ca20  1  0.58105307  0.33964405  0.82701376  1
  Ca2+  Ca21  1  0.57118200  0.83518764  0.16278971  1
  Ca2+  Ca22  1  0.57346252  0.83555672  0.49516393  1
  Ca2+  Ca23  1  0.57200972  0.83226382  0.82829930  1
  Ca2+  Ca24  1  0.31813370  0.41165401  0.17065867  1
  Ca2+  Ca25  1  0.32760870  0.40828797  0.50462348  1
  Ca2+  Ca26  1  0.32833811  0.41278908  0.83855586  1
  Ca2+  Ca27  1  0.32928404  0.91693632  0.17149904  1
  Ca2+  Ca28  1  0.34140463  0.92651343  0.50513166  1
  Ca2+  Ca29  1  0.32936311  0.92020999  0.83943006  1
  Ca2+  Ca30  1  0.83245402  0.42514818  0.17426492  1
  Ca2+  Ca31  1  0.82392837  0.42427975  0.50982201  1
  Ca2+  Ca32  1  0.83439661  0.42169238  0.84073631  1
  Ca2+  Ca33  1  0.83933837  0.92190371  0.17443786  1
  Ca2+  Ca34  1  0.84167927  0.92021314  0.50278467  1
  Ca2+  Ca35  1  0.83904444  0.91432680  0.83769458  1
  Ca2+  Ca36  1  0.42284467  0.16168139  0.16928569  1
  Ca2+  Ca37  1  0.42042576  0.16612891  0.49569167  1
  Ca2+  Ca38  1  0.41721882  0.17225380  0.82442377  1
  Ca2+  Ca39  1  0.41521942  0.67679966  0.16067498  1
  Ca2+  Ca40  1  0.41567642  0.67890840  0.49302771  1
  Ca2+  Ca41  1  0.41341637  0.67838671  0.82658975  1
  Ca2+  Ca42  1  0.92125405  0.17296276  0.15679181  1
  Ca2+  Ca43  1  0.91916045  0.17022431  0.49752812  1
  Ca2+  Ca44  1  0.92892663  0.17984749  0.82961955  1
  Ca2+  Ca45  1  0.90575428  0.67403802  0.16404685  1
  Ca2+  Ca46  1  0.90431419  0.67339983  0.49755346  1
  Ca2+  Ca47  1  0.90743014  0.67209170  0.83041464  1
  Al0+  Al48  1  0.00233130  -0.00031578  -0.00362380  1
  Al0+  Al49  1  0.00117193  -0.00045508  0.33477654  1
  Al0+  Al50  1  0.00233300  -0.00124241  0.66006119  1
  Al0+  Al51  1  0.00033187  0.50255552  0.00532125  1
  Al0+  Al52  1  -0.00008817  0.50041737  0.34321070  1
  Al0+  Al53  1  0.00050949  0.50046582  0.66737031  1
  Al0+  Al54  1  0.50055137  0.00067705  -0.00462802  1
  Al0+  Al55  1  0.49994111  0.00205075  0.32776305  1
  Al0+  Al56  1  0.49995640  0.00155324  0.66889580  1
  Al0+  Al57  1  0.50223658  0.50017287  0.00498164  1
  Al0+  Al58  1  0.49684788  0.50098573  0.33279545  1
  Al0+  Al59  1  0.49952972  0.50111046  0.66523620  1
  Al0+  Al60  1  0.25401108  0.24847608  0.00201226  1
  Al0+  Al61  1  0.25006971  0.24793377  0.34047321  1
  Al0+  Al62  1  0.25286622  0.24853523  0.66484044  1
  Al0+  Al63  1  0.24842193  0.75306094  -0.00052339  1
  Al0+  Al64  1  0.24633150  0.74827724  0.32799320  1
  Al0+  Al65  1  0.24776926  0.75148597  0.66114641  1
  Al0+  Al66  1  0.75072045  0.24791543  -0.00323797  1
  Al0+  Al67  1  0.74988182  0.24888008  0.33734702  1
  Al0+  Al68  1  0.75050721  0.24780127  0.66845883  1
  Al0+  Al69  1  0.74606046  0.74960993  -0.00042911  1
  Al0+  Al70  1  0.74638861  0.75054108  0.33088631  1
  Al0+  Al71  1  0.74818651  0.75008470  0.66659224  1
  Al0+  Al72  1  0.17981822  0.42785492  0.34938163  1
  Al0+  Al73  1  0.42781489  0.82226734  0.65221889  1
  Al0+  Al74  1  0.57113472  0.18240556  0.31957444  1
  Al0+  Al75  1  0.32140889  0.07040723  0.68240474  1
  Al0+  Al76  1  0.92910107  0.32357531  0.98770265  1
  Al0+  Al77  1  0.67917363  0.42571405  0.01669019  1
  Al0+  Al78  1  0.07451224  0.17907088  0.98666677  1
  Al0+  Al79  1  0.92814657  0.81857799  0.65295880  1
  Al0+  Al80  1  0.42805397  0.82144229  0.31809305  1
  Al0+  Al81  1  0.07198958  0.17955551  0.64959245  1
  Al0+  Al82  1  0.43141636  0.32193065  0.65407410  1
  Al0+  Al83  1  0.92880305  0.82035255  0.31915112  1
  Al0+  Al84  1  0.42770416  0.82102318  0.98430475  1
  Al0+  Al85  1  0.67757608  0.42698107  0.68264831  1
  Al0+  Al86  1  0.92795703  0.32271907  0.65041337  1
  Al0+  Al87  1  0.81956197  0.57326645  0.35085971  1
  Al0+  Al88  1  0.82162173  0.57170867  0.68413375  1
  Al0+  Al89  1  0.18058518  0.42824942  0.01156631  1
  Al0+  Al90  1  0.92756267  0.81976742  0.98714702  1
  Al0+  Al91  1  0.32090852  0.06709866  0.34713320  1
  Al0+  Al92  1  0.82151557  0.57271351  0.01685912  1
  Al0+  Al93  1  0.67770549  0.42754094  0.34966551  1
  Al0+  Al94  1  0.82330721  0.06977762  0.34649145  1
  Al0+  Al95  1  0.17881371  0.93030104  0.01353091  1
  Si0+  Si96  1  0.07243395  0.67822772  0.98396185  1
  Si0+  Si97  1  0.42538483  0.32236776  0.31589549  1
  Si0+  Si98  1  0.67710288  0.92959641  0.34795584  1
  Si0+  Si99  1  0.56944763  0.67973285  0.64928447  1
  Si0+  Si100  1  0.32234559  0.57359228  0.01503803  1
  Si0+  Si101  1  0.07354687  0.67644359  0.64913167  1
  Si0+  Si102  1  0.32496118  0.07156776  0.01799185  1
  Si0+  Si103  1  0.82081558  0.06776655  0.01220606  1
  Si0+  Si104  1  0.17725278  0.92565156  0.35100491  1
  Si0+  Si105  1  0.57317037  0.17648954  0.65045206  1
  Si0+  Si106  1  0.57233564  0.17857168  0.98403741  1
  Si0+  Si107  1  0.18146558  0.42900939  0.68202302  1
  Si0+  Si108  1  0.67931306  0.93024894  0.68130859  1
  Si0+  Si109  1  0.07055632  0.67552108  0.31482519  1
  Si0+  Si110  1  0.57033420  0.67647025  0.31406878  1
  Si0+  Si111  1  0.93037887  0.32028019  0.32089820  1
  Si0+  Si112  1  0.17786330  0.92736408  0.68325363  1
  Si0+  Si113  1  0.32020878  0.57422875  0.67922014  1
  Si0+  Si114  1  0.43072242  0.32151518  0.98780721  1
  Si0+  Si115  1  0.56967377  0.67710740  0.98178647  1
  Si0+  Si116  1  0.07277229  0.17956659  0.31861750  1
  Si0+  Si117  1  0.32058451  0.57384914  0.34912980  1
  Si0+  Si118  1  0.82481435  0.06960470  0.68307807  1
  Si0+  Si119  1  0.67652205  0.92966932  0.01419511  1
  O2-  O120  1  0.25448177  0.00411343  0.06044222  1
  O2-  O121  1  0.24931435  -0.00972280  0.39544807  1
  O2-  O122  1  0.24672302  -0.00440160  0.72792653  1
  O2-  O123  1  0.25476544  0.50375253  0.05911298  1
  O2-  O124  1  0.25673902  0.50151888  0.39483155  1
  O2-  O125  1  0.25179021  0.50164675  0.72336328  1
  O2-  O126  1  0.75142361  -0.00399545  0.05636201  1
  O2-  O127  1  0.75111303  -0.00809325  0.39310564  1
  O2-  O128  1  0.75311586  -0.00178435  0.72450038  1
  O2-  O129  1  0.75471048  0.49470556  0.06509021  1
  O2-  O130  1  0.74788876  0.50064387  0.39971790  1
  O2-  O131  1  0.75461331  0.49388483  0.73237375  1
  O2-  O132  1  0.00144906  0.24999119  0.27641268  1
  O2-  O133  1  -0.00120867  0.24989746  0.59885733  1
  O2-  O134  1  0.00607896  0.25559495  0.93893411  1
  O2-  O135  1  0.00097032  0.74377848  0.27150844  1
  O2-  O136  1  -0.00038297  0.74073936  0.60694789  1
  O2-  O137  1  -0.00031602  0.74283113  0.94010015  1
  O2-  O138  1  0.49920511  0.25954393  0.27104809  1
  O2-  O139  1  0.50989135  0.25092794  0.60840416  1
  O2-  O140  1  0.50396559  0.25320075  0.94475433  1
  O2-  O141  1  0.50024501  0.74475950  0.27051865  1
  O2-  O142  1  0.50033219  0.74723933  0.60361889  1
  O2-  O143  1  0.49892548  0.74367621  0.93670765  1
  O2-  O144  1  0.07198890  0.17846400  0.10097165  1
  O2-  O145  1  0.07304256  0.18057548  0.42343776  1
  O2-  O146  1  0.07155362  0.18155079  0.76328364  1
  O2-  O147  1  0.07620092  0.68034216  0.08919657  1
  O2-  O148  1  0.07479733  0.67794934  0.42035208  1
  O2-  O149  1  0.08026804  0.67832694  0.75443428  1
  O2-  O150  1  0.57214594  0.17453437  0.08879235  1
  O2-  O151  1  0.56873129  0.17982957  0.43232831  1
  O2-  O152  1  0.57022780  0.17236523  0.75645706  1
  O2-  O153  1  0.56766311  0.67990573  0.08733290  1
  O2-  O154  1  0.56898773  0.67783373  0.41972970  1
  O2-  O155  1  0.56675907  0.68222218  0.75489856  1
  O2-  O156  1  0.17993752  0.42723113  0.23600301  1
  O2-  O157  1  0.18314486  0.42957558  0.57691754  1
  O2-  O158  1  0.18434586  0.42897016  0.89826561  1
  O2-  O159  1  0.17612625  0.92884269  0.24524522  1
  O2-  O160  1  0.17881215  0.92632987  0.57764536  1
  O2-  O161  1  0.17971833  0.93022431  0.90053283  1
  O2-  O162  1  0.68283850  0.42717911  0.23618315  1
  O2-  O163  1  0.67493747  0.43122674  0.56941706  1
  O2-  O164  1  0.67538094  0.42830844  0.90356538  1
  O2-  O165  1  0.67618449  0.93304786  0.24199293  1
  O2-  O166  1  0.67693642  0.93172681  0.57644674  1
  O2-  O167  1  0.67395586  0.93287705  0.90877744  1
  O2-  O168  1  0.42754391  0.31916082  0.09258135  1
  O2-  O169  1  0.42418163  0.31917165  0.42138739  1
  O2-  O170  1  0.42946849  0.32029406  0.76789338  1
  O2-  O171  1  0.43007037  0.82165168  0.09748091  1
  O2-  O172  1  0.43150542  0.82131790  0.43131762  1
  O2-  O173  1  0.42885511  0.82078500  0.76536936  1
  O2-  O174  1  0.92874465  0.31907831  0.10201799  1
  O2-  O175  1  0.93230463  0.31770512  0.42565253  1
  O2-  O176  1  0.93180156  0.32254597  0.76412221  1
  O2-  O177  1  0.92937579  0.82226514  0.10012060  1
  O2-  O178  1  0.93158073  0.82072186  0.43221017  1
  O2-  O179  1  0.93029548  0.81980731  0.76616584  1
  O2-  O180  1  0.31927486  0.06743927  0.23387090  1
  O2-  O181  1  0.32305884  0.06822497  0.56930634  1
  O2-  O182  1  0.32773959  0.07160057  0.91255511  1
  O2-  O183  1  0.31830402  0.57471096  0.24347740  1
  O2-  O184  1  0.31757301  0.57533324  0.57441169  1
  O2-  O185  1  0.32145192  0.57285980  0.90888836  1
  O2-  O186  1  0.82296687  0.07005323  0.23279156  1
  O2-  O187  1  0.82413839  0.06882673  0.57798177  1
  O2-  O188  1  0.81779634  0.06634726  0.90691499  1
  O2-  O189  1  0.81972187  0.57232173  0.23740684  1
  O2-  O190  1  0.81610895  0.57479177  0.57095267  1
  O2-  O191  1  0.81796049  0.57513958  0.90358665  1
  O2-  O192  1  0.04584329  0.08684117  0.27286778  1
  O2-  O193  1  0.04629800  0.08073349  0.59652654  1
  O2-  O194  1  0.04207025  0.08337977  0.93145491  1
  O2-  O195  1  0.04520711  0.58028900  0.27197425  1
  O2-  O196  1  0.05360081  0.58148435  0.60437574  1
  O2-  O197  1  0.05210523  0.58307777  0.93911123  1
  O2-  O198  1  0.53826479  0.08763200  0.26217986  1
  O2-  O199  1  0.54134075  0.08576923  0.60242427  1
  O2-  O200  1  0.54135375  0.08895349  0.93339844  1
  O2-  O201  1  0.54443587  0.58309020  0.26708154  1
  O2-  O202  1  0.54412010  0.58686594  0.60248953  1
  O2-  O203  1  0.54630611  0.58225558  0.93725611  1
  O2-  O204  1  0.16475464  0.20811363  0.27219180  1
  O2-  O205  1  0.17012901  0.20999228  0.59768448  1
  O2-  O206  1  0.17532178  0.20250575  0.93624625  1
  O2-  O207  1  0.16330899  0.69937174  0.26574821  1
  O2-  O208  1  0.16336835  0.70716404  0.59730242  1
  O2-  O209  1  0.16414145  0.70720134  0.93508275  1
  O2-  O210  1  0.66931202  0.20932358  0.26506487  1
  O2-  O211  1  0.66930148  0.19325366  0.60710501  1
  O2-  O212  1  0.66431638  0.20087350  0.93445249  1
  O2-  O213  1  0.66225461  0.70443209  0.26631277  1
  O2-  O214  1  0.66157118  0.70871259  0.60284939  1
  O2-  O215  1  0.66101836  0.70695710  0.93413084  1
  O2-  O216  1  0.08535481  0.45816259  0.06826867  1
  O2-  O217  1  0.08589508  0.46060232  0.40669283  1
  O2-  O218  1  0.08967558  0.45600852  0.72901747  1
  O2-  O219  1  0.08269946  0.96219419  0.06875328  1
  O2-  O220  1  0.08579738  0.95490767  0.39875432  1
  O2-  O221  1  0.08414761  0.95420942  0.72863247  1
  O2-  O222  1  0.58119680  0.45570825  0.07157048  1
  O2-  O223  1  0.57531653  0.45254727  0.39650897  1
  O2-  O224  1  0.57906625  0.46050236  0.73474768  1
  O2-  O225  1  0.58670893  0.96295045  0.06261302  1
  O2-  O226  1  0.58638165  0.96259991  0.39511816  1
  O2-  O227  1  0.58983060  0.96214272  0.73196735  1
  O2-  O228  1  0.21428857  0.33282610  0.06721231  1
  O2-  O229  1  0.21143846  0.33281966  0.40532072  1
  O2-  O230  1  0.21307506  0.33842020  0.72860554  1
  O2-  O231  1  0.20858306  0.83382363  0.06875411  1
  O2-  O232  1  0.19761141  0.82938717  0.39306866  1
  O2-  O233  1  0.20337209  0.83320552  0.72859191  1
  O2-  O234  1  0.70311711  0.32385851  0.06477485  1
  O2-  O235  1  0.70514086  0.32949386  0.40258375  1
  O2-  O236  1  0.69717426  0.32455459  0.73166578  1
  O2-  O237  1  0.69715880  0.83627293  0.06015710  1
  O2-  O238  1  0.69399460  0.83382513  0.39180315  1
  O2-  O239  1  0.70338631  0.83798146  0.72930262  1
  O2-  O240  1  0.44086330  0.41920015  0.27259095  1
  O2-  O241  1  0.45425572  0.42024594  0.59908344  1
  O2-  O242  1  0.45447822  0.41521739  0.94183464  1
  O2-  O243  1  0.46212606  0.91596569  0.26276387  1
  O2-  O244  1  0.46397134  0.91805315  0.60073135  1
  O2-  O245  1  0.46297754  0.91638443  0.93033330  1
  O2-  O246  1  0.95886498  0.41357527  0.27722835  1
  O2-  O247  1  0.95745574  0.42139450  0.59878170  1
  O2-  O248  1  0.95430244  0.42387402  0.93812734  1
  O2-  O249  1  0.96244847  0.91735433  0.26618497  1
  O2-  O250  1  0.96175023  0.91333379  0.59728356  1
  O2-  O251  1  0.96139330  0.91482308  0.93195889  1
  O2-  O252  1  0.33361889  0.28845977  0.27024643  1
  O2-  O253  1  0.33718557  0.28736856  0.59855262  1
  O2-  O254  1  0.34082986  0.29129570  0.93769704  1
  O2-  O255  1  0.33010890  0.79192869  0.26559122  1
  O2-  O256  1  0.33151232  0.79303566  0.59758353  1
  O2-  O257  1  0.33043378  0.79259715  0.93084359  1
  O2-  O258  1  0.83874012  0.29146846  0.27489742  1
  O2-  O259  1  0.82871349  0.29262120  0.60028295  1
  O2-  O260  1  0.83337752  0.28910329  0.93245703  1
  O2-  O261  1  0.82915088  0.79624408  0.26723834  1
  O2-  O262  1  0.82949683  0.79341255  0.59988227  1
  O2-  O263  1  0.82828292  0.79468176  0.93494292  1
  O2-  O264  1  0.41826491  0.04252230  0.06344056  1
  O2-  O265  1  0.41872481  0.03777612  0.39934573  1
  O2-  O266  1  0.41800143  0.04025707  0.73733171  1
  O2-  O267  1  0.41577381  0.55036079  0.06179725  1
  O2-  O268  1  0.41573221  0.55507580  0.39412268  1
  O2-  O269  1  0.41268524  0.55026720  0.72637931  1
  O2-  O270  1  0.91292841  0.04161123  0.05888389  1
  O2-  O271  1  0.91936483  0.04024773  0.40229763  1
  O2-  O272  1  0.91644122  0.03895526  0.72869209  1
  O2-  O273  1  0.92205211  0.55363225  0.06931381  1
  O2-  O274  1  0.91834589  0.54849621  0.40385961  1
  O2-  O275  1  0.92357101  0.55049301  0.73360706  1
  O2-  O276  1  0.30270255  0.16519849  0.06521150  1
  O2-  O277  1  0.28969412  0.16234975  0.40285407  1
  O2-  O278  1  0.29109106  0.16748106  0.73601555  1
  O2-  O279  1  0.29546899  0.66689846  0.06051276  1
  O2-  O280  1  0.29002579  0.66606914  0.39637148  1
  O2-  O281  1  0.28951695  0.66535392  0.72747736  1
  O2-  O282  1  0.79144889  0.15889232  0.05958304  1
  O2-  O283  1  0.78870979  0.16336503  0.40292049  1
  O2-  O284  1  0.79672396  0.16046842  0.73189687  1
  O2-  O285  1  0.78517131  0.66996236  0.06931540  1
  O2-  O286  1  0.78812440  0.67266547  0.40094849  1
  O2-  O287  1  0.78738310  0.66984206  0.73578018  1
