# generated using pymatgen
data_Ca2Al2SiO7
_symmetry_space_group_name_H-M   'P 1'
_cell_length_a   15.45612430
_cell_length_b   15.45689474
_cell_length_c   15.28314056
_cell_angle_alpha   89.99161479
_cell_angle_beta   89.99860637
_cell_angle_gamma   90.00283186
_symmetry_Int_Tables_number   1
_chemical_formula_structural   Ca2Al2SiO7
_chemical_formula_sum   'Ca48 Al48 Si24 O168'
_cell_volume   3651.19857501
_cell_formula_units_Z   24
loop_
 _symmetry_equiv_pos_site_id
 _symmetry_equiv_pos_as_xyz
  1  'x, y, z'
loop_
 _atom_type_symbol
 _atom_type_oxidation_number
  Ca2+  2.0
  Al0+  0.0
  Si0+  0.0
  O2-  -2.0
loop_
 _atom_site_type_symbol
 _atom_site_label
 _atom_site_symmetry_multiplicity
 _atom_site_fract_x
 _atom_site_fract_y
 _atom_site_fract_z
 _atom_site_occupancy
  Ca2+  Ca0  1  0.17169445  0.08832151  0.17634332  1
  Ca2+  Ca1  1  0.16997415  0.08541718  0.49943625  1
  Ca2+  Ca2  1  0.16639163  0.08086015  0.83698615  1
  Ca2+  Ca3  1  0.16973559  0.58330327  0.16889630  1
  Ca2+  Ca4  1  0.17029863  0.57440562  0.51108303  1
  Ca2+  Ca5  1  0.17209233  0.58723147  0.83878358  1
  Ca2+  Ca6  1  0.67085878  0.07836677  0.17746927  1
  Ca2+  Ca7  1  0.67789776  0.06857895  0.50694630  1
  Ca2+  Ca8  1  0.66968731  0.08076487  0.83450207  1
  Ca2+  Ca9  1  0.67078037  0.58891056  0.16865178  1
  Ca2+  Ca10  1  0.66724921  0.58628650  0.51130950  1
  Ca2+  Ca11  1  0.67521929  0.58799749  0.83115545  1
  Ca2+  Ca12  1  0.08856517  0.32478552  0.16725620  1
  Ca2+  Ca13  1  0.08649705  0.33294046  0.49420625  1
  Ca2+  Ca14  1  0.08864360  0.32837904  0.82946901  1
  Ca2+  Ca15  1  0.07436678  0.83203522  0.16168333  1
  Ca2+  Ca16  1  0.07127209  0.82815103  0.49971148  1
  Ca2+  Ca17  1  0.07793657  0.81726338  0.82534955  1
  Ca2+  Ca18  1  0.58260723  0.32298184  0.15979652  1
  Ca2+  Ca19  1  0.57561567  0.34203799  0.50011185  1
  Ca2+  Ca20  1  0.58196910  0.33325023  0.82484358  1
  Ca2+  Ca21  1  0.57481430  0.83611200  0.16897939  1
  Ca2+  Ca22  1  0.58875051  0.82515895  0.49429853  1
  Ca2+  Ca23  1  0.57803923  0.82912458  0.82629589  1
  Ca2+  Ca24  1  0.32775608  0.42420494  0.17164129  1
  Ca2+  Ca25  1  0.32395221  0.41892803  0.51010092  1
  Ca2+  Ca26  1  0.33473798  0.42861855  0.82970996  1
  Ca2+  Ca27  1  0.33583918  0.91887794  0.17388254  1
  Ca2+  Ca28  1  0.34060095  0.92186589  0.49882461  1
  Ca2+  Ca29  1  0.33148977  0.91152701  0.84028472  1
  Ca2+  Ca30  1  0.83612620  0.42386141  0.16647847  1
  Ca2+  Ca31  1  0.82415450  0.42505661  0.51115369  1
  Ca2+  Ca32  1  0.83177356  0.42851033  0.83305204  1
  Ca2+  Ca33  1  0.82722341  0.92116710  0.18010154  1
  Ca2+  Ca34  1  0.83076271  0.91665225  0.50620982  1
  Ca2+  Ca35  1  0.82955555  0.91177495  0.82845112  1
  Ca2+  Ca36  1  0.42156793  0.16405972  0.16100018  1
  Ca2+  Ca37  1  0.41408114  0.17215360  0.49685265  1
  Ca2+  Ca38  1  0.42606744  0.17417061  0.82762338  1
  Ca2+  Ca39  1  0.41793751  0.67643817  0.16217627  1
  Ca2+  Ca40  1  0.42874439  0.66545922  0.49564723  1
  Ca2+  Ca41  1  0.41600688  0.66577875  0.82559430  1
  Ca2+  Ca42  1  0.92794724  0.16167349  0.16425140  1
  Ca2+  Ca43  1  0.91823246  0.16299417  0.49396003  1
  Ca2+  Ca44  1  0.92018573  0.16509207  0.82796255  1
  Ca2+  Ca45  1  0.91954806  0.67171222  0.16145765  1
  Ca2+  Ca46  1  0.91040780  0.67607532  0.49887198  1
  Ca2+  Ca47  1  0.92288173  0.66233949  0.82398621  1
  Al0+  Al48  1  -0.00110672  -0.00003480  -0.00474444  1
  Al0+  Al49  1  0.00249129  0.00070496  0.32755919  1
  Al0+  Al50  1  0.00196550  -0.00077641  0.66705623  1
  Al0+  Al51  1  -0.00072350  0.49881395  0.00290154  1
  Al0+  Al52  1  -0.00049074  0.49878578  0.33651996  1
  Al0+  Al53  1  0.00095662  0.49447388  0.66925207  1
  Al0+  Al54  1  0.49951509  0.00031697  -0.00899728  1
  Al0+  Al55  1  0.50057352  0.00013039  0.34029043  1
  Al0+  Al56  1  0.50158033  0.00182324  0.67019894  1
  Al0+  Al57  1  0.49970450  0.50044526  0.00706863  1
  Al0+  Al58  1  0.50033996  0.50041409  0.32500701  1
  Al0+  Al59  1  0.49702721  0.49917921  0.66512335  1
  Al0+  Al60  1  0.25055086  0.25034609  -0.00500670  1
  Al0+  Al61  1  0.24951371  0.25090612  0.33639794  1
  Al0+  Al62  1  0.25218242  0.25011273  0.66796388  1
  Al0+  Al63  1  0.24796432  0.75080903  -0.00039418  1
  Al0+  Al64  1  0.25089343  0.75012371  0.33248332  1
  Al0+  Al65  1  0.24905803  0.75158640  0.66286593  1
  Al0+  Al66  1  0.75097172  0.24884712  -0.00304899  1
  Al0+  Al67  1  0.75045770  0.25260138  0.33601572  1
  Al0+  Al68  1  0.75153222  0.24732907  0.67237021  1
  Al0+  Al69  1  0.74710105  0.75122217  0.00666859  1
  Al0+  Al70  1  0.75053166  0.74959778  0.32638869  1
  Al0+  Al71  1  0.74882248  0.75179236  0.66884883  1
  Al0+  Al72  1  0.42868401  0.82291119  0.31957430  1
  Al0+  Al73  1  0.31886117  0.57297961  0.67943799  1
  Al0+  Al74  1  0.07039301  0.18117866  0.32141078  1
  Al0+  Al75  1  0.07187406  0.17873275  0.98485858  1
  Al0+  Al76  1  0.32072059  0.57314325  0.01598200  1
  Al0+  Al77  1  0.92975548  0.81923612  0.65268107  1
  Al0+  Al78  1  0.82423466  0.06961949  0.68385676  1
  Al0+  Al79  1  0.18048516  0.43091012  0.34659107  1
  Al0+  Al80  1  0.82081863  0.57207340  0.67956014  1
  Al0+  Al81  1  0.57201151  0.67738598  0.31523228  1
  Al0+  Al82  1  0.06828753  0.67906421  0.98832925  1
  Al0+  Al83  1  0.43120367  0.31932153  0.65237796  1
  Al0+  Al84  1  0.42928179  0.81942895  0.98581215  1
  Al0+  Al85  1  0.82101972  0.57115770  0.01539369  1
  Al0+  Al86  1  0.68017267  0.92794094  0.34850399  1
  Al0+  Al87  1  0.56817024  0.68063462  0.65605908  1
  Al0+  Al88  1  0.07259999  0.67383183  0.65079772  1
  Al0+  Al89  1  0.93046091  0.82072980  0.31847113  1
  Al0+  Al90  1  0.32111835  0.07060168  0.34614085  1
  Al0+  Al91  1  0.17835837  0.42653684  0.68380944  1
  Al0+  Al92  1  0.57165747  0.17908332  0.98625794  1
  Al0+  Al93  1  0.82410188  0.07267365  0.34646411  1
  Al0+  Al94  1  0.67605693  0.42860099  0.68038453  1
  Al0+  Al95  1  0.67814653  0.92812722  0.68470792  1
  Si0+  Si96  1  0.17783174  0.93017626  0.01449349  1
  Si0+  Si97  1  0.67861381  0.42597957  0.01776357  1
  Si0+  Si98  1  0.92460107  0.82180758  0.98348979  1
  Si0+  Si99  1  0.57192150  0.67723598  0.98305071  1
  Si0+  Si100  1  0.07177411  0.17907394  0.65089059  1
  Si0+  Si101  1  0.67692755  0.42847347  0.34646580  1
  Si0+  Si102  1  0.42765804  0.32028931  0.31669547  1
  Si0+  Si103  1  0.92845228  0.32134430  0.98216122  1
  Si0+  Si104  1  0.17993359  0.93015147  0.68145910  1
  Si0+  Si105  1  0.81963323  0.57010906  0.34709813  1
  Si0+  Si106  1  0.57446943  0.17684180  0.64732779  1
  Si0+  Si107  1  0.32134001  0.07159687  0.68349882  1
  Si0+  Si108  1  0.57127416  0.18086209  0.32200133  1
  Si0+  Si109  1  0.17716677  0.92612502  0.34934452  1
  Si0+  Si110  1  0.92743894  0.31903527  0.65161627  1
  Si0+  Si111  1  0.67670485  0.93147162  0.01651898  1
  Si0+  Si112  1  0.82174309  0.07135779  0.01629578  1
  Si0+  Si113  1  0.32019955  0.07053338  0.01231138  1
  Si0+  Si114  1  0.42624970  0.82574259  0.64956242  1
  Si0+  Si115  1  0.32348943  0.57328018  0.34932297  1
  Si0+  Si116  1  0.42872960  0.32405243  0.98362020  1
  Si0+  Si117  1  0.17842110  0.42641975  0.01807707  1
  Si0+  Si118  1  0.92574084  0.32389437  0.31668788  1
  Si0+  Si119  1  0.07137594  0.67539550  0.31769076  1
  O2-  O120  1  0.24735548  0.00299002  0.05669379  1
  O2-  O121  1  0.24861750  -0.00676768  0.39262616  1
  O2-  O122  1  0.25529166  -0.00373724  0.72537486  1
  O2-  O123  1  0.24613178  0.49667664  0.06142430  1
  O2-  O124  1  0.25256109  0.50750622  0.39317775  1
  O2-  O125  1  0.24293412  0.50592756  0.73207648  1
  O2-  O126  1  0.75040589  0.00068382  0.05831156  1
  O2-  O127  1  0.75576575  -0.00229040  0.39634043  1
  O2-  O128  1  0.75037330  0.00033600  0.73502816  1
  O2-  O129  1  0.74495723  0.49677634  0.06256850  1
  O2-  O130  1  0.74588060  0.50128680  0.38777407  1
  O2-  O131  1  0.74771247  0.50074048  0.73022439  1
  O2-  O132  1  -0.00753184  0.25243671  0.27359600  1
  O2-  O133  1  -0.00020108  0.24900586  0.60941532  1
  O2-  O134  1  -0.00225136  0.25318368  0.93776895  1
  O2-  O135  1  0.00633855  0.74675935  0.27199341  1
  O2-  O136  1  -0.00327760  0.74254397  0.60177881  1
  O2-  O137  1  -0.01036780  0.74933294  0.94117891  1
  O2-  O138  1  0.49991176  0.24985425  0.27565737  1
  O2-  O139  1  0.50794164  0.24753225  0.60296856  1
  O2-  O140  1  0.50071844  0.25798648  0.94086798  1
  O2-  O141  1  0.49834621  0.74961566  0.26796232  1
  O2-  O142  1  0.49465952  0.75632089  0.60792397  1
  O2-  O143  1  0.50026610  0.74200572  0.93862459  1
  O2-  O144  1  0.07312001  0.17929637  0.09785965  1
  O2-  O145  1  0.07261555  0.18413159  0.43434962  1
  O2-  O146  1  0.07196552  0.17921498  0.75633776  1
  O2-  O147  1  0.06809157  0.68311967  0.10184465  1
  O2-  O148  1  0.06812327  0.67407892  0.42269290  1
  O2-  O149  1  0.07361123  0.67843885  0.76475133  1
  O2-  O150  1  0.56890362  0.17810616  0.10029248  1
  O2-  O151  1  0.57035820  0.18527130  0.42646629  1
  O2-  O152  1  0.57041899  0.17650565  0.75331586  1
  O2-  O153  1  0.57233927  0.68047971  0.08853244  1
  O2-  O154  1  0.57161935  0.67346738  0.42863466  1
  O2-  O155  1  0.56678637  0.68149609  0.76942994  1
  O2-  O156  1  0.18323265  0.42984807  0.23309437  1
  O2-  O157  1  0.18262955  0.42257751  0.57019391  1
  O2-  O158  1  0.17913053  0.42461379  0.91306576  1
  O2-  O159  1  0.17662394  0.92793823  0.24325693  1
  O2-  O160  1  0.17838107  0.93370939  0.57652589  1
  O2-  O161  1  0.17928615  0.93117960  0.90921840  1
  O2-  O162  1  0.67868542  0.42453173  0.24127495  1
  O2-  O163  1  0.67832917  0.43020122  0.56606204  1
  O2-  O164  1  0.67884257  0.42480586  0.91278250  1
  O2-  O165  1  0.67858008  0.93346366  0.23398736  1
  O2-  O166  1  0.67750700  0.92898563  0.57151833  1
  O2-  O167  1  0.67713810  0.93149609  0.91186119  1
  O2-  O168  1  0.42736880  0.32035312  0.08980748  1
  O2-  O169  1  0.42810760  0.32099956  0.42153342  1
  O2-  O170  1  0.43111160  0.31589725  0.76560744  1
  O2-  O171  1  0.43126394  0.82404246  0.09852053  1
  O2-  O172  1  0.42981449  0.82228857  0.43275345  1
  O2-  O173  1  0.42566546  0.82592285  0.75550686  1
  O2-  O174  1  0.92738572  0.31963423  0.08805384  1
  O2-  O175  1  0.92478069  0.32625666  0.42193662  1
  O2-  O176  1  0.92726118  0.31775093  0.75675436  1
  O2-  O177  1  0.92769700  0.82425294  0.08932708  1
  O2-  O178  1  0.92976617  0.81944429  0.43107370  1
  O2-  O179  1  0.93397382  0.82029835  0.76649389  1
  O2-  O180  1  0.32053626  0.07280184  0.23238348  1
  O2-  O181  1  0.31934370  0.07312160  0.57831456  1
  O2-  O182  1  0.31878702  0.06901180  0.90717429  1
  O2-  O183  1  0.32194218  0.57151047  0.24329235  1
  O2-  O184  1  0.32062768  0.56911058  0.56578733  1
  O2-  O185  1  0.32081070  0.57254805  0.90339699  1
  O2-  O186  1  0.82052214  0.07305976  0.23200546  1
  O2-  O187  1  0.82552032  0.06893151  0.57041680  1
  O2-  O188  1  0.82260719  0.07127283  0.91167537  1
  O2-  O189  1  0.82128339  0.56710865  0.24169242  1
  O2-  O190  1  0.81857184  0.57069175  0.56546919  1
  O2-  O191  1  0.82097897  0.57013606  0.90295144  1
  O2-  O192  1  0.04659607  0.08463090  0.26343781  1
  O2-  O193  1  0.04582522  0.08698156  0.60394299  1
  O2-  O194  1  0.04085165  0.08239908  0.92995480  1
  O2-  O195  1  0.04227673  0.58284836  0.27037720  1
  O2-  O196  1  0.05060595  0.57196329  0.60298221  1
  O2-  O197  1  0.04314582  0.57984429  0.93759553  1
  O2-  O198  1  0.54385888  0.08867038  0.27597707  1
  O2-  O199  1  0.54406347  0.08431972  0.60195025  1
  O2-  O200  1  0.53630954  0.08691407  0.92761641  1
  O2-  O201  1  0.54501653  0.57919680  0.25863885  1
  O2-  O202  1  0.53797338  0.58455073  0.60069368  1
  O2-  O203  1  0.55149166  0.58024126  0.94273889  1
  O2-  O204  1  0.16614141  0.21621514  0.26616455  1
  O2-  O205  1  0.16402865  0.20751602  0.60524158  1
  O2-  O206  1  0.16861631  0.20770358  0.92947274  1
  O2-  O207  1  0.16715758  0.69706127  0.27420926  1
  O2-  O208  1  0.16866675  0.70846625  0.59592528  1
  O2-  O209  1  0.16263947  0.71458605  0.93370872  1
  O2-  O210  1  0.66241313  0.21043465  0.27267395  1
  O2-  O211  1  0.67035689  0.19807995  0.60554922  1
  O2-  O212  1  0.66916187  0.20583783  0.93240668  1
  O2-  O213  1  0.66920735  0.70614457  0.26029937  1
  O2-  O214  1  0.66506149  0.71026347  0.60235985  1
  O2-  O215  1  0.66519231  0.70730896  0.93888347  1
  O2-  O216  1  0.08415304  0.44864319  0.06423864  1
  O2-  O217  1  0.08206860  0.45619180  0.40013589  1
  O2-  O218  1  0.07708279  0.44169596  0.73464033  1
  O2-  O219  1  0.08453596  0.95711861  0.06017595  1
  O2-  O220  1  0.08561473  0.95646443  0.39571338  1
  O2-  O221  1  0.09173535  0.96308772  0.73220998  1
  O2-  O222  1  0.58425077  0.44694579  0.06505017  1
  O2-  O223  1  0.58299415  0.45396801  0.39050671  1
  O2-  O224  1  0.57752204  0.45411385  0.73271933  1
  O2-  O225  1  0.58502072  0.96428378  0.06131538  1
  O2-  O226  1  0.58395093  0.95786361  0.40344334  1
  O2-  O227  1  0.57979269  0.95868062  0.73843096  1
  O2-  O228  1  0.20811410  0.33260534  0.06355328  1
  O2-  O229  1  0.21377674  0.33614696  0.40174553  1
  O2-  O230  1  0.21507749  0.33050386  0.73793692  1
  O2-  O231  1  0.20607505  0.83997862  0.06361658  1
  O2-  O232  1  0.19904723  0.83164412  0.39527803  1
  O2-  O233  1  0.20412525  0.83733624  0.72862770  1
  O2-  O234  1  0.70798212  0.33262326  0.06442381  1
  O2-  O235  1  0.70467661  0.33869589  0.39730509  1
  O2-  O236  1  0.70445328  0.33007875  0.73286888  1
  O2-  O237  1  0.70053849  0.83937323  0.06522183  1
  O2-  O238  1  0.70792540  0.82756432  0.39643723  1
  O2-  O239  1  0.70690611  0.83145061  0.74022379  1
  O2-  O240  1  0.45497426  0.41104385  0.26670638  1
  O2-  O241  1  0.45830315  0.41515162  0.59545434  1
  O2-  O242  1  0.45286192  0.41901184  0.94056310  1
  O2-  O243  1  0.45818457  0.92275990  0.26782997  1
  O2-  O244  1  0.45226593  0.92078534  0.60625933  1
  O2-  O245  1  0.46024163  0.91447620  0.92871667  1
  O2-  O246  1  0.95604617  0.41567823  0.26833025  1
  O2-  O247  1  0.95316215  0.41040915  0.60256423  1
  O2-  O248  1  0.95380419  0.41512568  0.93754457  1
  O2-  O249  1  0.96135125  0.91654984  0.26207767  1
  O2-  O250  1  0.96590557  0.91599984  0.59979713  1
  O2-  O251  1  0.95270109  0.91404580  0.93639880  1
  O2-  O252  1  0.33730316  0.28987800  0.26891831  1
  O2-  O253  1  0.33596433  0.28256630  0.59800000  1
  O2-  O254  1  0.33711595  0.29557962  0.93601401  1
  O2-  O255  1  0.32841835  0.79847094  0.26621550  1
  O2-  O256  1  0.33198385  0.80502544  0.60338925  1
  O2-  O257  1  0.33098554  0.79262370  0.93366601  1
  O2-  O258  1  0.83136386  0.30174566  0.26953734  1
  O2-  O259  1  0.83570353  0.29044397  0.60379056  1
  O2-  O260  1  0.83565198  0.29495427  0.93535261  1
  O2-  O261  1  0.83576595  0.78938215  0.26139053  1
  O2-  O262  1  0.82976902  0.79610760  0.60140756  1
  O2-  O263  1  0.82847020  0.79977880  0.94213742  1
  O2-  O264  1  0.41242278  0.04104334  0.05795084  1
  O2-  O265  1  0.41642740  0.04403333  0.40443842  1
  O2-  O266  1  0.41480013  0.04982924  0.73009989  1
  O2-  O267  1  0.41719093  0.54333926  0.07209724  1
  O2-  O268  1  0.41755253  0.54328294  0.39132093  1
  O2-  O269  1  0.41445283  0.53809128  0.73394482  1
  O2-  O270  1  0.91458898  0.04273274  0.06217209  1
  O2-  O271  1  0.92529734  0.04922280  0.39451833  1
  O2-  O272  1  0.92298237  0.04076935  0.73685546  1
  O2-  O273  1  0.91632493  0.53770869  0.07181516  1
  O2-  O274  1  0.91006462  0.54067835  0.39548277  1
  O2-  O275  1  0.91787012  0.53908895  0.73245214  1
  O2-  O276  1  0.29553696  0.16414566  0.05847473  1
  O2-  O277  1  0.28684980  0.16524717  0.40197744  1
  O2-  O278  1  0.28860540  0.16041473  0.73303231  1
  O2-  O279  1  0.28635206  0.66903467  0.07011121  1
  O2-  O280  1  0.30351861  0.66845681  0.39370177  1
  O2-  O281  1  0.29636504  0.67422236  0.73032071  1
  O2-  O282  1  0.79556308  0.16421373  0.06260166  1
  O2-  O283  1  0.79499681  0.17130694  0.39883833  1
  O2-  O284  1  0.79738800  0.16774536  0.73844759  1
  O2-  O285  1  0.79031742  0.66784991  0.07082271  1
  O2-  O286  1  0.79342056  0.66280394  0.39134041  1
  O2-  O287  1  0.79403492  0.66943757  0.73410148  1
