# generated using pymatgen
data_Ca2Al2SiO7
_symmetry_space_group_name_H-M   'P 1'
_cell_length_a   15.46920305
_cell_length_b   15.46907904
_cell_length_c   15.29319652
_cell_angle_alpha   90.00204387
_cell_angle_beta   90.01282125
_cell_angle_gamma   90.00592623
_symmetry_Int_Tables_number   1
_chemical_formula_structural   Ca2Al2SiO7
_chemical_formula_sum   'Ca48 Al48 Si24 O168'
_cell_volume   3659.57501921
_cell_formula_units_Z   24
loop_
 _symmetry_equiv_pos_site_id
 _symmetry_equiv_pos_as_xyz
  1  'x, y, z'
loop_
 _atom_type_symbol
 _atom_type_oxidation_number
  Ca2+  2.0
  Al0+  0.0
  Si0+  0.0
  O2-  -2.0
loop_
 _atom_site_type_symbol
 _atom_site_label
 _atom_site_symmetry_multiplicity
 _atom_site_fract_x
 _atom_site_fract_y
 _atom_site_fract_z
 _atom_site_occupancy
  Ca2+  Ca0  1  0.17574105  0.08277387  0.16467015  1
  Ca2+  Ca1  1  0.17349730  0.08751485  0.51166151  1
  Ca2+  Ca2  1  0.17843468  0.08908881  0.83641767  1
  Ca2+  Ca3  1  0.16720151  0.57843939  0.17026438  1
  Ca2+  Ca4  1  0.17475545  0.57883578  0.51010040  1
  Ca2+  Ca5  1  0.17336649  0.57189366  0.83503103  1
  Ca2+  Ca6  1  0.65493769  0.08214656  0.16844343  1
  Ca2+  Ca7  1  0.66447271  0.07960686  0.51199779  1
  Ca2+  Ca8  1  0.65990382  0.07680660  0.83604608  1
  Ca2+  Ca9  1  0.66309048  0.57160679  0.17024122  1
  Ca2+  Ca10  1  0.65736213  0.57825814  0.50305880  1
  Ca2+  Ca11  1  0.67071230  0.57627500  0.83950859  1
  Ca2+  Ca12  1  0.08183451  0.33654540  0.15974115  1
  Ca2+  Ca13  1  0.08158866  0.33339014  0.50713391  1
  Ca2+  Ca14  1  0.07898222  0.33554865  0.82275678  1
  Ca2+  Ca15  1  0.08584808  0.82843864  0.16011611  1
  Ca2+  Ca16  1  0.07476912  0.83157859  0.49493720  1
  Ca2+  Ca17  1  0.07653851  0.83868030  0.82650812  1
  Ca2+  Ca18  1  0.57626186  0.33071822  0.15819246  1
  Ca2+  Ca19  1  0.57374604  0.32522821  0.49217669  1
  Ca2+  Ca20  1  0.57683580  0.32360147  0.82739400  1
  Ca2+  Ca21  1  0.59017550  0.82715206  0.16203309  1
  Ca2+  Ca22  1  0.58966155  0.82214622  0.50101286  1
  Ca2+  Ca23  1  0.59335903  0.82789723  0.82585896  1
  Ca2+  Ca24  1  0.33176795  0.40551927  0.16782771  1
  Ca2+  Ca25  1  0.33352100  0.41635055  0.51192189  1
  Ca2+  Ca26  1  0.32680457  0.40716124  0.83387047  1
  Ca2+  Ca27  1  0.33490909  0.92372741  0.16468503  1
  Ca2+  Ca28  1  0.33174393  0.92458237  0.50972102  1
  Ca2+  Ca29  1  0.33254319  0.93355943  0.83995097  1
  Ca2+  Ca30  1  0.81739274  0.41732513  0.16651147  1
  Ca2+  Ca31  1  0.82702192  0.41492091  0.50383119  1
  Ca2+  Ca32  1  0.82791724  0.41851285  0.84087371  1
  Ca2+  Ca33  1  0.82732896  0.92023893  0.16508071  1
  Ca2+  Ca34  1  0.82830702  0.92305225  0.51239177  1
  Ca2+  Ca35  1  0.82613675  0.92051466  0.83080890  1
  Ca2+  Ca36  1  0.42574820  0.17517886  0.15958550  1
  Ca2+  Ca37  1  0.42213509  0.17316129  0.49967160  1
  Ca2+  Ca38  1  0.41880583  0.17196370  0.82808158  1
  Ca2+  Ca39  1  0.42328908  0.66669768  0.16647185  1
  Ca2+  Ca40  1  0.42682229  0.66057423  0.50040868  1
  Ca2+  Ca41  1  0.42213008  0.66835300  0.82502327  1
  Ca2+  Ca42  1  0.91925212  0.16846197  0.16262243  1
  Ca2+  Ca43  1  0.91705535  0.16802423  0.50603853  1
  Ca2+  Ca44  1  0.92493224  0.16913805  0.81983406  1
  Ca2+  Ca45  1  0.92127762  0.65955410  0.16163097  1
  Ca2+  Ca46  1  0.92189208  0.67308352  0.49757469  1
  Ca2+  Ca47  1  0.91460810  0.67107958  0.82590344  1
  Al0+  Al48  1  -0.00057808  -0.00192645  0.00387324  1
  Al0+  Al49  1  -0.00087344  -0.00027808  0.33171302  1
  Al0+  Al50  1  -0.00203778  0.00000729  0.65988449  1
  Al0+  Al51  1  0.00298993  0.50117865  0.00567247  1
  Al0+  Al52  1  -0.00055386  0.50072456  0.33066817  1
  Al0+  Al53  1  -0.00018095  0.50054495  0.66434811  1
  Al0+  Al54  1  0.50029531  -0.00160639  0.00729200  1
  Al0+  Al55  1  0.49794680  0.00034672  0.33397537  1
  Al0+  Al56  1  0.49810677  -0.00292280  0.67196186  1
  Al0+  Al57  1  0.49890142  0.50093154  -0.00207468  1
  Al0+  Al58  1  0.49815158  0.50118856  0.32924562  1
  Al0+  Al59  1  0.50056505  0.50131565  0.66509594  1
  Al0+  Al60  1  0.24993570  0.24950026  0.00724261  1
  Al0+  Al61  1  0.24835407  0.24897464  0.33225555  1
  Al0+  Al62  1  0.24841292  0.24997808  0.66721504  1
  Al0+  Al63  1  0.25007406  0.74805171  0.00135030  1
  Al0+  Al64  1  0.24756728  0.74937185  0.33026649  1
  Al0+  Al65  1  0.25091781  0.74853684  0.67115439  1
  Al0+  Al66  1  0.75111636  0.25052755  -0.00010120  1
  Al0+  Al67  1  0.75142675  0.24932736  0.33433770  1
  Al0+  Al68  1  0.75158281  0.24936091  0.66346703  1
  Al0+  Al69  1  0.75453011  0.75255985  0.00706836  1
  Al0+  Al70  1  0.75113620  0.75164294  0.32867561  1
  Al0+  Al71  1  0.75121608  0.74961438  0.65942149  1
  Al0+  Al72  1  0.42789198  0.32118411  0.31818269  1
  Al0+  Al73  1  0.67750822  0.42991455  0.34839289  1
  Al0+  Al74  1  0.57283694  0.17724460  0.98379836  1
  Al0+  Al75  1  0.32480712  0.57217946  0.68255248  1
  Al0+  Al76  1  0.57129846  0.68051266  0.31775501  1
  Al0+  Al77  1  0.92673310  0.32483732  0.65199152  1
  Al0+  Al78  1  0.18163463  0.43002157  0.01501825  1
  Al0+  Al79  1  0.92996613  0.82051920  0.65286146  1
  Al0+  Al80  1  0.67948447  0.92797054  0.68008627  1
  Al0+  Al81  1  0.32183656  0.07170501  0.01818924  1
  Al0+  Al82  1  0.57150196  0.67953175  0.65519008  1
  Al0+  Al83  1  0.67716365  0.42833228  0.01307036  1
  Al0+  Al84  1  0.07101105  0.17939791  0.65315840  1
  Al0+  Al85  1  0.42921659  0.32038314  0.65261360  1
  Al0+  Al86  1  0.82159640  0.07293534  0.68116982  1
  Al0+  Al87  1  0.57265118  0.17789984  0.31899480  1
  Al0+  Al88  1  0.42716627  0.32152522  0.98273946  1
  Al0+  Al89  1  0.82178735  0.57181409  0.01381985  1
  Al0+  Al90  1  0.17923272  0.42998923  0.68078217  1
  Al0+  Al91  1  0.06958532  0.67989517  0.31850964  1
  Al0+  Al92  1  0.67990157  0.93052557  0.01468449  1
  Al0+  Al93  1  0.32039323  0.07070335  0.67942462  1
  Al0+  Al94  1  0.17752579  0.92795414  0.01424215  1
  Al0+  Al95  1  0.57084899  0.17528231  0.65317337  1
  Si0+  Si96  1  0.07022607  0.17821850  0.31692690  1
  Si0+  Si97  1  0.82331031  0.07259060  0.01662017  1
  Si0+  Si98  1  0.93140188  0.32238545  0.98705412  1
  Si0+  Si99  1  0.67853788  0.92941160  0.34891225  1
  Si0+  Si100  1  0.82337185  0.07065048  0.34918520  1
  Si0+  Si101  1  0.32297229  0.57382657  0.01900032  1
  Si0+  Si102  1  0.42840010  0.81978110  0.98597329  1
  Si0+  Si103  1  0.07338475  0.67802966  0.65144814  1
  Si0+  Si104  1  0.42665708  0.82219086  0.31723286  1
  Si0+  Si105  1  0.82215534  0.57230512  0.35110837  1
  Si0+  Si106  1  0.17722072  0.42829935  0.34945556  1
  Si0+  Si107  1  0.42567005  0.82135241  0.65236757  1
  Si0+  Si108  1  0.92898617  0.82368543  0.31206653  1
  Si0+  Si109  1  0.06902196  0.17755684  0.98766328  1
  Si0+  Si110  1  0.17618957  0.92675201  0.67992461  1
  Si0+  Si111  1  0.67890155  0.42808258  0.67932502  1
  Si0+  Si112  1  0.92944710  0.32138434  0.31635529  1
  Si0+  Si113  1  0.93037445  0.82118454  0.98344705  1
  Si0+  Si114  1  0.17837227  0.92809391  0.34870298  1
  Si0+  Si115  1  0.31885651  0.57237035  0.34798727  1
  Si0+  Si116  1  0.57365447  0.68157336  0.98591570  1
  Si0+  Si117  1  0.31869818  0.07027316  0.35076002  1
  Si0+  Si118  1  0.07185963  0.67757911  0.98266011  1
  Si0+  Si119  1  0.82062407  0.57088465  0.67740750  1
  O2-  O120  1  0.24952917  -0.00199082  0.06685408  1
  O2-  O121  1  0.24783406  -0.00137515  0.39283057  1
  O2-  O122  1  0.24428550  -0.00458649  0.72376191  1
  O2-  O123  1  0.25918033  0.50069014  0.06355899  1
  O2-  O124  1  0.25134342  0.49709820  0.38919406  1
  O2-  O125  1  0.25433685  0.49838524  0.73138999  1
  O2-  O126  1  0.74867282  0.01083036  0.06184946  1
  O2-  O127  1  0.74758535  0.00319296  0.38904818  1
  O2-  O128  1  0.74572708  0.00504381  0.73089213  1
  O2-  O129  1  0.74725907  0.50272101  0.06364628  1
  O2-  O130  1  0.75061778  0.50738063  0.39603717  1
  O2-  O131  1  0.75333512  0.49707165  0.71989923  1
  O2-  O132  1  0.00086624  0.25037101  0.27401684  1
  O2-  O133  1  -0.00181737  0.25105058  0.60302922  1
  O2-  O134  1  -0.00033658  0.24926924  0.94503240  1
  O2-  O135  1  -0.00517496  0.75256502  0.26787365  1
  O2-  O136  1  0.00846989  0.74968683  0.60652256  1
  O2-  O137  1  0.00204232  0.75029580  0.94154052  1
  O2-  O138  1  0.50410607  0.25312684  0.26933449  1
  O2-  O139  1  0.50170714  0.24931874  0.60230988  1
  O2-  O140  1  0.50067447  0.24971729  0.93512198  1
  O2-  O141  1  0.49845699  0.75742128  0.27158913  1
  O2-  O142  1  0.49453731  0.75266572  0.60860745  1
  O2-  O143  1  0.50224631  0.75187176  0.94333724  1
  O2-  O144  1  0.06542487  0.17811845  0.09358092  1
  O2-  O145  1  0.07057679  0.17668681  0.42130815  1
  O2-  O146  1  0.07046766  0.17929100  0.76700387  1
  O2-  O147  1  0.07050108  0.67779317  0.08803376  1
  O2-  O148  1  0.06857305  0.68354027  0.43142162  1
  O2-  O149  1  0.07030947  0.67750308  0.75699895  1
  O2-  O150  1  0.57141772  0.17949254  0.09766788  1
  O2-  O151  1  0.56961102  0.17502379  0.43216483  1
  O2-  O152  1  0.56931558  0.17607748  0.76636990  1
  O2-  O153  1  0.57175628  0.68307163  0.09125380  1
  O2-  O154  1  0.57040487  0.68142619  0.43064090  1
  O2-  O155  1  0.57502146  0.68126260  0.76843563  1
  O2-  O156  1  0.17593392  0.42928278  0.24420194  1
  O2-  O157  1  0.17801839  0.43361142  0.56662897  1
  O2-  O158  1  0.17603683  0.43257026  0.90293588  1
  O2-  O159  1  0.17883691  0.92904758  0.24396745  1
  O2-  O160  1  0.17894306  0.92538151  0.57366649  1
  O2-  O161  1  0.17636582  0.92993850  0.90091988  1
  O2-  O162  1  0.68021100  0.43094318  0.23549769  1
  O2-  O163  1  0.67842697  0.43080403  0.57403536  1
  O2-  O164  1  0.68036422  0.42970068  0.89926284  1
  O2-  O165  1  0.68049234  0.92862864  0.24371299  1
  O2-  O166  1  0.68230221  0.92524469  0.56601836  1
  O2-  O167  1  0.68431161  0.92413079  0.90256932  1
  O2-  O168  1  0.42779718  0.31981812  0.09655455  1
  O2-  O169  1  0.42515941  0.31898569  0.43141425  1
  O2-  O170  1  0.42995673  0.31954897  0.76574367  1
  O2-  O171  1  0.42803380  0.81668086  0.09144310  1
  O2-  O172  1  0.42500120  0.82160851  0.42261567  1
  O2-  O173  1  0.42452708  0.82034875  0.75784108  1
  O2-  O174  1  0.93332767  0.32076547  0.09276457  1
  O2-  O175  1  0.93025779  0.32225964  0.42091114  1
  O2-  O176  1  0.92927205  0.32839527  0.76582378  1
  O2-  O177  1  0.93140135  0.82215564  0.08860942  1
  O2-  O178  1  0.93073570  0.82520195  0.41746929  1
  O2-  O179  1  0.92926920  0.81765004  0.76616633  1
  O2-  O180  1  0.31691956  0.06894950  0.24606583  1
  O2-  O181  1  0.31901077  0.06782803  0.56565822  1
  O2-  O182  1  0.31936454  0.07125202  0.90477156  1
  O2-  O183  1  0.31607741  0.57606883  0.24301225  1
  O2-  O184  1  0.32194066  0.57368191  0.56830434  1
  O2-  O185  1  0.31975163  0.57927844  0.91419772  1
  O2-  O186  1  0.82905811  0.06810273  0.24403672  1
  O2-  O187  1  0.82250801  0.06796515  0.56705092  1
  O2-  O188  1  0.83038711  0.06851253  0.91222252  1
  O2-  O189  1  0.82384618  0.56925870  0.24576082  1
  O2-  O190  1  0.82017216  0.57179854  0.57225504  1
  O2-  O191  1  0.82120941  0.57199726  0.89966683  1
  O2-  O192  1  0.04034844  0.08692804  0.26882911  1
  O2-  O193  1  0.04411882  0.08205217  0.59632101  1
  O2-  O194  1  0.04035461  0.08578538  0.94161774  1
  O2-  O195  1  0.03956343  0.58291279  0.26371226  1
  O2-  O196  1  0.04388562  0.58741440  0.60219823  1
  O2-  O197  1  0.04123314  0.58651635  0.93614047  1
  O2-  O198  1  0.53963620  0.07972956  0.26682061  1
  O2-  O199  1  0.54092241  0.07588292  0.60245080  1
  O2-  O200  1  0.54584889  0.07517969  0.93799233  1
  O2-  O201  1  0.53684468  0.58624166  0.26231150  1
  O2-  O202  1  0.54066179  0.58473182  0.59775038  1
  O2-  O203  1  0.54785092  0.58953369  0.93899351  1
  O2-  O204  1  0.16152937  0.20537668  0.26872379  1
  O2-  O205  1  0.16706476  0.20976737  0.59681018  1
  O2-  O206  1  0.16243829  0.20342951  0.94517520  1
  O2-  O207  1  0.16512604  0.71138941  0.26237778  1
  O2-  O208  1  0.16853650  0.70013844  0.60694397  1
  O2-  O209  1  0.16469867  0.70294063  0.93704427  1
  O2-  O210  1  0.67452787  0.19855732  0.26951867  1
  O2-  O211  1  0.67086538  0.19948265  0.60226562  1
  O2-  O212  1  0.67364713  0.20259511  0.93369984  1
  O2-  O213  1  0.66852805  0.70982326  0.26372169  1
  O2-  O214  1  0.66505689  0.71121295  0.59560804  1
  O2-  O215  1  0.66666028  0.71154989  0.94258583  1
  O2-  O216  1  0.08752764  0.46501133  0.07255361  1
  O2-  O217  1  0.08569213  0.45907198  0.39528522  1
  O2-  O218  1  0.08090843  0.46194408  0.73285510  1
  O2-  O219  1  0.08003120  0.95596037  0.07055326  1
  O2-  O220  1  0.08517867  0.95563731  0.39382608  1
  O2-  O221  1  0.08175771  0.95131766  0.72278552  1
  O2-  O222  1  0.57893616  0.45807596  0.06560433  1
  O2-  O223  1  0.57983961  0.46195116  0.39958711  1
  O2-  O224  1  0.58963636  0.46036332  0.72746014  1
  O2-  O225  1  0.58258146  0.95148819  0.07163597  1
  O2-  O226  1  0.58482967  0.95270943  0.39445909  1
  O2-  O227  1  0.57945656  0.94670673  0.73297596  1
  O2-  O228  1  0.20557965  0.33302066  0.07181156  1
  O2-  O229  1  0.20092234  0.33438955  0.39419696  1
  O2-  O230  1  0.20269746  0.33092500  0.73325038  1
  O2-  O231  1  0.20590966  0.82874657  0.06658783  1
  O2-  O232  1  0.20538394  0.83580785  0.39537221  1
  O2-  O233  1  0.19862800  0.83326161  0.72718043  1
  O2-  O234  1  0.71015097  0.33169449  0.06785028  1
  O2-  O235  1  0.71196583  0.33331201  0.40046163  1
  O2-  O236  1  0.70489353  0.33614374  0.72586642  1
  O2-  O237  1  0.71814769  0.83787664  0.07292772  1
  O2-  O238  1  0.70908247  0.83726062  0.39452266  1
  O2-  O239  1  0.71635224  0.83065562  0.73109971  1
  O2-  O240  1  0.44935353  0.42125934  0.26621456  1
  O2-  O241  1  0.45641516  0.41961844  0.60089430  1
  O2-  O242  1  0.44997290  0.42291195  0.93308241  1
  O2-  O243  1  0.44954678  0.91650487  0.27193381  1
  O2-  O244  1  0.45068958  0.91404321  0.60503070  1
  O2-  O245  1  0.45283261  0.91335568  0.94230114  1
  O2-  O246  1  0.95826620  0.41247086  0.26841626  1
  O2-  O247  1  0.95713672  0.42163187  0.59516134  1
  O2-  O248  1  0.96274367  0.41372074  0.94162192  1
  O2-  O249  1  0.95815362  0.91610560  0.26495234  1
  O2-  O250  1  0.95791333  0.91524737  0.59419047  1
  O2-  O251  1  0.95891504  0.91301094  0.93653597  1
  O2-  O252  1  0.32930931  0.28873694  0.26621394  1
  O2-  O253  1  0.33026655  0.29314248  0.60103394  1
  O2-  O254  1  0.32670757  0.29067338  0.93500934  1
  O2-  O255  1  0.33468003  0.79308198  0.26951617  1
  O2-  O256  1  0.33188927  0.79672818  0.60491523  1
  O2-  O257  1  0.33746275  0.78989271  0.93839266  1
  O2-  O258  1  0.83879984  0.29146975  0.26820157  1
  O2-  O259  1  0.83007867  0.29689234  0.59561324  1
  O2-  O260  1  0.83853026  0.29948322  0.94081905  1
  O2-  O261  1  0.83444239  0.80140988  0.26705840  1
  O2-  O262  1  0.83785220  0.78467847  0.59364734  1
  O2-  O263  1  0.83876234  0.79208647  0.93695838  1
  O2-  O264  1  0.41762172  0.03955858  0.07383704  1
  O2-  O265  1  0.41043281  0.04186098  0.39780112  1
  O2-  O266  1  0.41374432  0.03743454  0.73700367  1
  O2-  O267  1  0.41881057  0.55423243  0.06235999  1
  O2-  O268  1  0.41234481  0.54886019  0.39299001  1
  O2-  O269  1  0.42450015  0.54883310  0.73445026  1
  O2-  O270  1  0.91275802  0.03898927  0.06826026  1
  O2-  O271  1  0.91364728  0.03777028  0.39744577  1
  O2-  O272  1  0.91954108  0.03901688  0.73235412  1
  O2-  O273  1  0.91848598  0.54077493  0.06870902  1
  O2-  O274  1  0.91524532  0.54318971  0.39703536  1
  O2-  O275  1  0.91350349  0.54845742  0.72483379  1
  O2-  O276  1  0.28901684  0.16665890  0.07492499  1
  O2-  O277  1  0.28718377  0.16138577  0.39698280  1
  O2-  O278  1  0.28747393  0.16549416  0.73391027  1
  O2-  O279  1  0.29213892  0.66455126  0.06864344  1
  O2-  O280  1  0.28683319  0.66292337  0.39598054  1
  O2-  O281  1  0.29522411  0.66974781  0.73777770  1
  O2-  O282  1  0.80585416  0.16847477  0.06118180  1
  O2-  O283  1  0.80290324  0.16444926  0.39463062  1
  O2-  O284  1  0.80367037  0.17445402  0.73122180  1
  O2-  O285  1  0.79979183  0.67036210  0.06899411  1
  O2-  O286  1  0.80132066  0.66951655  0.39204668  1
  O2-  O287  1  0.78980750  0.66126054  0.72511977  1
