# generated using pymatgen
data_Ca2Al2SiO7
_symmetry_space_group_name_H-M   'P 1'
_cell_length_a   15.45501605
_cell_length_b   15.45531917
_cell_length_c   15.28126866
_cell_angle_alpha   89.99539353
_cell_angle_beta   90.00629167
_cell_angle_gamma   89.99181714
_symmetry_Int_Tables_number   1
_chemical_formula_structural   Ca2Al2SiO7
_chemical_formula_sum   'Ca48 Al48 Si24 O168'
_cell_volume   3650.11747011
_cell_formula_units_Z   24
loop_
 _symmetry_equiv_pos_site_id
 _symmetry_equiv_pos_as_xyz
  1  'x, y, z'
loop_
 _atom_type_symbol
 _atom_type_oxidation_number
  Ca2+  2.0
  Al0+  0.0
  Si0+  0.0
  O2-  -2.0
loop_
 _atom_site_type_symbol
 _atom_site_label
 _atom_site_symmetry_multiplicity
 _atom_site_fract_x
 _atom_site_fract_y
 _atom_site_fract_z
 _atom_site_occupancy
  Ca2+  Ca0  1  0.16977205  0.08901346  0.16813047  1
  Ca2+  Ca1  1  0.16257777  0.08260336  0.50577604  1
  Ca2+  Ca2  1  0.16264096  0.07978154  0.84011563  1
  Ca2+  Ca3  1  0.17528604  0.59579771  0.17226887  1
  Ca2+  Ca4  1  0.17239162  0.59254547  0.49887745  1
  Ca2+  Ca5  1  0.17054672  0.58433554  0.84284908  1
  Ca2+  Ca6  1  0.67137790  0.08009018  0.17464907  1
  Ca2+  Ca7  1  0.66168903  0.07174727  0.50141267  1
  Ca2+  Ca8  1  0.67568394  0.07626406  0.83989289  1
  Ca2+  Ca9  1  0.65616961  0.57522230  0.17222556  1
  Ca2+  Ca10  1  0.66965552  0.57366951  0.50709982  1
  Ca2+  Ca11  1  0.67264780  0.57585726  0.83809431  1
  Ca2+  Ca12  1  0.07745260  0.32580788  0.16334468  1
  Ca2+  Ca13  1  0.07193721  0.32643254  0.49315426  1
  Ca2+  Ca14  1  0.07889412  0.31996471  0.82369296  1
  Ca2+  Ca15  1  0.08650112  0.82242728  0.16374109  1
  Ca2+  Ca16  1  0.07645578  0.83378143  0.49846546  1
  Ca2+  Ca17  1  0.07915733  0.83066392  0.82793892  1
  Ca2+  Ca18  1  0.59129133  0.33158053  0.16530917  1
  Ca2+  Ca19  1  0.59241942  0.32923624  0.49323665  1
  Ca2+  Ca20  1  0.58689717  0.33809941  0.83204904  1
  Ca2+  Ca21  1  0.57677862  0.82447303  0.16277314  1
  Ca2+  Ca22  1  0.58206395  0.82933825  0.48739746  1
  Ca2+  Ca23  1  0.58116048  0.83129199  0.83076582  1
  Ca2+  Ca24  1  0.33296436  0.43249615  0.17194608  1
  Ca2+  Ca25  1  0.33447276  0.42565354  0.50017144  1
  Ca2+  Ca26  1  0.32969638  0.42339666  0.84278234  1
  Ca2+  Ca27  1  0.33958654  0.91540845  0.16835651  1
  Ca2+  Ca28  1  0.32686839  0.91521562  0.50362553  1
  Ca2+  Ca29  1  0.32700255  0.92074950  0.84042131  1
  Ca2+  Ca30  1  0.82488457  0.41462259  0.17311948  1
  Ca2+  Ca31  1  0.83128720  0.41746489  0.50476937  1
  Ca2+  Ca32  1  0.82644951  0.41287997  0.83409332  1
  Ca2+  Ca33  1  0.82977141  0.92375486  0.17095392  1
  Ca2+  Ca34  1  0.82150982  0.91037828  0.50727335  1
  Ca2+  Ca35  1  0.83282709  0.91745269  0.83509542  1
  Ca2+  Ca36  1  0.42365391  0.16389554  0.16277393  1
  Ca2+  Ca37  1  0.42412799  0.17060136  0.49249309  1
  Ca2+  Ca38  1  0.41531344  0.16567367  0.83266591  1
  Ca2+  Ca39  1  0.42055763  0.67246312  0.16134778  1
  Ca2+  Ca40  1  0.42346151  0.67370605  0.48741226  1
  Ca2+  Ca41  1  0.42109293  0.66616776  0.83836935  1
  Ca2+  Ca42  1  0.92169552  0.16837154  0.16292392  1
  Ca2+  Ca43  1  0.92247574  0.17593527  0.49448702  1
  Ca2+  Ca44  1  0.92265411  0.16687421  0.82713090  1
  Ca2+  Ca45  1  0.92881175  0.66347279  0.16337433  1
  Ca2+  Ca46  1  0.91550387  0.66935064  0.49791048  1
  Ca2+  Ca47  1  0.91871486  0.66818340  0.82657714  1
  Al0+  Al48  1  -0.00035613  -0.00039167  0.00307165  1
  Al0+  Al49  1  0.00088135  0.00157412  0.33070104  1
  Al0+  Al50  1  0.00048845  -0.00380535  0.66228600  1
  Al0+  Al51  1  -0.00230749  0.49831942  -0.00544327  1
  Al0+  Al52  1  0.00003933  0.49948238  0.32552526  1
  Al0+  Al53  1  0.00294792  0.49936587  0.66641712  1
  Al0+  Al54  1  0.49868945  -0.00032249  -0.00156292  1
  Al0+  Al55  1  0.49960761  0.00236747  0.33078927  1
  Al0+  Al56  1  0.49875350  -0.00026500  0.67115740  1
  Al0+  Al57  1  0.49858805  0.49991768  0.00364303  1
  Al0+  Al58  1  0.49907448  0.50035021  0.34180240  1
  Al0+  Al59  1  0.50033862  0.50044687  0.66987928  1
  Al0+  Al60  1  0.24942339  0.24861197  0.00028408  1
  Al0+  Al61  1  0.24986591  0.25168170  0.33213476  1
  Al0+  Al62  1  0.25343061  0.25181971  0.66126689  1
  Al0+  Al63  1  0.24980759  0.75074841  -0.00534005  1
  Al0+  Al64  1  0.24989014  0.75301681  0.33314195  1
  Al0+  Al65  1  0.25171249  0.75290054  0.67235726  1
  Al0+  Al66  1  0.75027581  0.24868269  0.00687689  1
  Al0+  Al67  1  0.75095730  0.24985380  0.33043537  1
  Al0+  Al68  1  0.74942250  0.24861478  0.66648636  1
  Al0+  Al69  1  0.74972304  0.74775166  -0.00193066  1
  Al0+  Al70  1  0.74950275  0.74974974  0.33113249  1
  Al0+  Al71  1  0.74986533  0.74770715  0.67163390  1
  Al0+  Al72  1  0.56975428  0.18068561  0.32000185  1
  Al0+  Al73  1  0.92769698  0.81811664  0.65354184  1
  Al0+  Al74  1  0.57225452  0.67673449  0.32046488  1
  Al0+  Al75  1  0.92764471  0.32180624  0.65150553  1
  Al0+  Al76  1  0.07260103  0.17721876  0.65107856  1
  Al0+  Al77  1  0.17826580  0.93054116  0.68057717  1
  Al0+  Al78  1  0.31746320  0.57114479  0.01414175  1
  Al0+  Al79  1  0.42872362  0.82224971  0.31946436  1
  Al0+  Al80  1  0.06965062  0.68173846  0.32218728  1
  Al0+  Al81  1  0.67679729  0.92753633  0.68107089  1
  Al0+  Al82  1  0.32080499  0.07154154  0.01441653  1
  Al0+  Al83  1  0.07090073  0.17957981  0.98506137  1
  Al0+  Al84  1  0.07263443  0.17767237  0.31599668  1
  Al0+  Al85  1  0.42996600  0.82255883  0.98123268  1
  Al0+  Al86  1  0.67953095  0.92971823  0.34485072  1
  Al0+  Al87  1  0.67923971  0.42685037  0.68269391  1
  Al0+  Al88  1  0.82402224  0.57039947  0.68144613  1
  Al0+  Al89  1  0.31916759  0.57315075  0.34838874  1
  Al0+  Al90  1  0.82146901  0.06904729  0.01404624  1
  Al0+  Al91  1  0.57121180  0.67583239  0.98289180  1
  Al0+  Al92  1  0.07040227  0.67837834  0.98494723  1
  Al0+  Al93  1  0.92823429  0.32135536  0.31551210  1
  Al0+  Al94  1  0.68039652  0.43116801  0.01582474  1
  Al0+  Al95  1  0.68025859  0.42932777  0.34811616  1
  Si0+  Si96  1  0.56951967  0.17776281  0.65398612  1
  Si0+  Si97  1  0.82345360  0.07122637  0.35185408  1
  Si0+  Si98  1  0.32088582  0.07333026  0.34849361  1
  Si0+  Si99  1  0.43010449  0.32391700  0.65129008  1
  Si0+  Si100  1  0.57247937  0.17911992  0.98470192  1
  Si0+  Si101  1  0.67708785  0.92624983  0.01686580  1
  Si0+  Si102  1  0.82123208  0.06993838  0.68055693  1
  Si0+  Si103  1  0.32072035  0.57192794  0.68314708  1
  Si0+  Si104  1  0.92535817  0.82342858  0.31649045  1
  Si0+  Si105  1  0.32157273  0.07400370  0.68230745  1
  Si0+  Si106  1  0.17571265  0.42695689  0.01545171  1
  Si0+  Si107  1  0.92784246  0.82192232  0.98453531  1
  Si0+  Si108  1  0.82543746  0.57220463  0.34810297  1
  Si0+  Si109  1  0.42945688  0.82172932  0.65161545  1
  Si0+  Si110  1  0.56965197  0.67874530  0.65199875  1
  Si0+  Si111  1  0.17739769  0.42792909  0.35008303  1
  Si0+  Si112  1  0.92535568  0.31973686  0.98151225  1
  Si0+  Si113  1  0.17864346  0.93003605  0.34823282  1
  Si0+  Si114  1  0.18116979  0.42782668  0.68045621  1
  Si0+  Si115  1  0.82387592  0.57365550  0.01808852  1
  Si0+  Si116  1  0.42726737  0.32369835  0.31693409  1
  Si0+  Si117  1  0.07558022  0.67815806  0.65090867  1
  Si0+  Si118  1  0.17827590  0.92856079  0.01831416  1
  Si0+  Si119  1  0.42965751  0.32001485  0.98677285  1
  O2-  O120  1  0.24755595  -0.00339713  0.06275670  1
  O2-  O121  1  0.24754955  0.00425079  0.38977676  1
  O2-  O122  1  0.24812151  0.01047299  0.72585860  1
  O2-  O123  1  0.23840826  0.50059022  0.06080914  1
  O2-  O124  1  0.24404800  0.49847075  0.39587632  1
  O2-  O125  1  0.24854516  0.50164832  0.72443586  1
  O2-  O126  1  0.74670673  -0.00588010  0.06044320  1
  O2-  O127  1  0.75634369  0.00061286  0.39565802  1
  O2-  O128  1  0.75296660  0.00130042  0.72640689  1
  O2-  O129  1  0.75312630  0.50749540  0.06255597  1
  O2-  O130  1  0.75408167  0.50605512  0.39233382  1
  O2-  O131  1  0.75408558  0.49607460  0.73173031  1
  O2-  O132  1  0.00008264  0.24860304  0.26637761  1
  O2-  O133  1  0.00024345  0.24941660  0.60262227  1
  O2-  O134  1  -0.00301257  0.25402124  0.93750546  1
  O2-  O135  1  -0.00657197  0.75364001  0.27329727  1
  O2-  O136  1  0.00238934  0.74241098  0.60752771  1
  O2-  O137  1  -0.00657167  0.75064599  0.93940093  1
  O2-  O138  1  0.49751754  0.25728895  0.27203422  1
  O2-  O139  1  0.50210772  0.25266936  0.61153925  1
  O2-  O140  1  0.50065679  0.24950245  0.94236617  1
  O2-  O141  1  0.50072025  0.74958066  0.27138834  1
  O2-  O142  1  0.50135086  0.75230857  0.60902862  1
  O2-  O143  1  0.50340852  0.75161265  0.93129847  1
  O2-  O144  1  0.07112106  0.18238001  0.09760192  1
  O2-  O145  1  0.07223678  0.17818755  0.42956423  1
  O2-  O146  1  0.07292701  0.17874116  0.76497324  1
  O2-  O147  1  0.07114990  0.68125822  0.09819821  1
  O2-  O148  1  0.07031699  0.68499176  0.43544663  1
  O2-  O149  1  0.07787314  0.68051007  0.75643901  1
  O2-  O150  1  0.57189393  0.17968233  0.08965363  1
  O2-  O151  1  0.56657056  0.17894413  0.43381925  1
  O2-  O152  1  0.56684445  0.17630649  0.75923926  1
  O2-  O153  1  0.56795633  0.67522079  0.09612831  1
  O2-  O154  1  0.57102513  0.67831014  0.43490049  1
  O2-  O155  1  0.56597158  0.67709002  0.75682860  1
  O2-  O156  1  0.18093120  0.42657263  0.24459477  1
  O2-  O157  1  0.18454965  0.42733657  0.57560958  1
  O2-  O158  1  0.18082247  0.42603034  0.90923786  1
  O2-  O159  1  0.17919194  0.92788801  0.24342584  1
  O2-  O160  1  0.18252673  0.92724170  0.56726246  1
  O2-  O161  1  0.17724134  0.93059091  0.91249085  1
  O2-  O162  1  0.68037979  0.42977784  0.23501306  1
  O2-  O163  1  0.67601965  0.42887885  0.56954724  1
  O2-  O164  1  0.68204324  0.42913159  0.90275679  1
  O2-  O165  1  0.68121370  0.93295615  0.23196564  1
  O2-  O166  1  0.67397413  0.92932981  0.56784379  1
  O2-  O167  1  0.67806382  0.92902474  0.91076564  1
  O2-  O168  1  0.43005053  0.31930692  0.09153585  1
  O2-  O169  1  0.42596969  0.32039053  0.42315494  1
  O2-  O170  1  0.42678340  0.32431925  0.75647672  1
  O2-  O171  1  0.43140208  0.82248108  0.09456286  1
  O2-  O172  1  0.42817105  0.82151682  0.43403625  1
  O2-  O173  1  0.42917148  0.82117979  0.75625073  1
  O2-  O174  1  0.92550383  0.31877199  0.08680306  1
  O2-  O175  1  0.92936570  0.32077360  0.42922688  1
  O2-  O176  1  0.92921953  0.31830894  0.76531989  1
  O2-  O177  1  0.92969124  0.82220198  0.09025709  1
  O2-  O178  1  0.92562884  0.82339486  0.42221981  1
  O2-  O179  1  0.93040647  0.81896981  0.76667758  1
  O2-  O180  1  0.32163117  0.07350488  0.24362876  1
  O2-  O181  1  0.32578575  0.07207074  0.57658793  1
  O2-  O182  1  0.31895175  0.07255306  0.90108242  1
  O2-  O183  1  0.31755002  0.57306864  0.23556827  1
  O2-  O184  1  0.32085172  0.57241566  0.57801888  1
  O2-  O185  1  0.31730684  0.56644641  0.90029020  1
  O2-  O186  1  0.82264296  0.06928673  0.24595594  1
  O2-  O187  1  0.81780638  0.06997849  0.57513549  1
  O2-  O188  1  0.81978089  0.06868953  0.90041652  1
  O2-  O189  1  0.82812115  0.57063853  0.24259673  1
  O2-  O190  1  0.82009681  0.57247229  0.56766472  1
  O2-  O191  1  0.82496900  0.57218196  0.91260364  1
  O2-  O192  1  0.04672541  0.07857687  0.26305607  1
  O2-  O193  1  0.04617438  0.07844418  0.59911881  1
  O2-  O194  1  0.03993666  0.08120607  0.93482479  1
  O2-  O195  1  0.04536424  0.58502978  0.26600276  1
  O2-  O196  1  0.05808507  0.58239828  0.60688675  1
  O2-  O197  1  0.04386492  0.58015053  0.93100595  1
  O2-  O198  1  0.53574387  0.08704210  0.26323624  1
  O2-  O199  1  0.53665465  0.08745390  0.60552438  1
  O2-  O200  1  0.54504406  0.08767796  0.93670628  1
  O2-  O201  1  0.54034810  0.57811018  0.27099628  1
  O2-  O202  1  0.53845068  0.58746909  0.60498621  1
  O2-  O203  1  0.53590932  0.57882850  0.93004363  1
  O2-  O204  1  0.17179621  0.20724151  0.26503645  1
  O2-  O205  1  0.17207511  0.20628665  0.59925377  1
  O2-  O206  1  0.16812610  0.20960383  0.93090271  1
  O2-  O207  1  0.16399858  0.71751360  0.26731242  1
  O2-  O208  1  0.16819570  0.71032485  0.60548267  1
  O2-  O209  1  0.16524614  0.71047873  0.92914442  1
  O2-  O210  1  0.66650376  0.20773892  0.26588096  1
  O2-  O211  1  0.66186265  0.20075286  0.60626229  1
  O2-  O212  1  0.66405151  0.20849562  0.93792570  1
  O2-  O213  1  0.67077384  0.70175436  0.26637674  1
  O2-  O214  1  0.66279128  0.70358265  0.60754691  1
  O2-  O215  1  0.67200682  0.69960826  0.93186975  1
  O2-  O216  1  0.07898703  0.44585889  0.05669673  1
  O2-  O217  1  0.08260105  0.45288305  0.39319753  1
  O2-  O218  1  0.08878350  0.45034515  0.72855655  1
  O2-  O219  1  0.08528215  0.95313516  0.06547699  1
  O2-  O220  1  0.08556767  0.95563830  0.39522302  1
  O2-  O221  1  0.08008188  0.95531284  0.73422239  1
  O2-  O222  1  0.58224210  0.45791092  0.06840591  1
  O2-  O223  1  0.58284515  0.45478575  0.40389871  1
  O2-  O224  1  0.58061185  0.45780012  0.73576951  1
  O2-  O225  1  0.58389254  0.95441547  0.06082412  1
  O2-  O226  1  0.58341109  0.96461842  0.39905982  1
  O2-  O227  1  0.58177136  0.96111756  0.73705666  1
  O2-  O228  1  0.20696519  0.33585796  0.06250196  1
  O2-  O229  1  0.20603988  0.33552511  0.39822572  1
  O2-  O230  1  0.21390976  0.33730687  0.72866191  1
  O2-  O231  1  0.20551020  0.83460424  0.06209414  1
  O2-  O232  1  0.20939865  0.84087586  0.39897731  1
  O2-  O233  1  0.21376785  0.83666787  0.73797177  1
  O2-  O234  1  0.71100253  0.33433288  0.06954898  1
  O2-  O235  1  0.71162815  0.33148669  0.40009894  1
  O2-  O236  1  0.70276650  0.32632375  0.73487268  1
  O2-  O237  1  0.70109408  0.83142796  0.06058853  1
  O2-  O238  1  0.70727812  0.83157023  0.39883367  1
  O2-  O239  1  0.70650455  0.83179799  0.73576075  1
  O2-  O240  1  0.45081458  0.41870169  0.27466131  1
  O2-  O241  1  0.45684609  0.41605856  0.60362643  1
  O2-  O242  1  0.45730118  0.41103365  0.93783204  1
  O2-  O243  1  0.45582197  0.92045332  0.26701222  1
  O2-  O244  1  0.45411006  0.91539397  0.60606848  1
  O2-  O245  1  0.45640536  0.92205706  0.92773270  1
  O2-  O246  1  0.95637715  0.41850097  0.25992211  1
  O2-  O247  1  0.95777428  0.42039433  0.59930356  1
  O2-  O248  1  0.94598815  0.41448365  0.93602979  1
  O2-  O249  1  0.95301415  0.91640522  0.27076384  1
  O2-  O250  1  0.95842104  0.91282279  0.59614371  1
  O2-  O251  1  0.95671962  0.91432507  0.93793501  1
  O2-  O252  1  0.33459703  0.29805494  0.27021385  1
  O2-  O253  1  0.34045109  0.29635991  0.59933614  1
  O2-  O254  1  0.33850290  0.29163992  0.93750090  1
  O2-  O255  1  0.33075078  0.79470713  0.26639458  1
  O2-  O256  1  0.33760946  0.79169279  0.60517653  1
  O2-  O257  1  0.33169950  0.79328281  0.92850694  1
  O2-  O258  1  0.83113216  0.29103691  0.26199811  1
  O2-  O259  1  0.82843498  0.29335505  0.59948285  1
  O2-  O260  1  0.83268879  0.28851990  0.93654209  1
  O2-  O261  1  0.83257216  0.80034860  0.26854172  1
  O2-  O262  1  0.83037723  0.78739469  0.59993018  1
  O2-  O263  1  0.83305168  0.80067521  0.93904809  1
  O2-  O264  1  0.41896603  0.04298737  0.06714578  1
  O2-  O265  1  0.41161122  0.04415031  0.39746346  1
  O2-  O266  1  0.41218320  0.04365274  0.73206528  1
  O2-  O267  1  0.41166585  0.53544292  0.06849064  1
  O2-  O268  1  0.41322635  0.54054082  0.40691935  1
  O2-  O269  1  0.41117570  0.54085090  0.73094743  1
  O2-  O270  1  0.91673058  0.03802423  0.07075268  1
  O2-  O271  1  0.91842045  0.04792917  0.39620828  1
  O2-  O272  1  0.91489981  0.04303955  0.72520510  1
  O2-  O273  1  0.91775419  0.54518827  0.06301321  1
  O2-  O274  1  0.91855114  0.54469506  0.39492550  1
  O2-  O275  1  0.92539775  0.54813522  0.73254539  1
  O2-  O276  1  0.29093490  0.16813283  0.06919684  1
  O2-  O277  1  0.29598099  0.16618404  0.39649132  1
  O2-  O278  1  0.30332980  0.17063509  0.72546878  1
  O2-  O279  1  0.28889783  0.66954234  0.06480532  1
  O2-  O280  1  0.28633547  0.66937744  0.40334240  1
  O2-  O281  1  0.29464600  0.66355993  0.73127220  1
  O2-  O282  1  0.78899660  0.16344089  0.07049968  1
  O2-  O283  1  0.79505584  0.16436589  0.39603606  1
  O2-  O284  1  0.79483741  0.16249484  0.72846518  1
  O2-  O285  1  0.80350735  0.66901901  0.06279764  1
  O2-  O286  1  0.80328907  0.66772153  0.39186730  1
  O2-  O287  1  0.79262630  0.66631998  0.73781983  1
