# generated using pymatgen
data_Ca2Al2SiO7
_symmetry_space_group_name_H-M   'P 1'
_cell_length_a   15.45771597
_cell_length_b   15.45732472
_cell_length_c   15.28317956
_cell_angle_alpha   89.99105062
_cell_angle_beta   89.99441340
_cell_angle_gamma   89.99173157
_symmetry_Int_Tables_number   1
_chemical_formula_structural   Ca2Al2SiO7
_chemical_formula_sum   'Ca48 Al48 Si24 O168'
_cell_volume   3651.68541771
_cell_formula_units_Z   24
loop_
 _symmetry_equiv_pos_site_id
 _symmetry_equiv_pos_as_xyz
  1  'x, y, z'
loop_
 _atom_type_symbol
 _atom_type_oxidation_number
  Ca2+  2.0
  Al0+  0.0
  Si0+  0.0
  O2-  -2.0
loop_
 _atom_site_type_symbol
 _atom_site_label
 _atom_site_symmetry_multiplicity
 _atom_site_fract_x
 _atom_site_fract_y
 _atom_site_fract_z
 _atom_site_occupancy
  Ca2+  Ca0  1  0.16848160  0.07787651  0.17723534  1
  Ca2+  Ca1  1  0.17318532  0.07419618  0.50477501  1
  Ca2+  Ca2  1  0.16076397  0.08236717  0.83260722  1
  Ca2+  Ca3  1  0.16995532  0.58327528  0.17204996  1
  Ca2+  Ca4  1  0.17174469  0.58471537  0.50525700  1
  Ca2+  Ca5  1  0.18151125  0.58465263  0.83768476  1
  Ca2+  Ca6  1  0.67622604  0.09238837  0.16956181  1
  Ca2+  Ca7  1  0.67295313  0.08896006  0.50400094  1
  Ca2+  Ca8  1  0.66801540  0.08711868  0.84053682  1
  Ca2+  Ca9  1  0.67802614  0.57947865  0.17785811  1
  Ca2+  Ca10  1  0.65375031  0.57610223  0.50272406  1
  Ca2+  Ca11  1  0.66507990  0.57639980  0.83590525  1
  Ca2+  Ca12  1  0.07376537  0.32440831  0.15558675  1
  Ca2+  Ca13  1  0.08706566  0.32473133  0.49655351  1
  Ca2+  Ca14  1  0.07725731  0.32371850  0.83087567  1
  Ca2+  Ca15  1  0.08745635  0.82968928  0.17103268  1
  Ca2+  Ca16  1  0.08367463  0.83337737  0.49708685  1
  Ca2+  Ca17  1  0.07596328  0.83542923  0.82422588  1
  Ca2+  Ca18  1  0.58264762  0.33245005  0.16819041  1
  Ca2+  Ca19  1  0.57766267  0.33753331  0.49958252  1
  Ca2+  Ca20  1  0.58524781  0.32474109  0.82506300  1
  Ca2+  Ca21  1  0.58137042  0.83152687  0.16854279  1
  Ca2+  Ca22  1  0.57351281  0.82167932  0.49334507  1
  Ca2+  Ca23  1  0.57479465  0.82398213  0.82006623  1
  Ca2+  Ca24  1  0.33671145  0.42046915  0.17121542  1
  Ca2+  Ca25  1  0.34266226  0.42109989  0.50800788  1
  Ca2+  Ca26  1  0.34232734  0.42612350  0.83241589  1
  Ca2+  Ca27  1  0.32901996  0.92487909  0.17999521  1
  Ca2+  Ca28  1  0.32592030  0.90778309  0.50351331  1
  Ca2+  Ca29  1  0.32636183  0.91058401  0.83352763  1
  Ca2+  Ca30  1  0.82914382  0.42001630  0.17461873  1
  Ca2+  Ca31  1  0.81978690  0.42491125  0.50258085  1
  Ca2+  Ca32  1  0.82888114  0.41848051  0.83899100  1
  Ca2+  Ca33  1  0.83362291  0.93181094  0.17234371  1
  Ca2+  Ca34  1  0.83641514  0.91966340  0.50279522  1
  Ca2+  Ca35  1  0.83210396  0.92089124  0.83705755  1
  Ca2+  Ca36  1  0.41737642  0.17164676  0.16304911  1
  Ca2+  Ca37  1  0.41629776  0.17718206  0.49330764  1
  Ca2+  Ca38  1  0.43003355  0.17281645  0.82271972  1
  Ca2+  Ca39  1  0.42005094  0.66994938  0.16760369  1
  Ca2+  Ca40  1  0.42094784  0.67161695  0.49744606  1
  Ca2+  Ca41  1  0.41819463  0.66616740  0.82264419  1
  Ca2+  Ca42  1  0.91613680  0.16979316  0.15596912  1
  Ca2+  Ca43  1  0.92152793  0.16360534  0.49797162  1
  Ca2+  Ca44  1  0.92260404  0.16632630  0.83273176  1
  Ca2+  Ca45  1  0.92063153  0.65737212  0.16443995  1
  Ca2+  Ca46  1  0.92017487  0.67139709  0.49160343  1
  Ca2+  Ca47  1  0.91295911  0.67327355  0.82755985  1
  Al0+  Al48  1  -0.00134152  -0.00225799  0.00188005  1
  Al0+  Al49  1  0.00134845  -0.00128361  0.34041117  1
  Al0+  Al50  1  0.00115979  -0.00014570  0.66335938  1
  Al0+  Al51  1  0.00189219  0.49962655  -0.00370519  1
  Al0+  Al52  1  -0.00002133  0.49968499  0.33389239  1
  Al0+  Al53  1  -0.00017912  0.49931091  0.66900661  1
  Al0+  Al54  1  0.49710727  -0.00189210  -0.00402684  1
  Al0+  Al55  1  0.50190315  0.00250670  0.33268304  1
  Al0+  Al56  1  0.50071270  -0.00001164  0.65952200  1
  Al0+  Al57  1  0.49999357  0.50176095  0.00674046  1
  Al0+  Al58  1  0.50013558  0.49948860  0.32646427  1
  Al0+  Al59  1  0.50155947  0.49816647  0.67186928  1
  Al0+  Al60  1  0.24985228  0.25007865  -0.00575962  1
  Al0+  Al61  1  0.25027600  0.24974225  0.33016120  1
  Al0+  Al62  1  0.24902320  0.24897202  0.66162917  1
  Al0+  Al63  1  0.24966796  0.74973615  0.00557262  1
  Al0+  Al64  1  0.24858823  0.74963507  0.32843277  1
  Al0+  Al65  1  0.24794075  0.74981803  0.67439454  1
  Al0+  Al66  1  0.74916390  0.25029714  -0.00329255  1
  Al0+  Al67  1  0.75028230  0.25254559  0.34327426  1
  Al0+  Al68  1  0.75233853  0.25175056  0.66849168  1
  Al0+  Al69  1  0.74885445  0.74858429  0.00385498  1
  Al0+  Al70  1  0.75253582  0.75314186  0.33056647  1
  Al0+  Al71  1  0.75083942  0.75202864  0.65791321  1
  Al0+  Al72  1  0.82198389  0.57156624  0.01252978  1
  Al0+  Al73  1  0.67776894  0.43205006  0.34994921  1
  Al0+  Al74  1  0.57098851  0.67792412  0.65354040  1
  Al0+  Al75  1  0.82052254  0.07175436  0.34845383  1
  Al0+  Al76  1  0.42495591  0.82085537  0.65302152  1
  Al0+  Al77  1  0.32098708  0.57100236  0.01757528  1
  Al0+  Al78  1  0.18180772  0.92777917  0.35011700  1
  Al0+  Al79  1  0.56902786  0.17886629  0.98777183  1
  Al0+  Al80  1  0.43064640  0.31970773  0.65323307  1
  Al0+  Al81  1  0.31896417  0.56843426  0.67853317  1
  Al0+  Al82  1  0.06913052  0.67794146  0.31990097  1
  Al0+  Al83  1  0.07152344  0.17534482  0.98559244  1
  Al0+  Al84  1  0.06957030  0.17956730  0.65063006  1
  Al0+  Al85  1  0.32351240  0.07407910  0.34780099  1
  Al0+  Al86  1  0.82383355  0.57329988  0.34896933  1
  Al0+  Al87  1  0.57506834  0.17756240  0.65030654  1
  Al0+  Al88  1  0.18020174  0.93064549  0.68263360  1
  Al0+  Al89  1  0.92928858  0.82086007  0.65319389  1
  Al0+  Al90  1  0.92780245  0.32261141  0.98476684  1
  Al0+  Al91  1  0.42816730  0.82264144  0.31708454  1
  Al0+  Al92  1  0.81868859  0.06954462  0.01160010  1
  Al0+  Al93  1  0.68062644  0.43051684  0.68305564  1
  Al0+  Al94  1  0.57215311  0.67884421  0.31560962  1
  Al0+  Al95  1  0.42814135  0.32024848  0.31760861  1
  Si0+  Si96  1  0.92935703  0.31934438  0.32075746  1
  Si0+  Si97  1  0.82362519  0.57482652  0.68265829  1
  Si0+  Si98  1  0.92823312  0.32420366  0.64781766  1
  Si0+  Si99  1  0.07273143  0.67921613  0.98419557  1
  Si0+  Si100  1  0.82090544  0.06963603  0.68289045  1
  Si0+  Si101  1  0.17885074  0.42694642  0.01611162  1
  Si0+  Si102  1  0.17790203  0.42808411  0.34642743  1
  Si0+  Si103  1  0.32325146  0.07388769  0.68373499  1
  Si0+  Si104  1  0.57106396  0.67972965  0.98550113  1
  Si0+  Si105  1  0.32184983  0.07094815  0.01181924  1
  Si0+  Si106  1  0.67475661  0.92709239  0.01540289  1
  Si0+  Si107  1  0.42736957  0.81949613  0.98436362  1
  Si0+  Si108  1  0.57513765  0.17969662  0.31742793  1
  Si0+  Si109  1  0.06976535  0.17812960  0.31865123  1
  Si0+  Si110  1  0.17808891  0.92991876  0.01615356  1
  Si0+  Si111  1  0.92912431  0.82470117  0.31407546  1
  Si0+  Si112  1  0.67757315  0.92781942  0.35091040  1
  Si0+  Si113  1  0.92854056  0.81912336  0.98689302  1
  Si0+  Si114  1  0.67822648  0.92793571  0.67962996  1
  Si0+  Si115  1  0.17507331  0.42417850  0.68437379  1
  Si0+  Si116  1  0.07142108  0.67731000  0.65354292  1
  Si0+  Si117  1  0.67898944  0.42757857  0.01797080  1
  Si0+  Si118  1  0.31937121  0.56910620  0.34694456  1
  Si0+  Si119  1  0.42787018  0.32437753  0.98279600  1
  O2-  O120  1  0.24622092  0.00506994  0.05507314  1
  O2-  O121  1  0.25746755  -0.00311810  0.39836812  1
  O2-  O122  1  0.25727455  0.00290734  0.73013201  1
  O2-  O123  1  0.24835366  0.49342229  0.06294036  1
  O2-  O124  1  0.24987758  0.49715745  0.38974590  1
  O2-  O125  1  0.24458774  0.49308333  0.72697162  1
  O2-  O126  1  0.74108255  -0.00162914  0.05958692  1
  O2-  O127  1  0.74541800  -0.00237493  0.39516107  1
  O2-  O128  1  0.74540130  0.00229839  0.72402775  1
  O2-  O129  1  0.75014663  0.49491671  0.06001742  1
  O2-  O130  1  0.74484357  0.50976966  0.39907272  1
  O2-  O131  1  0.75526500  0.50664960  0.72808919  1
  O2-  O132  1  -0.00267676  0.24673845  0.27579511  1
  O2-  O133  1  -0.00124970  0.25762332  0.60314433  1
  O2-  O134  1  -0.00096945  0.24799294  0.93696254  1
  O2-  O135  1  -0.00707701  0.75069739  0.27065117  1
  O2-  O136  1  -0.00003971  0.74182348  0.60854788  1
  O2-  O137  1  -0.00214762  0.74673191  0.94328527  1
  O2-  O138  1  0.50179163  0.24337888  0.27251692  1
  O2-  O139  1  0.49961120  0.24604891  0.60127140  1
  O2-  O140  1  0.49558151  0.25428902  0.94031084  1
  O2-  O141  1  0.50157842  0.75277361  0.26503541  1
  O2-  O142  1  0.49877685  0.75029244  0.60498880  1
  O2-  O143  1  0.49890974  0.74906985  0.94252016  1
  O2-  O144  1  0.07026050  0.17558282  0.09965426  1
  O2-  O145  1  0.06974986  0.18052108  0.42360802  1
  O2-  O146  1  0.06546912  0.17877704  0.76379965  1
  O2-  O147  1  0.07374514  0.68056648  0.08922929  1
  O2-  O148  1  0.06980102  0.67750959  0.43289618  1
  O2-  O149  1  0.07094770  0.67961994  0.75966391  1
  O2-  O150  1  0.56793335  0.17888373  0.10083001  1
  O2-  O151  1  0.57716590  0.18287136  0.42245772  1
  O2-  O152  1  0.57475237  0.17930401  0.76462649  1
  O2-  O153  1  0.57149123  0.68219502  0.09006764  1
  O2-  O154  1  0.56661761  0.67793585  0.42882611  1
  O2-  O155  1  0.57115333  0.68005940  0.76827632  1
  O2-  O156  1  0.17706278  0.42891792  0.24120367  1
  O2-  O157  1  0.17231815  0.42632142  0.57856003  1
  O2-  O158  1  0.17895677  0.42935985  0.91070330  1
  O2-  O159  1  0.17925671  0.93140549  0.23555605  1
  O2-  O160  1  0.17937011  0.92987485  0.57036873  1
  O2-  O161  1  0.17776419  0.92677348  0.91120940  1
  O2-  O162  1  0.68213392  0.42782151  0.23590717  1
  O2-  O163  1  0.68014673  0.43166508  0.57053807  1
  O2-  O164  1  0.67733989  0.42941801  0.91234254  1
  O2-  O165  1  0.67957770  0.92885355  0.24466157  1
  O2-  O166  1  0.68205623  0.92678266  0.57509995  1
  O2-  O167  1  0.67671975  0.92514605  0.90964015  1
  O2-  O168  1  0.42671811  0.32268049  0.08850770  1
  O2-  O169  1  0.42678787  0.32196312  0.42998315  1
  O2-  O170  1  0.43303981  0.31976331  0.76735385  1
  O2-  O171  1  0.42743252  0.82095800  0.08901750  1
  O2-  O172  1  0.42619221  0.81703024  0.43010817  1
  O2-  O173  1  0.42676318  0.81815442  0.76770427  1
  O2-  O174  1  0.92916808  0.32109972  0.09908787  1
  O2-  O175  1  0.93340490  0.31859679  0.42565735  1
  O2-  O176  1  0.92854586  0.32336227  0.75350752  1
  O2-  O177  1  0.93053376  0.82125666  0.09148080  1
  O2-  O178  1  0.93226766  0.82666068  0.41954821  1
  O2-  O179  1  0.92961233  0.82118883  0.76738745  1
  O2-  O180  1  0.31703284  0.07548556  0.23296142  1
  O2-  O181  1  0.31911972  0.07601282  0.57867291  1
  O2-  O182  1  0.32450769  0.06667619  0.90717982  1
  O2-  O183  1  0.31663556  0.56771110  0.24146295  1
  O2-  O184  1  0.31649610  0.56889038  0.56529351  1
  O2-  O185  1  0.32052283  0.57259577  0.90448368  1
  O2-  O186  1  0.82061009  0.07271917  0.23479475  1
  O2-  O187  1  0.82191402  0.06823034  0.57769529  1
  O2-  O188  1  0.82002008  0.06523196  0.89852133  1
  O2-  O189  1  0.82608293  0.56502100  0.23507994  1
  O2-  O190  1  0.82758656  0.57251277  0.57773290  1
  O2-  O191  1  0.81701311  0.57582853  0.89950205  1
  O2-  O192  1  0.04306581  0.08484381  0.27425999  1
  O2-  O193  1  0.03478409  0.08529330  0.59592461  1
  O2-  O194  1  0.04098816  0.07687378  0.93329805  1
  O2-  O195  1  0.04049964  0.58063746  0.26395053  1
  O2-  O196  1  0.05204454  0.58147113  0.60933465  1
  O2-  O197  1  0.05177261  0.58636943  0.93659585  1
  O2-  O198  1  0.55845933  0.08403979  0.27236428  1
  O2-  O199  1  0.55475125  0.07754661  0.59852383  1
  O2-  O200  1  0.53922440  0.08168447  0.93285275  1
  O2-  O201  1  0.54197280  0.58218736  0.26032829  1
  O2-  O202  1  0.54007922  0.58021099  0.60366449  1
  O2-  O203  1  0.54331292  0.58640145  0.94101756  1
  O2-  O204  1  0.16018811  0.20748441  0.26974374  1
  O2-  O205  1  0.16615048  0.20719047  0.59572117  1
  O2-  O206  1  0.16970843  0.20266453  0.93085638  1
  O2-  O207  1  0.16364485  0.71009216  0.26198907  1
  O2-  O208  1  0.16334010  0.70691440  0.60796051  1
  O2-  O209  1  0.16333619  0.71290234  0.93759233  1
  O2-  O210  1  0.66761734  0.21280190  0.27166743  1
  O2-  O211  1  0.67373917  0.20854272  0.60027451  1
  O2-  O212  1  0.66532170  0.20768454  0.93274793  1
  O2-  O213  1  0.67234641  0.70721535  0.26454585  1
  O2-  O214  1  0.66809789  0.70493569  0.59871124  1
  O2-  O215  1  0.66272903  0.70788022  0.93782119  1
  O2-  O216  1  0.08568408  0.45429715  0.06232784  1
  O2-  O217  1  0.08780440  0.45638456  0.39634088  1
  O2-  O218  1  0.08180308  0.44986325  0.73220266  1
  O2-  O219  1  0.08583587  0.95385724  0.06444497  1
  O2-  O220  1  0.08480916  0.95810001  0.40379566  1
  O2-  O221  1  0.08340157  0.96500812  0.73596682  1
  O2-  O222  1  0.58634647  0.45482231  0.06502483  1
  O2-  O223  1  0.57711273  0.45846465  0.39925859  1
  O2-  O224  1  0.58576960  0.46038757  0.74091316  1
  O2-  O225  1  0.57984825  0.95018319  0.05993162  1
  O2-  O226  1  0.58328944  0.95041185  0.39575990  1
  O2-  O227  1  0.58427375  0.95012556  0.72644057  1
  O2-  O228  1  0.20154838  0.33143768  0.06073013  1
  O2-  O229  1  0.20391015  0.33558198  0.39265296  1
  O2-  O230  1  0.19999493  0.33005055  0.72921876  1
  O2-  O231  1  0.20937584  0.83978572  0.06486396  1
  O2-  O232  1  0.20693672  0.82727393  0.40021844  1
  O2-  O233  1  0.20718063  0.83434622  0.74063190  1
  O2-  O234  1  0.70318973  0.33353820  0.06310301  1
  O2-  O235  1  0.71078530  0.33705863  0.40617999  1
  O2-  O236  1  0.71458142  0.33427776  0.73760089  1
  O2-  O237  1  0.70332657  0.83542473  0.06352608  1
  O2-  O238  1  0.70499668  0.83491233  0.39669902  1
  O2-  O239  1  0.71028626  0.83723229  0.72840015  1
  O2-  O240  1  0.45986647  0.41492866  0.26040299  1
  O2-  O241  1  0.46218633  0.41734716  0.60188233  1
  O2-  O242  1  0.45567425  0.41909824  0.94026312  1
  O2-  O243  1  0.45539727  0.92306476  0.26527438  1
  O2-  O244  1  0.44872107  0.91961311  0.60072092  1
  O2-  O245  1  0.45259481  0.91083414  0.93486465  1
  O2-  O246  1  0.95930956  0.40986864  0.27241455  1
  O2-  O247  1  0.95138857  0.41915158  0.60342847  1
  O2-  O248  1  0.95849815  0.41961840  0.92915340  1
  O2-  O249  1  0.96241140  0.91667826  0.26758283  1
  O2-  O250  1  0.96404862  0.91469540  0.59781393  1
  O2-  O251  1  0.95842782  0.90948168  0.93769942  1
  O2-  O252  1  0.33117868  0.29095993  0.26116434  1
  O2-  O253  1  0.33036585  0.29826811  0.60133461  1
  O2-  O254  1  0.33372817  0.30276415  0.93655294  1
  O2-  O255  1  0.33091692  0.79220359  0.26224970  1
  O2-  O256  1  0.32658046  0.78893637  0.60342763  1
  O2-  O257  1  0.33490239  0.78955233  0.93902622  1
  O2-  O258  1  0.83645937  0.29246515  0.27552619  1
  O2-  O259  1  0.83634281  0.29494199  0.60196610  1
  O2-  O260  1  0.82997575  0.29535972  0.93122841  1
  O2-  O261  1  0.83380407  0.80861556  0.26849801  1
  O2-  O262  1  0.83401624  0.79602387  0.59487998  1
  O2-  O263  1  0.83555025  0.79284895  0.94009611  1
  O2-  O264  1  0.41117565  0.03861327  0.06196546  1
  O2-  O265  1  0.42587659  0.05714546  0.39537146  1
  O2-  O266  1  0.41961586  0.05137223  0.72607427  1
  O2-  O267  1  0.41768099  0.54287773  0.07279991  1
  O2-  O268  1  0.41186838  0.54142357  0.39093884  1
  O2-  O269  1  0.41417409  0.53742734  0.73585320  1
  O2-  O270  1  0.91390460  0.03560745  0.06747550  1
  O2-  O271  1  0.91598905  0.03924455  0.40322154  1
  O2-  O272  1  0.91089979  0.03573109  0.72968824  1
  O2-  O273  1  0.92189443  0.54517338  0.06217449  1
  O2-  O274  1  0.91982010  0.53864070  0.40323591  1
  O2-  O275  1  0.91737657  0.54969892  0.73076965  1
  O2-  O276  1  0.30008101  0.16603114  0.05583515  1
  O2-  O277  1  0.28838471  0.17052795  0.40062997  1
  O2-  O278  1  0.29375551  0.16649634  0.73070620  1
  O2-  O279  1  0.28614814  0.66618312  0.07229142  1
  O2-  O280  1  0.28929256  0.66053190  0.39206762  1
  O2-  O281  1  0.28638984  0.66261932  0.73757298  1
  O2-  O282  1  0.79052008  0.16758960  0.06444309  1
  O2-  O283  1  0.79202917  0.16695348  0.40551262  1
  O2-  O284  1  0.79839011  0.16313097  0.72920107  1
  O2-  O285  1  0.79088511  0.66703686  0.06935276  1
  O2-  O286  1  0.80766222  0.67730809  0.39303788  1
  O2-  O287  1  0.79867239  0.67033771  0.72536419  1
