# generated using pymatgen
data_Ca2Al2SiO7
_symmetry_space_group_name_H-M   'P 1'
_cell_length_a   15.46865230
_cell_length_b   15.46929261
_cell_length_c   15.29069852
_cell_angle_alpha   90.01036212
_cell_angle_beta   89.98463771
_cell_angle_gamma   89.98225633
_symmetry_Int_Tables_number   1
_chemical_formula_structural   Ca2Al2SiO7
_chemical_formula_sum   'Ca48 Al48 Si24 O168'
_cell_volume   3658.89725136
_cell_formula_units_Z   24
loop_
 _symmetry_equiv_pos_site_id
 _symmetry_equiv_pos_as_xyz
  1  'x, y, z'
loop_
 _atom_type_symbol
 _atom_type_oxidation_number
  Ca2+  2.0
  Al0+  0.0
  Si0+  0.0
  O2-  -2.0
loop_
 _atom_site_type_symbol
 _atom_site_label
 _atom_site_symmetry_multiplicity
 _atom_site_fract_x
 _atom_site_fract_y
 _atom_site_fract_z
 _atom_site_occupancy
  Ca2+  Ca0  1  0.16314691  0.07753489  0.17168364  1
  Ca2+  Ca1  1  0.16655431  0.08607494  0.50044421  1
  Ca2+  Ca2  1  0.17115718  0.07339351  0.84045941  1
  Ca2+  Ca3  1  0.17125878  0.58344211  0.17617019  1
  Ca2+  Ca4  1  0.15658607  0.58205927  0.50186789  1
  Ca2+  Ca5  1  0.17121884  0.59048733  0.83777446  1
  Ca2+  Ca6  1  0.67858239  0.07163985  0.17052960  1
  Ca2+  Ca7  1  0.67589874  0.08002297  0.50180609  1
  Ca2+  Ca8  1  0.67437076  0.07791921  0.83686315  1
  Ca2+  Ca9  1  0.67447623  0.57863970  0.17784880  1
  Ca2+  Ca10  1  0.66783863  0.57950078  0.49771639  1
  Ca2+  Ca11  1  0.66274791  0.58424758  0.83273517  1
  Ca2+  Ca12  1  0.08322071  0.32982141  0.17363787  1
  Ca2+  Ca13  1  0.07361909  0.32887698  0.48830631  1
  Ca2+  Ca14  1  0.07534533  0.32844722  0.82721740  1
  Ca2+  Ca15  1  0.07011293  0.83505765  0.16579654  1
  Ca2+  Ca16  1  0.07172888  0.82345895  0.49672260  1
  Ca2+  Ca17  1  0.07511865  0.83490030  0.83031382  1
  Ca2+  Ca18  1  0.58345706  0.33807935  0.16770741  1
  Ca2+  Ca19  1  0.58308851  0.32811507  0.49211058  1
  Ca2+  Ca20  1  0.58363676  0.32424548  0.82433159  1
  Ca2+  Ca21  1  0.57640472  0.84589428  0.16311772  1
  Ca2+  Ca22  1  0.57453705  0.83912838  0.49366504  1
  Ca2+  Ca23  1  0.57355261  0.83649112  0.82849353  1
  Ca2+  Ca24  1  0.33079292  0.42425978  0.17777208  1
  Ca2+  Ca25  1  0.32709661  0.41184712  0.49917463  1
  Ca2+  Ca26  1  0.33023762  0.42827447  0.84175879  1
  Ca2+  Ca27  1  0.32768527  0.90740597  0.16945790  1
  Ca2+  Ca28  1  0.33400190  0.90866260  0.50204091  1
  Ca2+  Ca29  1  0.32829037  0.90589865  0.84010717  1
  Ca2+  Ca30  1  0.83042802  0.42328935  0.18097725  1
  Ca2+  Ca31  1  0.84288944  0.42082855  0.49941411  1
  Ca2+  Ca32  1  0.83427854  0.41786212  0.83376539  1
  Ca2+  Ca33  1  0.82890737  0.91774132  0.17736318  1
  Ca2+  Ca34  1  0.84297383  0.92552331  0.50282395  1
  Ca2+  Ca35  1  0.83427874  0.92466233  0.84306882  1
  Ca2+  Ca36  1  0.41643229  0.17466030  0.16773563  1
  Ca2+  Ca37  1  0.42750071  0.16841730  0.49191521  1
  Ca2+  Ca38  1  0.42770057  0.16481327  0.82598003  1
  Ca2+  Ca39  1  0.41713471  0.67450930  0.16275146  1
  Ca2+  Ca40  1  0.42444990  0.67557700  0.49793778  1
  Ca2+  Ca41  1  0.42016644  0.67420723  0.82877975  1
  Ca2+  Ca42  1  0.91092654  0.16505308  0.16948213  1
  Ca2+  Ca43  1  0.91312260  0.17316303  0.49205913  1
  Ca2+  Ca44  1  0.90765999  0.16939889  0.82634704  1
  Ca2+  Ca45  1  0.91382692  0.67436919  0.16764809  1
  Ca2+  Ca46  1  0.92170204  0.67228609  0.48975648  1
  Ca2+  Ca47  1  0.92038087  0.68425216  0.82501722  1
  Al0+  Al48  1  0.00306460  0.00252843  0.00303684  1
  Al0+  Al49  1  0.00237338  -0.00146509  0.33248201  1
  Al0+  Al50  1  0.00298893  0.00111370  0.67027513  1
  Al0+  Al51  1  -0.00007182  0.49747685  -0.00138568  1
  Al0+  Al52  1  0.00238415  0.49787108  0.33277808  1
  Al0+  Al53  1  -0.00057937  0.49802381  0.66691066  1
  Al0+  Al54  1  0.50022470  0.00302891  -0.00257089  1
  Al0+  Al55  1  0.49935281  0.00178241  0.33032345  1
  Al0+  Al56  1  0.50078037  0.00258242  0.65891386  1
  Al0+  Al57  1  0.49781856  0.50068326  0.00293948  1
  Al0+  Al58  1  0.49935125  0.50153238  0.33481350  1
  Al0+  Al59  1  0.49776308  0.50124783  0.66608857  1
  Al0+  Al60  1  0.24861445  0.25130401  -0.00352050  1
  Al0+  Al61  1  0.25165516  0.25100592  0.32986855  1
  Al0+  Al62  1  0.24947787  0.25029768  0.67337464  1
  Al0+  Al63  1  0.25117293  0.74915734  0.00664637  1
  Al0+  Al64  1  0.25200099  0.74979284  0.32912137  1
  Al0+  Al65  1  0.24994215  0.74874622  0.66130752  1
  Al0+  Al66  1  0.74911586  0.24973002  0.00242595  1
  Al0+  Al67  1  0.74870526  0.24756336  0.33335025  1
  Al0+  Al68  1  0.74899173  0.24977913  0.66259519  1
  Al0+  Al69  1  0.74877451  0.74874937  -0.00204522  1
  Al0+  Al70  1  0.74750008  0.74846130  0.33963243  1
  Al0+  Al71  1  0.74780099  0.74998680  0.66170269  1
  Al0+  Al72  1  0.57078387  0.18035374  0.65157580  1
  Al0+  Al73  1  0.67829807  0.92713080  0.01232006  1
  Al0+  Al74  1  0.31964843  0.57010835  0.01518049  1
  Al0+  Al75  1  0.82190876  0.07181416  0.01510374  1
  Al0+  Al76  1  0.92773324  0.82538561  0.65359401  1
  Al0+  Al77  1  0.82034054  0.06979334  0.68067117  1
  Al0+  Al78  1  0.18104471  0.92971391  0.01492361  1
  Al0+  Al79  1  0.43029259  0.82107295  0.65178730  1
  Al0+  Al80  1  0.06975677  0.67940471  0.65458006  1
  Al0+  Al81  1  0.43084852  0.32178112  0.32033292  1
  Al0+  Al82  1  0.92934542  0.31882320  0.65395211  1
  Al0+  Al83  1  0.18168435  0.42908886  0.34793248  1
  Al0+  Al84  1  0.07128036  0.67726175  0.31736238  1
  Al0+  Al85  1  0.07220415  0.17805714  0.31829153  1
  Al0+  Al86  1  0.92713369  0.31929030  0.31683246  1
  Al0+  Al87  1  0.67717805  0.42803108  0.34852481  1
  Al0+  Al88  1  0.57214769  0.67564092  0.65044104  1
  Al0+  Al89  1  0.42981423  0.82072579  0.98686001  1
  Al0+  Al90  1  0.67629329  0.92835819  0.34989415  1
  Al0+  Al91  1  0.92700597  0.81994312  0.31919367  1
  Al0+  Al92  1  0.82264099  0.57000683  0.34927147  1
  Al0+  Al93  1  0.92793276  0.82217459  0.98746310  1
  Al0+  Al94  1  0.43142420  0.82210472  0.31679241  1
  Al0+  Al95  1  0.82355831  0.06757150  0.34994956  1
  Si0+  Si96  1  0.92774368  0.31946609  0.98443866  1
  Si0+  Si97  1  0.57173585  0.67459484  0.98397852  1
  Si0+  Si98  1  0.32159226  0.57390627  0.35413010  1
  Si0+  Si99  1  0.18071102  0.92725814  0.35015225  1
  Si0+  Si100  1  0.32307133  0.07541963  0.01605850  1
  Si0+  Si101  1  0.07318454  0.17908385  0.98258654  1
  Si0+  Si102  1  0.18307213  0.92846862  0.68093892  1
  Si0+  Si103  1  0.42624635  0.32219967  0.65266429  1
  Si0+  Si104  1  0.32316300  0.07291956  0.68109939  1
  Si0+  Si105  1  0.57050337  0.18271991  0.98406534  1
  Si0+  Si106  1  0.17644061  0.42649714  0.01742598  1
  Si0+  Si107  1  0.82292833  0.57200092  0.68309375  1
  Si0+  Si108  1  0.31946398  0.57040531  0.68220888  1
  Si0+  Si109  1  0.17707173  0.42769216  0.68459903  1
  Si0+  Si110  1  0.67929635  0.42912598  0.01192481  1
  Si0+  Si111  1  0.82190275  0.57040761  0.01149328  1
  Si0+  Si112  1  0.67822757  0.43046671  0.68138271  1
  Si0+  Si113  1  0.57222019  0.17792873  0.31227343  1
  Si0+  Si114  1  0.67492001  0.92740261  0.68263441  1
  Si0+  Si115  1  0.07489483  0.17839380  0.65293810  1
  Si0+  Si116  1  0.57121066  0.67767110  0.31562014  1
  Si0+  Si117  1  0.42782530  0.32331675  0.98373417  1
  Si0+  Si118  1  0.31985979  0.07153734  0.34741074  1
  Si0+  Si119  1  0.07085644  0.67692063  0.98564292  1
  O2-  O120  1  0.25714185  0.00476793  0.06025446  1
  O2-  O121  1  0.25108060  -0.00030161  0.39175784  1
  O2-  O122  1  0.25567262  -0.00118829  0.72330882  1
  O2-  O123  1  0.24411701  0.49593273  0.06053316  1
  O2-  O124  1  0.25176095  0.50636337  0.39844313  1
  O2-  O125  1  0.24736233  0.50014057  0.72547706  1
  O2-  O126  1  0.75777344  -0.00874818  0.06189686  1
  O2-  O127  1  0.75354673  -0.00598385  0.40072624  1
  O2-  O128  1  0.74982777  -0.00994367  0.72668338  1
  O2-  O129  1  0.74834438  0.50159855  0.05257991  1
  O2-  O130  1  0.75303609  0.49486832  0.39974805  1
  O2-  O131  1  0.74792565  0.50292099  0.72474667  1
  O2-  O132  1  -0.00309748  0.24537415  0.26596137  1
  O2-  O133  1  0.00416705  0.24394665  0.60956088  1
  O2-  O134  1  -0.00215552  0.24709858  0.94231502  1
  O2-  O135  1  -0.00305649  0.74642005  0.26763429  1
  O2-  O136  1  -0.00720715  0.74601138  0.60567191  1
  O2-  O137  1  0.00281054  0.74610480  0.94149181  1
  O2-  O138  1  0.50807266  0.25229162  0.26944693  1
  O2-  O139  1  0.49354278  0.25385356  0.60762964  1
  O2-  O140  1  0.49752046  0.25208337  0.94055398  1
  O2-  O141  1  0.50831332  0.75046673  0.26970436  1
  O2-  O142  1  0.50679257  0.75423853  0.60205342  1
  O2-  O143  1  0.50728239  0.74832089  0.94117182  1
  O2-  O144  1  0.08005730  0.18196671  0.08662084  1
  O2-  O145  1  0.07587174  0.18156382  0.43215580  1
  O2-  O146  1  0.07814141  0.18102552  0.75892485  1
  O2-  O147  1  0.06811434  0.67360891  0.09038713  1
  O2-  O148  1  0.07115709  0.68089924  0.43103606  1
  O2-  O149  1  0.07190061  0.68294746  0.76889113  1
  O2-  O150  1  0.56997524  0.18630611  0.08856685  1
  O2-  O151  1  0.56814142  0.17650825  0.41783157  1
  O2-  O152  1  0.56939776  0.18242915  0.76558138  1
  O2-  O153  1  0.56952885  0.66671559  0.08860493  1
  O2-  O154  1  0.56577738  0.67446301  0.42086900  1
  O2-  O155  1  0.56561647  0.67075260  0.76444552  1
  O2-  O156  1  0.18653380  0.42818591  0.23468342  1
  O2-  O157  1  0.17907649  0.42311283  0.58021438  1
  O2-  O158  1  0.17730193  0.42576074  0.91125535  1
  O2-  O159  1  0.18205723  0.92789444  0.24502026  1
  O2-  O160  1  0.18378880  0.93002642  0.57610414  1
  O2-  O161  1  0.18248570  0.93071183  0.90090791  1
  O2-  O162  1  0.67646034  0.43355394  0.23387728  1
  O2-  O163  1  0.67622956  0.43039499  0.57730851  1
  O2-  O164  1  0.67985202  0.42699289  0.90636268  1
  O2-  O165  1  0.67414980  0.93320834  0.23614392  1
  O2-  O166  1  0.66951769  0.93318751  0.57804717  1
  O2-  O167  1  0.67527862  0.93152617  0.89846370  1
  O2-  O168  1  0.42841675  0.32348648  0.08840062  1
  O2-  O169  1  0.42948392  0.31602064  0.43354760  1
  O2-  O170  1  0.42796074  0.32123620  0.75898519  1
  O2-  O171  1  0.43028646  0.81919301  0.09929397  1
  O2-  O172  1  0.43001784  0.82072819  0.42976078  1
  O2-  O173  1  0.42750728  0.81883001  0.76580552  1
  O2-  O174  1  0.92656525  0.32236203  0.08845752  1
  O2-  O175  1  0.93066132  0.31893583  0.43043098  1
  O2-  O176  1  0.93002136  0.31907870  0.76821104  1
  O2-  O177  1  0.92687600  0.81932699  0.09975043  1
  O2-  O178  1  0.93216382  0.82154240  0.43254402  1
  O2-  O179  1  0.93220048  0.82660499  0.76794733  1
  O2-  O180  1  0.31895219  0.07218920  0.24221293  1
  O2-  O181  1  0.32008706  0.07897554  0.57660438  1
  O2-  O182  1  0.32105833  0.07818782  0.91001982  1
  O2-  O183  1  0.32163602  0.57181345  0.24824739  1
  O2-  O184  1  0.32059496  0.56866170  0.57776452  1
  O2-  O185  1  0.31942222  0.56826778  0.90122389  1
  O2-  O186  1  0.82129460  0.06667455  0.23625920  1
  O2-  O187  1  0.82035310  0.07231068  0.56864153  1
  O2-  O188  1  0.81657763  0.07642605  0.90104173  1
  O2-  O189  1  0.81956149  0.56957135  0.23450135  1
  O2-  O190  1  0.82769944  0.56813127  0.57913178  1
  O2-  O191  1  0.82313683  0.56793714  0.90615119  1
  O2-  O192  1  0.04957630  0.07827963  0.26658698  1
  O2-  O193  1  0.05491003  0.08355285  0.60932196  1
  O2-  O194  1  0.05081107  0.08632752  0.93531393  1
  O2-  O195  1  0.04989373  0.57712726  0.26611964  1
  O2-  O196  1  0.04772889  0.57826124  0.60609645  1
  O2-  O197  1  0.04725131  0.58243639  0.93811944  1
  O2-  O198  1  0.53711699  0.08881944  0.26393588  1
  O2-  O199  1  0.53955642  0.08677539  0.59416967  1
  O2-  O200  1  0.54290788  0.09200810  0.93450597  1
  O2-  O201  1  0.54051891  0.58607447  0.26779736  1
  O2-  O202  1  0.53602557  0.58000704  0.59651746  1
  O2-  O203  1  0.54007082  0.58295997  0.93493691  1
  O2-  O204  1  0.16862262  0.21123270  0.26334490  1
  O2-  O205  1  0.16836597  0.20612376  0.60749222  1
  O2-  O206  1  0.16292917  0.21061431  0.93073535  1
  O2-  O207  1  0.16934384  0.70798680  0.26538298  1
  O2-  O208  1  0.16598888  0.70838345  0.59908676  1
  O2-  O209  1  0.16558506  0.70323904  0.94258413  1
  O2-  O210  1  0.66625010  0.19881289  0.26664011  1
  O2-  O211  1  0.66402993  0.21456387  0.59609702  1
  O2-  O212  1  0.66088496  0.21470035  0.93554111  1
  O2-  O213  1  0.66727897  0.69577887  0.27320460  1
  O2-  O214  1  0.67350860  0.69142063  0.60089533  1
  O2-  O215  1  0.66661133  0.69351131  0.93767163  1
  O2-  O216  1  0.08166204  0.44924225  0.06168304  1
  O2-  O217  1  0.08425896  0.45451157  0.40169986  1
  O2-  O218  1  0.08552993  0.45395141  0.73382669  1
  O2-  O219  1  0.08648520  0.96319504  0.07019097  1
  O2-  O220  1  0.08985074  0.95460712  0.39832171  1
  O2-  O221  1  0.09330732  0.95847535  0.73162605  1
  O2-  O222  1  0.58651862  0.45383200  0.05844724  1
  O2-  O223  1  0.57972619  0.45959010  0.40259652  1
  O2-  O224  1  0.58535928  0.45638481  0.73023158  1
  O2-  O225  1  0.58192333  0.96476818  0.06457508  1
  O2-  O226  1  0.57885039  0.96499290  0.40123304  1
  O2-  O227  1  0.58278035  0.96118289  0.72938676  1
  O2-  O228  1  0.20390727  0.33293324  0.06163877  1
  O2-  O229  1  0.21829412  0.33376595  0.40187573  1
  O2-  O230  1  0.20641361  0.33727960  0.73610792  1
  O2-  O231  1  0.21115776  0.83443660  0.07020061  1
  O2-  O232  1  0.21303534  0.83662526  0.39673888  1
  O2-  O233  1  0.21138951  0.83656061  0.72826981  1
  O2-  O234  1  0.70781942  0.33924279  0.06134902  1
  O2-  O235  1  0.69620655  0.32610087  0.39600427  1
  O2-  O236  1  0.70853474  0.33944441  0.72974163  1
  O2-  O237  1  0.69466409  0.82454144  0.06134824  1
  O2-  O238  1  0.69191040  0.82674690  0.39938019  1
  O2-  O239  1  0.69018221  0.82965233  0.72459122  1
  O2-  O240  1  0.45742714  0.41980956  0.26691334  1
  O2-  O241  1  0.44977132  0.41551613  0.60754282  1
  O2-  O242  1  0.45708207  0.41453993  0.93561113  1
  O2-  O243  1  0.45671429  0.92047084  0.26344117  1
  O2-  O244  1  0.45072189  0.92129207  0.59960838  1
  O2-  O245  1  0.45460456  0.92006846  0.93360800  1
  O2-  O246  1  0.95907269  0.41658239  0.26416426  1
  O2-  O247  1  0.96125499  0.41470413  0.60157680  1
  O2-  O248  1  0.95729979  0.41051610  0.93456246  1
  O2-  O249  1  0.96081387  0.91643247  0.26608089  1
  O2-  O250  1  0.96590955  0.92063663  0.60119939  1
  O2-  O251  1  0.96164065  0.91962119  0.93615834  1
  O2-  O252  1  0.33789394  0.28627754  0.26279175  1
  O2-  O253  1  0.33147455  0.29666141  0.60990766  1
  O2-  O254  1  0.33529005  0.29794048  0.93586879  1
  O2-  O255  1  0.33590740  0.78839351  0.26326215  1
  O2-  O256  1  0.33417749  0.78806073  0.59778866  1
  O2-  O257  1  0.33298006  0.78586958  0.93478882  1
  O2-  O258  1  0.82700209  0.29471957  0.26497707  1
  O2-  O259  1  0.83322202  0.29171985  0.60015255  1
  O2-  O260  1  0.83524401  0.29241809  0.93678914  1
  O2-  O261  1  0.82622948  0.79341865  0.27036668  1
  O2-  O262  1  0.82607652  0.80768186  0.60585774  1
  O2-  O263  1  0.83150961  0.79130207  0.93193545  1
  O2-  O264  1  0.41794270  0.05499690  0.05996795  1
  O2-  O265  1  0.41191340  0.04498658  0.39436189  1
  O2-  O266  1  0.41661943  0.04836472  0.72674665  1
  O2-  O267  1  0.41510971  0.53692426  0.07015655  1
  O2-  O268  1  0.41418059  0.54560778  0.39959756  1
  O2-  O269  1  0.40995748  0.54052225  0.73234963  1
  O2-  O270  1  0.92448503  0.05725996  0.06212222  1
  O2-  O271  1  0.92396520  0.04303550  0.40174269  1
  O2-  O272  1  0.92004514  0.04599832  0.73435731  1
  O2-  O273  1  0.91242164  0.53921214  0.05902790  1
  O2-  O274  1  0.92157524  0.54183249  0.40067116  1
  O2-  O275  1  0.91220799  0.53899190  0.73389908  1
  O2-  O276  1  0.29482938  0.16925497  0.06090815  1
  O2-  O277  1  0.29129824  0.16229641  0.39605612  1
  O2-  O278  1  0.29416558  0.16279024  0.73397636  1
  O2-  O279  1  0.29127455  0.66497662  0.07184409  1
  O2-  O280  1  0.29705103  0.66836141  0.39819000  1
  O2-  O281  1  0.29036392  0.66232337  0.72945269  1
  O2-  O282  1  0.78491063  0.16750982  0.06895557  1
  O2-  O283  1  0.79276200  0.16680391  0.39943898  1
  O2-  O284  1  0.78434249  0.16673047  0.73351904  1
  O2-  O285  1  0.79626321  0.66200578  0.05908120  1
  O2-  O286  1  0.79273191  0.66643887  0.40448511  1
  O2-  O287  1  0.79704077  0.66532892  0.72954350  1
