# generated using pymatgen
data_Ca2Al2SiO7
_symmetry_space_group_name_H-M   'P 1'
_cell_length_a   15.47071504
_cell_length_b   15.46678832
_cell_length_c   15.29091734
_cell_angle_alpha   90.00616299
_cell_angle_beta   89.98621401
_cell_angle_gamma   89.97125728
_symmetry_Int_Tables_number   1
_chemical_formula_structural   Ca2Al2SiO7
_chemical_formula_sum   'Ca48 Al48 Si24 O168'
_cell_volume   3658.84489756
_cell_formula_units_Z   24
loop_
 _symmetry_equiv_pos_site_id
 _symmetry_equiv_pos_as_xyz
  1  'x, y, z'
loop_
 _atom_type_symbol
 _atom_type_oxidation_number
  Ca2+  2.0
  Al0+  0.0
  Si0+  0.0
  O2-  -2.0
loop_
 _atom_site_type_symbol
 _atom_site_label
 _atom_site_symmetry_multiplicity
 _atom_site_fract_x
 _atom_site_fract_y
 _atom_site_fract_z
 _atom_site_occupancy
  Ca2+  Ca0  1  0.15602526  0.07657410  0.16366763  1
  Ca2+  Ca1  1  0.16971302  0.07798924  0.51287906  1
  Ca2+  Ca2  1  0.15710101  0.07582638  0.83648655  1
  Ca2+  Ca3  1  0.16431147  0.57875077  0.17148080  1
  Ca2+  Ca4  1  0.16661449  0.58648873  0.50238195  1
  Ca2+  Ca5  1  0.16006669  0.57847609  0.83960338  1
  Ca2+  Ca6  1  0.67397079  0.07773677  0.17027564  1
  Ca2+  Ca7  1  0.66597984  0.07771449  0.50212130  1
  Ca2+  Ca8  1  0.67709594  0.08312295  0.84000667  1
  Ca2+  Ca9  1  0.67604747  0.58424711  0.17775093  1
  Ca2+  Ca10  1  0.68000285  0.58855188  0.50290505  1
  Ca2+  Ca11  1  0.67614726  0.58294386  0.83340976  1
  Ca2+  Ca12  1  0.07325505  0.33141155  0.15690202  1
  Ca2+  Ca13  1  0.07546207  0.33020405  0.50053573  1
  Ca2+  Ca14  1  0.07878887  0.32486592  0.83160865  1
  Ca2+  Ca15  1  0.08273227  0.82115699  0.15697922  1
  Ca2+  Ca16  1  0.08347078  0.82516696  0.50131994  1
  Ca2+  Ca17  1  0.08321333  0.82781673  0.82678026  1
  Ca2+  Ca18  1  0.56919561  0.34229908  0.16428219  1
  Ca2+  Ca19  1  0.57228923  0.33573081  0.49767459  1
  Ca2+  Ca20  1  0.57100935  0.33328632  0.82964848  1
  Ca2+  Ca21  1  0.58800289  0.83022157  0.16931253  1
  Ca2+  Ca22  1  0.57895879  0.83139370  0.49361748  1
  Ca2+  Ca23  1  0.57503777  0.83462261  0.82692925  1
  Ca2+  Ca24  1  0.32737874  0.41649260  0.17085632  1
  Ca2+  Ca25  1  0.34013372  0.42219494  0.50318062  1
  Ca2+  Ca26  1  0.32617849  0.41243611  0.84089848  1
  Ca2+  Ca27  1  0.32450120  0.91699778  0.16870723  1
  Ca2+  Ca28  1  0.32774853  0.92259953  0.51405821  1
  Ca2+  Ca29  1  0.32128637  0.91903524  0.83249748  1
  Ca2+  Ca30  1  0.83938239  0.42023139  0.17545264  1
  Ca2+  Ca31  1  0.84483464  0.42546112  0.50492081  1
  Ca2+  Ca32  1  0.84555342  0.42004552  0.83555629  1
  Ca2+  Ca33  1  0.83793006  0.92199785  0.16831586  1
  Ca2+  Ca34  1  0.82703933  0.90818459  0.50518578  1
  Ca2+  Ca35  1  0.84339465  0.91930040  0.84056016  1
  Ca2+  Ca36  1  0.41718310  0.17758917  0.16211355  1
  Ca2+  Ca37  1  0.40741516  0.17747500  0.49861703  1
  Ca2+  Ca38  1  0.40881762  0.17560034  0.82735335  1
  Ca2+  Ca39  1  0.42421594  0.65615310  0.16779852  1
  Ca2+  Ca40  1  0.41946645  0.67216912  0.49203364  1
  Ca2+  Ca41  1  0.41726829  0.67441216  0.82617182  1
  Ca2+  Ca42  1  0.91717121  0.17667997  0.15618932  1
  Ca2+  Ca43  1  0.92080805  0.17546766  0.49800690  1
  Ca2+  Ca44  1  0.92653766  0.16922348  0.82933825  1
  Ca2+  Ca45  1  0.92682931  0.66748218  0.16212428  1
  Ca2+  Ca46  1  0.92669590  0.66144425  0.49830581  1
  Ca2+  Ca47  1  0.92812237  0.67493048  0.82705568  1
  Al0+  Al48  1  -0.00127156  0.00033635  0.00717256  1
  Al0+  Al49  1  -0.00064521  0.00013757  0.33736952  1
  Al0+  Al50  1  -0.00166725  -0.00159679  0.66122771  1
  Al0+  Al51  1  0.00143696  0.50098491  -0.00019410  1
  Al0+  Al52  1  0.00136495  0.49907777  0.33077593  1
  Al0+  Al53  1  0.00159558  0.50138935  0.66622560  1
  Al0+  Al54  1  0.50071381  -0.00019063  0.00166941  1
  Al0+  Al55  1  0.49948679  0.00092369  0.33585858  1
  Al0+  Al56  1  0.49962975  0.00109191  0.66831620  1
  Al0+  Al57  1  0.50184174  0.50014812  -0.00583725  1
  Al0+  Al58  1  0.49968172  0.50132751  0.32989802  1
  Al0+  Al59  1  0.50259008  0.49967523  0.66520058  1
  Al0+  Al60  1  0.24926649  0.25111997  -0.00080641  1
  Al0+  Al61  1  0.24803006  0.24880089  0.32862155  1
  Al0+  Al62  1  0.25041831  0.25225421  0.66064420  1
  Al0+  Al63  1  0.25408681  0.75018655  0.00186649  1
  Al0+  Al64  1  0.24966168  0.74972671  0.33271963  1
  Al0+  Al65  1  0.25224188  0.75103893  0.66278707  1
  Al0+  Al66  1  0.74633678  0.25126718  0.00245981  1
  Al0+  Al67  1  0.74824078  0.24914364  0.33129813  1
  Al0+  Al68  1  0.74667927  0.25072458  0.66352955  1
  Al0+  Al69  1  0.74875978  0.74830031  -0.00287732  1
  Al0+  Al70  1  0.74896898  0.75054849  0.33745839  1
  Al0+  Al71  1  0.75058855  0.74828038  0.67229886  1
  Al0+  Al72  1  0.42871874  0.32129971  0.65255215  1
  Al0+  Al73  1  0.17938429  0.92823104  0.01482550  1
  Al0+  Al74  1  0.92756862  0.32116315  0.65231335  1
  Al0+  Al75  1  0.43066221  0.82177163  0.65337496  1
  Al0+  Al76  1  0.92936044  0.31940159  0.31978664  1
  Al0+  Al77  1  0.17749805  0.92885107  0.68160512  1
  Al0+  Al78  1  0.82272374  0.56955269  0.68312168  1
  Al0+  Al79  1  0.17912483  0.42956267  0.01360195  1
  Al0+  Al80  1  0.57123168  0.68135919  0.32050383  1
  Al0+  Al81  1  0.92541934  0.32256670  0.98578967  1
  Al0+  Al82  1  0.82229739  0.56888331  0.34678578  1
  Al0+  Al83  1  0.07454617  0.67956409  0.98553386  1
  Al0+  Al84  1  0.42897272  0.32127356  0.31831753  1
  Al0+  Al85  1  0.32098966  0.07412085  0.68180635  1
  Al0+  Al86  1  0.92830120  0.81996639  0.98819506  1
  Al0+  Al87  1  0.67971063  0.93024202  0.34771262  1
  Al0+  Al88  1  0.42951016  0.32032424  0.98582192  1
  Al0+  Al89  1  0.07263612  0.67880129  0.65097290  1
  Al0+  Al90  1  0.82059170  0.07150841  0.01332034  1
  Al0+  Al91  1  0.07189731  0.68029589  0.31814288  1
  Al0+  Al92  1  0.06978765  0.17809660  0.98655627  1
  Al0+  Al93  1  0.07109740  0.17777701  0.65124320  1
  Al0+  Al94  1  0.92701154  0.82127200  0.65111521  1
  Al0+  Al95  1  0.32119015  0.56964743  0.34683537  1
  Si0+  Si96  1  0.82185788  0.07342483  0.35268430  1
  Si0+  Si97  1  0.81883622  0.07212358  0.67999233  1
  Si0+  Si98  1  0.67613313  0.43024759  0.01554104  1
  Si0+  Si99  1  0.67698337  0.42755347  0.68476405  1
  Si0+  Si100  1  0.18073906  0.43098905  0.68061740  1
  Si0+  Si101  1  0.57066122  0.17596186  0.98350683  1
  Si0+  Si102  1  0.32538859  0.57181865  0.01529367  1
  Si0+  Si103  1  0.57089962  0.17586850  0.31542354  1
  Si0+  Si104  1  0.31977605  0.07107127  0.34716502  1
  Si0+  Si105  1  0.32336276  0.07222604  0.01786050  1
  Si0+  Si106  1  0.42798114  0.82383628  0.31544392  1
  Si0+  Si107  1  0.17885212  0.42668934  0.35117353  1
  Si0+  Si108  1  0.67679364  0.42701441  0.34971304  1
  Si0+  Si109  1  0.67637393  0.92629909  0.01672630  1
  Si0+  Si110  1  0.67841711  0.92833288  0.68289204  1
  Si0+  Si111  1  0.17842123  0.92825674  0.34912535  1
  Si0+  Si112  1  0.43019903  0.82326732  0.98546003  1
  Si0+  Si113  1  0.57227936  0.67842176  0.65018937  1
  Si0+  Si114  1  0.07124574  0.17544236  0.31549499  1
  Si0+  Si115  1  0.32458894  0.57137952  0.68061305  1
  Si0+  Si116  1  0.57107314  0.67874518  0.98336003  1
  Si0+  Si117  1  0.92718247  0.82222976  0.31783205  1
  Si0+  Si118  1  0.57203962  0.17759378  0.64947037  1
  Si0+  Si119  1  0.81944278  0.56981422  0.01554118  1
  O2-  O120  1  0.25306948  0.00501922  0.06230932  1
  O2-  O121  1  0.24878762  0.00062302  0.38957405  1
  O2-  O122  1  0.24626870  0.00480588  0.73141742  1
  O2-  O123  1  0.25348734  0.50635137  0.05854032  1
  O2-  O124  1  0.24897403  0.49392734  0.39600933  1
  O2-  O125  1  0.25309439  0.50155123  0.72280565  1
  O2-  O126  1  0.74747985  -0.00667988  0.05887738  1
  O2-  O127  1  0.75492179  0.00296762  0.39692574  1
  O2-  O128  1  0.75162569  -0.00261572  0.72355964  1
  O2-  O129  1  0.75215013  0.49518967  0.05818967  1
  O2-  O130  1  0.74914386  0.49155984  0.39368842  1
  O2-  O131  1  0.75008806  0.49139444  0.72923795  1
  O2-  O132  1  0.00111020  0.24278027  0.27269282  1
  O2-  O133  1  -0.00235401  0.24826692  0.60131354  1
  O2-  O134  1  -0.00397108  0.24876251  0.93735342  1
  O2-  O135  1  -0.00297364  0.75556638  0.27310161  1
  O2-  O136  1  -0.00054560  0.75004721  0.60134307  1
  O2-  O137  1  0.00466803  0.75400731  0.93693610  1
  O2-  O138  1  0.50515941  0.24762214  0.27171713  1
  O2-  O139  1  0.50065014  0.24386103  0.60604293  1
  O2-  O140  1  0.50029372  0.24216960  0.93893498  1
  O2-  O141  1  0.49529636  0.75379457  0.27065877  1
  O2-  O142  1  0.50443331  0.74714948  0.60571369  1
  O2-  O143  1  0.50063555  0.75110869  0.94357397  1
  O2-  O144  1  0.06757121  0.17984331  0.10053625  1
  O2-  O145  1  0.07235224  0.17487480  0.42083913  1
  O2-  O146  1  0.06959004  0.17809543  0.76453169  1
  O2-  O147  1  0.07208872  0.67870749  0.09944772  1
  O2-  O148  1  0.07283952  0.68132949  0.43074054  1
  O2-  O149  1  0.07267072  0.67792263  0.76430120  1
  O2-  O150  1  0.56911309  0.17454180  0.08907258  1
  O2-  O151  1  0.56958666  0.17386154  0.42088298  1
  O2-  O152  1  0.57526440  0.17908365  0.75497792  1
  O2-  O153  1  0.57231540  0.67728731  0.08835303  1
  O2-  O154  1  0.57032450  0.68335232  0.43325085  1
  O2-  O155  1  0.57024415  0.67900105  0.75644107  1
  O2-  O156  1  0.17983269  0.42759062  0.24549449  1
  O2-  O157  1  0.18134506  0.43162519  0.57535463  1
  O2-  O158  1  0.18138035  0.42915735  0.90023167  1
  O2-  O159  1  0.17900927  0.92886379  0.24384409  1
  O2-  O160  1  0.18211054  0.92843655  0.56743977  1
  O2-  O161  1  0.18189322  0.92613103  0.90249839  1
  O2-  O162  1  0.67596368  0.42995390  0.24369840  1
  O2-  O163  1  0.67193113  0.43028421  0.57952204  1
  O2-  O164  1  0.67062248  0.43424294  0.91092723  1
  O2-  O165  1  0.67984352  0.93249720  0.23451913  1
  O2-  O166  1  0.67709730  0.92905839  0.57778669  1
  O2-  O167  1  0.67197325  0.92770642  0.91126827  1
  O2-  O168  1  0.43268852  0.32153961  0.09899259  1
  O2-  O169  1  0.43056972  0.31985929  0.43128132  1
  O2-  O170  1  0.43127231  0.32283067  0.76550956  1
  O2-  O171  1  0.43135642  0.82516926  0.09048152  1
  O2-  O172  1  0.42985584  0.82428178  0.42088012  1
  O2-  O173  1  0.43258005  0.81922881  0.76702205  1
  O2-  O174  1  0.92677866  0.32209019  0.09969704  1
  O2-  O175  1  0.93187839  0.31883259  0.43260829  1
  O2-  O176  1  0.92928204  0.31890581  0.76546494  1
  O2-  O177  1  0.92618460  0.81534095  0.10213347  1
  O2-  O178  1  0.92804284  0.82194730  0.42311930  1
  O2-  O179  1  0.92677239  0.82038872  0.76451243  1
  O2-  O180  1  0.32122292  0.06975096  0.24200528  1
  O2-  O181  1  0.32123383  0.07161283  0.56744045  1
  O2-  O182  1  0.32778745  0.06946804  0.91299020  1
  O2-  O183  1  0.32199633  0.56738521  0.23370223  1
  O2-  O184  1  0.32724311  0.56952744  0.57558063  1
  O2-  O185  1  0.32927588  0.57097419  0.90956919  1
  O2-  O186  1  0.82099355  0.07290203  0.24717683  1
  O2-  O187  1  0.81385389  0.07381681  0.57495268  1
  O2-  O188  1  0.81725189  0.07210393  0.89990368  1
  O2-  O189  1  0.82009432  0.56889247  0.23316854  1
  O2-  O190  1  0.82045424  0.56933231  0.56989228  1
  O2-  O191  1  0.81603485  0.57061048  0.91067077  1
  O2-  O192  1  0.04586392  0.08059082  0.27129662  1
  O2-  O193  1  0.04385429  0.08014885  0.59689700  1
  O2-  O194  1  0.04156581  0.07885883  0.93676912  1
  O2-  O195  1  0.04100917  0.58342417  0.26546273  1
  O2-  O196  1  0.04337183  0.58126075  0.59724168  1
  O2-  O197  1  0.04295064  0.58253732  0.93346067  1
  O2-  O198  1  0.54108623  0.08410318  0.26760445  1
  O2-  O199  1  0.54913455  0.08318203  0.60444910  1
  O2-  O200  1  0.54917399  0.08116896  0.93762263  1
  O2-  O201  1  0.54189611  0.58525537  0.26424759  1
  O2-  O202  1  0.54786308  0.58514285  0.60439259  1
  O2-  O203  1  0.54230413  0.58906337  0.93286292  1
  O2-  O204  1  0.16431605  0.19980174  0.26818446  1
  O2-  O205  1  0.16775273  0.20899719  0.59648160  1
  O2-  O206  1  0.16844850  0.20526629  0.93501389  1
  O2-  O207  1  0.16853695  0.71081380  0.26378432  1
  O2-  O208  1  0.17113103  0.70623613  0.59792156  1
  O2-  O209  1  0.17575952  0.70286375  0.93632393  1
  O2-  O210  1  0.66560390  0.19745136  0.27013249  1
  O2-  O211  1  0.66267768  0.20556343  0.59866313  1
  O2-  O212  1  0.66255425  0.20527382  0.93689344  1
  O2-  O213  1  0.66676993  0.71460869  0.26503717  1
  O2-  O214  1  0.66602443  0.70483441  0.60685298  1
  O2-  O215  1  0.66158944  0.70619157  0.93365285  1
  O2-  O216  1  0.08295323  0.46072469  0.06946398  1
  O2-  O217  1  0.08639112  0.45523459  0.39693883  1
  O2-  O218  1  0.09019102  0.45949156  0.72924415  1
  O2-  O219  1  0.08395970  0.95736676  0.07238117  1
  O2-  O220  1  0.08619411  0.95437416  0.39661313  1
  O2-  O221  1  0.07652100  0.95343637  0.73104992  1
  O2-  O222  1  0.58696981  0.46567968  0.06475888  1
  O2-  O223  1  0.58443070  0.45661333  0.39546837  1
  O2-  O224  1  0.58592927  0.45984177  0.73420405  1
  O2-  O225  1  0.58438401  0.95412024  0.06585935  1
  O2-  O226  1  0.58278720  0.96209530  0.40215625  1
  O2-  O227  1  0.58801374  0.95866158  0.73191428  1
  O2-  O228  1  0.21124978  0.33376153  0.06915912  1
  O2-  O229  1  0.20245536  0.33126086  0.39456073  1
  O2-  O230  1  0.20958470  0.33924455  0.72668723  1
  O2-  O231  1  0.21577958  0.83312761  0.07056734  1
  O2-  O232  1  0.20754850  0.83714388  0.39588464  1
  O2-  O233  1  0.21312119  0.83137607  0.73309358  1
  O2-  O234  1  0.69371072  0.33626025  0.06262315  1
  O2-  O235  1  0.69542747  0.33059855  0.39296192  1
  O2-  O236  1  0.69578959  0.33148567  0.72867058  1
  O2-  O237  1  0.69974900  0.83099749  0.06078825  1
  O2-  O238  1  0.70755516  0.83416073  0.40381321  1
  O2-  O239  1  0.70112070  0.83581903  0.73125630  1
  O2-  O240  1  0.46033847  0.41696317  0.26343587  1
  O2-  O241  1  0.46444026  0.41682939  0.59861592  1
  O2-  O242  1  0.46445130  0.41505560  0.93058750  1
  O2-  O243  1  0.45596910  0.91692248  0.26950405  1
  O2-  O244  1  0.46181571  0.91837778  0.60003333  1
  O2-  O245  1  0.46013382  0.91390906  0.93711808  1
  O2-  O246  1  0.96202274  0.41472359  0.26525442  1
  O2-  O247  1  0.96096866  0.41814856  0.60055579  1
  O2-  O248  1  0.95720939  0.42000050  0.93463931  1
  O2-  O249  1  0.95154641  0.91787421  0.27450277  1
  O2-  O250  1  0.94947406  0.91952469  0.59581597  1
  O2-  O251  1  0.94973716  0.92172922  0.94193386  1
  O2-  O252  1  0.33256246  0.28901703  0.26476118  1
  O2-  O253  1  0.33350114  0.29528912  0.59469528  1
  O2-  O254  1  0.33279404  0.29220346  0.93275016  1
  O2-  O255  1  0.33414415  0.79917252  0.27045192  1
  O2-  O256  1  0.33631562  0.79130183  0.59670921  1
  O2-  O257  1  0.33972751  0.79486510  0.93719754  1
  O2-  O258  1  0.82998993  0.29372048  0.26786730  1
  O2-  O259  1  0.82736625  0.29700674  0.60055312  1
  O2-  O260  1  0.82361555  0.30084642  0.93728037  1
  O2-  O261  1  0.83323032  0.79749136  0.27348615  1
  O2-  O262  1  0.82678612  0.79188766  0.60181963  1
  O2-  O263  1  0.83020856  0.79099076  0.93396541  1
  O2-  O264  1  0.41634146  0.04383467  0.06585584  1
  O2-  O265  1  0.41145576  0.04502925  0.39523054  1
  O2-  O266  1  0.41954985  0.04487145  0.73477843  1
  O2-  O267  1  0.41828899  0.54106164  0.06133839  1
  O2-  O268  1  0.41883112  0.54049417  0.40044885  1
  O2-  O269  1  0.41667525  0.54415604  0.72865061  1
  O2-  O270  1  0.91463431  0.04353213  0.07337972  1
  O2-  O271  1  0.91623392  0.05019992  0.39823555  1
  O2-  O272  1  0.91187842  0.04669357  0.72465721  1
  O2-  O273  1  0.91242008  0.54586738  0.06170834  1
  O2-  O274  1  0.91899780  0.53743746  0.40016479  1
  O2-  O275  1  0.91979257  0.54026652  0.73673459  1
  O2-  O276  1  0.29964981  0.16665161  0.06260481  1
  O2-  O277  1  0.29153135  0.16350134  0.39345690  1
  O2-  O278  1  0.29675716  0.17537701  0.73017634  1
  O2-  O279  1  0.30769143  0.66684887  0.06136710  1
  O2-  O280  1  0.29243623  0.66795707  0.39918337  1
  O2-  O281  1  0.29906648  0.66417796  0.72655405  1
  O2-  O282  1  0.78487992  0.16682392  0.06897332  1
  O2-  O283  1  0.79284293  0.16639647  0.39849361  1
  O2-  O284  1  0.78643952  0.16253966  0.72793948  1
  O2-  O285  1  0.78557799  0.66021396  0.06262790  1
  O2-  O286  1  0.78850175  0.66434995  0.40042228  1
  O2-  O287  1  0.78678048  0.66384254  0.73962667  1
