# generated using pymatgen
data_Ca2Al2SiO7
_symmetry_space_group_name_H-M   'P 1'
_cell_length_a   15.47331306
_cell_length_b   15.47464537
_cell_length_c   15.29540236
_cell_angle_alpha   90.00978062
_cell_angle_beta   90.01210519
_cell_angle_gamma   89.97873585
_symmetry_Int_Tables_number   1
_chemical_formula_structural   Ca2Al2SiO7
_chemical_formula_sum   'Ca48 Al48 Si24 O168'
_cell_volume   3662.39242886
_cell_formula_units_Z   24
loop_
 _symmetry_equiv_pos_site_id
 _symmetry_equiv_pos_as_xyz
  1  'x, y, z'
loop_
 _atom_type_symbol
 _atom_type_oxidation_number
  Ca2+  2.0
  Al0+  0.0
  Si0+  0.0
  O2-  -2.0
loop_
 _atom_site_type_symbol
 _atom_site_label
 _atom_site_symmetry_multiplicity
 _atom_site_fract_x
 _atom_site_fract_y
 _atom_site_fract_z
 _atom_site_occupancy
  Ca2+  Ca0  1  0.16623290  0.08588809  0.16790365  1
  Ca2+  Ca1  1  0.16983157  0.08079334  0.50639555  1
  Ca2+  Ca2  1  0.16797152  0.08577160  0.84140869  1
  Ca2+  Ca3  1  0.16700553  0.58854685  0.17064304  1
  Ca2+  Ca4  1  0.17523003  0.57851844  0.50796885  1
  Ca2+  Ca5  1  0.17387410  0.58082386  0.83499343  1
  Ca2+  Ca6  1  0.65279513  0.07780133  0.16454180  1
  Ca2+  Ca7  1  0.67198170  0.07466487  0.50944829  1
  Ca2+  Ca8  1  0.65726061  0.07271825  0.83954589  1
  Ca2+  Ca9  1  0.66483086  0.57465782  0.17225862  1
  Ca2+  Ca10  1  0.66809919  0.57787883  0.50594460  1
  Ca2+  Ca11  1  0.66172614  0.57702760  0.83641694  1
  Ca2+  Ca12  1  0.06639994  0.33352144  0.15898316  1
  Ca2+  Ca13  1  0.07533068  0.33960529  0.49577255  1
  Ca2+  Ca14  1  0.07722626  0.33453553  0.83239287  1
  Ca2+  Ca15  1  0.08008930  0.82032628  0.16214952  1
  Ca2+  Ca16  1  0.07784337  0.82395805  0.49236932  1
  Ca2+  Ca17  1  0.08125477  0.82646767  0.83352726  1
  Ca2+  Ca18  1  0.57793514  0.33642977  0.15720460  1
  Ca2+  Ca19  1  0.57613704  0.34600864  0.49740505  1
  Ca2+  Ca20  1  0.57724273  0.34425121  0.82878282  1
  Ca2+  Ca21  1  0.58107678  0.82336161  0.15753363  1
  Ca2+  Ca22  1  0.58703879  0.82015221  0.49646527  1
  Ca2+  Ca23  1  0.59317901  0.82435319  0.83072394  1
  Ca2+  Ca24  1  0.33431026  0.41300648  0.17038677  1
  Ca2+  Ca25  1  0.33077830  0.41934527  0.51274649  1
  Ca2+  Ca26  1  0.33496704  0.41601211  0.83416050  1
  Ca2+  Ca27  1  0.33943867  0.91175549  0.17072451  1
  Ca2+  Ca28  1  0.33582534  0.91288088  0.50129517  1
  Ca2+  Ca29  1  0.33574333  0.91614820  0.84348992  1
  Ca2+  Ca30  1  0.82370601  0.41413800  0.17301566  1
  Ca2+  Ca31  1  0.82294691  0.42433181  0.50125596  1
  Ca2+  Ca32  1  0.82217191  0.41933129  0.83734981  1
  Ca2+  Ca33  1  0.82766049  0.91899022  0.16471268  1
  Ca2+  Ca34  1  0.82791922  0.92337733  0.51069601  1
  Ca2+  Ca35  1  0.82143475  0.92257379  0.83396622  1
  Ca2+  Ca36  1  0.42209016  0.18020531  0.16098096  1
  Ca2+  Ca37  1  0.41834484  0.18053875  0.49800613  1
  Ca2+  Ca38  1  0.42527795  0.17799443  0.83591850  1
  Ca2+  Ca39  1  0.43134338  0.67315660  0.16417373  1
  Ca2+  Ca40  1  0.43111860  0.66338070  0.49717887  1
  Ca2+  Ca41  1  0.42944041  0.66705543  0.83073278  1
  Ca2+  Ca42  1  0.91862505  0.17934081  0.15908793  1
  Ca2+  Ca43  1  0.91312418  0.17278162  0.49579629  1
  Ca2+  Ca44  1  0.91467882  0.16912469  0.83245913  1
  Ca2+  Ca45  1  0.92704416  0.65273184  0.16457703  1
  Ca2+  Ca46  1  0.92110478  0.65136394  0.49478880  1
  Ca2+  Ca47  1  0.92019206  0.65840606  0.82842263  1
  Al0+  Al48  1  0.00129242  -0.00173344  -0.00018468  1
  Al0+  Al49  1  0.00175000  -0.00303827  0.33472176  1
  Al0+  Al50  1  0.00103129  -0.00076060  0.66904799  1
  Al0+  Al51  1  0.00238584  0.49842833  -0.00959521  1
  Al0+  Al52  1  0.00031987  0.49651644  0.32721591  1
  Al0+  Al53  1  0.00163671  0.49737617  0.67144246  1
  Al0+  Al54  1  0.49637473  0.00320290  0.00126709  1
  Al0+  Al55  1  0.49742676  0.00216102  0.33615275  1
  Al0+  Al56  1  0.49791629  0.00091381  0.66954454  1
  Al0+  Al57  1  0.49796611  0.50421518  -0.00069104  1
  Al0+  Al58  1  0.49732652  0.50169266  0.32835141  1
  Al0+  Al59  1  0.49829881  0.50367083  0.66448923  1
  Al0+  Al60  1  0.24963488  0.25003029  -0.00371872  1
  Al0+  Al61  1  0.25115114  0.24738649  0.33233467  1
  Al0+  Al62  1  0.24879717  0.24761985  0.66655694  1
  Al0+  Al63  1  0.24833095  0.74995820  -0.00543593  1
  Al0+  Al64  1  0.24806138  0.74993973  0.32916439  1
  Al0+  Al65  1  0.24878597  0.74944793  0.66974450  1
  Al0+  Al66  1  0.75011633  0.24885461  -0.00350076  1
  Al0+  Al67  1  0.74883913  0.24823598  0.33420192  1
  Al0+  Al68  1  0.75154245  0.25059261  0.67054875  1
  Al0+  Al69  1  0.75259565  0.75185661  0.00338210  1
  Al0+  Al70  1  0.75376772  0.75077608  0.33258721  1
  Al0+  Al71  1  0.75269056  0.75231503  0.66766309  1
  Al0+  Al72  1  0.67742772  0.43132665  0.68078119  1
  Al0+  Al73  1  0.92840199  0.31814320  0.32104197  1
  Al0+  Al74  1  0.67749202  0.93026794  0.68095797  1
  Al0+  Al75  1  0.67778589  0.93077265  0.01613072  1
  Al0+  Al76  1  0.57268549  0.68158298  0.65219672  1
  Al0+  Al77  1  0.17978198  0.42614632  0.68246855  1
  Al0+  Al78  1  0.42860398  0.32179982  0.32106592  1
  Al0+  Al79  1  0.67557148  0.42871027  0.34716359  1
  Al0+  Al80  1  0.92653683  0.32115853  0.98130717  1
  Al0+  Al81  1  0.06994276  0.17859391  0.98578923  1
  Al0+  Al82  1  0.06797002  0.67851172  0.32156499  1
  Al0+  Al83  1  0.06999868  0.67859711  0.98328326  1
  Al0+  Al84  1  0.43031345  0.31988458  0.65292880  1
  Al0+  Al85  1  0.43016311  0.32382128  0.98464910  1
  Al0+  Al86  1  0.67792832  0.43005628  0.01350625  1
  Al0+  Al87  1  0.57141787  0.17947281  0.98630763  1
  Al0+  Al88  1  0.82285291  0.07229555  0.68167146  1
  Al0+  Al89  1  0.57563564  0.67897042  0.31800716  1
  Al0+  Al90  1  0.32118418  0.57256014  0.68263449  1
  Al0+  Al91  1  0.42970901  0.82130998  0.98584047  1
  Al0+  Al92  1  0.43020570  0.82153999  0.32109856  1
  Al0+  Al93  1  0.82240151  0.57166919  0.68096926  1
  Al0+  Al94  1  0.57420739  0.68084332  0.98437351  1
  Al0+  Al95  1  0.82358768  0.57013300  0.34506598  1
  Si0+  Si96  1  0.82320143  0.06948613  0.34675914  1
  Si0+  Si97  1  0.17878908  0.92738060  0.01758473  1
  Si0+  Si98  1  0.07247536  0.17486139  0.31918519  1
  Si0+  Si99  1  0.92886377  0.32182465  0.64935319  1
  Si0+  Si100  1  0.67758938  0.92983103  0.34732752  1
  Si0+  Si101  1  0.17989021  0.42846463  0.01659909  1
  Si0+  Si102  1  0.92838504  0.82642057  0.31584245  1
  Si0+  Si103  1  0.93191839  0.82162352  0.65146267  1
  Si0+  Si104  1  0.57298816  0.17626102  0.64988945  1
  Si0+  Si105  1  0.57146535  0.17763802  0.31962837  1
  Si0+  Si106  1  0.31811249  0.57242667  0.34652091  1
  Si0+  Si107  1  0.18039657  0.42658017  0.34532385  1
  Si0+  Si108  1  0.07073862  0.67778361  0.65061838  1
  Si0+  Si109  1  0.82442911  0.07115578  0.01824211  1
  Si0+  Si110  1  0.42528098  0.82374310  0.65117025  1
  Si0+  Si111  1  0.31822851  0.07203677  0.01815968  1
  Si0+  Si112  1  0.17980623  0.92773476  0.34941772  1
  Si0+  Si113  1  0.32003145  0.07198876  0.35130165  1
  Si0+  Si114  1  0.31975612  0.07084452  0.68347591  1
  Si0+  Si115  1  0.17936511  0.92887113  0.68244748  1
  Si0+  Si116  1  0.06975067  0.17714844  0.65030035  1
  Si0+  Si117  1  0.31834856  0.57305584  0.01771694  1
  Si0+  Si118  1  0.92861173  0.82284765  0.98186893  1
  Si0+  Si119  1  0.82508274  0.57099565  0.01556234  1
  O2-  O120  1  0.24888345  -0.00128684  0.06071676  1
  O2-  O121  1  0.25017015  -0.00119927  0.39276813  1
  O2-  O122  1  0.25369228  -0.00490684  0.72524461  1
  O2-  O123  1  0.24986713  0.49923268  0.06080593  1
  O2-  O124  1  0.25251498  0.49569667  0.38831049  1
  O2-  O125  1  0.25264149  0.49693045  0.73251349  1
  O2-  O126  1  0.75095801  0.00774772  0.06361077  1
  O2-  O127  1  0.75170507  -0.00131092  0.38849128  1
  O2-  O128  1  0.74442911  0.00740876  0.73069541  1
  O2-  O129  1  0.75453244  0.50426474  0.05937390  1
  O2-  O130  1  0.74560565  0.50458500  0.39492712  1
  O2-  O131  1  0.74818262  0.50377937  0.73193084  1
  O2-  O132  1  0.00276954  0.24169111  0.27599589  1
  O2-  O133  1  -0.00063153  0.24822267  0.60790008  1
  O2-  O134  1  -0.00250787  0.24671201  0.93245187  1
  O2-  O135  1  -0.01036591  0.74965133  0.27469191  1
  O2-  O136  1  -0.00277131  0.74571535  0.60779277  1
  O2-  O137  1  -0.00886965  0.74874065  0.93718169  1
  O2-  O138  1  0.50924659  0.25274614  0.27699793  1
  O2-  O139  1  0.50881421  0.24902104  0.60498655  1
  O2-  O140  1  0.50954792  0.25959747  0.93541059  1
  O2-  O141  1  0.50640222  0.75557884  0.27069810  1
  O2-  O142  1  0.49660888  0.75786787  0.60807961  1
  O2-  O143  1  0.50548518  0.75613958  0.93402724  1
  O2-  O144  1  0.06907807  0.17992562  0.09998371  1
  O2-  O145  1  0.07311861  0.17320016  0.42493690  1
  O2-  O146  1  0.07002484  0.17421188  0.75472177  1
  O2-  O147  1  0.07085904  0.68061987  0.09676545  1
  O2-  O148  1  0.07041400  0.68107901  0.43481565  1
  O2-  O149  1  0.07159587  0.68130121  0.75537737  1
  O2-  O150  1  0.56455304  0.17820311  0.10028309  1
  O2-  O151  1  0.56840816  0.17204357  0.42503974  1
  O2-  O152  1  0.56788959  0.17194089  0.75466118  1
  O2-  O153  1  0.57233376  0.68011468  0.09795310  1
  O2-  O154  1  0.57344751  0.67944161  0.43180522  1
  O2-  O155  1  0.57280804  0.68291818  0.76461538  1
  O2-  O156  1  0.18111256  0.42634734  0.24026462  1
  O2-  O157  1  0.17839108  0.42860292  0.56768343  1
  O2-  O158  1  0.18105439  0.42854793  0.91190657  1
  O2-  O159  1  0.17813217  0.92849703  0.24478850  1
  O2-  O160  1  0.17822919  0.93014831  0.57690370  1
  O2-  O161  1  0.17951601  0.92786159  0.91225724  1
  O2-  O162  1  0.67725850  0.42630684  0.23363042  1
  O2-  O163  1  0.67838850  0.43129026  0.56705669  1
  O2-  O164  1  0.67723604  0.43309882  0.90088554  1
  O2-  O165  1  0.67615254  0.93298496  0.24247536  1
  O2-  O166  1  0.68080066  0.93054870  0.56642992  1
  O2-  O167  1  0.67944411  0.93131191  0.90362789  1
  O2-  O168  1  0.42647329  0.31987234  0.09851764  1
  O2-  O169  1  0.42272538  0.31831476  0.43394863  1
  O2-  O170  1  0.42846184  0.31656026  0.76525587  1
  O2-  O171  1  0.42929291  0.81778807  0.09946810  1
  O2-  O172  1  0.42949056  0.82054640  0.43475729  1
  O2-  O173  1  0.42172433  0.82391799  0.75603922  1
  O2-  O174  1  0.92950148  0.32141794  0.09556043  1
  O2-  O175  1  0.93152649  0.31677116  0.43426618  1
  O2-  O176  1  0.93107351  0.32206311  0.75373662  1
  O2-  O177  1  0.93244126  0.82612693  0.08762379  1
  O2-  O178  1  0.93443550  0.83683255  0.42082973  1
  O2-  O179  1  0.93723406  0.82480510  0.75602674  1
  O2-  O180  1  0.31784006  0.07472152  0.24677069  1
  O2-  O181  1  0.31669986  0.07160845  0.57790967  1
  O2-  O182  1  0.31546539  0.07153770  0.91298644  1
  O2-  O183  1  0.31471450  0.57429599  0.24146711  1
  O2-  O184  1  0.31781298  0.57329695  0.56806283  1
  O2-  O185  1  0.31576152  0.57390882  0.91302125  1
  O2-  O186  1  0.82713667  0.06800686  0.24224727  1
  O2-  O187  1  0.82493982  0.06790098  0.56701703  1
  O2-  O188  1  0.82976433  0.06488251  0.91342528  1
  O2-  O189  1  0.82818733  0.56387448  0.23199751  1
  O2-  O190  1  0.82471885  0.56700707  0.56741115  1
  O2-  O191  1  0.82558664  0.56996071  0.91016122  1
  O2-  O192  1  0.04955674  0.08037485  0.27366628  1
  O2-  O193  1  0.04235349  0.08492373  0.60184355  1
  O2-  O194  1  0.04783735  0.07751059  0.93523182  1
  O2-  O195  1  0.04281410  0.58205778  0.26468510  1
  O2-  O196  1  0.04556501  0.58428108  0.60539753  1
  O2-  O197  1  0.04635457  0.58205727  0.92767849  1
  O2-  O198  1  0.53687025  0.08765860  0.27128233  1
  O2-  O199  1  0.54166397  0.08416952  0.60188423  1
  O2-  O200  1  0.53055526  0.08613604  0.93176071  1
  O2-  O201  1  0.53999040  0.58391931  0.26357978  1
  O2-  O202  1  0.53828099  0.58710076  0.59616187  1
  O2-  O203  1  0.53840263  0.58550039  0.93163173  1
  O2-  O204  1  0.16561389  0.20015686  0.27303738  1
  O2-  O205  1  0.16170314  0.20325776  0.60189953  1
  O2-  O206  1  0.16722409  0.20756445  0.93198868  1
  O2-  O207  1  0.16117127  0.71523280  0.26487187  1
  O2-  O208  1  0.16164135  0.70972767  0.60332342  1
  O2-  O209  1  0.16282995  0.71628803  0.92772350  1
  O2-  O210  1  0.66722147  0.19271913  0.27503557  1
  O2-  O211  1  0.66974347  0.19561190  0.60778581  1
  O2-  O212  1  0.67391267  0.18920030  0.93824574  1
  O2-  O213  1  0.67581944  0.70275717  0.26703778  1
  O2-  O214  1  0.66977513  0.71375163  0.59874808  1
  O2-  O215  1  0.67469212  0.70673418  0.93524830  1
  O2-  O216  1  0.08696067  0.45775296  0.06138173  1
  O2-  O217  1  0.08913878  0.45620357  0.39206640  1
  O2-  O218  1  0.08351917  0.45634661  0.73667289  1
  O2-  O219  1  0.08705706  0.95432827  0.06590240  1
  O2-  O220  1  0.08865650  0.95555028  0.39942362  1
  O2-  O221  1  0.09014528  0.96073858  0.73138873  1
  O2-  O222  1  0.58037514  0.46209458  0.06648185  1
  O2-  O223  1  0.57520527  0.45643752  0.39726721  1
  O2-  O224  1  0.57901128  0.46056240  0.73134955  1
  O2-  O225  1  0.58050158  0.96348604  0.06909895  1
  O2-  O226  1  0.58723876  0.96071201  0.39603674  1
  O2-  O227  1  0.57726421  0.95329949  0.73270235  1
  O2-  O228  1  0.20738296  0.33612710  0.06340987  1
  O2-  O229  1  0.20470421  0.33361214  0.39281469  1
  O2-  O230  1  0.20469900  0.32642257  0.73347827  1
  O2-  O231  1  0.20743656  0.83537587  0.06416629  1
  O2-  O232  1  0.20798131  0.83641297  0.39802356  1
  O2-  O233  1  0.20160326  0.83610736  0.72971664  1
  O2-  O234  1  0.70574302  0.33028067  0.06389879  1
  O2-  O235  1  0.70436812  0.32923995  0.39946888  1
  O2-  O236  1  0.70341036  0.33164884  0.73147120  1
  O2-  O237  1  0.71250339  0.83547232  0.07172416  1
  O2-  O238  1  0.70406297  0.83740342  0.39362133  1
  O2-  O239  1  0.71382496  0.83553217  0.73459856  1
  O2-  O240  1  0.44932889  0.41945073  0.26637397  1
  O2-  O241  1  0.45522033  0.41828307  0.59983536  1
  O2-  O242  1  0.44931066  0.42455481  0.93488192  1
  O2-  O243  1  0.45020148  0.92365304  0.27200155  1
  O2-  O244  1  0.44625268  0.91955536  0.60650792  1
  O2-  O245  1  0.44775636  0.92342176  0.93821263  1
  O2-  O246  1  0.96385016  0.41038909  0.26289892  1
  O2-  O247  1  0.96249014  0.41202843  0.60190027  1
  O2-  O248  1  0.96061580  0.41615226  0.92641657  1
  O2-  O249  1  0.96364010  0.91502588  0.26475752  1
  O2-  O250  1  0.96685877  0.91091105  0.60190033  1
  O2-  O251  1  0.96278764  0.91256986  0.93394534  1
  O2-  O252  1  0.33419260  0.28377040  0.26579581  1
  O2-  O253  1  0.33380760  0.28336607  0.59991498  1
  O2-  O254  1  0.33449542  0.28692231  0.93226976  1
  O2-  O255  1  0.33212212  0.79214748  0.26804607  1
  O2-  O256  1  0.33098616  0.79710384  0.60513082  1
  O2-  O257  1  0.33193356  0.79180103  0.93268312  1
  O2-  O258  1  0.83224180  0.28648493  0.26702248  1
  O2-  O259  1  0.83672243  0.29510154  0.60190587  1
  O2-  O260  1  0.82884709  0.29431252  0.92821864  1
  O2-  O261  1  0.83250244  0.81066696  0.27261933  1
  O2-  O262  1  0.83889090  0.80150559  0.60417447  1
  O2-  O263  1  0.83330201  0.80409333  0.93870879  1
  O2-  O264  1  0.40907755  0.04647859  0.06778866  1
  O2-  O265  1  0.41106456  0.04572919  0.40136246  1
  O2-  O266  1  0.41221146  0.04832322  0.73083284  1
  O2-  O267  1  0.41061148  0.54842182  0.06514578  1
  O2-  O268  1  0.41149200  0.54934815  0.39178896  1
  O2-  O269  1  0.41956645  0.54758661  0.73416926  1
  O2-  O270  1  0.91606795  0.03867873  0.06665967  1
  O2-  O271  1  0.91513184  0.04160079  0.39545875  1
  O2-  O272  1  0.91881049  0.03635420  0.73496876  1
  O2-  O273  1  0.92012197  0.54241364  0.05817625  1
  O2-  O274  1  0.92080870  0.53420079  0.39858323  1
  O2-  O275  1  0.91984230  0.54112075  0.73418232  1
  O2-  O276  1  0.28610507  0.16276091  0.06603655  1
  O2-  O277  1  0.28821075  0.16162479  0.40183597  1
  O2-  O278  1  0.28526264  0.15903373  0.73193354  1
  O2-  O279  1  0.28370893  0.66344538  0.06405280  1
  O2-  O280  1  0.28343798  0.66152064  0.39489559  1
  O2-  O281  1  0.28754574  0.66893485  0.73689140  1
  O2-  O282  1  0.80497781  0.16718297  0.06062950  1
  O2-  O283  1  0.79577276  0.16041571  0.39576477  1
  O2-  O284  1  0.80538037  0.17293562  0.73149045  1
  O2-  O285  1  0.80709819  0.66697951  0.06018312  1
  O2-  O286  1  0.81035801  0.67432137  0.39368883  1
  O2-  O287  1  0.80419679  0.67342316  0.72991079  1
