# generated using pymatgen
data_Ca2Al2SiO7
_symmetry_space_group_name_H-M   'P 1'
_cell_length_a   15.46675027
_cell_length_b   15.47062173
_cell_length_c   15.29266829
_cell_angle_alpha   90.00362334
_cell_angle_beta   90.00588344
_cell_angle_gamma   89.97809262
_symmetry_Int_Tables_number   1
_chemical_formula_structural   Ca2Al2SiO7
_chemical_formula_sum   'Ca48 Al48 Si24 O168'
_cell_volume   3659.23308598
_cell_formula_units_Z   24
loop_
 _symmetry_equiv_pos_site_id
 _symmetry_equiv_pos_as_xyz
  1  'x, y, z'
loop_
 _atom_type_symbol
 _atom_type_oxidation_number
  Ca2+  2.0
  Al0+  0.0
  Si0+  0.0
  O2-  -2.0
loop_
 _atom_site_type_symbol
 _atom_site_label
 _atom_site_symmetry_multiplicity
 _atom_site_fract_x
 _atom_site_fract_y
 _atom_site_fract_z
 _atom_site_occupancy
  Ca2+  Ca0  1  0.15502588  0.08418212  0.17140436  1
  Ca2+  Ca1  1  0.16387069  0.08684840  0.50166191  1
  Ca2+  Ca2  1  0.16016007  0.08192977  0.84096522  1
  Ca2+  Ca3  1  0.17284197  0.58495182  0.17618986  1
  Ca2+  Ca4  1  0.16987868  0.57280824  0.50239030  1
  Ca2+  Ca5  1  0.17401474  0.58457772  0.83757123  1
  Ca2+  Ca6  1  0.66370890  0.07608290  0.17067602  1
  Ca2+  Ca7  1  0.66377950  0.07810514  0.50433621  1
  Ca2+  Ca8  1  0.66508166  0.08472503  0.84035908  1
  Ca2+  Ca9  1  0.67847637  0.58881261  0.16892131  1
  Ca2+  Ca10  1  0.67154549  0.57795607  0.50052812  1
  Ca2+  Ca11  1  0.67097405  0.56913116  0.84470182  1
  Ca2+  Ca12  1  0.07369692  0.33564184  0.16448444  1
  Ca2+  Ca13  1  0.07944474  0.33926121  0.49071389  1
  Ca2+  Ca14  1  0.07189137  0.34258041  0.83137090  1
  Ca2+  Ca15  1  0.07818325  0.81895065  0.15946976  1
  Ca2+  Ca16  1  0.07774307  0.82447167  0.49559388  1
  Ca2+  Ca17  1  0.07260160  0.82490034  0.83450779  1
  Ca2+  Ca18  1  0.57745483  0.33760310  0.15983843  1
  Ca2+  Ca19  1  0.57977078  0.33555254  0.49724098  1
  Ca2+  Ca20  1  0.59541828  0.32663689  0.82798879  1
  Ca2+  Ca21  1  0.58764113  0.82126046  0.16612148  1
  Ca2+  Ca22  1  0.58174857  0.82542413  0.49006384  1
  Ca2+  Ca23  1  0.58382546  0.82081091  0.83351954  1
  Ca2+  Ca24  1  0.32761329  0.42446961  0.17490984  1
  Ca2+  Ca25  1  0.32501557  0.42148271  0.50181189  1
  Ca2+  Ca26  1  0.32562278  0.42473576  0.83629244  1
  Ca2+  Ca27  1  0.33320394  0.92217005  0.16989488  1
  Ca2+  Ca28  1  0.33123514  0.91965860  0.50312008  1
  Ca2+  Ca29  1  0.33130269  0.92050752  0.83825890  1
  Ca2+  Ca30  1  0.83373366  0.42094949  0.16790257  1
  Ca2+  Ca31  1  0.83761229  0.42047844  0.50349044  1
  Ca2+  Ca32  1  0.82721576  0.41250954  0.84028590  1
  Ca2+  Ca33  1  0.83103805  0.91534595  0.17249347  1
  Ca2+  Ca34  1  0.82912602  0.91554027  0.50302776  1
  Ca2+  Ca35  1  0.84059702  0.91677444  0.83946360  1
  Ca2+  Ca36  1  0.42009190  0.17816708  0.16372341  1
  Ca2+  Ca37  1  0.42196878  0.17629734  0.49367694  1
  Ca2+  Ca38  1  0.43028401  0.17035387  0.82980946  1
  Ca2+  Ca39  1  0.42746038  0.65368786  0.16328897  1
  Ca2+  Ca40  1  0.42121904  0.65495206  0.49319081  1
  Ca2+  Ca41  1  0.41939691  0.65296481  0.83437363  1
  Ca2+  Ca42  1  0.92327174  0.17989266  0.16338988  1
  Ca2+  Ca43  1  0.92258190  0.18405169  0.49340591  1
  Ca2+  Ca44  1  0.91824574  0.18158890  0.83299459  1
  Ca2+  Ca45  1  0.92493614  0.66031872  0.16052050  1
  Ca2+  Ca46  1  0.91948773  0.66672042  0.49117497  1
  Ca2+  Ca47  1  0.90960904  0.67316611  0.83434493  1
  Al0+  Al48  1  -0.00089039  -0.00039824  -0.00310642  1
  Al0+  Al49  1  -0.00208471  0.00113799  0.33538911  1
  Al0+  Al50  1  -0.00114970  -0.00090694  0.66257517  1
  Al0+  Al51  1  0.00073467  0.49998923  -0.00643405  1
  Al0+  Al52  1  -0.00028183  0.50200680  0.33293877  1
  Al0+  Al53  1  0.00096830  0.50304574  0.66741115  1
  Al0+  Al54  1  0.49870761  0.00095632  -0.00221962  1
  Al0+  Al55  1  0.49940343  -0.00163640  0.33875264  1
  Al0+  Al56  1  0.50069362  -0.00216588  0.66398123  1
  Al0+  Al57  1  0.49730027  0.49883390  0.00074909  1
  Al0+  Al58  1  0.50190526  0.49940248  0.32713050  1
  Al0+  Al59  1  0.50187252  0.49748474  0.67291680  1
  Al0+  Al60  1  0.25236250  0.24907948  -0.00315943  1
  Al0+  Al61  1  0.25230813  0.24880459  0.32981252  1
  Al0+  Al62  1  0.25212108  0.24998825  0.67346177  1
  Al0+  Al63  1  0.24932041  0.75345069  0.00129156  1
  Al0+  Al64  1  0.25161677  0.75383567  0.33476451  1
  Al0+  Al65  1  0.25070968  0.75315450  0.67092078  1
  Al0+  Al66  1  0.74991485  0.24715153  0.00025176  1
  Al0+  Al67  1  0.75055406  0.24753146  0.33023647  1
  Al0+  Al68  1  0.75316650  0.24663285  0.65912270  1
  Al0+  Al69  1  0.74663614  0.74939772  -0.00510743  1
  Al0+  Al70  1  0.74749489  0.75023575  0.34010155  1
  Al0+  Al71  1  0.74775778  0.75140360  0.66238776  1
  Al0+  Al72  1  0.82079831  0.56975798  0.34671891  1
  Al0+  Al73  1  0.57026663  0.67928414  0.32043231  1
  Al0+  Al74  1  0.68319694  0.42736277  0.67763149  1
  Al0+  Al75  1  0.32381833  0.57258562  0.34710901  1
  Al0+  Al76  1  0.17950647  0.42852824  0.34548703  1
  Al0+  Al77  1  0.82073587  0.57228364  0.01362457  1
  Al0+  Al78  1  0.43091915  0.32122510  0.31993241  1
  Al0+  Al79  1  0.07208015  0.17918521  0.98500475  1
  Al0+  Al80  1  0.92774325  0.32440873  0.31730935  1
  Al0+  Al81  1  0.07402730  0.67727690  0.98438111  1
  Al0+  Al82  1  0.17652947  0.42811638  0.68327343  1
  Al0+  Al83  1  0.92914424  0.32195419  0.98437530  1
  Al0+  Al84  1  0.93143520  0.32288613  0.65184454  1
  Al0+  Al85  1  0.57183220  0.17770835  0.65090365  1
  Al0+  Al86  1  0.32142982  0.57198857  0.68201303  1
  Al0+  Al87  1  0.92709679  0.81908079  0.98788567  1
  Al0+  Al88  1  0.67957519  0.93008268  0.34790694  1
  Al0+  Al89  1  0.56959219  0.17941270  0.98812960  1
  Al0+  Al90  1  0.31793357  0.57259712  0.01610710  1
  Al0+  Al91  1  0.07200146  0.68074811  0.32200572  1
  Al0+  Al92  1  0.56843538  0.67762347  0.98541915  1
  Al0+  Al93  1  0.07179242  0.17847799  0.32055449  1
  Al0+  Al94  1  0.67957291  0.42525982  0.01584562  1
  Al0+  Al95  1  0.92803498  0.82077254  0.65004352  1
  Si0+  Si96  1  0.42804859  0.32274246  0.98022381  1
  Si0+  Si97  1  0.67749902  0.92824954  0.68462742  1
  Si0+  Si98  1  0.42845963  0.32153389  0.65044596  1
  Si0+  Si99  1  0.42828774  0.82385395  0.98362627  1
  Si0+  Si100  1  0.67823237  0.42507605  0.34800223  1
  Si0+  Si101  1  0.67656513  0.92927699  0.01359417  1
  Si0+  Si102  1  0.32249684  0.07096627  0.01547924  1
  Si0+  Si103  1  0.32337102  0.07014954  0.68236412  1
  Si0+  Si104  1  0.32147765  0.07054692  0.34924134  1
  Si0+  Si105  1  0.17809522  0.42615822  0.01656032  1
  Si0+  Si106  1  0.56832604  0.67738568  0.65156630  1
  Si0+  Si107  1  0.42848435  0.82143758  0.65152354  1
  Si0+  Si108  1  0.57111228  0.17503922  0.31760206  1
  Si0+  Si109  1  0.42802750  0.82487267  0.31680305  1
  Si0+  Si110  1  0.17701159  0.92992625  0.34934325  1
  Si0+  Si111  1  0.92663357  0.82115641  0.31921227  1
  Si0+  Si112  1  0.82142663  0.57504100  0.68217259  1
  Si0+  Si113  1  0.82025260  0.06767738  0.68229009  1
  Si0+  Si114  1  0.17765637  0.93233140  0.01645785  1
  Si0+  Si115  1  0.07431514  0.68102954  0.64934362  1
  Si0+  Si116  1  0.82269137  0.07263030  0.35288086  1
  Si0+  Si117  1  0.07375650  0.17809830  0.65175296  1
  Si0+  Si118  1  0.82159832  0.06902085  0.01551681  1
  Si0+  Si119  1  0.17797358  0.93165339  0.68294554  1
  O2-  O120  1  0.24690203  0.00547003  0.05863627  1
  O2-  O121  1  0.24643355  0.00326021  0.39133969  1
  O2-  O122  1  0.24744792  0.00461182  0.72528544  1
  O2-  O123  1  0.24120042  0.49968278  0.06129625  1
  O2-  O124  1  0.25043934  0.50195179  0.39607787  1
  O2-  O125  1  0.24750651  0.50216195  0.73178818  1
  O2-  O126  1  0.75002004  -0.00272292  0.05611170  1
  O2-  O127  1  0.75215432  0.00536802  0.39705392  1
  O2-  O128  1  0.74910295  -0.00233011  0.72758535  1
  O2-  O129  1  0.75035796  0.49897079  0.06481669  1
  O2-  O130  1  0.75001088  0.49036306  0.39238308  1
  O2-  O131  1  0.75809958  0.50122939  0.72511368  1
  O2-  O132  1  0.00266747  0.25268165  0.27116435  1
  O2-  O133  1  0.01309700  0.25328911  0.60788110  1
  O2-  O134  1  0.00533371  0.25401439  0.93359917  1
  O2-  O135  1  -0.00448819  0.75392602  0.27503228  1
  O2-  O136  1  0.00014300  0.74391817  0.60447614  1
  O2-  O137  1  -0.00505106  0.74374776  0.93661198  1
  O2-  O138  1  0.50868869  0.24856616  0.27349050  1
  O2-  O139  1  0.49765950  0.25304707  0.60568225  1
  O2-  O140  1  0.50185953  0.25810674  0.93780653  1
  O2-  O141  1  0.49180959  0.75149112  0.27450849  1
  O2-  O142  1  0.49402009  0.74579124  0.60987509  1
  O2-  O143  1  0.49077980  0.75023229  0.93860544  1
  O2-  O144  1  0.06806316  0.17709944  0.09801249  1
  O2-  O145  1  0.06967681  0.17635238  0.43443634  1
  O2-  O146  1  0.06916336  0.17226515  0.75673321  1
  O2-  O147  1  0.07692535  0.68233533  0.09797370  1
  O2-  O148  1  0.07151646  0.68390126  0.43531902  1
  O2-  O149  1  0.07690099  0.68588596  0.75451068  1
  O2-  O150  1  0.56381079  0.17320889  0.10071231  1
  O2-  O151  1  0.56709399  0.17274925  0.42329961  1
  O2-  O152  1  0.56994361  0.17509494  0.76399508  1
  O2-  O153  1  0.57074193  0.68276050  0.09812888  1
  O2-  O154  1  0.56970243  0.68113695  0.43417162  1
  O2-  O155  1  0.56915599  0.68048283  0.75646714  1
  O2-  O156  1  0.18069990  0.42857161  0.23211706  1
  O2-  O157  1  0.17872529  0.42652018  0.56975924  1
  O2-  O158  1  0.18301131  0.42406909  0.91099719  1
  O2-  O159  1  0.17768841  0.92999057  0.24438599  1
  O2-  O160  1  0.18004382  0.93145691  0.57767130  1
  O2-  O161  1  0.17940299  0.93324970  0.91100130  1
  O2-  O162  1  0.67709362  0.42627274  0.24288741  1
  O2-  O163  1  0.68017471  0.43139611  0.56450801  1
  O2-  O164  1  0.68273505  0.42413093  0.90171130  1
  O2-  O165  1  0.67985833  0.93124023  0.23447164  1
  O2-  O166  1  0.67636927  0.92881172  0.57968175  1
  O2-  O167  1  0.67400192  0.93158374  0.90829573  1
  O2-  O168  1  0.42597811  0.31891915  0.08590478  1
  O2-  O169  1  0.43154898  0.31827315  0.43343063  1
  O2-  O170  1  0.42855841  0.31854116  0.75579076  1
  O2-  O171  1  0.43149163  0.83053848  0.08869829  1
  O2-  O172  1  0.42990626  0.83010445  0.42256134  1
  O2-  O173  1  0.43085556  0.82777230  0.75618019  1
  O2-  O174  1  0.92799458  0.31951120  0.09746060  1
  O2-  O175  1  0.92800387  0.32228057  0.43122385  1
  O2-  O176  1  0.92739444  0.31787328  0.76430198  1
  O2-  O177  1  0.93025546  0.82382578  0.10122841  1
  O2-  O178  1  0.92905176  0.82074890  0.42515382  1
  O2-  O179  1  0.92962962  0.82259745  0.76274467  1
  O2-  O180  1  0.32654787  0.06657313  0.24442758  1
  O2-  O181  1  0.32396532  0.06743271  0.57718147  1
  O2-  O182  1  0.32560809  0.06573205  0.91030073  1
  O2-  O183  1  0.32212981  0.57114035  0.23377941  1
  O2-  O184  1  0.32185101  0.57122749  0.56870225  1
  O2-  O185  1  0.31748784  0.57043726  0.90289649  1
  O2-  O186  1  0.82364879  0.07019225  0.24735638  1
  O2-  O187  1  0.81824569  0.06443441  0.57748111  1
  O2-  O188  1  0.82086422  0.06810472  0.91000631  1
  O2-  O189  1  0.81976533  0.57457319  0.23436247  1
  O2-  O190  1  0.81846135  0.57695537  0.57639986  1
  O2-  O191  1  0.81517074  0.57486257  0.89982025  1
  O2-  O192  1  0.03983441  0.08000697  0.26810644  1
  O2-  O193  1  0.04289148  0.08675061  0.60318804  1
  O2-  O194  1  0.04010579  0.08181331  0.93147758  1
  O2-  O195  1  0.04315072  0.58529208  0.26748291  1
  O2-  O196  1  0.05387774  0.58560674  0.60619067  1
  O2-  O197  1  0.05549860  0.57777768  0.93167887  1
  O2-  O198  1  0.53864466  0.08304975  0.27221507  1
  O2-  O199  1  0.53777807  0.08108218  0.59773723  1
  O2-  O200  1  0.53348845  0.08505199  0.93098608  1
  O2-  O201  1  0.54463558  0.58373518  0.26370429  1
  O2-  O202  1  0.54300990  0.58436872  0.60590646  1
  O2-  O203  1  0.53799037  0.58093817  0.93152720  1
  O2-  O204  1  0.17296903  0.19537247  0.26974972  1
  O2-  O205  1  0.17213576  0.19428004  0.61176790  1
  O2-  O206  1  0.17430747  0.19689647  0.93511541  1
  O2-  O207  1  0.16788996  0.71593518  0.26902221  1
  O2-  O208  1  0.16584488  0.71499081  0.60356968  1
  O2-  O209  1  0.16858739  0.71777163  0.93032582  1
  O2-  O210  1  0.66741547  0.19069898  0.27471174  1
  O2-  O211  1  0.66819349  0.20381626  0.59550112  1
  O2-  O212  1  0.66789487  0.20194824  0.93445676  1
  O2-  O213  1  0.66512605  0.71777388  0.26803860  1
  O2-  O214  1  0.65818650  0.70961173  0.60312230  1
  O2-  O215  1  0.66131641  0.71287583  0.92761837  1
  O2-  O216  1  0.08130920  0.44513315  0.05676101  1
  O2-  O217  1  0.08178479  0.45788753  0.39886121  1
  O2-  O218  1  0.07828948  0.45782152  0.73604612  1
  O2-  O219  1  0.08595813  0.95962684  0.06400290  1
  O2-  O220  1  0.08508608  0.95597876  0.39808760  1
  O2-  O221  1  0.08563889  0.95928815  0.72918250  1
  O2-  O222  1  0.57859213  0.45150790  0.06315951  1
  O2-  O223  1  0.58615982  0.45549185  0.39437450  1
  O2-  O224  1  0.58725054  0.45563811  0.73408603  1
  O2-  O225  1  0.58628757  0.96148613  0.06177534  1
  O2-  O226  1  0.58287413  0.95961438  0.40432506  1
  O2-  O227  1  0.58542515  0.95666262  0.73121154  1
  O2-  O228  1  0.20911368  0.33315032  0.06150284  1
  O2-  O229  1  0.20948595  0.32926486  0.39738468  1
  O2-  O230  1  0.20516784  0.32956676  0.73729777  1
  O2-  O231  1  0.20814189  0.84251666  0.06541456  1
  O2-  O232  1  0.20862716  0.84122278  0.40059512  1
  O2-  O233  1  0.20888690  0.84233016  0.73271707  1
  O2-  O234  1  0.70502999  0.32577998  0.06850223  1
  O2-  O235  1  0.69730138  0.32864695  0.39190742  1
  O2-  O236  1  0.71322407  0.32837391  0.72774115  1
  O2-  O237  1  0.70186399  0.83683297  0.05953619  1
  O2-  O238  1  0.70979981  0.83581823  0.40654356  1
  O2-  O239  1  0.70417125  0.83523613  0.73009557  1
  O2-  O240  1  0.46016995  0.41563068  0.26224990  1
  O2-  O241  1  0.45630163  0.41485404  0.60564394  1
  O2-  O242  1  0.44788436  0.41710118  0.93525343  1
  O2-  O243  1  0.45913771  0.91639739  0.26894763  1
  O2-  O244  1  0.46064858  0.91032126  0.60037146  1
  O2-  O245  1  0.45938763  0.91429008  0.93315603  1
  O2-  O246  1  0.95448940  0.42238639  0.26496036  1
  O2-  O247  1  0.95520620  0.42285213  0.60112431  1
  O2-  O248  1  0.95193471  0.42010201  0.92886020  1
  O2-  O249  1  0.95051829  0.91595361  0.27575620  1
  O2-  O250  1  0.96192400  0.91621172  0.59488274  1
  O2-  O251  1  0.96103602  0.91518871  0.93237137  1
  O2-  O252  1  0.33763951  0.28542289  0.26324063  1
  O2-  O253  1  0.33487098  0.29322555  0.60534331  1
  O2-  O254  1  0.33780279  0.29006895  0.93178830  1
  O2-  O255  1  0.33234719  0.80823800  0.27245511  1
  O2-  O256  1  0.33403286  0.80129392  0.60572882  1
  O2-  O257  1  0.33251903  0.80563341  0.93971451  1
  O2-  O258  1  0.82997260  0.29197197  0.26477129  1
  O2-  O259  1  0.83905597  0.28426227  0.59479694  1
  O2-  O260  1  0.83287776  0.28447268  0.93226122  1
  O2-  O261  1  0.83196929  0.79745211  0.27663564  1
  O2-  O262  1  0.82922501  0.79480672  0.59732819  1
  O2-  O263  1  0.82810203  0.79772419  0.93223048  1
  O2-  O264  1  0.41117264  0.03624538  0.06512768  1
  O2-  O265  1  0.40997175  0.03775288  0.40093737  1
  O2-  O266  1  0.41276550  0.03422275  0.73011798  1
  O2-  O267  1  0.41474526  0.53950823  0.06764458  1
  O2-  O268  1  0.42256314  0.54052535  0.39761425  1
  O2-  O269  1  0.41884447  0.54065044  0.73578523  1
  O2-  O270  1  0.91244588  0.03913035  0.06324899  1
  O2-  O271  1  0.91457370  0.04466145  0.40189654  1
  O2-  O272  1  0.91220375  0.03807745  0.72866270  1
  O2-  O273  1  0.92247669  0.54743346  0.06127788  1
  O2-  O274  1  0.91751482  0.54351685  0.40255833  1
  O2-  O275  1  0.91784030  0.55870195  0.72447340  1
  O2-  O276  1  0.30156946  0.16485169  0.06103164  1
  O2-  O277  1  0.29765658  0.16252257  0.39743066  1
  O2-  O278  1  0.30417420  0.16287486  0.73073554  1
  O2-  O279  1  0.29421539  0.67283553  0.06662435  1
  O2-  O280  1  0.30229234  0.67465010  0.39696196  1
  O2-  O281  1  0.29746862  0.67296677  0.73388203  1
  O2-  O282  1  0.79229094  0.15878388  0.06458157  1
  O2-  O283  1  0.79728883  0.16654151  0.39853434  1
  O2-  O284  1  0.79232600  0.15965987  0.72811126  1
  O2-  O285  1  0.78900026  0.67125958  0.06526488  1
  O2-  O286  1  0.78579047  0.66408567  0.40381068  1
  O2-  O287  1  0.78931712  0.66744589  0.72749110  1
