# generated using pymatgen
data_Ca2Al2SiO7
_symmetry_space_group_name_H-M   'P 1'
_cell_length_a   15.45744967
_cell_length_b   15.45691903
_cell_length_c   15.28306231
_cell_angle_alpha   89.99347385
_cell_angle_beta   90.01070798
_cell_angle_gamma   89.99937544
_symmetry_Int_Tables_number   1
_chemical_formula_structural   Ca2Al2SiO7
_chemical_formula_sum   'Ca48 Al48 Si24 O168'
_cell_volume   3651.49866725
_cell_formula_units_Z   24
loop_
 _symmetry_equiv_pos_site_id
 _symmetry_equiv_pos_as_xyz
  1  'x, y, z'
loop_
 _atom_type_symbol
 _atom_type_oxidation_number
  Ca2+  2.0
  Al0+  0.0
  Si0+  0.0
  O2-  -2.0
loop_
 _atom_site_type_symbol
 _atom_site_label
 _atom_site_symmetry_multiplicity
 _atom_site_fract_x
 _atom_site_fract_y
 _atom_site_fract_z
 _atom_site_occupancy
  Ca2+  Ca0  1  0.17353217  0.08346986  0.16917510  1
  Ca2+  Ca1  1  0.17358532  0.08573582  0.50980997  1
  Ca2+  Ca2  1  0.16845533  0.07555845  0.83747659  1
  Ca2+  Ca3  1  0.17285600  0.58833189  0.16491261  1
  Ca2+  Ca4  1  0.16595087  0.58284146  0.50773357  1
  Ca2+  Ca5  1  0.16931871  0.59105428  0.84182476  1
  Ca2+  Ca6  1  0.66812234  0.07329647  0.17171297  1
  Ca2+  Ca7  1  0.66124793  0.07657421  0.50116110  1
  Ca2+  Ca8  1  0.67548416  0.07235497  0.84583523  1
  Ca2+  Ca9  1  0.66319399  0.57952904  0.17279364  1
  Ca2+  Ca10  1  0.66445962  0.57571742  0.50866445  1
  Ca2+  Ca11  1  0.66827372  0.58541185  0.83347865  1
  Ca2+  Ca12  1  0.07722067  0.32623286  0.16016644  1
  Ca2+  Ca13  1  0.08487561  0.32041121  0.49598270  1
  Ca2+  Ca14  1  0.07551946  0.32798921  0.83070648  1
  Ca2+  Ca15  1  0.07868769  0.83145653  0.15419070  1
  Ca2+  Ca16  1  0.08006700  0.83643978  0.50392133  1
  Ca2+  Ca17  1  0.07920140  0.83534572  0.82693332  1
  Ca2+  Ca18  1  0.58207538  0.32674922  0.16254374  1
  Ca2+  Ca19  1  0.58713717  0.32970333  0.49369738  1
  Ca2+  Ca20  1  0.57724395  0.33438501  0.83118403  1
  Ca2+  Ca21  1  0.59132042  0.82544586  0.16090615  1
  Ca2+  Ca22  1  0.59018002  0.82170305  0.49366085  1
  Ca2+  Ca23  1  0.59118765  0.82214250  0.83111175  1
  Ca2+  Ca24  1  0.34080860  0.42035677  0.16213505  1
  Ca2+  Ca25  1  0.33241504  0.41853743  0.50343325  1
  Ca2+  Ca26  1  0.33207355  0.42168596  0.84235698  1
  Ca2+  Ca27  1  0.32830771  0.92480668  0.16889682  1
  Ca2+  Ca28  1  0.32873525  0.93046395  0.50862180  1
  Ca2+  Ca29  1  0.32168236  0.92398886  0.84090679  1
  Ca2+  Ca30  1  0.82992371  0.41699169  0.17226824  1
  Ca2+  Ca31  1  0.82023335  0.42302342  0.50891443  1
  Ca2+  Ca32  1  0.83122249  0.42060093  0.83629304  1
  Ca2+  Ca33  1  0.82680249  0.91466601  0.16262970  1
  Ca2+  Ca34  1  0.83016937  0.91248313  0.50135973  1
  Ca2+  Ca35  1  0.83600318  0.91671588  0.84168616  1
  Ca2+  Ca36  1  0.41772591  0.16549189  0.16298543  1
  Ca2+  Ca37  1  0.41784256  0.16480652  0.49240785  1
  Ca2+  Ca38  1  0.40656044  0.16881726  0.83305628  1
  Ca2+  Ca39  1  0.42852019  0.66503962  0.15784516  1
  Ca2+  Ca40  1  0.42740885  0.66992782  0.49647312  1
  Ca2+  Ca41  1  0.42498499  0.66526208  0.83208103  1
  Ca2+  Ca42  1  0.91746256  0.16926491  0.15949003  1
  Ca2+  Ca43  1  0.93129753  0.16108182  0.49610826  1
  Ca2+  Ca44  1  0.91725022  0.16747729  0.83062590  1
  Ca2+  Ca45  1  0.92353283  0.67359390  0.15469470  1
  Ca2+  Ca46  1  0.91443159  0.66855164  0.50519514  1
  Ca2+  Ca47  1  0.92519509  0.67836387  0.82617112  1
  Al0+  Al48  1  -0.00044593  0.00074061  0.00532200  1
  Al0+  Al49  1  0.00030375  -0.00093363  0.32702933  1
  Al0+  Al50  1  -0.00040175  0.00046434  0.66014196  1
  Al0+  Al51  1  -0.00020322  0.49806605  -0.00621668  1
  Al0+  Al52  1  0.00102809  0.50088312  0.33468237  1
  Al0+  Al53  1  -0.00242340  0.50080102  0.66600103  1
  Al0+  Al54  1  0.50037852  -0.00257692  0.00665947  1
  Al0+  Al55  1  0.49917513  -0.00030104  0.33814467  1
  Al0+  Al56  1  0.49953397  0.00161357  0.67279764  1
  Al0+  Al57  1  0.49945015  0.49823537  -0.00461566  1
  Al0+  Al58  1  0.50018566  0.50075027  0.33482712  1
  Al0+  Al59  1  0.49838902  0.49854014  0.66543110  1
  Al0+  Al60  1  0.25002755  0.25164667  -0.00023784  1
  Al0+  Al61  1  0.24948768  0.25151526  0.33116184  1
  Al0+  Al62  1  0.25035521  0.25333180  0.66605676  1
  Al0+  Al63  1  0.25450470  0.74918725  0.00801612  1
  Al0+  Al64  1  0.25008373  0.75092222  0.33561510  1
  Al0+  Al65  1  0.25035558  0.75164983  0.66473611  1
  Al0+  Al66  1  0.74935351  0.24974254  -0.00140747  1
  Al0+  Al67  1  0.75017025  0.25004578  0.33489069  1
  Al0+  Al68  1  0.74639413  0.25032639  0.67015409  1
  Al0+  Al69  1  0.75291747  0.74741948  -0.00409029  1
  Al0+  Al70  1  0.75199335  0.75006225  0.33225236  1
  Al0+  Al71  1  0.75078402  0.74756588  0.66095661  1
  Al0+  Al72  1  0.67904987  0.42895584  0.34592275  1
  Al0+  Al73  1  0.17849487  0.92831129  0.01629496  1
  Al0+  Al74  1  0.17801135  0.93014271  0.68086712  1
  Al0+  Al75  1  0.57144438  0.17755663  0.32072149  1
  Al0+  Al76  1  0.82111788  0.07335838  0.01533732  1
  Al0+  Al77  1  0.32069388  0.07385734  0.01708605  1
  Al0+  Al78  1  0.57049791  0.67964457  0.31921863  1
  Al0+  Al79  1  0.82060183  0.57155589  0.68430633  1
  Al0+  Al80  1  0.92878388  0.82217617  0.64869536  1
  Al0+  Al81  1  0.68039967  0.92478787  0.01408244  1
  Al0+  Al82  1  0.57146268  0.67863354  0.98558129  1
  Al0+  Al83  1  0.43016150  0.31829184  0.98636501  1
  Al0+  Al84  1  0.32208963  0.07440721  0.68351562  1
  Al0+  Al85  1  0.07365697  0.67820707  0.65056648  1
  Al0+  Al86  1  0.31861176  0.07160140  0.34819802  1
  Al0+  Al87  1  0.06930146  0.18208739  0.65446285  1
  Al0+  Al88  1  0.93133382  0.82202858  0.98505883  1
  Al0+  Al89  1  0.56874053  0.67977672  0.65148527  1
  Al0+  Al90  1  0.92589499  0.32072299  0.98606181  1
  Al0+  Al91  1  0.07465686  0.67916810  0.98706842  1
  Al0+  Al92  1  0.68040271  0.92871147  0.34818517  1
  Al0+  Al93  1  0.67619875  0.42804765  0.68528741  1
  Al0+  Al94  1  0.07219517  0.17876768  0.31754186  1
  Al0+  Al95  1  0.32233134  0.57011449  0.01308572  1
  Si0+  Si96  1  0.42699170  0.82182181  0.31718620  1
  Si0+  Si97  1  0.82300643  0.07215692  0.35071846  1
  Si0+  Si98  1  0.42933723  0.32024522  0.65024753  1
  Si0+  Si99  1  0.17602702  0.92723701  0.35164139  1
  Si0+  Si100  1  0.82402284  0.57190658  0.34954562  1
  Si0+  Si101  1  0.57149367  0.17498020  0.98381489  1
  Si0+  Si102  1  0.82060809  0.07068232  0.67846995  1
  Si0+  Si103  1  0.42823955  0.82479457  0.65062543  1
  Si0+  Si104  1  0.92397218  0.32240558  0.64893824  1
  Si0+  Si105  1  0.17814134  0.43079877  0.34826906  1
  Si0+  Si106  1  0.92969303  0.81985502  0.31549379  1
  Si0+  Si107  1  0.32123958  0.57141905  0.34945840  1
  Si0+  Si108  1  0.67930927  0.92782643  0.67995608  1
  Si0+  Si109  1  0.07143411  0.17895110  0.98371457  1
  Si0+  Si110  1  0.17618478  0.42880088  0.01654212  1
  Si0+  Si111  1  0.82206509  0.56846177  0.01447687  1
  Si0+  Si112  1  0.17789176  0.42953004  0.68038180  1
  Si0+  Si113  1  0.57129708  0.17773986  0.65306761  1
  Si0+  Si114  1  0.42799242  0.32276339  0.31652437  1
  Si0+  Si115  1  0.67806340  0.42965809  0.01512184  1
  Si0+  Si116  1  0.92935620  0.32239164  0.31906606  1
  Si0+  Si117  1  0.31952802  0.57095264  0.67966023  1
  Si0+  Si118  1  0.42882605  0.82318935  0.98437818  1
  Si0+  Si119  1  0.07279534  0.67734284  0.31784512  1
  O2-  O120  1  0.24885293  0.00194092  0.06701293  1
  O2-  O121  1  0.24245194  -0.00166583  0.39508568  1
  O2-  O122  1  0.25034190  0.00152930  0.73086241  1
  O2-  O123  1  0.24396618  0.49887941  0.06054117  1
  O2-  O124  1  0.24869470  0.50190399  0.39163347  1
  O2-  O125  1  0.24145490  0.50751761  0.72116629  1
  O2-  O126  1  0.74875768  0.00080259  0.06393323  1
  O2-  O127  1  0.75283672  0.00557480  0.39629927  1
  O2-  O128  1  0.75070991  -0.00122780  0.72072760  1
  O2-  O129  1  0.75099597  0.49815546  0.05823970  1
  O2-  O130  1  0.75330127  0.50439953  0.39204056  1
  O2-  O131  1  0.74919797  0.49884087  0.73486767  1
  O2-  O132  1  -0.00493735  0.25221527  0.27306772  1
  O2-  O133  1  -0.00642571  0.25500608  0.60435445  1
  O2-  O134  1  -0.00109741  0.24420120  0.94002482  1
  O2-  O135  1  0.00341519  0.74960025  0.27643458  1
  O2-  O136  1  0.00181014  0.74971860  0.59929070  1
  O2-  O137  1  0.00817839  0.75484925  0.93599429  1
  O2-  O138  1  0.49681926  0.25311868  0.27474234  1
  O2-  O139  1  0.49923030  0.24768374  0.60999743  1
  O2-  O140  1  0.49944387  0.23947366  0.93803357  1
  O2-  O141  1  0.49660460  0.75449989  0.27191358  1
  O2-  O142  1  0.49773588  0.75777565  0.60425648  1
  O2-  O143  1  0.49997388  0.75699603  0.93962029  1
  O2-  O144  1  0.07230506  0.18340578  0.08956481  1
  O2-  O145  1  0.07252286  0.18106035  0.43098813  1
  O2-  O146  1  0.06735935  0.18414013  0.76721180  1
  O2-  O147  1  0.06963820  0.67741518  0.10168074  1
  O2-  O148  1  0.07317593  0.67468825  0.42254418  1
  O2-  O149  1  0.07546010  0.67890167  0.76331661  1
  O2-  O150  1  0.57303086  0.17893514  0.08950569  1
  O2-  O151  1  0.56951033  0.17960005  0.43445704  1
  O2-  O152  1  0.57307366  0.17782527  0.75773934  1
  O2-  O153  1  0.57042035  0.67648552  0.09898619  1
  O2-  O154  1  0.56790193  0.67856528  0.43238402  1
  O2-  O155  1  0.56698512  0.67966339  0.76445766  1
  O2-  O156  1  0.17521405  0.43279844  0.24364294  1
  O2-  O157  1  0.18292568  0.42663018  0.57469552  1
  O2-  O158  1  0.17740683  0.42732743  0.91076184  1
  O2-  O159  1  0.17804192  0.92443039  0.24646607  1
  O2-  O160  1  0.18003728  0.93317649  0.56673541  1
  O2-  O161  1  0.17887311  0.92905979  0.90284063  1
  O2-  O162  1  0.67995035  0.43002213  0.23251398  1
  O2-  O163  1  0.67614636  0.42768637  0.57123618  1
  O2-  O164  1  0.67762619  0.43057415  0.91033820  1
  O2-  O165  1  0.68374660  0.92638009  0.23580106  1
  O2-  O166  1  0.67805554  0.93017430  0.57453977  1
  O2-  O167  1  0.68220639  0.92568760  0.89981714  1
  O2-  O168  1  0.43512452  0.32129677  0.09941251  1
  O2-  O169  1  0.42636651  0.32419921  0.42246775  1
  O2-  O170  1  0.42815211  0.32210119  0.75500839  1
  O2-  O171  1  0.42879366  0.82047712  0.09022085  1
  O2-  O172  1  0.42559075  0.81777142  0.42295973  1
  O2-  O173  1  0.42904370  0.82280261  0.75595314  1
  O2-  O174  1  0.92826267  0.32255236  0.09967485  1
  O2-  O175  1  0.93275154  0.32362020  0.42446835  1
  O2-  O176  1  0.92494604  0.31993510  0.75454933  1
  O2-  O177  1  0.92903036  0.81626462  0.09921661  1
  O2-  O178  1  0.92878815  0.82029466  0.42040145  1
  O2-  O179  1  0.92870878  0.82403720  0.76148672  1
  O2-  O180  1  0.31733962  0.07125452  0.23565982  1
  O2-  O181  1  0.32210500  0.07510050  0.56949223  1
  O2-  O182  1  0.31645418  0.07424935  0.90374458  1
  O2-  O183  1  0.32191453  0.57006653  0.24468586  1
  O2-  O184  1  0.32120307  0.56636257  0.57393631  1
  O2-  O185  1  0.32401787  0.56628541  0.89978277  1
  O2-  O186  1  0.82243328  0.07191461  0.24555854  1
  O2-  O187  1  0.81834763  0.07202583  0.57315944  1
  O2-  O188  1  0.81903425  0.07427251  0.90098624  1
  O2-  O189  1  0.82728060  0.56965393  0.24375887  1
  O2-  O190  1  0.81775707  0.56916822  0.56988059  1
  O2-  O191  1  0.82125646  0.56746464  0.91000114  1
  O2-  O192  1  0.04381519  0.08183648  0.26377721  1
  O2-  O193  1  0.03954625  0.08726789  0.59677853  1
  O2-  O194  1  0.04828222  0.08433544  0.94070204  1
  O2-  O195  1  0.04482508  0.58548313  0.27023575  1
  O2-  O196  1  0.04525188  0.57823757  0.59791043  1
  O2-  O197  1  0.04534720  0.58142518  0.93409216  1
  O2-  O198  1  0.54072010  0.08047783  0.26832726  1
  O2-  O199  1  0.54450905  0.08513063  0.60585165  1
  O2-  O200  1  0.55134851  0.07882683  0.94106128  1
  O2-  O201  1  0.53749147  0.58300684  0.26616872  1
  O2-  O202  1  0.53313488  0.58359069  0.59852149  1
  O2-  O203  1  0.53611187  0.58429541  0.93070497  1
  O2-  O204  1  0.16635237  0.21524129  0.26294572  1
  O2-  O205  1  0.16508023  0.21762898  0.59991737  1
  O2-  O206  1  0.16289709  0.20970300  0.93696248  1
  O2-  O207  1  0.16640477  0.70314928  0.27265373  1
  O2-  O208  1  0.17290361  0.70441953  0.59599352  1
  O2-  O209  1  0.17766579  0.69920772  0.94162187  1
  O2-  O210  1  0.66876923  0.20788755  0.26755577  1
  O2-  O211  1  0.66233614  0.20618774  0.60372502  1
  O2-  O212  1  0.66296653  0.20517675  0.93617245  1
  O2-  O213  1  0.66895590  0.70742576  0.26746956  1
  O2-  O214  1  0.66512836  0.70759179  0.59644531  1
  O2-  O215  1  0.66816002  0.70672996  0.93123562  1
  O2-  O216  1  0.08212845  0.45285607  0.06279568  1
  O2-  O217  1  0.08712179  0.45804849  0.39850545  1
  O2-  O218  1  0.08292719  0.44746511  0.72435887  1
  O2-  O219  1  0.08035571  0.95480311  0.07037517  1
  O2-  O220  1  0.08045942  0.95099019  0.39404556  1
  O2-  O221  1  0.07872533  0.96019970  0.73045171  1
  O2-  O222  1  0.58745789  0.46013915  0.06235297  1
  O2-  O223  1  0.58214636  0.45884717  0.40065307  1
  O2-  O224  1  0.57683747  0.45745153  0.73550025  1
  O2-  O225  1  0.58126063  0.94766944  0.06773975  1
  O2-  O226  1  0.58342627  0.95642339  0.40316283  1
  O2-  O227  1  0.58854233  0.95537718  0.72901538  1
  O2-  O228  1  0.20472567  0.33696395  0.06432233  1
  O2-  O229  1  0.20806268  0.33978850  0.39612373  1
  O2-  O230  1  0.21344554  0.34227125  0.73078549  1
  O2-  O231  1  0.20913474  0.83128697  0.07180349  1
  O2-  O232  1  0.20247144  0.83352100  0.39848870  1
  O2-  O233  1  0.20587832  0.83061536  0.73156940  1
  O2-  O234  1  0.70381104  0.33672173  0.06107999  1
  O2-  O235  1  0.70963435  0.33275104  0.40184356  1
  O2-  O236  1  0.70238764  0.32869186  0.73796388  1
  O2-  O237  1  0.71366476  0.82726522  0.06711654  1
  O2-  O238  1  0.71526492  0.83253720  0.40208880  1
  O2-  O239  1  0.70643205  0.83523326  0.72389266  1
  O2-  O240  1  0.45489542  0.41623189  0.27110243  1
  O2-  O241  1  0.45764182  0.41087280  0.60016555  1
  O2-  O242  1  0.46450438  0.41203548  0.92894121  1
  O2-  O243  1  0.45086829  0.91622703  0.27392090  1
  O2-  O244  1  0.45338103  0.91980998  0.60640310  1
  O2-  O245  1  0.45009183  0.91811001  0.93922933  1
  O2-  O246  1  0.95744970  0.41572459  0.27222163  1
  O2-  O247  1  0.94791372  0.41640475  0.60379378  1
  O2-  O248  1  0.95970102  0.41429173  0.92836440  1
  O2-  O249  1  0.95510512  0.91164203  0.26740692  1
  O2-  O250  1  0.95603904  0.91971585  0.59208590  1
  O2-  O251  1  0.95299421  0.92359755  0.93613710  1
  O2-  O252  1  0.33436270  0.29956729  0.26983848  1
  O2-  O253  1  0.33755379  0.29504586  0.60066633  1
  O2-  O254  1  0.33125041  0.29477777  0.93229128  1
  O2-  O255  1  0.33315550  0.79487291  0.27127745  1
  O2-  O256  1  0.33608221  0.79816849  0.60208533  1
  O2-  O257  1  0.33682386  0.79279792  0.93851895  1
  O2-  O258  1  0.83490131  0.29958263  0.27391486  1
  O2-  O259  1  0.82969903  0.29558570  0.60452338  1
  O2-  O260  1  0.82931549  0.29300518  0.93044234  1
  O2-  O261  1  0.83953025  0.78911601  0.26727812  1
  O2-  O262  1  0.83193810  0.79024257  0.59325990  1
  O2-  O263  1  0.83566926  0.78832496  0.93062929  1
  O2-  O264  1  0.42001058  0.04690183  0.06876715  1
  O2-  O265  1  0.41467847  0.04064791  0.40352342  1
  O2-  O266  1  0.42078609  0.04841589  0.73739398  1
  O2-  O267  1  0.41679380  0.53148032  0.06792025  1
  O2-  O268  1  0.41128196  0.54118178  0.39898387  1
  O2-  O269  1  0.40781813  0.53504091  0.72780976  1
  O2-  O270  1  0.91909357  0.04854719  0.06986116  1
  O2-  O271  1  0.91676323  0.04181363  0.39497834  1
  O2-  O272  1  0.91267700  0.04459305  0.72455623  1
  O2-  O273  1  0.91389201  0.53912905  0.06188945  1
  O2-  O274  1  0.91689263  0.54495224  0.39771048  1
  O2-  O275  1  0.92025120  0.54466223  0.73555784  1
  O2-  O276  1  0.29306951  0.17344180  0.06899677  1
  O2-  O277  1  0.29027205  0.17083947  0.39967568  1
  O2-  O278  1  0.29246811  0.17386189  0.73314063  1
  O2-  O279  1  0.29881411  0.66524110  0.07300003  1
  O2-  O280  1  0.29452938  0.66354178  0.39724030  1
  O2-  O281  1  0.30036877  0.66517263  0.72476468  1
  O2-  O282  1  0.79203770  0.17206397  0.06871139  1
  O2-  O283  1  0.80203951  0.16679870  0.39656119  1
  O2-  O284  1  0.79226484  0.16173523  0.72704784  1
  O2-  O285  1  0.79450535  0.65977118  0.06234344  1
  O2-  O286  1  0.79981887  0.66579953  0.39429185  1
  O2-  O287  1  0.79023689  0.67043947  0.73441193  1
