# generated using pymatgen
data_Ca2Al2SiO7
_symmetry_space_group_name_H-M   'P 1'
_cell_length_a   15.45699643
_cell_length_b   15.45713812
_cell_length_c   15.28253870
_cell_angle_alpha   90.01795503
_cell_angle_beta   89.99680163
_cell_angle_gamma   89.99412831
_symmetry_Int_Tables_number   1
_chemical_formula_structural   Ca2Al2SiO7
_chemical_formula_sum   'Ca48 Al48 Si24 O168'
_cell_volume   3651.31813455
_cell_formula_units_Z   24
loop_
 _symmetry_equiv_pos_site_id
 _symmetry_equiv_pos_as_xyz
  1  'x, y, z'
loop_
 _atom_type_symbol
 _atom_type_oxidation_number
  Ca2+  2.0
  Al0+  0.0
  Si0+  0.0
  O2-  -2.0
loop_
 _atom_site_type_symbol
 _atom_site_label
 _atom_site_symmetry_multiplicity
 _atom_site_fract_x
 _atom_site_fract_y
 _atom_site_fract_z
 _atom_site_occupancy
  Ca2+  Ca0  1  0.16564827  0.07271075  0.16881871  1
  Ca2+  Ca1  1  0.16808565  0.07627862  0.49856696  1
  Ca2+  Ca2  1  0.17524703  0.07675221  0.84356301  1
  Ca2+  Ca3  1  0.16240237  0.57064273  0.17133142  1
  Ca2+  Ca4  1  0.16268638  0.58152105  0.50221102  1
  Ca2+  Ca5  1  0.16140114  0.58209293  0.83774470  1
  Ca2+  Ca6  1  0.67429352  0.08249407  0.16390452  1
  Ca2+  Ca7  1  0.67355296  0.07733659  0.50436456  1
  Ca2+  Ca8  1  0.66987931  0.07100259  0.84250918  1
  Ca2+  Ca9  1  0.67315621  0.58784907  0.16926954  1
  Ca2+  Ca10  1  0.66152833  0.58100096  0.50636275  1
  Ca2+  Ca11  1  0.67074026  0.58013305  0.83605545  1
  Ca2+  Ca12  1  0.07701156  0.33683834  0.16091213  1
  Ca2+  Ca13  1  0.07221303  0.33330250  0.49316520  1
  Ca2+  Ca14  1  0.07309005  0.33605132  0.83214699  1
  Ca2+  Ca15  1  0.07600354  0.84252528  0.16263732  1
  Ca2+  Ca16  1  0.07694412  0.83094015  0.49450038  1
  Ca2+  Ca17  1  0.07243669  0.83433082  0.82762142  1
  Ca2+  Ca18  1  0.57603608  0.32544367  0.16116724  1
  Ca2+  Ca19  1  0.57971185  0.33546509  0.49278725  1
  Ca2+  Ca20  1  0.59085011  0.32467245  0.83059469  1
  Ca2+  Ca21  1  0.58321760  0.83438822  0.16404559  1
  Ca2+  Ca22  1  0.57989094  0.82738727  0.49627523  1
  Ca2+  Ca23  1  0.58358510  0.83280419  0.82397214  1
  Ca2+  Ca24  1  0.32159049  0.41052307  0.17401521  1
  Ca2+  Ca25  1  0.32920643  0.41428454  0.50140743  1
  Ca2+  Ca26  1  0.32394381  0.42264068  0.84214380  1
  Ca2+  Ca27  1  0.32452197  0.91725025  0.17098216  1
  Ca2+  Ca28  1  0.33197399  0.90398836  0.50082083  1
  Ca2+  Ca29  1  0.32814944  0.91691461  0.84291398  1
  Ca2+  Ca30  1  0.84165380  0.42332590  0.16988350  1
  Ca2+  Ca31  1  0.82957172  0.41545520  0.50750980  1
  Ca2+  Ca32  1  0.83584820  0.42196312  0.83810639  1
  Ca2+  Ca33  1  0.83756266  0.92626747  0.17211931  1
  Ca2+  Ca34  1  0.83431754  0.91785716  0.50397004  1
  Ca2+  Ca35  1  0.82579176  0.91332897  0.84290675  1
  Ca2+  Ca36  1  0.41800931  0.16608267  0.15978333  1
  Ca2+  Ca37  1  0.42102790  0.17291621  0.49297105  1
  Ca2+  Ca38  1  0.42293625  0.15813928  0.83573777  1
  Ca2+  Ca39  1  0.42228497  0.66961270  0.16902805  1
  Ca2+  Ca40  1  0.42847394  0.67424057  0.49514403  1
  Ca2+  Ca41  1  0.42388476  0.67540349  0.82267631  1
  Ca2+  Ca42  1  0.90771682  0.17555312  0.16096879  1
  Ca2+  Ca43  1  0.91042483  0.17610679  0.49371103  1
  Ca2+  Ca44  1  0.90566446  0.17735814  0.83467080  1
  Ca2+  Ca45  1  0.91232687  0.68025862  0.16010730  1
  Ca2+  Ca46  1  0.91747272  0.67947953  0.49981883  1
  Ca2+  Ca47  1  0.91767226  0.67588568  0.83113328  1
  Al0+  Al48  1  -0.00075743  0.00293211  0.00010868  1
  Al0+  Al49  1  0.00131102  0.00167593  0.34112886  1
  Al0+  Al50  1  0.00220670  0.00396219  0.66553840  1
  Al0+  Al51  1  -0.00117740  0.50128312  0.00371852  1
  Al0+  Al52  1  -0.00068714  0.50047205  0.33718485  1
  Al0+  Al53  1  -0.00116827  0.49899076  0.65949876  1
  Al0+  Al54  1  0.50022303  0.00024968  0.00351169  1
  Al0+  Al55  1  0.50119753  -0.00099779  0.33049414  1
  Al0+  Al56  1  0.50113723  0.00153495  0.66430413  1
  Al0+  Al57  1  0.49921571  0.49996685  -0.00106145  1
  Al0+  Al58  1  0.49966465  0.49928496  0.32336212  1
  Al0+  Al59  1  0.49847670  0.49874434  0.67087439  1
  Al0+  Al60  1  0.24902022  0.25132543  0.00523915  1
  Al0+  Al61  1  0.24876565  0.24878245  0.33625728  1
  Al0+  Al62  1  0.24904900  0.24906803  0.66884236  1
  Al0+  Al63  1  0.25092139  0.74791377  0.00435214  1
  Al0+  Al64  1  0.25173152  0.74731271  0.33386935  1
  Al0+  Al65  1  0.24949401  0.74838828  0.66229014  1
  Al0+  Al66  1  0.74649944  0.24954153  -0.00606623  1
  Al0+  Al67  1  0.75036709  0.25088170  0.33302637  1
  Al0+  Al68  1  0.74893451  0.25024673  0.66606464  1
  Al0+  Al69  1  0.74929968  0.74773201  0.00265608  1
  Al0+  Al70  1  0.75192716  0.75015653  0.32786925  1
  Al0+  Al71  1  0.75093683  0.74897538  0.66320298  1
  Al0+  Al72  1  0.82008714  0.07244438  0.34849488  1
  Al0+  Al73  1  0.93226540  0.82276882  0.31879599  1
  Al0+  Al74  1  0.56858392  0.17878731  0.98489361  1
  Al0+  Al75  1  0.92935260  0.82370326  0.98759422  1
  Al0+  Al76  1  0.42974005  0.82356731  0.65303744  1
  Al0+  Al77  1  0.42810305  0.82161127  0.31520720  1
  Al0+  Al78  1  0.81937839  0.56896474  0.01340649  1
  Al0+  Al79  1  0.17810988  0.42806817  0.35066830  1
  Al0+  Al80  1  0.42761212  0.31921384  0.32012634  1
  Al0+  Al81  1  0.82047150  0.07284255  0.01343981  1
  Al0+  Al82  1  0.17886231  0.43169387  0.01289407  1
  Al0+  Al83  1  0.32176096  0.07043699  0.01526231  1
  Al0+  Al84  1  0.07095854  0.67863594  0.65171796  1
  Al0+  Al85  1  0.17746324  0.92701927  0.01341460  1
  Al0+  Al86  1  0.92947669  0.32228493  0.98617296  1
  Al0+  Al87  1  0.18084203  0.92758710  0.34950106  1
  Al0+  Al88  1  0.68103718  0.92881178  0.67800620  1
  Al0+  Al89  1  0.57180357  0.67657427  0.65375840  1
  Al0+  Al90  1  0.92885191  0.31824237  0.65235944  1
  Al0+  Al91  1  0.57245869  0.67871805  0.31568248  1
  Al0+  Al92  1  0.67704306  0.42854238  0.68021839  1
  Al0+  Al93  1  0.92890503  0.32101648  0.31879814  1
  Al0+  Al94  1  0.67915751  0.92650051  0.01576836  1
  Al0+  Al95  1  0.92821966  0.82450057  0.65236979  1
  Si0+  Si96  1  0.82080753  0.57293699  0.35046853  1
  Si0+  Si97  1  0.07197166  0.67857563  0.98670055  1
  Si0+  Si98  1  0.82308970  0.57058531  0.68215319  1
  Si0+  Si99  1  0.17995754  0.92790354  0.68099570  1
  Si0+  Si100  1  0.67883678  0.92678386  0.35069974  1
  Si0+  Si101  1  0.32434388  0.07090948  0.35157015  1
  Si0+  Si102  1  0.17775464  0.42873902  0.68159061  1
  Si0+  Si103  1  0.57150923  0.67744825  0.98293281  1
  Si0+  Si104  1  0.07640361  0.17942596  0.64873570  1
  Si0+  Si105  1  0.57018600  0.17986881  0.65049920  1
  Si0+  Si106  1  0.67628386  0.42691791  0.01698601  1
  Si0+  Si107  1  0.42560396  0.32268798  0.98159033  1
  Si0+  Si108  1  0.32504881  0.57221270  0.01833676  1
  Si0+  Si109  1  0.07374297  0.17892979  0.98320272  1
  Si0+  Si110  1  0.32369689  0.56901346  0.35153859  1
  Si0+  Si111  1  0.42916442  0.81944961  0.98593549  1
  Si0+  Si112  1  0.07196668  0.67760913  0.31607868  1
  Si0+  Si113  1  0.42673990  0.32049168  0.65438973  1
  Si0+  Si114  1  0.67909744  0.43074056  0.34532761  1
  Si0+  Si115  1  0.07156681  0.17830773  0.31684213  1
  Si0+  Si116  1  0.82313040  0.07303144  0.68367716  1
  Si0+  Si117  1  0.32130825  0.07258015  0.68091428  1
  Si0+  Si118  1  0.57305901  0.17810867  0.31692454  1
  Si0+  Si119  1  0.31993479  0.57056112  0.68156232  1
  O2-  O120  1  0.24909539  -0.00080491  0.06415113  1
  O2-  O121  1  0.26037828  -0.00168056  0.39696262  1
  O2-  O122  1  0.25328556  -0.00222947  0.72175010  1
  O2-  O123  1  0.25649268  0.50282374  0.06077662  1
  O2-  O124  1  0.25420333  0.50156268  0.39761695  1
  O2-  O125  1  0.24658222  0.50160178  0.72403586  1
  O2-  O126  1  0.75454667  -0.00413076  0.06442699  1
  O2-  O127  1  0.74692170  -0.00396226  0.39516876  1
  O2-  O128  1  0.76093205  -0.00215284  0.72588660  1
  O2-  O129  1  0.74540184  0.49390019  0.06213725  1
  O2-  O130  1  0.74842491  0.50178864  0.39035618  1
  O2-  O131  1  0.75157682  0.50378146  0.72578566  1
  O2-  O132  1  0.00402548  0.24741854  0.27179189  1
  O2-  O133  1  0.00304124  0.24333945  0.60551360  1
  O2-  O134  1  0.00287020  0.24597059  0.93898248  1
  O2-  O135  1  0.00817829  0.74954015  0.27093648  1
  O2-  O136  1  0.00227794  0.75401417  0.60262745  1
  O2-  O137  1  0.00887554  0.75226798  0.94262095  1
  O2-  O138  1  0.49918841  0.24196360  0.27374763  1
  O2-  O139  1  0.49992503  0.25283212  0.61024251  1
  O2-  O140  1  0.49384353  0.25424587  0.93651657  1
  O2-  O141  1  0.50307245  0.75301608  0.26495400  1
  O2-  O142  1  0.50361165  0.75248395  0.60469049  1
  O2-  O143  1  0.50034588  0.74919582  0.94240199  1
  O2-  O144  1  0.07615395  0.18078264  0.08853745  1
  O2-  O145  1  0.07156769  0.18056948  0.42294547  1
  O2-  O146  1  0.08340852  0.18201006  0.75381795  1
  O2-  O147  1  0.06997469  0.67572715  0.09201791  1
  O2-  O148  1  0.06881762  0.67766933  0.42178989  1
  O2-  O149  1  0.07111167  0.67851875  0.76564098  1
  O2-  O150  1  0.56766136  0.18230504  0.09798499  1
  O2-  O151  1  0.57303478  0.18126467  0.42322987  1
  O2-  O152  1  0.56892787  0.17842877  0.75532897  1
  O2-  O153  1  0.56972666  0.67514152  0.08761937  1
  O2-  O154  1  0.57081635  0.67608186  0.42927649  1
  O2-  O155  1  0.56786912  0.67553967  0.76762067  1
  O2-  O156  1  0.17810957  0.42986110  0.23760266  1
  O2-  O157  1  0.18096136  0.42673799  0.57675630  1
  O2-  O158  1  0.17915178  0.43467045  0.89896012  1
  O2-  O159  1  0.17953681  0.93144018  0.23685443  1
  O2-  O160  1  0.18042535  0.92928817  0.57598104  1
  O2-  O161  1  0.18093649  0.92636933  0.89899420  1
  O2-  O162  1  0.68075548  0.43018766  0.24045240  1
  O2-  O163  1  0.67630356  0.42770918  0.56659952  1
  O2-  O164  1  0.67571281  0.42974122  0.91117836  1
  O2-  O165  1  0.67944690  0.92791967  0.24540006  1
  O2-  O166  1  0.67849543  0.93388601  0.56496893  1
  O2-  O167  1  0.67815387  0.92641533  0.90156270  1
  O2-  O168  1  0.42706657  0.32328907  0.08708837  1
  O2-  O169  1  0.43104037  0.31937366  0.43424985  1
  O2-  O170  1  0.42353538  0.31807018  0.75907105  1
  O2-  O171  1  0.42830095  0.81690584  0.09054579  1
  O2-  O172  1  0.42993141  0.81867057  0.42886883  1
  O2-  O173  1  0.42805233  0.82231752  0.76725677  1
  O2-  O174  1  0.93176272  0.32298045  0.09907870  1
  O2-  O175  1  0.92757664  0.31974628  0.43214782  1
  O2-  O176  1  0.93084193  0.31973582  0.76549793  1
  O2-  O177  1  0.93000219  0.82226486  0.10058878  1
  O2-  O178  1  0.93179782  0.82064008  0.43191043  1
  O2-  O179  1  0.92895641  0.82300916  0.76613943  1
  O2-  O180  1  0.32170314  0.07311615  0.24654658  1
  O2-  O181  1  0.31921726  0.07876318  0.57625040  1
  O2-  O182  1  0.32133968  0.06731275  0.90059663  1
  O2-  O183  1  0.32248530  0.56699637  0.24586909  1
  O2-  O184  1  0.32239162  0.56681672  0.57689666  1
  O2-  O185  1  0.32587255  0.57239838  0.91223501  1
  O2-  O186  1  0.81796683  0.07486464  0.23586461  1
  O2-  O187  1  0.81906620  0.07643536  0.57795653  1
  O2-  O188  1  0.81637986  0.07382649  0.89962629  1
  O2-  O189  1  0.82183462  0.57192739  0.24525206  1
  O2-  O190  1  0.82385028  0.56791842  0.57641308  1
  O2-  O191  1  0.81898930  0.56892235  0.90003796  1
  O2-  O192  1  0.04592281  0.08451670  0.27318871  1
  O2-  O193  1  0.05556570  0.08454049  0.60360158  1
  O2-  O194  1  0.05141534  0.08526258  0.93591977  1
  O2-  O195  1  0.04174155  0.58481022  0.27122762  1
  O2-  O196  1  0.04213755  0.58147863  0.59638871  1
  O2-  O197  1  0.04036304  0.58773301  0.93821927  1
  O2-  O198  1  0.55354449  0.08298815  0.27261640  1
  O2-  O199  1  0.54014179  0.09068951  0.59975312  1
  O2-  O200  1  0.53619137  0.08211507  0.93043019  1
  O2-  O201  1  0.54180936  0.58218370  0.25943131  1
  O2-  O202  1  0.53777306  0.57871482  0.60161748  1
  O2-  O203  1  0.54291557  0.58510432  0.93544478  1
  O2-  O204  1  0.16589831  0.20209365  0.27208504  1
  O2-  O205  1  0.16747167  0.20984244  0.59912025  1
  O2-  O206  1  0.16682798  0.20765423  0.93609068  1
  O2-  O207  1  0.16843266  0.69482573  0.27352696  1
  O2-  O208  1  0.16979477  0.70234452  0.59738528  1
  O2-  O209  1  0.16879939  0.69612300  0.94254147  1
  O2-  O210  1  0.66309214  0.21105700  0.26941507  1
  O2-  O211  1  0.66130947  0.20786240  0.60254568  1
  O2-  O212  1  0.66254072  0.21062679  0.92621483  1
  O2-  O213  1  0.67114352  0.70513210  0.26305223  1
  O2-  O214  1  0.67110801  0.69779480  0.60108938  1
  O2-  O215  1  0.66335392  0.70353887  0.93596399  1
  O2-  O216  1  0.08483559  0.46510549  0.06924902  1
  O2-  O217  1  0.08225789  0.46157131  0.40536639  1
  O2-  O218  1  0.08479862  0.45583655  0.72646290  1
  O2-  O219  1  0.08022380  0.95802976  0.06596177  1
  O2-  O220  1  0.08759500  0.96369602  0.40708729  1
  O2-  O221  1  0.08873913  0.95855411  0.72858029  1
  O2-  O222  1  0.58180567  0.45283214  0.06191941  1
  O2-  O223  1  0.58552150  0.45723368  0.39074530  1
  O2-  O224  1  0.58010038  0.45497390  0.73677601  1
  O2-  O225  1  0.58277130  0.95927795  0.06907016  1
  O2-  O226  1  0.58409464  0.95215758  0.39552487  1
  O2-  O227  1  0.58469993  0.96436226  0.73154482  1
  O2-  O228  1  0.20663115  0.33535965  0.06805796  1
  O2-  O229  1  0.20846666  0.33106815  0.40474434  1
  O2-  O230  1  0.20837381  0.33803332  0.73002044  1
  O2-  O231  1  0.20475469  0.82859138  0.06699863  1
  O2-  O232  1  0.20856081  0.82873656  0.40157141  1
  O2-  O233  1  0.20541072  0.83503524  0.72702549  1
  O2-  O234  1  0.69861332  0.33224110  0.06011022  1
  O2-  O235  1  0.70620569  0.33940880  0.39433869  1
  O2-  O236  1  0.70918479  0.33199517  0.73403386  1
  O2-  O237  1  0.70137389  0.82686760  0.06730292  1
  O2-  O238  1  0.70613450  0.83277419  0.39479473  1
  O2-  O239  1  0.70508510  0.82937685  0.73011588  1
  O2-  O240  1  0.45854394  0.41292933  0.26216907  1
  O2-  O241  1  0.45190503  0.41282359  0.60773699  1
  O2-  O242  1  0.45066218  0.41725108  0.93589014  1
  O2-  O243  1  0.45206975  0.92217380  0.26457411  1
  O2-  O244  1  0.45416023  0.92249545  0.59911362  1
  O2-  O245  1  0.45508706  0.91215587  0.94041689  1
  O2-  O246  1  0.95992687  0.41917256  0.26851707  1
  O2-  O247  1  0.95928512  0.41352134  0.59661152  1
  O2-  O248  1  0.96375020  0.41840524  0.93248294  1
  O2-  O249  1  0.96310601  0.92129607  0.26955081  1
  O2-  O250  1  0.95512506  0.92462482  0.60175509  1
  O2-  O251  1  0.95498675  0.92140397  0.93307335  1
  O2-  O252  1  0.32991229  0.28985322  0.26817846  1
  O2-  O253  1  0.33611269  0.28996689  0.60542763  1
  O2-  O254  1  0.33091878  0.29877888  0.93689070  1
  O2-  O255  1  0.33024501  0.78899130  0.26332243  1
  O2-  O256  1  0.33280928  0.79140201  0.60023786  1
  O2-  O257  1  0.33693835  0.79034109  0.93844896  1
  O2-  O258  1  0.83188972  0.29151367  0.26540859  1
  O2-  O259  1  0.83175017  0.28790698  0.59835033  1
  O2-  O260  1  0.83202317  0.29395823  0.93219627  1
  O2-  O261  1  0.83663678  0.79089133  0.26481463  1
  O2-  O262  1  0.83183692  0.79374825  0.59716153  1
  O2-  O263  1  0.83376600  0.78557145  0.93541583  1
  O2-  O264  1  0.41863913  0.04286066  0.06960202  1
  O2-  O265  1  0.42075734  0.05146306  0.39553790  1
  O2-  O266  1  0.41462991  0.04848565  0.72650142  1
  O2-  O267  1  0.41846665  0.54635377  0.06466055  1
  O2-  O268  1  0.41759187  0.53979240  0.39530610  1
  O2-  O269  1  0.40906743  0.54012167  0.73320450  1
  O2-  O270  1  0.92124985  0.05415330  0.06438847  1
  O2-  O271  1  0.91665158  0.04547382  0.40433588  1
  O2-  O272  1  0.92096218  0.05891921  0.72562339  1
  O2-  O273  1  0.91447004  0.53904326  0.07011724  1
  O2-  O274  1  0.91141951  0.54406897  0.39904402  1
  O2-  O275  1  0.91556229  0.54004472  0.72835294  1
  O2-  O276  1  0.29672604  0.17010826  0.06663585  1
  O2-  O277  1  0.29412673  0.16273495  0.40016405  1
  O2-  O278  1  0.29023835  0.16219847  0.73204175  1
  O2-  O279  1  0.30039461  0.66475045  0.06601312  1
  O2-  O280  1  0.29961902  0.66268550  0.39772345  1
  O2-  O281  1  0.29306929  0.66270600  0.72943266  1
  O2-  O282  1  0.78487414  0.17017584  0.06532001  1
  O2-  O283  1  0.78525799  0.16843039  0.40348967  1
  O2-  O284  1  0.78928899  0.16393165  0.73031044  1
  O2-  O285  1  0.78666361  0.66326478  0.06997503  1
  O2-  O286  1  0.79279438  0.66496102  0.39711616  1
  O2-  O287  1  0.80040373  0.66501257  0.72733105  1
