# generated using pymatgen
data_Ca2Al2SiO7
_symmetry_space_group_name_H-M   'P 1'
_cell_length_a   15.45744620
_cell_length_b   15.45874223
_cell_length_c   15.28299101
_cell_angle_alpha   89.99852158
_cell_angle_beta   89.99837832
_cell_angle_gamma   90.01023557
_symmetry_Int_Tables_number   1
_chemical_formula_structural   Ca2Al2SiO7
_chemical_formula_sum   'Ca48 Al48 Si24 O168'
_cell_volume   3651.91154438
_cell_formula_units_Z   24
loop_
 _symmetry_equiv_pos_site_id
 _symmetry_equiv_pos_as_xyz
  1  'x, y, z'
loop_
 _atom_type_symbol
 _atom_type_oxidation_number
  Ca2+  2.0
  Al0+  0.0
  Si0+  0.0
  O2-  -2.0
loop_
 _atom_site_type_symbol
 _atom_site_label
 _atom_site_symmetry_multiplicity
 _atom_site_fract_x
 _atom_site_fract_y
 _atom_site_fract_z
 _atom_site_occupancy
  Ca2+  Ca0  1  0.16870171  0.07836119  0.16971866  1
  Ca2+  Ca1  1  0.18156524  0.08819417  0.50312859  1
  Ca2+  Ca2  1  0.17228169  0.07923564  0.83803622  1
  Ca2+  Ca3  1  0.17023841  0.57425576  0.16900932  1
  Ca2+  Ca4  1  0.16834469  0.57441725  0.50564750  1
  Ca2+  Ca5  1  0.17863447  0.57528197  0.83955386  1
  Ca2+  Ca6  1  0.66683339  0.08574265  0.16332037  1
  Ca2+  Ca7  1  0.66335962  0.07708075  0.50894035  1
  Ca2+  Ca8  1  0.66297499  0.07643692  0.84167552  1
  Ca2+  Ca9  1  0.67248141  0.57845855  0.17241895  1
  Ca2+  Ca10  1  0.66485987  0.57949165  0.50458745  1
  Ca2+  Ca11  1  0.67612067  0.58935358  0.83680853  1
  Ca2+  Ca12  1  0.07590083  0.34114581  0.16161224  1
  Ca2+  Ca13  1  0.07914770  0.34284309  0.49298271  1
  Ca2+  Ca14  1  0.08083211  0.34689752  0.83555998  1
  Ca2+  Ca15  1  0.08253897  0.82749457  0.15668572  1
  Ca2+  Ca16  1  0.08145206  0.82233916  0.49144662  1
  Ca2+  Ca17  1  0.07744466  0.83890905  0.83403780  1
  Ca2+  Ca18  1  0.57210226  0.33396667  0.15873813  1
  Ca2+  Ca19  1  0.57600429  0.33062409  0.49112852  1
  Ca2+  Ca20  1  0.57972732  0.32112020  0.83174775  1
  Ca2+  Ca21  1  0.58643549  0.82817570  0.16345007  1
  Ca2+  Ca22  1  0.58627324  0.82225760  0.50035729  1
  Ca2+  Ca23  1  0.58881072  0.83132922  0.82683603  1
  Ca2+  Ca24  1  0.32688280  0.41038457  0.17098379  1
  Ca2+  Ca25  1  0.32273477  0.41558186  0.50538838  1
  Ca2+  Ca26  1  0.32906695  0.42346371  0.84102067  1
  Ca2+  Ca27  1  0.33032872  0.92387161  0.16862128  1
  Ca2+  Ca28  1  0.33968959  0.92911617  0.50269442  1
  Ca2+  Ca29  1  0.33205966  0.92344245  0.83857774  1
  Ca2+  Ca30  1  0.83089064  0.41442399  0.17078542  1
  Ca2+  Ca31  1  0.82805827  0.41994432  0.50153005  1
  Ca2+  Ca32  1  0.83535591  0.42847835  0.84105179  1
  Ca2+  Ca33  1  0.83354176  0.91959117  0.16089948  1
  Ca2+  Ca34  1  0.82590009  0.91774659  0.50677333  1
  Ca2+  Ca35  1  0.82205182  0.92075675  0.84563897  1
  Ca2+  Ca36  1  0.41727976  0.17751021  0.16025647  1
  Ca2+  Ca37  1  0.41724704  0.16769747  0.49512533  1
  Ca2+  Ca38  1  0.42292870  0.16717647  0.82938184  1
  Ca2+  Ca39  1  0.42358446  0.65984250  0.16163345  1
  Ca2+  Ca40  1  0.42704361  0.65720442  0.49811091  1
  Ca2+  Ca41  1  0.41825945  0.66488814  0.82677751  1
  Ca2+  Ca42  1  0.91344063  0.17817149  0.15707285  1
  Ca2+  Ca43  1  0.92176362  0.17582374  0.49228883  1
  Ca2+  Ca44  1  0.91337130  0.17143171  0.83537985  1
  Ca2+  Ca45  1  0.92426623  0.66701759  0.15885374  1
  Ca2+  Ca46  1  0.92145638  0.66240407  0.49561232  1
  Ca2+  Ca47  1  0.91001371  0.66914861  0.83137041  1
  Al0+  Al48  1  -0.00119579  -0.00055592  0.00315824  1
  Al0+  Al49  1  -0.00060616  -0.00020296  0.33630648  1
  Al0+  Al50  1  -0.00097563  0.00251023  0.66157635  1
  Al0+  Al51  1  0.00253703  0.50160183  0.00163244  1
  Al0+  Al52  1  0.00032115  0.50209414  0.32815099  1
  Al0+  Al53  1  -0.00213860  0.50184263  0.67265074  1
  Al0+  Al54  1  0.50013134  -0.00300806  0.00273315  1
  Al0+  Al55  1  0.50143627  -0.00193553  0.33692700  1
  Al0+  Al56  1  0.49978758  -0.00053141  0.67014494  1
  Al0+  Al57  1  0.50172813  0.50038795  -0.00458122  1
  Al0+  Al58  1  0.50159987  0.49850775  0.32842487  1
  Al0+  Al59  1  0.49945365  0.49799652  0.66577248  1
  Al0+  Al60  1  0.24912815  0.25089171  -0.00151501  1
  Al0+  Al61  1  0.24957088  0.24898784  0.33797131  1
  Al0+  Al62  1  0.24774884  0.24817604  0.67604478  1
  Al0+  Al63  1  0.25216278  0.74903307  0.00612237  1
  Al0+  Al64  1  0.25085353  0.75039100  0.32929698  1
  Al0+  Al65  1  0.24793054  0.75071124  0.66640032  1
  Al0+  Al66  1  0.75074599  0.24989236  -0.00695892  1
  Al0+  Al67  1  0.75049975  0.24990677  0.33586221  1
  Al0+  Al68  1  0.75036108  0.24986335  0.66022232  1
  Al0+  Al69  1  0.75222270  0.75076757  0.00598920  1
  Al0+  Al70  1  0.75046345  0.75130568  0.32994071  1
  Al0+  Al71  1  0.74870974  0.75088756  0.66736039  1
  Al0+  Al72  1  0.32308783  0.57214204  0.67966455  1
  Al0+  Al73  1  0.32064520  0.06908278  0.68218128  1
  Al0+  Al74  1  0.32018173  0.06958234  0.34588726  1
  Al0+  Al75  1  0.82010954  0.07295312  0.01456897  1
  Al0+  Al76  1  0.32492152  0.57084887  0.01670423  1
  Al0+  Al77  1  0.17848249  0.92942868  0.01239819  1
  Al0+  Al78  1  0.67816732  0.42840542  0.34601622  1
  Al0+  Al79  1  0.93033312  0.32279507  0.98465039  1
  Al0+  Al80  1  0.56999088  0.17800096  0.65121029  1
  Al0+  Al81  1  0.92923057  0.32013773  0.32010029  1
  Al0+  Al82  1  0.68123514  0.93087247  0.67935950  1
  Al0+  Al83  1  0.57077449  0.67872258  0.31866862  1
  Al0+  Al84  1  0.82122490  0.57135612  0.01513153  1
  Al0+  Al85  1  0.17859280  0.43126046  0.34704067  1
  Al0+  Al86  1  0.07198485  0.67970706  0.31866402  1
  Al0+  Al87  1  0.42803539  0.31878437  0.32147976  1
  Al0+  Al88  1  0.93026940  0.82037113  0.98560563  1
  Al0+  Al89  1  0.56981813  0.17761027  0.98561256  1
  Al0+  Al90  1  0.81779591  0.56964522  0.67893582  1
  Al0+  Al91  1  0.42644847  0.32272221  0.98239161  1
  Al0+  Al92  1  0.57072445  0.67841398  0.65418600  1
  Al0+  Al93  1  0.67718042  0.92835996  0.01817310  1
  Al0+  Al94  1  0.18094830  0.42848115  0.01783696  1
  Al0+  Al95  1  0.17756240  0.42915774  0.68277584  1
  Si0+  Si96  1  0.82163151  0.07215180  0.35026021  1
  Si0+  Si97  1  0.68050392  0.92824120  0.35088318  1
  Si0+  Si98  1  0.92840291  0.82206251  0.65152392  1
  Si0+  Si99  1  0.17455531  0.92754331  0.68078009  1
  Si0+  Si100  1  0.67676065  0.42475350  0.68296732  1
  Si0+  Si101  1  0.67982876  0.42757886  0.01390821  1
  Si0+  Si102  1  0.42968655  0.82407224  0.31607465  1
  Si0+  Si103  1  0.82078116  0.57276431  0.34887468  1
  Si0+  Si104  1  0.07166274  0.17640477  0.98350979  1
  Si0+  Si105  1  0.06979997  0.67946944  0.65281184  1
  Si0+  Si106  1  0.07207128  0.17704184  0.31768006  1
  Si0+  Si107  1  0.92802628  0.82422408  0.31605994  1
  Si0+  Si108  1  0.17673462  0.92608579  0.35098961  1
  Si0+  Si109  1  0.42537822  0.82187177  0.65059289  1
  Si0+  Si110  1  0.57248471  0.17537568  0.31793636  1
  Si0+  Si111  1  0.07404853  0.67940882  0.98035714  1
  Si0+  Si112  1  0.07121981  0.17764689  0.65076104  1
  Si0+  Si113  1  0.82386175  0.07406001  0.68179618  1
  Si0+  Si114  1  0.32374327  0.57321747  0.34921108  1
  Si0+  Si115  1  0.42818458  0.81979802  0.98554041  1
  Si0+  Si116  1  0.93090263  0.32338634  0.65098331  1
  Si0+  Si117  1  0.42605749  0.31978575  0.64968915  1
  Si0+  Si118  1  0.57271331  0.68038317  0.98508827  1
  Si0+  Si119  1  0.32227169  0.07160502  0.01667762  1
  O2-  O120  1  0.25081355  0.00546157  0.06031387  1
  O2-  O121  1  0.24559450  -0.00543718  0.39480461  1
  O2-  O122  1  0.24564318  -0.00704791  0.72545601  1
  O2-  O123  1  0.25674822  0.49628515  0.06775619  1
  O2-  O124  1  0.25367370  0.50588935  0.39368981  1
  O2-  O125  1  0.25370648  0.49818010  0.72977497  1
  O2-  O126  1  0.74681847  0.00341796  0.06695116  1
  O2-  O127  1  0.75086014  0.00064657  0.39237835  1
  O2-  O128  1  0.75334503  0.00778125  0.72521619  1
  O2-  O129  1  0.74902532  0.49445488  0.06055651  1
  O2-  O130  1  0.75126770  0.50513075  0.39337470  1
  O2-  O131  1  0.74241888  0.49644577  0.72681973  1
  O2-  O132  1  0.00337306  0.24493788  0.27334528  1
  O2-  O133  1  0.00260054  0.25202436  0.60958198  1
  O2-  O134  1  0.00589826  0.24800745  0.93844304  1
  O2-  O135  1  -0.00056517  0.75773247  0.27382410  1
  O2-  O136  1  0.00069361  0.75248395  0.60917534  1
  O2-  O137  1  0.00451314  0.74716806  0.93520456  1
  O2-  O138  1  0.50425021  0.24477917  0.27544898  1
  O2-  O139  1  0.49617698  0.25306167  0.60357984  1
  O2-  O140  1  0.49647605  0.24754484  0.93430761  1
  O2-  O141  1  0.49377044  0.75117327  0.27178396  1
  O2-  O142  1  0.49049248  0.74859571  0.60762525  1
  O2-  O143  1  0.49965408  0.74949296  0.94328135  1
  O2-  O144  1  0.07028275  0.17505530  0.08925792  1
  O2-  O145  1  0.06986856  0.17629309  0.42384326  1
  O2-  O146  1  0.06809892  0.16970842  0.75494921  1
  O2-  O147  1  0.07253343  0.68152557  0.08617720  1
  O2-  O148  1  0.06874362  0.67991570  0.43286730  1
  O2-  O149  1  0.06923436  0.68097520  0.75727866  1
  O2-  O150  1  0.56786428  0.17969372  0.09975372  1
  O2-  O151  1  0.57086350  0.17445478  0.42395811  1
  O2-  O152  1  0.56962646  0.17761470  0.76369111  1
  O2-  O153  1  0.57209434  0.68123319  0.09040008  1
  O2-  O154  1  0.57208979  0.68116286  0.43210546  1
  O2-  O155  1  0.57430875  0.68399079  0.76695417  1
  O2-  O156  1  0.17815344  0.43068942  0.23491873  1
  O2-  O157  1  0.17532410  0.43152170  0.56861770  1
  O2-  O158  1  0.18009728  0.43354890  0.90439286  1
  O2-  O159  1  0.17529964  0.92766438  0.24564957  1
  O2-  O160  1  0.17294637  0.92862173  0.57510323  1
  O2-  O161  1  0.18101150  0.93121201  0.89881591  1
  O2-  O162  1  0.67960685  0.42842203  0.23311279  1
  O2-  O163  1  0.67919915  0.42486682  0.57693347  1
  O2-  O164  1  0.68112277  0.43026769  0.90806825  1
  O2-  O165  1  0.67983937  0.92753919  0.24649176  1
  O2-  O166  1  0.68432823  0.92968940  0.56553460  1
  O2-  O167  1  0.67875785  0.92707349  0.90450364  1
  O2-  O168  1  0.42753529  0.32060643  0.09645911  1
  O2-  O169  1  0.42785439  0.31716568  0.43491107  1
  O2-  O170  1  0.42813434  0.31811597  0.75483529  1
  O2-  O171  1  0.42835130  0.82077357  0.09073087  1
  O2-  O172  1  0.43237604  0.82767126  0.42170132  1
  O2-  O173  1  0.42487006  0.82319233  0.75616716  1
  O2-  O174  1  0.92967548  0.32118592  0.09782767  1
  O2-  O175  1  0.93031150  0.31916878  0.43402003  1
  O2-  O176  1  0.93038254  0.32335643  0.75571342  1
  O2-  O177  1  0.93273045  0.81852394  0.09878514  1
  O2-  O178  1  0.92748671  0.82420466  0.42250290  1
  O2-  O179  1  0.92899014  0.82361658  0.75609153  1
  O2-  O180  1  0.31825154  0.06713981  0.23312654  1
  O2-  O181  1  0.31965079  0.06905472  0.56868015  1
  O2-  O182  1  0.32285649  0.06772569  0.91097578  1
  O2-  O183  1  0.32300766  0.57230256  0.24404659  1
  O2-  O184  1  0.32062043  0.57193477  0.56568108  1
  O2-  O185  1  0.32260706  0.57398217  0.90303084  1
  O2-  O186  1  0.82264840  0.07309197  0.24593585  1
  O2-  O187  1  0.82576119  0.07121041  0.57555354  1
  O2-  O188  1  0.82058682  0.07037098  0.90070844  1
  O2-  O189  1  0.81963605  0.57282350  0.24358532  1
  O2-  O190  1  0.82098173  0.56753739  0.56560710  1
  O2-  O191  1  0.81771346  0.57261692  0.90160765  1
  O2-  O192  1  0.04703233  0.08209734  0.27352708  1
  O2-  O193  1  0.04150735  0.08852695  0.59712945  1
  O2-  O194  1  0.04305074  0.08412845  0.93619653  1
  O2-  O195  1  0.03811373  0.58641938  0.26164034  1
  O2-  O196  1  0.03690986  0.58885851  0.60536202  1
  O2-  O197  1  0.04800886  0.58603524  0.93558241  1
  O2-  O198  1  0.54761862  0.08120108  0.27321462  1
  O2-  O199  1  0.53803717  0.08051669  0.59850263  1
  O2-  O200  1  0.54224796  0.07709349  0.93556145  1
  O2-  O201  1  0.54366909  0.58249827  0.26301063  1
  O2-  O202  1  0.54508393  0.57972538  0.59983097  1
  O2-  O203  1  0.54980800  0.58835882  0.93628818  1
  O2-  O204  1  0.16590001  0.20075802  0.27322471  1
  O2-  O205  1  0.16476126  0.20356562  0.60585775  1
  O2-  O206  1  0.16631357  0.19775853  0.93778529  1
  O2-  O207  1  0.16908192  0.70784635  0.26414988  1
  O2-  O208  1  0.16138880  0.70524659  0.60294509  1
  O2-  O209  1  0.16811551  0.70780698  0.93696778  1
  O2-  O210  1  0.66711049  0.19982122  0.27486990  1
  O2-  O211  1  0.66819454  0.20501411  0.59626767  1
  O2-  O212  1  0.66719097  0.20563933  0.93024645  1
  O2-  O213  1  0.66677370  0.71250714  0.26489344  1
  O2-  O214  1  0.66532479  0.71472349  0.59781012  1
  O2-  O215  1  0.66408983  0.71195675  0.93962411  1
  O2-  O216  1  0.08364017  0.46163946  0.06986381  1
  O2-  O217  1  0.08150689  0.46477162  0.39990443  1
  O2-  O218  1  0.08136766  0.46278655  0.73627368  1
  O2-  O219  1  0.08302220  0.95817891  0.06867195  1
  O2-  O220  1  0.08256383  0.95014324  0.39781700  1
  O2-  O221  1  0.08170157  0.95783549  0.72632206  1
  O2-  O222  1  0.58660741  0.45509862  0.05896733  1
  O2-  O223  1  0.58168560  0.45919324  0.40082212  1
  O2-  O224  1  0.58188277  0.44551325  0.72673734  1
  O2-  O225  1  0.57797258  0.95228883  0.07193591  1
  O2-  O226  1  0.58885724  0.95452501  0.39943053  1
  O2-  O227  1  0.58399487  0.95667590  0.73288736  1
  O2-  O228  1  0.20188954  0.32683248  0.06774900  1
  O2-  O229  1  0.20642363  0.33372182  0.40146826  1
  O2-  O230  1  0.19753028  0.32924820  0.73505393  1
  O2-  O231  1  0.21099736  0.83485607  0.06841348  1
  O2-  O232  1  0.20274336  0.83202967  0.39635227  1
  O2-  O233  1  0.19469454  0.83303030  0.72634040  1
  O2-  O234  1  0.70412726  0.33365307  0.05825983  1
  O2-  O235  1  0.70978111  0.33261116  0.40255572  1
  O2-  O236  1  0.70673136  0.33179831  0.72747763  1
  O2-  O237  1  0.71159114  0.83301697  0.07305166  1
  O2-  O238  1  0.71159066  0.83698798  0.39855684  1
  O2-  O239  1  0.71440656  0.83605502  0.73398174  1
  O2-  O240  1  0.45784913  0.41441446  0.26610777  1
  O2-  O241  1  0.44907997  0.41419234  0.60374706  1
  O2-  O242  1  0.45845654  0.42002572  0.92862577  1
  O2-  O243  1  0.46114519  0.91525939  0.26788865  1
  O2-  O244  1  0.45770975  0.91311490  0.60338505  1
  O2-  O245  1  0.45496555  0.91163921  0.93760512  1
  O2-  O246  1  0.95763469  0.41675477  0.26656487  1
  O2-  O247  1  0.95944590  0.41535763  0.60377209  1
  O2-  O248  1  0.96259948  0.41987902  0.93121374  1
  O2-  O249  1  0.95116651  0.91930289  0.27192679  1
  O2-  O250  1  0.95430227  0.91407772  0.60174066  1
  O2-  O251  1  0.96044530  0.91750842  0.93189183  1
  O2-  O252  1  0.33189860  0.28524163  0.26819343  1
  O2-  O253  1  0.33105127  0.29118952  0.60752240  1
  O2-  O254  1  0.32710699  0.29631931  0.93043682  1
  O2-  O255  1  0.33385196  0.80539512  0.27212043  1
  O2-  O256  1  0.32991822  0.80337917  0.60399802  1
  O2-  O257  1  0.33651011  0.79241249  0.93744292  1
  O2-  O258  1  0.83249252  0.28788986  0.26733260  1
  O2-  O259  1  0.83954053  0.29586690  0.60167185  1
  O2-  O260  1  0.83514393  0.29251587  0.92768635  1
  O2-  O261  1  0.83538990  0.79821701  0.26964329  1
  O2-  O262  1  0.83816963  0.79155541  0.60257487  1
  O2-  O263  1  0.83292410  0.78822357  0.93334958  1
  O2-  O264  1  0.41323473  0.04139071  0.06445236  1
  O2-  O265  1  0.41672904  0.03742416  0.40111183  1
  O2-  O266  1  0.41538199  0.03657322  0.73715226  1
  O2-  O267  1  0.42633348  0.54697740  0.06530242  1
  O2-  O268  1  0.41760237  0.54589588  0.39320042  1
  O2-  O269  1  0.42284052  0.54756220  0.73184164  1
  O2-  O270  1  0.91688982  0.04239776  0.06944958  1
  O2-  O271  1  0.91358897  0.04451023  0.39944081  1
  O2-  O272  1  0.91722083  0.04721975  0.72689389  1
  O2-  O273  1  0.91913746  0.54410168  0.06644623  1
  O2-  O274  1  0.91419594  0.54540052  0.39403061  1
  O2-  O275  1  0.91246898  0.53982635  0.73617853  1
  O2-  O276  1  0.29822888  0.16599965  0.06021249  1
  O2-  O277  1  0.28812868  0.16363422  0.40425440  1
  O2-  O278  1  0.28836317  0.16294244  0.73898270  1
  O2-  O279  1  0.29605820  0.66828924  0.07139067  1
  O2-  O280  1  0.30141948  0.66904274  0.39292371  1
  O2-  O281  1  0.29394090  0.67147945  0.73108197  1
  O2-  O282  1  0.79250859  0.17245388  0.06601650  1
  O2-  O283  1  0.79446260  0.16281246  0.40035291  1
  O2-  O284  1  0.80133379  0.16953535  0.72413801  1
  O2-  O285  1  0.78960301  0.66562960  0.07160733  1
  O2-  O286  1  0.79727304  0.66780904  0.39395629  1
  O2-  O287  1  0.78823586  0.66661602  0.73231078  1
