# generated using pymatgen
data_Ca2Al2SiO7
_symmetry_space_group_name_H-M   'P 1'
_cell_length_a   15.46174934
_cell_length_b   15.46000303
_cell_length_c   15.28585501
_cell_angle_alpha   89.99750639
_cell_angle_beta   90.00267970
_cell_angle_gamma   89.99352563
_symmetry_Int_Tables_number   1
_chemical_formula_structural   Ca2Al2SiO7
_chemical_formula_sum   'Ca48 Al48 Si24 O168'
_cell_volume   3653.91075176
_cell_formula_units_Z   24
loop_
 _symmetry_equiv_pos_site_id
 _symmetry_equiv_pos_as_xyz
  1  'x, y, z'
loop_
 _atom_type_symbol
 _atom_type_oxidation_number
  Ca2+  2.0
  Al0+  0.0
  Si0+  0.0
  O2-  -2.0
loop_
 _atom_site_type_symbol
 _atom_site_label
 _atom_site_symmetry_multiplicity
 _atom_site_fract_x
 _atom_site_fract_y
 _atom_site_fract_z
 _atom_site_occupancy
  Ca2+  Ca0  1  0.17193434  0.09125773  0.16564068  1
  Ca2+  Ca1  1  0.17040046  0.08126729  0.50844002  1
  Ca2+  Ca2  1  0.17625878  0.08168934  0.83667312  1
  Ca2+  Ca3  1  0.17586161  0.57414722  0.17133764  1
  Ca2+  Ca4  1  0.17530318  0.58359097  0.50296884  1
  Ca2+  Ca5  1  0.16830916  0.57324467  0.84085081  1
  Ca2+  Ca6  1  0.65493965  0.07320965  0.16992944  1
  Ca2+  Ca7  1  0.66575188  0.07800555  0.50474474  1
  Ca2+  Ca8  1  0.67733712  0.08231718  0.84507544  1
  Ca2+  Ca9  1  0.65589699  0.57750298  0.17349852  1
  Ca2+  Ca10  1  0.66244493  0.57960830  0.50483470  1
  Ca2+  Ca11  1  0.66627355  0.59080348  0.83312484  1
  Ca2+  Ca12  1  0.08549880  0.32407006  0.15900740  1
  Ca2+  Ca13  1  0.07327175  0.32741252  0.49652943  1
  Ca2+  Ca14  1  0.08078725  0.32806386  0.83096293  1
  Ca2+  Ca15  1  0.08080931  0.83187809  0.16255321  1
  Ca2+  Ca16  1  0.07594912  0.84427687  0.50178336  1
  Ca2+  Ca17  1  0.07754849  0.83804264  0.82469370  1
  Ca2+  Ca18  1  0.58250364  0.32386387  0.16134113  1
  Ca2+  Ca19  1  0.58168813  0.32727740  0.49531278  1
  Ca2+  Ca20  1  0.57228209  0.32677321  0.83123242  1
  Ca2+  Ca21  1  0.58662430  0.82548339  0.15808892  1
  Ca2+  Ca22  1  0.58597519  0.82383639  0.49622835  1
  Ca2+  Ca23  1  0.57957153  0.83087056  0.83155247  1
  Ca2+  Ca24  1  0.33564425  0.41747687  0.16740366  1
  Ca2+  Ca25  1  0.34001532  0.42276133  0.50430369  1
  Ca2+  Ca26  1  0.33244870  0.41097471  0.84099395  1
  Ca2+  Ca27  1  0.34478810  0.92400291  0.16424946  1
  Ca2+  Ca28  1  0.32754136  0.92337050  0.51355325  1
  Ca2+  Ca29  1  0.33914705  0.92324570  0.83648472  1
  Ca2+  Ca30  1  0.82396814  0.41939056  0.17185851  1
  Ca2+  Ca31  1  0.82550896  0.41799669  0.50832142  1
  Ca2+  Ca32  1  0.83786276  0.42255787  0.83294405  1
  Ca2+  Ca33  1  0.81933910  0.92286549  0.16575940  1
  Ca2+  Ca34  1  0.82762319  0.92075736  0.50767015  1
  Ca2+  Ca35  1  0.82994801  0.92432619  0.83744805  1
  Ca2+  Ca36  1  0.42663318  0.16935288  0.15547909  1
  Ca2+  Ca37  1  0.41552123  0.17126009  0.49803384  1
  Ca2+  Ca38  1  0.41120764  0.17158612  0.83183024  1
  Ca2+  Ca39  1  0.42483480  0.67097247  0.15989534  1
  Ca2+  Ca40  1  0.42355990  0.67133766  0.49584629  1
  Ca2+  Ca41  1  0.42726783  0.67915302  0.82718204  1
  Ca2+  Ca42  1  0.92780012  0.15911112  0.16062088  1
  Ca2+  Ca43  1  0.91800193  0.16589294  0.49782419  1
  Ca2+  Ca44  1  0.91969961  0.16190911  0.82738583  1
  Ca2+  Ca45  1  0.91649937  0.66907730  0.16239976  1
  Ca2+  Ca46  1  0.91152161  0.67064286  0.50352420  1
  Ca2+  Ca47  1  0.91621913  0.67317177  0.82222785  1
  Al0+  Al48  1  0.00077702  -0.00030206  -0.00005293  1
  Al0+  Al49  1  -0.00045010  0.00051323  0.32720006  1
  Al0+  Al50  1  0.00007656  -0.00133248  0.66818531  1
  Al0+  Al51  1  0.00163928  0.49919887  0.00749570  1
  Al0+  Al52  1  0.00039316  0.50134140  0.33307363  1
  Al0+  Al53  1  -0.00152830  0.49861277  0.66474044  1
  Al0+  Al54  1  0.50135399  -0.00104737  0.00131743  1
  Al0+  Al55  1  0.49877913  0.00033179  0.33856106  1
  Al0+  Al56  1  0.49921191  -0.00070171  0.66812845  1
  Al0+  Al57  1  0.50147360  0.50072562  -0.00752019  1
  Al0+  Al58  1  0.49943597  0.50162507  0.33950921  1
  Al0+  Al59  1  0.49982900  0.49768659  0.66194359  1
  Al0+  Al60  1  0.24709645  0.24841839  0.00139208  1
  Al0+  Al61  1  0.24703919  0.25114390  0.33141079  1
  Al0+  Al62  1  0.25008886  0.25020148  0.66366537  1
  Al0+  Al63  1  0.25016688  0.74851758  -0.00279291  1
  Al0+  Al64  1  0.24818989  0.75050529  0.33702848  1
  Al0+  Al65  1  0.25017105  0.74795130  0.66859285  1
  Al0+  Al66  1  0.75401267  0.25424434  0.00153764  1
  Al0+  Al67  1  0.75007529  0.25101482  0.33319048  1
  Al0+  Al68  1  0.74964264  0.25085807  0.66807512  1
  Al0+  Al69  1  0.75288912  0.75138724  0.00016045  1
  Al0+  Al70  1  0.74973467  0.75160765  0.33196744  1
  Al0+  Al71  1  0.75222870  0.74820630  0.66204286  1
  Al0+  Al72  1  0.31993825  0.57079594  0.34759173  1
  Al0+  Al73  1  0.57398311  0.67866636  0.98422020  1
  Al0+  Al74  1  0.17982580  0.42842196  0.01443520  1
  Al0+  Al75  1  0.67791550  0.92921268  0.34912118  1
  Al0+  Al76  1  0.32185252  0.07239706  0.68203097  1
  Al0+  Al77  1  0.81920621  0.07207384  0.67857196  1
  Al0+  Al78  1  0.06908108  0.17837101  0.98385271  1
  Al0+  Al79  1  0.82326925  0.07448196  0.01605374  1
  Al0+  Al80  1  0.67950983  0.42849050  0.34743952  1
  Al0+  Al81  1  0.32020745  0.06955628  0.01461374  1
  Al0+  Al82  1  0.06921168  0.17986734  0.31876511  1
  Al0+  Al83  1  0.57028011  0.17828051  0.32133794  1
  Al0+  Al84  1  0.93119638  0.82152388  0.65276588  1
  Al0+  Al85  1  0.57520917  0.17767931  0.98588298  1
  Al0+  Al86  1  0.42762054  0.31863644  0.65138119  1
  Al0+  Al87  1  0.67952534  0.93013308  0.01418122  1
  Al0+  Al88  1  0.42901384  0.31899600  0.98698220  1
  Al0+  Al89  1  0.92773495  0.32167833  0.65348628  1
  Al0+  Al90  1  0.56997145  0.68019086  0.31922731  1
  Al0+  Al91  1  0.42705066  0.82315233  0.64990322  1
  Al0+  Al92  1  0.42759734  0.82194056  0.98535077  1
  Al0+  Al93  1  0.81964610  0.56947744  0.67952521  1
  Al0+  Al94  1  0.17877291  0.92736723  0.68162648  1
  Al0+  Al95  1  0.57123400  0.68051857  0.64900121  1
  Si0+  Si96  1  0.82193551  0.57175612  0.01510900  1
  Si0+  Si97  1  0.57343327  0.17760242  0.65186064  1
  Si0+  Si98  1  0.07267166  0.67854810  0.31764001  1
  Si0+  Si99  1  0.67877521  0.92650805  0.68225464  1
  Si0+  Si100  1  0.92953758  0.32592813  0.98394759  1
  Si0+  Si101  1  0.93185264  0.81914868  0.98498322  1
  Si0+  Si102  1  0.82361244  0.07008314  0.34898525  1
  Si0+  Si103  1  0.17769791  0.92526164  0.01757037  1
  Si0+  Si104  1  0.92931671  0.82067961  0.31604763  1
  Si0+  Si105  1  0.67768758  0.43117513  0.01385617  1
  Si0+  Si106  1  0.07092901  0.67651071  0.98665002  1
  Si0+  Si107  1  0.17671474  0.92981606  0.34693345  1
  Si0+  Si108  1  0.07206221  0.67505503  0.65024233  1
  Si0+  Si109  1  0.82388972  0.57306789  0.34998043  1
  Si0+  Si110  1  0.32329336  0.57192081  0.01475807  1
  Si0+  Si111  1  0.32304466  0.56964431  0.68355236  1
  Si0+  Si112  1  0.31965232  0.07214594  0.34779106  1
  Si0+  Si113  1  0.17891010  0.43021869  0.68004176  1
  Si0+  Si114  1  0.42510314  0.82184110  0.31806652  1
  Si0+  Si115  1  0.42790691  0.32254302  0.31784187  1
  Si0+  Si116  1  0.07000479  0.17866644  0.65032201  1
  Si0+  Si117  1  0.92723207  0.32447925  0.31547496  1
  Si0+  Si118  1  0.67613124  0.42753293  0.68602863  1
  Si0+  Si119  1  0.17687153  0.42706478  0.35252399  1
  O2-  O120  1  0.24847761  -0.00886285  0.06264461  1
  O2-  O121  1  0.24830957  0.00027495  0.38815019  1
  O2-  O122  1  0.25383310  -0.00421498  0.73111283  1
  O2-  O123  1  0.25721108  0.50103344  0.06017365  1
  O2-  O124  1  0.24633176  0.49479594  0.39627297  1
  O2-  O125  1  0.25082082  0.49907152  0.72441919  1
  O2-  O126  1  0.74460408  0.00909906  0.06541507  1
  O2-  O127  1  0.75106186  0.00653315  0.39425269  1
  O2-  O128  1  0.74285639  -0.00020075  0.72569211  1
  O2-  O129  1  0.74750458  0.50438632  0.05619106  1
  O2-  O130  1  0.75569927  0.50340132  0.39243665  1
  O2-  O131  1  0.74444476  0.49750673  0.72938754  1
  O2-  O132  1  -0.00442919  0.25566400  0.27158559  1
  O2-  O133  1  -0.00149387  0.24424473  0.60561972  1
  O2-  O134  1  -0.00871440  0.25117253  0.93974896  1
  O2-  O135  1  -0.00089464  0.74689389  0.27512215  1
  O2-  O136  1  0.00860023  0.74881413  0.60570828  1
  O2-  O137  1  0.00411063  0.74949175  0.94268751  1
  O2-  O138  1  0.49579004  0.25334951  0.27431770  1
  O2-  O139  1  0.50124304  0.24241054  0.60647235  1
  O2-  O140  1  0.49918312  0.24566370  0.93592621  1
  O2-  O141  1  0.49576681  0.75555359  0.27334331  1
  O2-  O142  1  0.49978474  0.75290860  0.59842442  1
  O2-  O143  1  0.50187017  0.75145738  0.93693022  1
  O2-  O144  1  0.06891387  0.18030415  0.09738083  1
  O2-  O145  1  0.06783174  0.17940750  0.43198869  1
  O2-  O146  1  0.07076042  0.18066698  0.75558573  1
  O2-  O147  1  0.06841508  0.67717498  0.09221499  1
  O2-  O148  1  0.07401704  0.67800458  0.42233653  1
  O2-  O149  1  0.06807664  0.67099619  0.75598274  1
  O2-  O150  1  0.57207556  0.18110151  0.09999958  1
  O2-  O151  1  0.56780717  0.17859551  0.43458521  1
  O2-  O152  1  0.57622724  0.18181423  0.75695454  1
  O2-  O153  1  0.57200045  0.67672129  0.09820135  1
  O2-  O154  1  0.57008763  0.68059407  0.43174051  1
  O2-  O155  1  0.57102683  0.68212283  0.76237020  1
  O2-  O156  1  0.17621426  0.42804109  0.24706040  1
  O2-  O157  1  0.17883227  0.43272310  0.57479274  1
  O2-  O158  1  0.17618139  0.43245539  0.90108528  1
  O2-  O159  1  0.17486202  0.92786344  0.24206884  1
  O2-  O160  1  0.17638651  0.93277475  0.56711184  1
  O2-  O161  1  0.17483622  0.92568975  0.91261284  1
  O2-  O162  1  0.68004512  0.43020960  0.23380389  1
  O2-  O163  1  0.67760672  0.42688252  0.58013993  1
  O2-  O164  1  0.67872662  0.43080067  0.90911933  1
  O2-  O165  1  0.67928963  0.92730315  0.23645679  1
  O2-  O166  1  0.68179782  0.92720780  0.57609276  1
  O2-  O167  1  0.68614435  0.92516221  0.90093265  1
  O2-  O168  1  0.43215439  0.32157504  0.10098269  1
  O2-  O169  1  0.42726384  0.31994043  0.42361575  1
  O2-  O170  1  0.42626426  0.31979797  0.76400354  1
  O2-  O171  1  0.42532474  0.81751569  0.09955964  1
  O2-  O172  1  0.42288228  0.81967083  0.42327633  1
  O2-  O173  1  0.42788818  0.82077845  0.76301774  1
  O2-  O174  1  0.93306610  0.33170418  0.08945899  1
  O2-  O175  1  0.92885151  0.32535189  0.42115427  1
  O2-  O176  1  0.93346622  0.32487631  0.76612545  1
  O2-  O177  1  0.93265668  0.81585300  0.09062601  1
  O2-  O178  1  0.93131562  0.82243768  0.42098347  1
  O2-  O179  1  0.93166907  0.81920848  0.76596774  1
  O2-  O180  1  0.32007368  0.07205773  0.24286439  1
  O2-  O181  1  0.31652278  0.07527341  0.56751437  1
  O2-  O182  1  0.31657029  0.07158450  0.90229460  1
  O2-  O183  1  0.31714062  0.57023757  0.23443123  1
  O2-  O184  1  0.32116462  0.56891083  0.57813291  1
  O2-  O185  1  0.31886435  0.57210518  0.90927226  1
  O2-  O186  1  0.82765118  0.06519368  0.24399763  1
  O2-  O187  1  0.81878585  0.07050591  0.56486865  1
  O2-  O188  1  0.82510492  0.06890303  0.90244160  1
  O2-  O189  1  0.82673871  0.57192934  0.24392924  1
  O2-  O190  1  0.82043356  0.56683883  0.56651586  1
  O2-  O191  1  0.82674837  0.57087087  0.91036067  1
  O2-  O192  1  0.03912660  0.08390819  0.26244977  1
  O2-  O193  1  0.04576665  0.08468480  0.60492159  1
  O2-  O194  1  0.04126291  0.08049523  0.93121615  1
  O2-  O195  1  0.04700869  0.58591272  0.26957386  1
  O2-  O196  1  0.04064761  0.58508139  0.60012529  1
  O2-  O197  1  0.03942708  0.58555710  0.94028061  1
  O2-  O198  1  0.53710541  0.08147915  0.26890773  1
  O2-  O199  1  0.55283032  0.08205578  0.60828811  1
  O2-  O200  1  0.55431239  0.07683212  0.93738951  1
  O2-  O201  1  0.53689047  0.58265010  0.26806352  1
  O2-  O202  1  0.54190081  0.58099655  0.59889159  1
  O2-  O203  1  0.54701907  0.58159837  0.92880977  1
  O2-  O204  1  0.16580853  0.21097672  0.26409310  1
  O2-  O205  1  0.16131879  0.20867010  0.60219068  1
  O2-  O206  1  0.16376008  0.21297634  0.93031304  1
  O2-  O207  1  0.16246356  0.71013006  0.26838253  1
  O2-  O208  1  0.16776170  0.69451123  0.60682205  1
  O2-  O209  1  0.16369923  0.69781366  0.93915395  1
  O2-  O210  1  0.66817827  0.20675106  0.26881050  1
  O2-  O211  1  0.66481322  0.20732910  0.60301238  1
  O2-  O212  1  0.67366311  0.21029457  0.93538494  1
  O2-  O213  1  0.66837759  0.70764865  0.26622706  1
  O2-  O214  1  0.67030076  0.70612751  0.59594669  1
  O2-  O215  1  0.67392701  0.70640560  0.93397298  1
  O2-  O216  1  0.08646410  0.46408840  0.07341916  1
  O2-  O217  1  0.08313431  0.45529194  0.39766071  1
  O2-  O218  1  0.08808832  0.45997092  0.72793064  1
  O2-  O219  1  0.08506863  0.95311119  0.06503043  1
  O2-  O220  1  0.08497888  0.96010613  0.39376699  1
  O2-  O221  1  0.08160923  0.95808696  0.73536208  1
  O2-  O222  1  0.58589017  0.45884361  0.06169488  1
  O2-  O223  1  0.58403763  0.45893640  0.40316459  1
  O2-  O224  1  0.58205904  0.45348389  0.73034640  1
  O2-  O225  1  0.57985064  0.94946070  0.06857514  1
  O2-  O226  1  0.58127049  0.95790855  0.40449487  1
  O2-  O227  1  0.58322669  0.94556437  0.72555294  1
  O2-  O228  1  0.20774898  0.33249791  0.06979749  1
  O2-  O229  1  0.20022346  0.33282668  0.39828067  1
  O2-  O230  1  0.20502667  0.33759234  0.72568453  1
  O2-  O231  1  0.19863625  0.82910783  0.06222422  1
  O2-  O232  1  0.20045392  0.83774242  0.39560767  1
  O2-  O233  1  0.19752657  0.82528196  0.73165050  1
  O2-  O234  1  0.70785353  0.34140505  0.06435311  1
  O2-  O235  1  0.71046432  0.33218311  0.40318941  1
  O2-  O236  1  0.70368828  0.33521482  0.73250022  1
  O2-  O237  1  0.71782987  0.83394397  0.06893484  1
  O2-  O238  1  0.71393788  0.83356247  0.40207775  1
  O2-  O239  1  0.71117087  0.83473644  0.72643860  1
  O2-  O240  1  0.45332057  0.41686241  0.27474563  1
  O2-  O241  1  0.45983210  0.41401470  0.59606637  1
  O2-  O242  1  0.45664021  0.41675067  0.93226076  1
  O2-  O243  1  0.44942625  0.91718131  0.27590954  1
  O2-  O244  1  0.45021572  0.92393933  0.59891548  1
  O2-  O245  1  0.45387757  0.92069480  0.93417052  1
  O2-  O246  1  0.95287648  0.41891296  0.26997923  1
  O2-  O247  1  0.96223323  0.41560684  0.59588141  1
  O2-  O248  1  0.96327049  0.41738065  0.93710993  1
  O2-  O249  1  0.96130622  0.90975171  0.26633258  1
  O2-  O250  1  0.96189103  0.91738155  0.59600234  1
  O2-  O251  1  0.95930389  0.91069334  0.93837061  1
  O2-  O252  1  0.33284570  0.29947966  0.27348255  1
  O2-  O253  1  0.33096112  0.29100751  0.59450687  1
  O2-  O254  1  0.32950940  0.29225938  0.93632019  1
  O2-  O255  1  0.33131345  0.79549064  0.27211255  1
  O2-  O256  1  0.32736175  0.79274694  0.59908880  1
  O2-  O257  1  0.32904081  0.79302332  0.93185090  1
  O2-  O258  1  0.83336007  0.30096905  0.26984262  1
  O2-  O259  1  0.83002995  0.29456100  0.59994028  1
  O2-  O260  1  0.83365628  0.31070907  0.93990019  1
  O2-  O261  1  0.83855871  0.79254972  0.26736559  1
  O2-  O262  1  0.83763568  0.78725183  0.59557973  1
  O2-  O263  1  0.84201710  0.78922462  0.93664693  1
  O2-  O264  1  0.41756008  0.04161869  0.06938478  1
  O2-  O265  1  0.40988450  0.04575212  0.39812543  1
  O2-  O266  1  0.42215432  0.04996768  0.73367410  1
  O2-  O267  1  0.41806276  0.54735491  0.05862616  1
  O2-  O268  1  0.41448477  0.54089478  0.40513932  1
  O2-  O269  1  0.41424693  0.53907442  0.72920305  1
  O2-  O270  1  0.91903740  0.03606154  0.06955558  1
  O2-  O271  1  0.91571935  0.03857291  0.39600911  1
  O2-  O272  1  0.91528953  0.03932704  0.73141602  1
  O2-  O273  1  0.91137783  0.54097183  0.06681256  1
  O2-  O274  1  0.91872574  0.55035092  0.39576401  1
  O2-  O275  1  0.91640996  0.53728588  0.73385448  1
  O2-  O276  1  0.28500784  0.16409476  0.07023110  1
  O2-  O277  1  0.28997055  0.16436518  0.39398482  1
  O2-  O278  1  0.28770854  0.17011296  0.73366008  1
  O2-  O279  1  0.29387517  0.66390832  0.06255312  1
  O2-  O280  1  0.28451243  0.66596299  0.40308505  1
  O2-  O281  1  0.29576082  0.66096540  0.73128039  1
  O2-  O282  1  0.80886533  0.17770818  0.06449668  1
  O2-  O283  1  0.80482975  0.16691523  0.39037483  1
  O2-  O284  1  0.79371760  0.16957247  0.73344159  1
  O2-  O285  1  0.79925532  0.66444733  0.06288930  1
  O2-  O286  1  0.79889309  0.66737628  0.39369695  1
  O2-  O287  1  0.79255319  0.66737247  0.73303932  1
