# generated using pymatgen
data_Ca2Al2SiO7
_symmetry_space_group_name_H-M   'P 1'
_cell_length_a   15.46582897
_cell_length_b   15.46470013
_cell_length_c   15.28888293
_cell_angle_alpha   90.00009132
_cell_angle_beta   90.01009317
_cell_angle_gamma   89.98977819
_symmetry_Int_Tables_number   1
_chemical_formula_structural   Ca2Al2SiO7
_chemical_formula_sum   'Ca48 Al48 Si24 O168'
_cell_volume   3656.70939838
_cell_formula_units_Z   24
loop_
 _symmetry_equiv_pos_site_id
 _symmetry_equiv_pos_as_xyz
  1  'x, y, z'
loop_
 _atom_type_symbol
 _atom_type_oxidation_number
  Ca2+  2.0
  Al0+  0.0
  Si0+  0.0
  O2-  -2.0
loop_
 _atom_site_type_symbol
 _atom_site_label
 _atom_site_symmetry_multiplicity
 _atom_site_fract_x
 _atom_site_fract_y
 _atom_site_fract_z
 _atom_site_occupancy
  Ca2+  Ca0  1  0.16318238  0.07589835  0.18047869  1
  Ca2+  Ca1  1  0.15358254  0.07417849  0.50390045  1
  Ca2+  Ca2  1  0.16023605  0.07806113  0.83350097  1
  Ca2+  Ca3  1  0.16859010  0.58054282  0.16814543  1
  Ca2+  Ca4  1  0.17404596  0.58994256  0.50308683  1
  Ca2+  Ca5  1  0.16079218  0.58031971  0.83923909  1
  Ca2+  Ca6  1  0.66886820  0.08722547  0.17474550  1
  Ca2+  Ca7  1  0.66964267  0.09173285  0.50047561  1
  Ca2+  Ca8  1  0.66303411  0.08807030  0.83629857  1
  Ca2+  Ca9  1  0.67527008  0.57248026  0.17702932  1
  Ca2+  Ca10  1  0.67676043  0.57360909  0.50827461  1
  Ca2+  Ca11  1  0.67581806  0.57479033  0.83813251  1
  Ca2+  Ca12  1  0.07772198  0.33767447  0.16489913  1
  Ca2+  Ca13  1  0.06976064  0.32537788  0.49293901  1
  Ca2+  Ca14  1  0.07654217  0.33418801  0.82205789  1
  Ca2+  Ca15  1  0.07903925  0.82787672  0.16898119  1
  Ca2+  Ca16  1  0.08237273  0.83219021  0.49483180  1
  Ca2+  Ca17  1  0.08296406  0.82103371  0.82712955  1
  Ca2+  Ca18  1  0.59282836  0.32828566  0.16754138  1
  Ca2+  Ca19  1  0.58721778  0.33000239  0.49129292  1
  Ca2+  Ca20  1  0.59370893  0.32921721  0.82933535  1
  Ca2+  Ca21  1  0.57565891  0.83429094  0.16628445  1
  Ca2+  Ca22  1  0.57856489  0.82434924  0.49424122  1
  Ca2+  Ca23  1  0.58187184  0.82368083  0.82477441  1
  Ca2+  Ca24  1  0.32789354  0.41713600  0.17504968  1
  Ca2+  Ca25  1  0.33722022  0.41752635  0.49702191  1
  Ca2+  Ca26  1  0.32364501  0.41680137  0.83777544  1
  Ca2+  Ca27  1  0.32705635  0.91682594  0.17859710  1
  Ca2+  Ca28  1  0.32310478  0.91417315  0.50221837  1
  Ca2+  Ca29  1  0.32737046  0.91756481  0.83269487  1
  Ca2+  Ca30  1  0.82712871  0.42391773  0.17422233  1
  Ca2+  Ca31  1  0.82806979  0.41513910  0.50347665  1
  Ca2+  Ca32  1  0.82888595  0.42262568  0.83495279  1
  Ca2+  Ca33  1  0.83585887  0.92319905  0.17882490  1
  Ca2+  Ca34  1  0.84304739  0.92411244  0.49833268  1
  Ca2+  Ca35  1  0.83224743  0.92124659  0.83442658  1
  Ca2+  Ca36  1  0.42739744  0.17324605  0.16633577  1
  Ca2+  Ca37  1  0.42881142  0.17378231  0.49207018  1
  Ca2+  Ca38  1  0.42789148  0.17063502  0.82813666  1
  Ca2+  Ca39  1  0.41018459  0.66868916  0.17078444  1
  Ca2+  Ca40  1  0.42211525  0.66576125  0.49188652  1
  Ca2+  Ca41  1  0.42468505  0.66636713  0.82594568  1
  Ca2+  Ca42  1  0.91546516  0.17170422  0.17375094  1
  Ca2+  Ca43  1  0.91794353  0.17717006  0.49256623  1
  Ca2+  Ca44  1  0.92217639  0.17900013  0.82217159  1
  Ca2+  Ca45  1  0.91228601  0.66726872  0.16300619  1
  Ca2+  Ca46  1  0.91908465  0.66530147  0.49457385  1
  Ca2+  Ca47  1  0.92300014  0.65640326  0.82852998  1
  Al0+  Al48  1  -0.00074346  -0.00120073  -0.00015808  1
  Al0+  Al49  1  -0.00149444  -0.00312683  0.33385497  1
  Al0+  Al50  1  0.00027964  -0.00221417  0.67459160  1
  Al0+  Al51  1  0.00070383  0.50096052  0.00402948  1
  Al0+  Al52  1  0.00234025  0.49858353  0.33216334  1
  Al0+  Al53  1  0.00116421  0.50155621  0.65863770  1
  Al0+  Al54  1  0.49830086  0.00148037  -0.00512976  1
  Al0+  Al55  1  0.49853449  -0.00176484  0.32685840  1
  Al0+  Al56  1  0.49848128  0.00152235  0.66426902  1
  Al0+  Al57  1  0.49858520  0.50033132  0.00266836  1
  Al0+  Al58  1  0.49876006  0.49924625  0.33625943  1
  Al0+  Al59  1  0.50057267  0.50014082  0.66856614  1
  Al0+  Al60  1  0.25161911  0.24870881  0.00341343  1
  Al0+  Al61  1  0.25286908  0.24711826  0.32849555  1
  Al0+  Al62  1  0.25254934  0.24799430  0.66433444  1
  Al0+  Al63  1  0.24779888  0.75186274  -0.00474812  1
  Al0+  Al64  1  0.25049446  0.74988919  0.33704525  1
  Al0+  Al65  1  0.24840867  0.75208999  0.67068817  1
  Al0+  Al66  1  0.75190855  0.24916713  -0.00172709  1
  Al0+  Al67  1  0.75300366  0.24892845  0.33279549  1
  Al0+  Al68  1  0.75054201  0.25007823  0.66436743  1
  Al0+  Al69  1  0.74801008  0.75397841  0.00165429  1
  Al0+  Al70  1  0.75026255  0.74976807  0.33180832  1
  Al0+  Al71  1  0.75003860  0.75140609  0.66679922  1
  Al0+  Al72  1  0.67881758  0.42767441  0.68288593  1
  Al0+  Al73  1  0.57200487  0.67799896  0.65364756  1
  Al0+  Al74  1  0.57051227  0.18014706  0.65247130  1
  Al0+  Al75  1  0.31820385  0.56950395  0.34660368  1
  Al0+  Al76  1  0.17837838  0.92979833  0.68431439  1
  Al0+  Al77  1  0.17942266  0.42812069  0.01200343  1
  Al0+  Al78  1  0.81890105  0.06837477  0.34721746  1
  Al0+  Al79  1  0.92876142  0.81810835  0.32110480  1
  Al0+  Al80  1  0.82403296  0.57366187  0.34960171  1
  Al0+  Al81  1  0.42815851  0.81880110  0.32092282  1
  Al0+  Al82  1  0.68086940  0.42888454  0.34931481  1
  Al0+  Al83  1  0.07111420  0.67973050  0.65192870  1
  Al0+  Al84  1  0.92999693  0.32279505  0.31494022  1
  Al0+  Al85  1  0.67863640  0.42725335  0.01624505  1
  Al0+  Al86  1  0.92971275  0.32211469  0.65142154  1
  Al0+  Al87  1  0.07282828  0.17644963  0.65400957  1
  Al0+  Al88  1  0.82320835  0.57319460  0.68164091  1
  Al0+  Al89  1  0.06815864  0.68042085  0.98713919  1
  Al0+  Al90  1  0.57239194  0.17976534  0.31781045  1
  Al0+  Al91  1  0.82095004  0.57288108  0.01538544  1
  Al0+  Al92  1  0.42920137  0.32379653  0.31705507  1
  Al0+  Al93  1  0.17968716  0.93063546  0.34727167  1
  Al0+  Al94  1  0.07005998  0.17684406  0.31903008  1
  Al0+  Al95  1  0.57063485  0.18201478  0.98460310  1
  Si0+  Si96  1  0.32394802  0.07206353  0.68490053  1
  Si0+  Si97  1  0.57167200  0.67769401  0.31591187  1
  Si0+  Si98  1  0.81999326  0.07019712  0.68273181  1
  Si0+  Si99  1  0.32435352  0.07185987  0.35035672  1
  Si0+  Si100  1  0.57124306  0.67940694  0.98618408  1
  Si0+  Si101  1  0.32219062  0.06944989  0.01581120  1
  Si0+  Si102  1  0.17951383  0.92977375  0.01642769  1
  Si0+  Si103  1  0.92570449  0.82432792  0.98205481  1
  Si0+  Si104  1  0.32109809  0.57252173  0.68250661  1
  Si0+  Si105  1  0.42547252  0.32360390  0.98216747  1
  Si0+  Si106  1  0.18094609  0.42893252  0.67731453  1
  Si0+  Si107  1  0.92729396  0.82296635  0.65165872  1
  Si0+  Si108  1  0.42642899  0.32357426  0.65084872  1
  Si0+  Si109  1  0.17846010  0.42338431  0.35127863  1
  Si0+  Si110  1  0.67563491  0.92994643  0.68112349  1
  Si0+  Si111  1  0.07320398  0.17634254  0.98582003  1
  Si0+  Si112  1  0.67426421  0.92692270  0.34962261  1
  Si0+  Si113  1  0.67581700  0.93060136  0.01404742  1
  Si0+  Si114  1  0.42816477  0.82124302  0.98303426  1
  Si0+  Si115  1  0.82119234  0.06924795  0.01425021  1
  Si0+  Si116  1  0.42820104  0.82102658  0.65081974  1
  Si0+  Si117  1  0.07405649  0.67784263  0.31728507  1
  Si0+  Si118  1  0.93204753  0.31979532  0.98504090  1
  Si0+  Si119  1  0.32155306  0.57469058  0.01467863  1
  O2-  O120  1  0.24713588  0.00320105  0.05886364  1
  O2-  O121  1  0.25130301  0.00803777  0.39462501  1
  O2-  O122  1  0.25135358  0.00732935  0.73031179  1
  O2-  O123  1  0.25595930  0.50231543  0.05668988  1
  O2-  O124  1  0.24554954  0.49399306  0.39537159  1
  O2-  O125  1  0.25034644  0.50053045  0.72302626  1
  O2-  O126  1  0.74876382  -0.00084006  0.05567441  1
  O2-  O127  1  0.74197881  -0.00430614  0.39467890  1
  O2-  O128  1  0.74611775  0.00133253  0.72468157  1
  O2-  O129  1  0.74727625  0.50282096  0.06484279  1
  O2-  O130  1  0.75338553  0.50051352  0.39892863  1
  O2-  O131  1  0.75043399  0.50141370  0.73116020  1
  O2-  O132  1  0.00541517  0.25312755  0.26518234  1
  O2-  O133  1  0.00183179  0.24826758  0.60461133  1
  O2-  O134  1  0.00614381  0.25062084  0.94326575  1
  O2-  O135  1  -0.00208835  0.73868619  0.27356762  1
  O2-  O136  1  -0.00682715  0.75179153  0.60825688  1
  O2-  O137  1  -0.01026742  0.75113983  0.93911933  1
  O2-  O138  1  0.50323048  0.25403435  0.26683749  1
  O2-  O139  1  0.49943174  0.25869194  0.60886735  1
  O2-  O140  1  0.49928621  0.26031352  0.93777822  1
  O2-  O141  1  0.50330901  0.74680677  0.27039105  1
  O2-  O142  1  0.49568681  0.75155389  0.60733005  1
  O2-  O143  1  0.49826009  0.74883409  0.94241099  1
  O2-  O144  1  0.07128567  0.17206809  0.09014249  1
  O2-  O145  1  0.06557539  0.17679922  0.43230734  1
  O2-  O146  1  0.07015414  0.17969399  0.76886161  1
  O2-  O147  1  0.07365688  0.68542306  0.09957620  1
  O2-  O148  1  0.07755109  0.68266123  0.42273065  1
  O2-  O149  1  0.07260719  0.68021584  0.76548209  1
  O2-  O150  1  0.56875349  0.17696260  0.09656566  1
  O2-  O151  1  0.56942644  0.17842173  0.43127650  1
  O2-  O152  1  0.56783895  0.17837945  0.76605318  1
  O2-  O153  1  0.57065089  0.68320845  0.09083163  1
  O2-  O154  1  0.57006295  0.68037461  0.42148437  1
  O2-  O155  1  0.56872126  0.68143656  0.76768909  1
  O2-  O156  1  0.17969710  0.42536937  0.24521606  1
  O2-  O157  1  0.18476730  0.42903729  0.57293720  1
  O2-  O158  1  0.17964598  0.42847633  0.89805617  1
  O2-  O159  1  0.18176816  0.92939546  0.23333942  1
  O2-  O160  1  0.17979556  0.92832027  0.57179296  1
  O2-  O161  1  0.18074663  0.93006729  0.91142741  1
  O2-  O162  1  0.68171220  0.43065770  0.23546857  1
  O2-  O163  1  0.67777686  0.42755471  0.57014159  1
  O2-  O164  1  0.68151184  0.42745059  0.90274663  1
  O2-  O165  1  0.67474224  0.92788176  0.24333400  1
  O2-  O166  1  0.67318237  0.92978610  0.57676149  1
  O2-  O167  1  0.67552606  0.93016134  0.90861828  1
  O2-  O168  1  0.42075491  0.32012491  0.08672231  1
  O2-  O169  1  0.42953096  0.32131687  0.43094036  1
  O2-  O170  1  0.42084931  0.32129234  0.75665951  1
  O2-  O171  1  0.42691346  0.82245691  0.08783882  1
  O2-  O172  1  0.42884102  0.81664201  0.43382511  1
  O2-  O173  1  0.42987869  0.82036858  0.75740450  1
  O2-  O174  1  0.93151526  0.31722881  0.08954729  1
  O2-  O175  1  0.92926313  0.32048733  0.42815901  1
  O2-  O176  1  0.93185981  0.32120197  0.76630980  1
  O2-  O177  1  0.92803978  0.82948310  0.08715106  1
  O2-  O178  1  0.93288848  0.82159268  0.43390485  1
  O2-  O179  1  0.92885039  0.82596753  0.75768122  1
  O2-  O180  1  0.32500607  0.06716935  0.24418711  1
  O2-  O181  1  0.32870090  0.06889468  0.58027661  1
  O2-  O182  1  0.32308048  0.06683734  0.91069485  1
  O2-  O183  1  0.31355331  0.57251444  0.23319239  1
  O2-  O184  1  0.32121431  0.57492307  0.57790327  1
  O2-  O185  1  0.32155118  0.57617536  0.90874959  1
  O2-  O186  1  0.81864965  0.06578622  0.23337580  1
  O2-  O187  1  0.82181099  0.06780284  0.57828121  1
  O2-  O188  1  0.82223265  0.06758568  0.90879291  1
  O2-  O189  1  0.81923235  0.57491242  0.23576371  1
  O2-  O190  1  0.82160756  0.57486440  0.56896906  1
  O2-  O191  1  0.82139844  0.57093950  0.90183308  1
  O2-  O192  1  0.03584917  0.08028599  0.26509045  1
  O2-  O193  1  0.04303138  0.07645484  0.60734262  1
  O2-  O194  1  0.04135690  0.08540882  0.93728215  1
  O2-  O195  1  0.05907531  0.58124676  0.27443284  1
  O2-  O196  1  0.04784914  0.58378444  0.59502522  1
  O2-  O197  1  0.04168309  0.58193333  0.93386928  1
  O2-  O198  1  0.54255260  0.08130637  0.26449496  1
  O2-  O199  1  0.53795853  0.08399082  0.59899901  1
  O2-  O200  1  0.53559678  0.08586164  0.92964019  1
  O2-  O201  1  0.54291740  0.58532712  0.27076653  1
  O2-  O202  1  0.54029986  0.58200122  0.60072434  1
  O2-  O203  1  0.54450398  0.58693865  0.93938178  1
  O2-  O204  1  0.17214964  0.19471207  0.26955882  1
  O2-  O205  1  0.17314058  0.19794581  0.60353737  1
  O2-  O206  1  0.16766957  0.19841121  0.94102923  1
  O2-  O207  1  0.16355665  0.71326194  0.26930053  1
  O2-  O208  1  0.16781652  0.71464278  0.60065358  1
  O2-  O209  1  0.16348516  0.71461224  0.93031263  1
  O2-  O210  1  0.67130395  0.20520512  0.26541167  1
  O2-  O211  1  0.66853835  0.20458764  0.60073680  1
  O2-  O212  1  0.66960016  0.20709539  0.93118120  1
  O2-  O213  1  0.66421466  0.70435721  0.26887997  1
  O2-  O214  1  0.66678693  0.71257010  0.59992189  1
  O2-  O215  1  0.66135695  0.71142435  0.93742879  1
  O2-  O216  1  0.08572381  0.46107769  0.06889572  1
  O2-  O217  1  0.08420167  0.44685839  0.39542162  1
  O2-  O218  1  0.08895023  0.45692780  0.72377322  1
  O2-  O219  1  0.08580519  0.95485495  0.06143491  1
  O2-  O220  1  0.08321927  0.95917102  0.40129536  1
  O2-  O221  1  0.08270120  0.95800502  0.74315301  1
  O2-  O222  1  0.57699836  0.45039967  0.06509972  1
  O2-  O223  1  0.58120374  0.45546014  0.39977652  1
  O2-  O224  1  0.57895770  0.45432457  0.73597586  1
  O2-  O225  1  0.58373165  0.95973906  0.06023554  1
  O2-  O226  1  0.57961427  0.95029838  0.39413178  1
  O2-  O227  1  0.58393671  0.95732368  0.73035993  1
  O2-  O228  1  0.20741209  0.33097043  0.06656204  1
  O2-  O229  1  0.20666787  0.32987970  0.39561301  1
  O2-  O230  1  0.20881671  0.33697444  0.72618805  1
  O2-  O231  1  0.21115627  0.83868374  0.06223676  1
  O2-  O232  1  0.21432636  0.83612291  0.40200459  1
  O2-  O233  1  0.21405207  0.83518452  0.74127767  1
  O2-  O234  1  0.71123149  0.32872471  0.06638193  1
  O2-  O235  1  0.70935126  0.32980294  0.39951335  1
  O2-  O236  1  0.70999637  0.32892620  0.73532595  1
  O2-  O237  1  0.69903161  0.83876402  0.06302246  1
  O2-  O238  1  0.69950859  0.83308994  0.39416456  1
  O2-  O239  1  0.70473851  0.83943067  0.73123226  1
  O2-  O240  1  0.45071135  0.42428863  0.26544745  1
  O2-  O241  1  0.44676508  0.41908140  0.60786736  1
  O2-  O242  1  0.44323012  0.42055585  0.93915129  1
  O2-  O243  1  0.45674472  0.91384310  0.26214919  1
  O2-  O244  1  0.45392333  0.91412063  0.60560470  1
  O2-  O245  1  0.45784742  0.91157216  0.93360978  1
  O2-  O246  1  0.95815145  0.42148846  0.26123324  1
  O2-  O247  1  0.95882858  0.41794015  0.59631158  1
  O2-  O248  1  0.95953394  0.41223167  0.93959632  1
  O2-  O249  1  0.96454397  0.91163938  0.26391063  1
  O2-  O250  1  0.95795079  0.91543470  0.60690848  1
  O2-  O251  1  0.95713777  0.91573243  0.93306051  1
  O2-  O252  1  0.33214378  0.29286962  0.26192254  1
  O2-  O253  1  0.33582241  0.29424041  0.60112106  1
  O2-  O254  1  0.33391360  0.29117954  0.93356144  1
  O2-  O255  1  0.33291169  0.78529117  0.26498386  1
  O2-  O256  1  0.33390583  0.79610463  0.60802510  1
  O2-  O257  1  0.33676060  0.79435447  0.93397561  1
  O2-  O258  1  0.83435899  0.28765650  0.26163682  1
  O2-  O259  1  0.83305099  0.29007659  0.59931930  1
  O2-  O260  1  0.84231692  0.28770040  0.93606926  1
  O2-  O261  1  0.83027015  0.79622276  0.26508882  1
  O2-  O262  1  0.83207529  0.80530861  0.60686588  1
  O2-  O263  1  0.82900338  0.80691959  0.93850195  1
  O2-  O264  1  0.41217693  0.03586811  0.06300302  1
  O2-  O265  1  0.41599302  0.03965975  0.39634131  1
  O2-  O266  1  0.41495088  0.04013891  0.73488611  1
  O2-  O267  1  0.41583398  0.55502785  0.06116506  1
  O2-  O268  1  0.41517819  0.54275891  0.40191061  1
  O2-  O269  1  0.41219272  0.54510753  0.73191486  1
  O2-  O270  1  0.91228696  0.03939810  0.06214448  1
  O2-  O271  1  0.91310039  0.03235241  0.40174054  1
  O2-  O272  1  0.90906644  0.03919391  0.73473906  1
  O2-  O273  1  0.91902463  0.54513464  0.06801882  1
  O2-  O274  1  0.92596890  0.55013839  0.39658684  1
  O2-  O275  1  0.92355881  0.54294658  0.73120809  1
  O2-  O276  1  0.30048601  0.16261890  0.06222717  1
  O2-  O277  1  0.30598783  0.16758364  0.39381340  1
  O2-  O278  1  0.30256081  0.16705112  0.73100077  1
  O2-  O279  1  0.29140344  0.66782468  0.05987745  1
  O2-  O280  1  0.28672746  0.66459646  0.40361472  1
  O2-  O281  1  0.29334487  0.66368124  0.73175060  1
  O2-  O282  1  0.79473059  0.16109488  0.06046223  1
  O2-  O283  1  0.79111915  0.16460958  0.40174771  1
  O2-  O284  1  0.79346480  0.16195628  0.73059780  1
  O2-  O285  1  0.79526886  0.67455930  0.06402504  1
  O2-  O286  1  0.79568815  0.67318084  0.40050283  1
  O2-  O287  1  0.79623068  0.67321828  0.73429567  1
