# generated using pymatgen
data_Ca2Al2SiO7
_symmetry_space_group_name_H-M   'P 1'
_cell_length_a   15.46367013
_cell_length_b   15.46416291
_cell_length_c   15.28881334
_cell_angle_alpha   90.00898873
_cell_angle_beta   89.99850779
_cell_angle_gamma   90.02632948
_symmetry_Int_Tables_number   1
_chemical_formula_structural   Ca2Al2SiO7
_chemical_formula_sum   'Ca48 Al48 Si24 O168'
_cell_volume   3656.05499698
_cell_formula_units_Z   24
loop_
 _symmetry_equiv_pos_site_id
 _symmetry_equiv_pos_as_xyz
  1  'x, y, z'
loop_
 _atom_type_symbol
 _atom_type_oxidation_number
  Ca2+  2.0
  Al0+  0.0
  Si0+  0.0
  O2-  -2.0
loop_
 _atom_site_type_symbol
 _atom_site_label
 _atom_site_symmetry_multiplicity
 _atom_site_fract_x
 _atom_site_fract_y
 _atom_site_fract_z
 _atom_site_occupancy
  Ca2+  Ca0  1  0.16226385  0.07775463  0.17129625  1
  Ca2+  Ca1  1  0.16523060  0.08775391  0.50151705  1
  Ca2+  Ca2  1  0.16373686  0.07458773  0.84057105  1
  Ca2+  Ca3  1  0.17054515  0.58531898  0.16840864  1
  Ca2+  Ca4  1  0.16826998  0.58387978  0.50007076  1
  Ca2+  Ca5  1  0.16718178  0.57210821  0.84194744  1
  Ca2+  Ca6  1  0.67256045  0.07770424  0.17665258  1
  Ca2+  Ca7  1  0.67584445  0.07727830  0.50496341  1
  Ca2+  Ca8  1  0.66932843  0.08566626  0.82694574  1
  Ca2+  Ca9  1  0.67727516  0.57410298  0.17247782  1
  Ca2+  Ca10  1  0.67845932  0.57243425  0.50434843  1
  Ca2+  Ca11  1  0.67957721  0.57596254  0.83767291  1
  Ca2+  Ca12  1  0.07896293  0.33313172  0.16512909  1
  Ca2+  Ca13  1  0.07064289  0.33302566  0.49402089  1
  Ca2+  Ca14  1  0.07960639  0.34015750  0.82593897  1
  Ca2+  Ca15  1  0.08438882  0.82024849  0.16041335  1
  Ca2+  Ca16  1  0.07234879  0.82695370  0.49448562  1
  Ca2+  Ca17  1  0.07899712  0.82562910  0.83120723  1
  Ca2+  Ca18  1  0.58132634  0.34385022  0.16012627  1
  Ca2+  Ca19  1  0.59633261  0.33062189  0.49832509  1
  Ca2+  Ca20  1  0.58229178  0.33838656  0.82783556  1
  Ca2+  Ca21  1  0.57905179  0.83510989  0.16680640  1
  Ca2+  Ca22  1  0.58152795  0.83833723  0.49358662  1
  Ca2+  Ca23  1  0.58515704  0.83186738  0.82507011  1
  Ca2+  Ca24  1  0.33168372  0.42551978  0.16744679  1
  Ca2+  Ca25  1  0.32440070  0.42158055  0.50300948  1
  Ca2+  Ca26  1  0.32298056  0.41782243  0.84306476  1
  Ca2+  Ca27  1  0.32628329  0.91050811  0.17092362  1
  Ca2+  Ca28  1  0.33351442  0.91540507  0.50022942  1
  Ca2+  Ca29  1  0.32578210  0.91992984  0.83959019  1
  Ca2+  Ca30  1  0.82808598  0.42259314  0.17348021  1
  Ca2+  Ca31  1  0.83585064  0.42183306  0.50549072  1
  Ca2+  Ca32  1  0.82842425  0.42113430  0.83549354  1
  Ca2+  Ca33  1  0.82720586  0.92360397  0.17760834  1
  Ca2+  Ca34  1  0.83053905  0.92546648  0.50891662  1
  Ca2+  Ca35  1  0.83574812  0.91929962  0.83038212  1
  Ca2+  Ca36  1  0.42174863  0.17766757  0.15882469  1
  Ca2+  Ca37  1  0.42677485  0.16758626  0.49760075  1
  Ca2+  Ca38  1  0.42367783  0.17607942  0.82824038  1
  Ca2+  Ca39  1  0.41241876  0.66461563  0.16395788  1
  Ca2+  Ca40  1  0.41890021  0.67107675  0.48891487  1
  Ca2+  Ca41  1  0.41722237  0.66266097  0.83335642  1
  Ca2+  Ca42  1  0.91367682  0.17147563  0.17150688  1
  Ca2+  Ca43  1  0.90978942  0.17596750  0.49425651  1
  Ca2+  Ca44  1  0.91587770  0.17472054  0.82342002  1
  Ca2+  Ca45  1  0.92473875  0.65517955  0.16368472  1
  Ca2+  Ca46  1  0.91454236  0.66627416  0.49451145  1
  Ca2+  Ca47  1  0.91740334  0.66361415  0.82764015  1
  Al0+  Al48  1  -0.00019112  -0.00065111  0.00471810  1
  Al0+  Al49  1  0.00052267  -0.00068249  0.33422727  1
  Al0+  Al50  1  0.00081120  -0.00209232  0.66698361  1
  Al0+  Al51  1  0.00122200  0.49878266  0.00086615  1
  Al0+  Al52  1  0.00032722  0.49859610  0.32776049  1
  Al0+  Al53  1  0.00376452  0.49955804  0.66845287  1
  Al0+  Al54  1  0.50057909  0.00115282  -0.00264129  1
  Al0+  Al55  1  0.49673409  0.00075266  0.32961709  1
  Al0+  Al56  1  0.49932631  0.00184575  0.66677863  1
  Al0+  Al57  1  0.49917875  0.50132919  -0.00128774  1
  Al0+  Al58  1  0.49875930  0.50104024  0.34180175  1
  Al0+  Al59  1  0.49919494  0.50219101  0.66613996  1
  Al0+  Al60  1  0.25154883  0.24904181  -0.00160237  1
  Al0+  Al61  1  0.25096884  0.24856278  0.32973338  1
  Al0+  Al62  1  0.25206032  0.25040904  0.67012385  1
  Al0+  Al63  1  0.24787304  0.75122812  -0.00038095  1
  Al0+  Al64  1  0.24965793  0.75072855  0.33119613  1
  Al0+  Al65  1  0.25074906  0.75117424  0.66657446  1
  Al0+  Al66  1  0.75054932  0.24791672  0.00227976  1
  Al0+  Al67  1  0.74964062  0.24690349  0.33216038  1
  Al0+  Al68  1  0.74957292  0.24883573  0.66584142  1
  Al0+  Al69  1  0.74964618  0.75232335  0.00366723  1
  Al0+  Al70  1  0.74650266  0.74783023  0.33739342  1
  Al0+  Al71  1  0.74967605  0.75093122  0.66828124  1
  Al0+  Al72  1  0.17931414  0.93050797  0.01449576  1
  Al0+  Al73  1  0.67985071  0.42821320  0.01364834  1
  Al0+  Al74  1  0.18149336  0.42938906  0.67845780  1
  Al0+  Al75  1  0.67853227  0.42773630  0.68193098  1
  Al0+  Al76  1  0.43029969  0.32273049  0.98572031  1
  Al0+  Al77  1  0.82282392  0.06863547  0.34950931  1
  Al0+  Al78  1  0.31854699  0.57229193  0.34785230  1
  Al0+  Al79  1  0.17795339  0.42552571  0.01704282  1
  Al0+  Al80  1  0.82294375  0.07102351  0.68301563  1
  Al0+  Al81  1  0.42993862  0.82099353  0.31854490  1
  Al0+  Al82  1  0.06946115  0.67990355  0.31974781  1
  Al0+  Al83  1  0.06982190  0.67848150  0.98444708  1
  Al0+  Al84  1  0.56958379  0.18066786  0.65158720  1
  Al0+  Al85  1  0.07306895  0.17761614  0.31782246  1
  Al0+  Al86  1  0.67807787  0.42805047  0.34857341  1
  Al0+  Al87  1  0.82309499  0.57156876  0.68140903  1
  Al0+  Al88  1  0.82467005  0.56942573  0.34883233  1
  Al0+  Al89  1  0.67744392  0.92974048  0.68251732  1
  Al0+  Al90  1  0.92862963  0.82023778  0.65322224  1
  Al0+  Al91  1  0.92715991  0.32005015  0.31622227  1
  Al0+  Al92  1  0.32014464  0.57149044  0.01409376  1
  Al0+  Al93  1  0.82208953  0.57310892  0.01534765  1
  Al0+  Al94  1  0.93077313  0.32087601  0.65482614  1
  Al0+  Al95  1  0.67536260  0.92880845  0.34705145  1
  Si0+  Si96  1  0.82124374  0.07032142  0.01582515  1
  Si0+  Si97  1  0.32176978  0.57509808  0.68286865  1
  Si0+  Si98  1  0.32145001  0.07094539  0.68192076  1
  Si0+  Si99  1  0.17929837  0.42547852  0.34897032  1
  Si0+  Si100  1  0.32366935  0.07094835  0.01693829  1
  Si0+  Si101  1  0.07442178  0.17625667  0.65306509  1
  Si0+  Si102  1  0.17997487  0.92855334  0.34948057  1
  Si0+  Si103  1  0.57064202  0.67592864  0.31599628  1
  Si0+  Si104  1  0.92925566  0.31882130  0.98419522  1
  Si0+  Si105  1  0.57340224  0.17679031  0.98185118  1
  Si0+  Si106  1  0.42881168  0.32251545  0.31932765  1
  Si0+  Si107  1  0.92491251  0.82138785  0.31776339  1
  Si0+  Si108  1  0.07346419  0.67870293  0.64991997  1
  Si0+  Si109  1  0.92683123  0.82396844  0.98449064  1
  Si0+  Si110  1  0.42859090  0.82134060  0.65235921  1
  Si0+  Si111  1  0.67671684  0.92926865  0.01536457  1
  Si0+  Si112  1  0.17957422  0.92837035  0.68108184  1
  Si0+  Si113  1  0.31999262  0.07236990  0.34806539  1
  Si0+  Si114  1  0.42891602  0.82246167  0.98323863  1
  Si0+  Si115  1  0.42665782  0.32373916  0.64814957  1
  Si0+  Si116  1  0.56909421  0.17929579  0.31762922  1
  Si0+  Si117  1  0.07066860  0.17670576  0.98512019  1
  Si0+  Si118  1  0.57186185  0.68128943  0.98478154  1
  Si0+  Si119  1  0.57100867  0.67920241  0.65111519  1
  O2-  O120  1  0.25471949  0.00389604  0.06263355  1
  O2-  O121  1  0.24695931  0.00388164  0.39156798  1
  O2-  O122  1  0.24741000  0.00266680  0.72331885  1
  O2-  O123  1  0.24898427  0.49945492  0.06516780  1
  O2-  O124  1  0.24417060  0.49757086  0.39397346  1
  O2-  O125  1  0.25630005  0.50366731  0.72563681  1
  O2-  O126  1  0.74854153  -0.00030767  0.05591351  1
  O2-  O127  1  0.75289926  -0.00636785  0.39748497  1
  O2-  O128  1  0.75142833  -0.00133823  0.73426358  1
  O2-  O129  1  0.75186408  0.49900348  0.06400432  1
  O2-  O130  1  0.75427876  0.49556245  0.39794652  1
  O2-  O131  1  0.75191765  0.49844625  0.73098454  1
  O2-  O132  1  0.00115053  0.24846422  0.26677620  1
  O2-  O133  1  0.00487069  0.24357104  0.61000309  1
  O2-  O134  1  0.00375029  0.25035336  0.94188820  1
  O2-  O135  1  -0.01027052  0.74985552  0.27253163  1
  O2-  O136  1  0.00077092  0.74318894  0.60630560  1
  O2-  O137  1  -0.00921497  0.75060066  0.94040769  1
  O2-  O138  1  0.50424885  0.25629721  0.27648121  1
  O2-  O139  1  0.49948066  0.25988915  0.60341879  1
  O2-  O140  1  0.50743776  0.24933326  0.93993569  1
  O2-  O141  1  0.50477191  0.74755487  0.27066572  1
  O2-  O142  1  0.49907120  0.75082039  0.60995019  1
  O2-  O143  1  0.50018147  0.75229225  0.94095538  1
  O2-  O144  1  0.06812559  0.17376690  0.08963344  1
  O2-  O145  1  0.07810468  0.18143133  0.43131257  1
  O2-  O146  1  0.07559045  0.17542245  0.75907028  1
  O2-  O147  1  0.07209621  0.68252952  0.09733157  1
  O2-  O148  1  0.07263175  0.68454865  0.43305842  1
  O2-  O149  1  0.07767031  0.68244042  0.75532983  1
  O2-  O150  1  0.57072278  0.17130893  0.08735947  1
  O2-  O151  1  0.56505215  0.17597691  0.42246217  1
  O2-  O152  1  0.56374423  0.17800576  0.76468837  1
  O2-  O153  1  0.57176771  0.68455465  0.08950847  1
  O2-  O154  1  0.56685179  0.67574248  0.42161232  1
  O2-  O155  1  0.56799497  0.67992159  0.75667540  1
  O2-  O156  1  0.18339683  0.42303588  0.24378132  1
  O2-  O157  1  0.18297320  0.42934526  0.56536211  1
  O2-  O158  1  0.17956482  0.42607601  0.90308714  1
  O2-  O159  1  0.18261521  0.92832728  0.24446059  1
  O2-  O160  1  0.18251631  0.92619463  0.57609644  1
  O2-  O161  1  0.18083817  0.93282700  0.90078303  1
  O2-  O162  1  0.67525353  0.43229679  0.23500693  1
  O2-  O163  1  0.67900999  0.43043198  0.56889441  1
  O2-  O164  1  0.68155518  0.42845286  0.90032123  1
  O2-  O165  1  0.67438092  0.93380524  0.23256694  1
  O2-  O166  1  0.67395328  0.93266567  0.56972888  1
  O2-  O167  1  0.67406242  0.92859159  0.91068460  1
  O2-  O168  1  0.43129197  0.32010120  0.09929349  1
  O2-  O169  1  0.42425826  0.31823626  0.42423066  1
  O2-  O170  1  0.42414711  0.32008631  0.75362662  1
  O2-  O171  1  0.43057639  0.82537207  0.08794446  1
  O2-  O172  1  0.42904381  0.82109780  0.43211802  1
  O2-  O173  1  0.42598791  0.82086417  0.75767136  1
  O2-  O174  1  0.92726753  0.31524071  0.08881693  1
  O2-  O175  1  0.92910370  0.31998066  0.42998675  1
  O2-  O176  1  0.93340506  0.31980386  0.76854679  1
  O2-  O177  1  0.92856818  0.82854042  0.08977189  1
  O2-  O178  1  0.92963896  0.82306704  0.42335118  1
  O2-  O179  1  0.93417448  0.82241047  0.76645817  1
  O2-  O180  1  0.32142683  0.07163781  0.24322740  1
  O2-  O181  1  0.32159398  0.07016201  0.57666789  1
  O2-  O182  1  0.32360402  0.06776113  0.91094253  1
  O2-  O183  1  0.31879992  0.57126452  0.23531438  1
  O2-  O184  1  0.31970442  0.57892701  0.57736167  1
  O2-  O185  1  0.31929285  0.57087385  0.90011256  1
  O2-  O186  1  0.81927631  0.06766866  0.23487781  1
  O2-  O187  1  0.82297775  0.06917953  0.57025813  1
  O2-  O188  1  0.82315516  0.07099789  0.91103467  1
  O2-  O189  1  0.82237088  0.56927931  0.23533717  1
  O2-  O190  1  0.82221722  0.57115740  0.56826745  1
  O2-  O191  1  0.81964989  0.57382013  0.90187670  1
  O2-  O192  1  0.04653716  0.07732511  0.26633571  1
  O2-  O193  1  0.05322062  0.08151598  0.60771248  1
  O2-  O194  1  0.03927011  0.08549127  0.93711528  1
  O2-  O195  1  0.04710037  0.58186333  0.26530157  1
  O2-  O196  1  0.05386618  0.58374337  0.60570835  1
  O2-  O197  1  0.04364994  0.58000892  0.93144245  1
  O2-  O198  1  0.53329232  0.09146117  0.26687797  1
  O2-  O199  1  0.53051688  0.08617489  0.59742403  1
  O2-  O200  1  0.54329502  0.08506878  0.93288801  1
  O2-  O201  1  0.53931045  0.58359646  0.27065840  1
  O2-  O202  1  0.54213503  0.58844129  0.60206040  1
  O2-  O203  1  0.54312319  0.59065950  0.93594183  1
  O2-  O204  1  0.17230397  0.20331287  0.26315501  1
  O2-  O205  1  0.16900996  0.20159243  0.60816117  1
  O2-  O206  1  0.16520430  0.19702907  0.93938227  1
  O2-  O207  1  0.16344203  0.71788493  0.26509954  1
  O2-  O208  1  0.16564552  0.71065967  0.60279870  1
  O2-  O209  1  0.16479492  0.71552689  0.92967758  1
  O2-  O210  1  0.66222515  0.19887681  0.27018565  1
  O2-  O211  1  0.66724987  0.20501671  0.59786591  1
  O2-  O212  1  0.66866565  0.19848207  0.93783947  1
  O2-  O213  1  0.66502248  0.69865994  0.27004081  1
  O2-  O214  1  0.66203980  0.70720355  0.60402604  1
  O2-  O215  1  0.66300622  0.71196627  0.93690078  1
  O2-  O216  1  0.07953056  0.45200782  0.06833962  1
  O2-  O217  1  0.08443643  0.44906722  0.39139758  1
  O2-  O218  1  0.08728004  0.46049930  0.73558713  1
  O2-  O219  1  0.08397853  0.96164709  0.07011697  1
  O2-  O220  1  0.08747964  0.95246075  0.39664873  1
  O2-  O221  1  0.08857428  0.95354770  0.73019991  1
  O2-  O222  1  0.58106812  0.45815693  0.06358988  1
  O2-  O223  1  0.58100918  0.45679310  0.40436879  1
  O2-  O224  1  0.57834552  0.45774850  0.73195282  1
  O2-  O225  1  0.58472717  0.95848052  0.06223992  1
  O2-  O226  1  0.57765721  0.96306668  0.39796952  1
  O2-  O227  1  0.57877232  0.96029670  0.73585689  1
  O2-  O228  1  0.20696275  0.32615677  0.06733050  1
  O2-  O229  1  0.21033441  0.33350745  0.39565031  1
  O2-  O230  1  0.21085274  0.33273271  0.73450636  1
  O2-  O231  1  0.21203368  0.83539866  0.06835173  1
  O2-  O232  1  0.21405409  0.84021090  0.39863229  1
  O2-  O233  1  0.21234299  0.83877336  0.73044545  1
  O2-  O234  1  0.70437158  0.32800444  0.06554973  1
  O2-  O235  1  0.70064585  0.32625904  0.39506197  1
  O2-  O236  1  0.70239088  0.32815520  0.73297321  1
  O2-  O237  1  0.70224984  0.83841903  0.06486218  1
  O2-  O238  1  0.69177062  0.82703083  0.39578256  1
  O2-  O239  1  0.70311436  0.83088030  0.73515508  1
  O2-  O240  1  0.45364122  0.41632025  0.27510022  1
  O2-  O241  1  0.44473241  0.42029699  0.60542162  1
  O2-  O242  1  0.45708150  0.41958544  0.93001272  1
  O2-  O243  1  0.45713649  0.91794340  0.26206590  1
  O2-  O244  1  0.45437747  0.91368364  0.60535839  1
  O2-  O245  1  0.45656276  0.91462149  0.93481545  1
  O2-  O246  1  0.95577370  0.41734961  0.26178261  1
  O2-  O247  1  0.96576272  0.41616079  0.60052158  1
  O2-  O248  1  0.95492436  0.41131507  0.93794925  1
  O2-  O249  1  0.95414877  0.91404523  0.27146924  1
  O2-  O250  1  0.96461109  0.91524611  0.59808286  1
  O2-  O251  1  0.95901466  0.91575100  0.93709214  1
  O2-  O252  1  0.34029044  0.28948438  0.26884406  1
  O2-  O253  1  0.33518263  0.29085928  0.60106288  1
  O2-  O254  1  0.33482324  0.28726545  0.93032302  1
  O2-  O255  1  0.33397933  0.78931921  0.26433787  1
  O2-  O256  1  0.33675576  0.79422666  0.60351709  1
  O2-  O257  1  0.33707789  0.79551406  0.93563080  1
  O2-  O258  1  0.82997331  0.28700371  0.26185834  1
  O2-  O259  1  0.83418632  0.29129569  0.60159003  1
  O2-  O260  1  0.83832913  0.28622957  0.93709815  1
  O2-  O261  1  0.82845705  0.80202886  0.27499573  1
  O2-  O262  1  0.83016107  0.79553747  0.60070524  1
  O2-  O263  1  0.83060779  0.80474740  0.94056173  1
  O2-  O264  1  0.41746558  0.04480890  0.06238400  1
  O2-  O265  1  0.40973967  0.04036746  0.39680306  1
  O2-  O266  1  0.40984497  0.03854205  0.73205303  1
  O2-  O267  1  0.41914317  0.54530332  0.06618712  1
  O2-  O268  1  0.41346806  0.54237221  0.40493614  1
  O2-  O269  1  0.41646447  0.55297418  0.72726734  1
  O2-  O270  1  0.91147961  0.04129440  0.06482749  1
  O2-  O271  1  0.92269280  0.04514444  0.40134268  1
  O2-  O272  1  0.92223061  0.04216223  0.73579515  1
  O2-  O273  1  0.92066433  0.54436722  0.06516194  1
  O2-  O274  1  0.92482117  0.54398938  0.39967670  1
  O2-  O275  1  0.92262935  0.54547762  0.73245120  1
  O2-  O276  1  0.30000859  0.16487480  0.06148010  1
  O2-  O277  1  0.29508768  0.16414710  0.39727361  1
  O2-  O278  1  0.29765422  0.16294344  0.73065046  1
  O2-  O279  1  0.29322647  0.67096965  0.06480132  1
  O2-  O280  1  0.28711156  0.66905628  0.40173669  1
  O2-  O281  1  0.29565113  0.66840716  0.73026630  1
  O2-  O282  1  0.79303578  0.16081623  0.06492023  1
  O2-  O283  1  0.79033515  0.16585009  0.40020780  1
  O2-  O284  1  0.79163212  0.16801031  0.73645915  1
  O2-  O285  1  0.79385783  0.67202750  0.06791985  1
  O2-  O286  1  0.79532073  0.66831988  0.40027311  1
  O2-  O287  1  0.79304654  0.66946689  0.73414468  1
