# generated using pymatgen
data_Ca2Al2SiO7
_symmetry_space_group_name_H-M   'P 1'
_cell_length_a   15.46975922
_cell_length_b   15.47519170
_cell_length_c   15.29344751
_cell_angle_alpha   89.98528054
_cell_angle_beta   90.01037249
_cell_angle_gamma   89.99441964
_symmetry_Int_Tables_number   1
_chemical_formula_structural   Ca2Al2SiO7
_chemical_formula_sum   'Ca48 Al48 Si24 O168'
_cell_volume   3661.21274045
_cell_formula_units_Z   24
loop_
 _symmetry_equiv_pos_site_id
 _symmetry_equiv_pos_as_xyz
  1  'x, y, z'
loop_
 _atom_type_symbol
 _atom_type_oxidation_number
  Ca2+  2.0
  Al0+  0.0
  Si0+  0.0
  O2-  -2.0
loop_
 _atom_site_type_symbol
 _atom_site_label
 _atom_site_symmetry_multiplicity
 _atom_site_fract_x
 _atom_site_fract_y
 _atom_site_fract_z
 _atom_site_occupancy
  Ca2+  Ca0  1  0.16073975  0.08343275  0.16780329  1
  Ca2+  Ca1  1  0.16733511  0.08747088  0.50119397  1
  Ca2+  Ca2  1  0.16681264  0.07795875  0.84472635  1
  Ca2+  Ca3  1  0.16484248  0.57059765  0.16671495  1
  Ca2+  Ca4  1  0.17084269  0.56709791  0.50534887  1
  Ca2+  Ca5  1  0.16791098  0.57193531  0.84216921  1
  Ca2+  Ca6  1  0.67874416  0.08992629  0.17162335  1
  Ca2+  Ca7  1  0.67072658  0.08635139  0.50849084  1
  Ca2+  Ca8  1  0.67326928  0.08848012  0.83748774  1
  Ca2+  Ca9  1  0.66864683  0.58314429  0.16808213  1
  Ca2+  Ca10  1  0.67466744  0.58767564  0.50276452  1
  Ca2+  Ca11  1  0.67567931  0.57971534  0.84364800  1
  Ca2+  Ca12  1  0.07975515  0.32735163  0.15800983  1
  Ca2+  Ca13  1  0.08382946  0.33184981  0.49295600  1
  Ca2+  Ca14  1  0.07908517  0.33764100  0.83570108  1
  Ca2+  Ca15  1  0.08262008  0.82528302  0.15408557  1
  Ca2+  Ca16  1  0.07767430  0.82921017  0.49492498  1
  Ca2+  Ca17  1  0.08484520  0.82725433  0.83645327  1
  Ca2+  Ca18  1  0.57506810  0.33805078  0.15927993  1
  Ca2+  Ca19  1  0.57686607  0.32371038  0.49230330  1
  Ca2+  Ca20  1  0.57464851  0.33636344  0.82801347  1
  Ca2+  Ca21  1  0.58197304  0.82083877  0.15933429  1
  Ca2+  Ca22  1  0.59201599  0.82988936  0.49555130  1
  Ca2+  Ca23  1  0.59003428  0.83053946  0.83354569  1
  Ca2+  Ca24  1  0.32322818  0.39980961  0.16891128  1
  Ca2+  Ca25  1  0.32483745  0.39880025  0.50049201  1
  Ca2+  Ca26  1  0.32547539  0.40549574  0.83929283  1
  Ca2+  Ca27  1  0.32893978  0.91033621  0.16408899  1
  Ca2+  Ca28  1  0.33173399  0.91987307  0.50454989  1
  Ca2+  Ca29  1  0.33111164  0.91805865  0.84569066  1
  Ca2+  Ca30  1  0.83236788  0.42405727  0.16388083  1
  Ca2+  Ca31  1  0.83384885  0.42863249  0.50341087  1
  Ca2+  Ca32  1  0.82796810  0.42184031  0.84541383  1
  Ca2+  Ca33  1  0.83847436  0.93059345  0.16822552  1
  Ca2+  Ca34  1  0.82612826  0.93103374  0.50589230  1
  Ca2+  Ca35  1  0.82893639  0.92951683  0.83398863  1
  Ca2+  Ca36  1  0.42400122  0.17564519  0.16571461  1
  Ca2+  Ca37  1  0.42880758  0.17299384  0.49711453  1
  Ca2+  Ca38  1  0.42286399  0.17756508  0.82908081  1
  Ca2+  Ca39  1  0.42866639  0.66793991  0.15767935  1
  Ca2+  Ca40  1  0.42537285  0.67048998  0.49298782  1
  Ca2+  Ca41  1  0.42098965  0.67111030  0.83798288  1
  Ca2+  Ca42  1  0.92298522  0.16791311  0.15683682  1
  Ca2+  Ca43  1  0.92044170  0.16196774  0.49278911  1
  Ca2+  Ca44  1  0.91610806  0.16665319  0.83544945  1
  Ca2+  Ca45  1  0.91887697  0.66185719  0.15769426  1
  Ca2+  Ca46  1  0.91018866  0.66557735  0.49483290  1
  Ca2+  Ca47  1  0.92152503  0.65288526  0.83238323  1
  Al0+  Al48  1  0.00191972  -0.00228395  0.00324182  1
  Al0+  Al49  1  -0.00113413  -0.00201993  0.33515747  1
  Al0+  Al50  1  -0.00139968  -0.00228951  0.66833849  1
  Al0+  Al51  1  0.00159728  0.49859734  -0.00016855  1
  Al0+  Al52  1  0.00112708  0.49987285  0.34230908  1
  Al0+  Al53  1  0.00352487  0.49814757  0.67071617  1
  Al0+  Al54  1  0.49962356  0.00077458  -0.00048518  1
  Al0+  Al55  1  0.49753768  0.00010669  0.32971303  1
  Al0+  Al56  1  0.49864814  -0.00094431  0.66730783  1
  Al0+  Al57  1  0.49976315  0.50175312  -0.00750452  1
  Al0+  Al58  1  0.49773468  0.50191985  0.32655062  1
  Al0+  Al59  1  0.49630637  0.50436366  0.65973098  1
  Al0+  Al60  1  0.25151739  0.24604579  -0.00275973  1
  Al0+  Al61  1  0.24842135  0.24560198  0.33165458  1
  Al0+  Al62  1  0.24797290  0.24692024  0.66901184  1
  Al0+  Al63  1  0.24893595  0.74939641  -0.00327980  1
  Al0+  Al64  1  0.24819223  0.74778387  0.33635683  1
  Al0+  Al65  1  0.24946240  0.74619674  0.66345280  1
  Al0+  Al66  1  0.75136459  0.25205192  0.00622338  1
  Al0+  Al67  1  0.75201513  0.25300193  0.33622042  1
  Al0+  Al68  1  0.75210181  0.25342206  0.66551025  1
  Al0+  Al69  1  0.75158154  0.75311635  -0.00160087  1
  Al0+  Al70  1  0.75017815  0.75224423  0.33091586  1
  Al0+  Al71  1  0.75317806  0.75303405  0.67367770  1
  Al0+  Al72  1  0.57433022  0.67959213  0.98182438  1
  Al0+  Al73  1  0.82032267  0.57019566  0.68053792  1
  Al0+  Al74  1  0.42996125  0.82144051  0.98563566  1
  Al0+  Al75  1  0.57304477  0.17980317  0.65350099  1
  Al0+  Al76  1  0.82161790  0.57222546  0.01461680  1
  Al0+  Al77  1  0.67574805  0.42992829  0.01427098  1
  Al0+  Al78  1  0.42931244  0.31960234  0.31760924  1
  Al0+  Al79  1  0.92909548  0.32076935  0.98536765  1
  Al0+  Al80  1  0.81879341  0.57138445  0.34654140  1
  Al0+  Al81  1  0.18216794  0.42774408  0.34658581  1
  Al0+  Al82  1  0.18172484  0.42662182  0.01436159  1
  Al0+  Al83  1  0.18352387  0.42733439  0.68252596  1
  Al0+  Al84  1  0.42604045  0.32224624  0.65072497  1
  Al0+  Al85  1  0.06782237  0.17793618  0.32048005  1
  Al0+  Al86  1  0.18110999  0.92818170  0.01389299  1
  Al0+  Al87  1  0.82108315  0.07321563  0.34692501  1
  Al0+  Al88  1  0.67703577  0.93057524  0.68175232  1
  Al0+  Al89  1  0.82162111  0.07511582  0.68249269  1
  Al0+  Al90  1  0.57489722  0.17790907  0.31753692  1
  Al0+  Al91  1  0.42959196  0.32066817  0.98572556  1
  Al0+  Al92  1  0.57188169  0.68120506  0.32011137  1
  Al0+  Al93  1  0.07047497  0.17690565  0.98402034  1
  Al0+  Al94  1  0.06892823  0.67783197  0.98649584  1
  Al0+  Al95  1  0.82023634  0.07056149  0.01456706  1
  Si0+  Si96  1  0.67585256  0.92910595  0.01856005  1
  Si0+  Si97  1  0.07031997  0.67771980  0.31996423  1
  Si0+  Si98  1  0.32375405  0.07146252  0.01936203  1
  Si0+  Si99  1  0.67486931  0.43031066  0.67925400  1
  Si0+  Si100  1  0.07029374  0.67697458  0.64895007  1
  Si0+  Si101  1  0.93106466  0.32370264  0.65077815  1
  Si0+  Si102  1  0.67355037  0.42977247  0.35043434  1
  Si0+  Si103  1  0.42604254  0.82095019  0.65113938  1
  Si0+  Si104  1  0.42389472  0.82218648  0.31768564  1
  Si0+  Si105  1  0.06798129  0.17597716  0.65223592  1
  Si0+  Si106  1  0.57420482  0.17890946  0.98532951  1
  Si0+  Si107  1  0.32105943  0.57220967  0.01569798  1
  Si0+  Si108  1  0.32256134  0.57449623  0.35032952  1
  Si0+  Si109  1  0.17862670  0.92573691  0.68036661  1
  Si0+  Si110  1  0.92926324  0.32624494  0.31852661  1
  Si0+  Si111  1  0.31978414  0.06868075  0.34961532  1
  Si0+  Si112  1  0.17814012  0.92558911  0.35003621  1
  Si0+  Si113  1  0.93051009  0.82093729  0.64997522  1
  Si0+  Si114  1  0.57354639  0.68308046  0.65140707  1
  Si0+  Si115  1  0.31923850  0.06810292  0.68207726  1
  Si0+  Si116  1  0.67753393  0.93073907  0.34652423  1
  Si0+  Si117  1  0.92868390  0.82373029  0.98165425  1
  Si0+  Si118  1  0.93023126  0.81954687  0.31819033  1
  Si0+  Si119  1  0.32279030  0.57577338  0.68478402  1
  O2-  O120  1  0.25495426  0.00202681  0.06286534  1
  O2-  O121  1  0.24953960  -0.00418964  0.39254736  1
  O2-  O122  1  0.25041026  -0.00552852  0.72314162  1
  O2-  O123  1  0.25891222  0.49860006  0.06166410  1
  O2-  O124  1  0.25963734  0.50007932  0.39408316  1
  O2-  O125  1  0.26176059  0.49960245  0.72670021  1
  O2-  O126  1  0.74374315  -0.00188077  0.06275158  1
  O2-  O127  1  0.73902346  0.00527766  0.39196714  1
  O2-  O128  1  0.74260771  0.00928129  0.73010094  1
  O2-  O129  1  0.74631815  0.50399796  0.06431413  1
  O2-  O130  1  0.74285485  0.49867732  0.39472866  1
  O2-  O131  1  0.74296944  0.49843342  0.72491695  1
  O2-  O132  1  -0.00836315  0.25118640  0.27581216  1
  O2-  O133  1  -0.00334444  0.24647423  0.60973041  1
  O2-  O134  1  -0.00036352  0.24851199  0.93250961  1
  O2-  O135  1  -0.00070545  0.74710356  0.27626359  1
  O2-  O136  1  -0.00112703  0.74745153  0.60610708  1
  O2-  O137  1  -0.00941563  0.74831840  0.93792063  1
  O2-  O138  1  0.50793754  0.25476997  0.26791335  1
  O2-  O139  1  0.50349167  0.25455080  0.60311670  1
  O2-  O140  1  0.50822642  0.24962755  0.94053205  1
  O2-  O141  1  0.49374402  0.75410710  0.27626384  1
  O2-  O142  1  0.50139296  0.75417314  0.60931331  1
  O2-  O143  1  0.50417816  0.75436691  0.93240299  1
  O2-  O144  1  0.06837569  0.17719453  0.09778544  1
  O2-  O145  1  0.06856929  0.17782728  0.43452568  1
  O2-  O146  1  0.06885868  0.17269921  0.75644906  1
  O2-  O147  1  0.06942512  0.67967745  0.10019897  1
  O2-  O148  1  0.07038131  0.68085640  0.42548578  1
  O2-  O149  1  0.07141136  0.67865182  0.75356635  1
  O2-  O150  1  0.57177882  0.17729154  0.09079168  1
  O2-  O151  1  0.57119058  0.17555790  0.43128562  1
  O2-  O152  1  0.57014543  0.17967668  0.76689750  1
  O2-  O153  1  0.57263983  0.68121471  0.09558762  1
  O2-  O154  1  0.57313912  0.68565172  0.43408726  1
  O2-  O155  1  0.57349761  0.68320280  0.75562737  1
  O2-  O156  1  0.18032592  0.42933861  0.23408933  1
  O2-  O157  1  0.18203094  0.42825487  0.56890282  1
  O2-  O158  1  0.18256169  0.42930574  0.90119599  1
  O2-  O159  1  0.17833217  0.92205059  0.24574350  1
  O2-  O160  1  0.17913597  0.92630849  0.57462746  1
  O2-  O161  1  0.18283766  0.92876990  0.90016461  1
  O2-  O162  1  0.67319470  0.43141521  0.24541783  1
  O2-  O163  1  0.67725808  0.43266927  0.57341318  1
  O2-  O164  1  0.67624677  0.43027202  0.90005380  1
  O2-  O165  1  0.68139667  0.92828842  0.24153928  1
  O2-  O166  1  0.68159754  0.92719187  0.56766591  1
  O2-  O167  1  0.67600840  0.93139700  0.91303468  1
  O2-  O168  1  0.42825166  0.31662359  0.09850291  1
  O2-  O169  1  0.42863940  0.31422993  0.43124613  1
  O2-  O170  1  0.42574107  0.31809739  0.76399127  1
  O2-  O171  1  0.42954169  0.81730094  0.09950550  1
  O2-  O172  1  0.42174913  0.82171129  0.42386148  1
  O2-  O173  1  0.41939178  0.81831276  0.75508538  1
  O2-  O174  1  0.93113658  0.32099744  0.09919731  1
  O2-  O175  1  0.93326454  0.32877388  0.42477208  1
  O2-  O176  1  0.93326166  0.32706666  0.75511494  1
  O2-  O177  1  0.93275263  0.82545433  0.08771328  1
  O2-  O178  1  0.93227185  0.81938252  0.42375957  1
  O2-  O179  1  0.93440609  0.82443370  0.75420201  1
  O2-  O180  1  0.31939558  0.06766936  0.24518245  1
  O2-  O181  1  0.31717553  0.06684138  0.57645634  1
  O2-  O182  1  0.32327186  0.07007887  0.91335423  1
  O2-  O183  1  0.31767234  0.58412107  0.24593286  1
  O2-  O184  1  0.31837192  0.58562329  0.57960759  1
  O2-  O185  1  0.31700622  0.57407205  0.90991225  1
  O2-  O186  1  0.82633938  0.06726276  0.23452945  1
  O2-  O187  1  0.82651315  0.06935110  0.56883544  1
  O2-  O188  1  0.81949660  0.06880448  0.90159983  1
  O2-  O189  1  0.82156733  0.57181459  0.23462142  1
  O2-  O190  1  0.81875151  0.57132465  0.56683197  1
  O2-  O191  1  0.82128548  0.56787979  0.90090059  1
  O2-  O192  1  0.04054249  0.07911437  0.26920246  1
  O2-  O193  1  0.04205446  0.08350562  0.60337345  1
  O2-  O194  1  0.04259895  0.07729306  0.93313187  1
  O2-  O195  1  0.04313330  0.58516775  0.27553462  1
  O2-  O196  1  0.04256337  0.58496791  0.60209963  1
  O2-  O197  1  0.04142304  0.58187725  0.93047877  1
  O2-  O198  1  0.54123750  0.08070512  0.26477670  1
  O2-  O199  1  0.54089885  0.08081318  0.60148864  1
  O2-  O200  1  0.54621239  0.08606361  0.93900479  1
  O2-  O201  1  0.54358222  0.58535886  0.26494600  1
  O2-  O202  1  0.54629758  0.59224147  0.60124337  1
  O2-  O203  1  0.54319815  0.58382975  0.92604392  1
  O2-  O204  1  0.16432043  0.20590794  0.26690620  1
  O2-  O205  1  0.16015250  0.20421474  0.60543215  1
  O2-  O206  1  0.17000674  0.20117418  0.93247008  1
  O2-  O207  1  0.16188066  0.70685252  0.27370880  1
  O2-  O208  1  0.16128090  0.70640271  0.59983465  1
  O2-  O209  1  0.16271416  0.71361221  0.93030646  1
  O2-  O210  1  0.67675827  0.20092396  0.27023427  1
  O2-  O211  1  0.67288737  0.20509560  0.60053153  1
  O2-  O212  1  0.66880975  0.20179514  0.94206980  1
  O2-  O213  1  0.66632230  0.71567318  0.26454067  1
  O2-  O214  1  0.66577624  0.71380791  0.60550065  1
  O2-  O215  1  0.67304684  0.70900480  0.92950479  1
  O2-  O216  1  0.08643774  0.46077842  0.06757885  1
  O2-  O217  1  0.08838159  0.46221034  0.40496360  1
  O2-  O218  1  0.08889894  0.46346385  0.73588234  1
  O2-  O219  1  0.08543903  0.95670477  0.07007034  1
  O2-  O220  1  0.08706569  0.95427093  0.39876688  1
  O2-  O221  1  0.08749240  0.95388092  0.72713454  1
  O2-  O222  1  0.57631332  0.45900582  0.06495412  1
  O2-  O223  1  0.57927429  0.45551231  0.39537430  1
  O2-  O224  1  0.57955275  0.45578686  0.72165170  1
  O2-  O225  1  0.58137497  0.95173547  0.06402614  1
  O2-  O226  1  0.58027180  0.94642679  0.38983748  1
  O2-  O227  1  0.57483816  0.94664500  0.73155791  1
  O2-  O228  1  0.21137396  0.32845516  0.06563210  1
  O2-  O229  1  0.21085935  0.32956704  0.40024473  1
  O2-  O230  1  0.20857070  0.32918607  0.73574682  1
  O2-  O231  1  0.21261176  0.83168653  0.06842291  1
  O2-  O232  1  0.20501972  0.83429513  0.40069521  1
  O2-  O233  1  0.20464602  0.83235185  0.72463112  1
  O2-  O234  1  0.70424958  0.33322947  0.07012889  1
  O2-  O235  1  0.69987057  0.33657417  0.39720523  1
  O2-  O236  1  0.69946320  0.33681341  0.72463243  1
  O2-  O237  1  0.70257112  0.83536529  0.06312998  1
  O2-  O238  1  0.71104141  0.84019922  0.39513195  1
  O2-  O239  1  0.71459341  0.83686716  0.73815690  1
  O2-  O240  1  0.44506065  0.42160589  0.26759804  1
  O2-  O241  1  0.44259223  0.42486543  0.60020475  1
  O2-  O242  1  0.45282024  0.41828513  0.93071112  1
  O2-  O243  1  0.44537113  0.91590762  0.27160950  1
  O2-  O244  1  0.44837227  0.91410495  0.60388042  1
  O2-  O245  1  0.45256372  0.92205047  0.93392765  1
  O2-  O246  1  0.96241990  0.41738831  0.27261527  1
  O2-  O247  1  0.96671849  0.41244589  0.60098228  1
  O2-  O248  1  0.96037622  0.41750058  0.93113986  1
  O2-  O249  1  0.96201514  0.90956255  0.27055907  1
  O2-  O250  1  0.96243324  0.91073531  0.59941631  1
  O2-  O251  1  0.96439775  0.91260171  0.93340694  1
  O2-  O252  1  0.33351265  0.28104933  0.26630656  1
  O2-  O253  1  0.32939011  0.28321907  0.59941645  1
  O2-  O254  1  0.33597672  0.28323134  0.93049868  1
  O2-  O255  1  0.32987527  0.79517012  0.27310984  1
  O2-  O256  1  0.33601653  0.78968593  0.59991875  1
  O2-  O257  1  0.33282297  0.79009803  0.93148121  1
  O2-  O258  1  0.83273145  0.30952152  0.27698996  1
  O2-  O259  1  0.83715455  0.30460593  0.60375497  1
  O2-  O260  1  0.82936617  0.29401797  0.93423407  1
  O2-  O261  1  0.83865960  0.79537988  0.27029759  1
  O2-  O262  1  0.83807995  0.79382343  0.60339895  1
  O2-  O263  1  0.83267625  0.80860431  0.93801677  1
  O2-  O264  1  0.41698199  0.04584958  0.06623923  1
  O2-  O265  1  0.41138666  0.04056590  0.39849916  1
  O2-  O266  1  0.41077728  0.04230718  0.72969925  1
  O2-  O267  1  0.41773349  0.55376659  0.05634497  1
  O2-  O268  1  0.41876631  0.55526799  0.39352474  1
  O2-  O269  1  0.41999277  0.55960639  0.72602416  1
  O2-  O270  1  0.91557439  0.03440547  0.06777563  1
  O2-  O271  1  0.91461925  0.03247350  0.40290573  1
  O2-  O272  1  0.91738907  0.03638989  0.73515352  1
  O2-  O273  1  0.91945193  0.54094722  0.06681343  1
  O2-  O274  1  0.91468307  0.54102423  0.40399958  1
  O2-  O275  1  0.91726238  0.53770031  0.73118661  1
  O2-  O276  1  0.29577744  0.16335072  0.06599686  1
  O2-  O277  1  0.28726312  0.15749673  0.39945968  1
  O2-  O278  1  0.28793492  0.15749310  0.73066842  1
  O2-  O279  1  0.28945588  0.66320811  0.06282469  1
  O2-  O280  1  0.29128585  0.66495213  0.40233416  1
  O2-  O281  1  0.28847876  0.66560254  0.73394870  1
  O2-  O282  1  0.79380108  0.16701457  0.07004578  1
  O2-  O283  1  0.80172986  0.17275206  0.40032337  1
  O2-  O284  1  0.80210706  0.17660071  0.73203702  1
  O2-  O285  1  0.80037364  0.67445103  0.06300654  1
  O2-  O286  1  0.78890389  0.66979415  0.39971615  1
  O2-  O287  1  0.79613588  0.66793218  0.73368966  1
