# generated using pymatgen
data_Ca2Al2SiO7
_symmetry_space_group_name_H-M   'P 1'
_cell_length_a   15.45288892
_cell_length_b   15.45263225
_cell_length_c   15.27942316
_cell_angle_alpha   89.99314489
_cell_angle_beta   89.99742500
_cell_angle_gamma   90.01540048
_symmetry_Int_Tables_number   1
_chemical_formula_structural   Ca2Al2SiO7
_chemical_formula_sum   'Ca48 Al48 Si24 O168'
_cell_volume   3648.53982904
_cell_formula_units_Z   24
loop_
 _symmetry_equiv_pos_site_id
 _symmetry_equiv_pos_as_xyz
  1  'x, y, z'
loop_
 _atom_type_symbol
 _atom_type_oxidation_number
  Ca2+  2.0
  Al0+  0.0
  Si0+  0.0
  O2-  -2.0
loop_
 _atom_site_type_symbol
 _atom_site_label
 _atom_site_symmetry_multiplicity
 _atom_site_fract_x
 _atom_site_fract_y
 _atom_site_fract_z
 _atom_site_occupancy
  Ca2+  Ca0  1  0.17023597  0.07944982  0.16991628  1
  Ca2+  Ca1  1  0.15876438  0.07120423  0.50746767  1
  Ca2+  Ca2  1  0.16393896  0.08003075  0.83521293  1
  Ca2+  Ca3  1  0.17458475  0.58081042  0.17606183  1
  Ca2+  Ca4  1  0.17070002  0.58606068  0.50486365  1
  Ca2+  Ca5  1  0.17730116  0.58986770  0.83436529  1
  Ca2+  Ca6  1  0.68103852  0.08777208  0.16962737  1
  Ca2+  Ca7  1  0.67747495  0.08243844  0.50920040  1
  Ca2+  Ca8  1  0.67223333  0.08333808  0.83274684  1
  Ca2+  Ca9  1  0.67334355  0.57064740  0.16661397  1
  Ca2+  Ca10  1  0.67206577  0.57839305  0.50830109  1
  Ca2+  Ca11  1  0.67679654  0.58404497  0.83852156  1
  Ca2+  Ca12  1  0.07111663  0.34025353  0.16390249  1
  Ca2+  Ca13  1  0.07709835  0.32904429  0.49230915  1
  Ca2+  Ca14  1  0.07698277  0.32591865  0.82805021  1
  Ca2+  Ca15  1  0.08278330  0.82953930  0.16544082  1
  Ca2+  Ca16  1  0.09189427  0.82478032  0.49613027  1
  Ca2+  Ca17  1  0.07738587  0.83051550  0.82729700  1
  Ca2+  Ca18  1  0.58082802  0.33937080  0.15954874  1
  Ca2+  Ca19  1  0.58793984  0.32992618  0.49779480  1
  Ca2+  Ca20  1  0.58092033  0.33357559  0.83230930  1
  Ca2+  Ca21  1  0.58099294  0.82893783  0.16150878  1
  Ca2+  Ca22  1  0.58887074  0.82754115  0.50165372  1
  Ca2+  Ca23  1  0.58208757  0.82959374  0.82249276  1
  Ca2+  Ca24  1  0.32856002  0.42371040  0.17210079  1
  Ca2+  Ca25  1  0.32599437  0.42627401  0.50161002  1
  Ca2+  Ca26  1  0.33620393  0.42470877  0.83982434  1
  Ca2+  Ca27  1  0.32855146  0.92396189  0.17102328  1
  Ca2+  Ca28  1  0.32028882  0.91238869  0.50402802  1
  Ca2+  Ca29  1  0.32574186  0.92209286  0.83575545  1
  Ca2+  Ca30  1  0.82569358  0.40800348  0.17020732  1
  Ca2+  Ca31  1  0.83247882  0.41819983  0.50096864  1
  Ca2+  Ca32  1  0.83153904  0.42772860  0.84177272  1
  Ca2+  Ca33  1  0.84481869  0.92799117  0.16655808  1
  Ca2+  Ca34  1  0.83187779  0.92920472  0.50908036  1
  Ca2+  Ca35  1  0.83358847  0.92551837  0.83692185  1
  Ca2+  Ca36  1  0.41727271  0.17478971  0.15398868  1
  Ca2+  Ca37  1  0.42689465  0.16353584  0.49826279  1
  Ca2+  Ca38  1  0.41918887  0.17182407  0.82788353  1
  Ca2+  Ca39  1  0.41380567  0.66010740  0.16324592  1
  Ca2+  Ca40  1  0.41706000  0.66026668  0.49985979  1
  Ca2+  Ca41  1  0.42314095  0.66005179  0.82538400  1
  Ca2+  Ca42  1  0.91144104  0.17481264  0.16207303  1
  Ca2+  Ca43  1  0.91555170  0.16700013  0.49627934  1
  Ca2+  Ca44  1  0.91108264  0.17137539  0.82925846  1
  Ca2+  Ca45  1  0.92418453  0.66890838  0.15743523  1
  Ca2+  Ca46  1  0.92905997  0.66189121  0.49645905  1
  Ca2+  Ca47  1  0.91439980  0.67009996  0.82529764  1
  Al0+  Al48  1  -0.00047874  -0.00310256  -0.00000206  1
  Al0+  Al49  1  0.00148154  0.00022398  0.34111787  1
  Al0+  Al50  1  -0.00072715  0.00139205  0.67243809  1
  Al0+  Al51  1  0.00224923  0.50036729  -0.00447042  1
  Al0+  Al52  1  0.00035735  0.49921890  0.32591361  1
  Al0+  Al53  1  -0.00024096  0.50018458  0.66685046  1
  Al0+  Al54  1  0.49881768  -0.00099755  0.00338217  1
  Al0+  Al55  1  0.50228728  -0.00134588  0.33002022  1
  Al0+  Al56  1  0.49875126  0.00104767  0.66333480  1
  Al0+  Al57  1  0.50011088  0.49965385  0.00236802  1
  Al0+  Al58  1  0.50181981  0.49871139  0.34100454  1
  Al0+  Al59  1  0.49823591  0.50054239  0.66389548  1
  Al0+  Al60  1  0.25103473  0.24993469  -0.00126987  1
  Al0+  Al61  1  0.25196481  0.25067849  0.33686072  1
  Al0+  Al62  1  0.24740869  0.25041887  0.65932902  1
  Al0+  Al63  1  0.25099987  0.75033067  0.00336611  1
  Al0+  Al64  1  0.25201982  0.75178391  0.33366881  1
  Al0+  Al65  1  0.24937243  0.75060922  0.67338888  1
  Al0+  Al66  1  0.74977784  0.24852701  0.00114884  1
  Al0+  Al67  1  0.75035838  0.24918828  0.33835066  1
  Al0+  Al68  1  0.74722354  0.25113489  0.66604306  1
  Al0+  Al69  1  0.75066521  0.74986433  0.00063819  1
  Al0+  Al70  1  0.74953440  0.75039305  0.32894682  1
  Al0+  Al71  1  0.74844659  0.75068451  0.66633707  1
  Al0+  Al72  1  0.68078563  0.42964740  0.34905132  1
  Al0+  Al73  1  0.32046652  0.57018951  0.01358116  1
  Al0+  Al74  1  0.18159409  0.93188135  0.34666791  1
  Al0+  Al75  1  0.92739414  0.32091819  0.98510838  1
  Al0+  Al76  1  0.67695148  0.92876025  0.68062564  1
  Al0+  Al77  1  0.07210502  0.68005406  0.31871313  1
  Al0+  Al78  1  0.92931184  0.82012799  0.98515845  1
  Al0+  Al79  1  0.92946286  0.31834905  0.31964020  1
  Al0+  Al80  1  0.07094339  0.68063296  0.65397019  1
  Al0+  Al81  1  0.68124061  0.42962183  0.01326779  1
  Al0+  Al82  1  0.82208306  0.56998173  0.67766791  1
  Al0+  Al83  1  0.06983490  0.17807528  0.65269366  1
  Al0+  Al84  1  0.57172406  0.67901412  0.65284784  1
  Al0+  Al85  1  0.81959081  0.06929750  0.34762016  1
  Al0+  Al86  1  0.82035886  0.07273669  0.68397665  1
  Al0+  Al87  1  0.82465416  0.57341449  0.01552556  1
  Al0+  Al88  1  0.17921402  0.92919081  0.68236873  1
  Al0+  Al89  1  0.17516959  0.42813562  0.34842663  1
  Al0+  Al90  1  0.31912143  0.56871677  0.68180839  1
  Al0+  Al91  1  0.82049904  0.06925568  0.01402042  1
  Al0+  Al92  1  0.56972720  0.17967654  0.65257430  1
  Al0+  Al93  1  0.32029047  0.57110324  0.34997047  1
  Al0+  Al94  1  0.32135082  0.07190110  0.01181985  1
  Al0+  Al95  1  0.42900447  0.32184132  0.98709999  1
  Si0+  Si96  1  0.32183160  0.07419713  0.68084798  1
  Si0+  Si97  1  0.92729899  0.82252155  0.64982905  1
  Si0+  Si98  1  0.67638784  0.92657826  0.01742928  1
  Si0+  Si99  1  0.07462339  0.67849475  0.98225005  1
  Si0+  Si100  1  0.57101371  0.17893889  0.31701551  1
  Si0+  Si101  1  0.42991859  0.82040793  0.31690402  1
  Si0+  Si102  1  0.92769537  0.82344325  0.31818699  1
  Si0+  Si103  1  0.56880308  0.67982715  0.98620420  1
  Si0+  Si104  1  0.07372530  0.17563215  0.31705981  1
  Si0+  Si105  1  0.17848733  0.92855434  0.01774801  1
  Si0+  Si106  1  0.67687676  0.42868491  0.68335585  1
  Si0+  Si107  1  0.42740239  0.82205050  0.65030545  1
  Si0+  Si108  1  0.07185792  0.17718742  0.98519975  1
  Si0+  Si109  1  0.17673406  0.42557004  0.68392933  1
  Si0+  Si110  1  0.32568518  0.07357140  0.35009817  1
  Si0+  Si111  1  0.92733645  0.32228960  0.65000477  1
  Si0+  Si112  1  0.67572628  0.92575547  0.34916785  1
  Si0+  Si113  1  0.57133917  0.17599732  0.98402103  1
  Si0+  Si114  1  0.42798370  0.82264255  0.98493946  1
  Si0+  Si115  1  0.17811223  0.42595336  0.01477786  1
  Si0+  Si116  1  0.42641465  0.32344995  0.64668835  1
  Si0+  Si117  1  0.82240806  0.57457022  0.34778985  1
  Si0+  Si118  1  0.43019208  0.32102984  0.31884803  1
  Si0+  Si119  1  0.57169729  0.67663181  0.31685447  1
  O2-  O120  1  0.24667918  -0.00135593  0.06050413  1
  O2-  O121  1  0.25424156  0.00856231  0.39432858  1
  O2-  O122  1  0.25173824  0.00773001  0.72621552  1
  O2-  O123  1  0.24454037  0.49704734  0.05905935  1
  O2-  O124  1  0.24418661  0.50288261  0.39892286  1
  O2-  O125  1  0.24562354  0.49347838  0.72930033  1
  O2-  O126  1  0.74551699  -0.00537415  0.06167916  1
  O2-  O127  1  0.74678220  -0.00839271  0.39189056  1
  O2-  O128  1  0.74849552  -0.00051254  0.73239724  1
  O2-  O129  1  0.75800103  0.49604269  0.06510699  1
  O2-  O130  1  0.75457967  0.50602528  0.39354317  1
  O2-  O131  1  0.74579787  0.49741563  0.72574440  1
  O2-  O132  1  0.00767755  0.24627508  0.27216566  1
  O2-  O133  1  -0.00558150  0.25183806  0.60606145  1
  O2-  O134  1  0.00232137  0.24503164  0.94065687  1
  O2-  O135  1  -0.00622179  0.75228608  0.27340869  1
  O2-  O136  1  -0.00452137  0.75365515  0.60488919  1
  O2-  O137  1  0.00067460  0.74198553  0.93890378  1
  O2-  O138  1  0.49735603  0.24689197  0.27475857  1
  O2-  O139  1  0.49514570  0.25373412  0.60364747  1
  O2-  O140  1  0.50215507  0.24510938  0.94099850  1
  O2-  O141  1  0.50044713  0.74825301  0.27472451  1
  O2-  O142  1  0.49768995  0.75483349  0.60572181  1
  O2-  O143  1  0.49907587  0.75213555  0.94322591  1
  O2-  O144  1  0.07247778  0.17708219  0.09095448  1
  O2-  O145  1  0.07062012  0.17458205  0.42246399  1
  O2-  O146  1  0.07234448  0.18110485  0.76600523  1
  O2-  O147  1  0.07743874  0.68207724  0.08799725  1
  O2-  O148  1  0.07277956  0.68191362  0.43198351  1
  O2-  O149  1  0.07149521  0.68307377  0.76689377  1
  O2-  O150  1  0.56963723  0.17511408  0.09006975  1
  O2-  O151  1  0.56943522  0.17847242  0.42203720  1
  O2-  O152  1  0.56757340  0.18084049  0.76571441  1
  O2-  O153  1  0.56665043  0.68101597  0.09184913  1
  O2-  O154  1  0.57336566  0.67847340  0.42166538  1
  O2-  O155  1  0.56920346  0.67853073  0.76627701  1
  O2-  O156  1  0.17864975  0.42819871  0.23448299  1
  O2-  O157  1  0.17749682  0.42636892  0.57845787  1
  O2-  O158  1  0.18031846  0.42448094  0.90916249  1
  O2-  O159  1  0.18409612  0.93332414  0.23329780  1
  O2-  O160  1  0.18236073  0.92785827  0.56915669  1
  O2-  O161  1  0.17986757  0.92797416  0.91223752  1
  O2-  O162  1  0.67875483  0.42966629  0.23613968  1
  O2-  O163  1  0.67862830  0.42892513  0.57743592  1
  O2-  O164  1  0.67864798  0.43335377  0.89979319  1
  O2-  O165  1  0.67143330  0.92673238  0.24362537  1
  O2-  O166  1  0.67978699  0.92997100  0.56657787  1
  O2-  O167  1  0.67347513  0.92704213  0.91232497  1
  O2-  O168  1  0.43003730  0.32101269  0.10068534  1
  O2-  O169  1  0.43197206  0.31943519  0.42378107  1
  O2-  O170  1  0.42658042  0.32374988  0.75249684  1
  O2-  O171  1  0.42879089  0.82326949  0.09040138  1
  O2-  O172  1  0.43058373  0.82313952  0.42155484  1
  O2-  O173  1  0.42794414  0.82206725  0.75625431  1
  O2-  O174  1  0.92730478  0.31814729  0.09836963  1
  O2-  O175  1  0.92819870  0.31585545  0.43272914  1
  O2-  O176  1  0.92862669  0.32229528  0.75575713  1
  O2-  O177  1  0.93449195  0.82282784  0.09868741  1
  O2-  O178  1  0.92669041  0.82295077  0.42343955  1
  O2-  O179  1  0.92845579  0.82073861  0.75565654  1
  O2-  O180  1  0.32682493  0.07204438  0.24424627  1
  O2-  O181  1  0.32276836  0.07146402  0.57514355  1
  O2-  O182  1  0.32160206  0.06964422  0.89890981  1
  O2-  O183  1  0.32149129  0.56836681  0.23606250  1
  O2-  O184  1  0.31836897  0.56862730  0.56909232  1
  O2-  O185  1  0.32160614  0.57045173  0.90056969  1
  O2-  O186  1  0.81874180  0.06929779  0.23421282  1
  O2-  O187  1  0.81919915  0.07217070  0.57014987  1
  O2-  O188  1  0.81883851  0.06935871  0.90165743  1
  O2-  O189  1  0.81901206  0.57623781  0.24242185  1
  O2-  O190  1  0.82264722  0.56695466  0.56417435  1
  O2-  O191  1  0.81964458  0.57488952  0.90181359  1
  O2-  O192  1  0.04650594  0.08197610  0.27147455  1
  O2-  O193  1  0.03929160  0.08053913  0.60024498  1
  O2-  O194  1  0.04789381  0.08266354  0.94056433  1
  O2-  O195  1  0.04521454  0.58356149  0.26269376  1
  O2-  O196  1  0.04192380  0.58275338  0.60061266  1
  O2-  O197  1  0.05846164  0.58281562  0.93742524  1
  O2-  O198  1  0.54751779  0.08554633  0.26931347  1
  O2-  O199  1  0.53887737  0.08382495  0.59539968  1
  O2-  O200  1  0.54438438  0.08209883  0.93891268  1
  O2-  O201  1  0.54191962  0.58447101  0.27153084  1
  O2-  O202  1  0.53927494  0.58329520  0.59738719  1
  O2-  O203  1  0.53862222  0.58941190  0.93858167  1
  O2-  O204  1  0.17052041  0.19709294  0.27463773  1
  O2-  O205  1  0.16600253  0.20567306  0.59502159  1
  O2-  O206  1  0.16489679  0.20326963  0.93778290  1
  O2-  O207  1  0.16812653  0.71534071  0.26493889  1
  O2-  O208  1  0.16789012  0.71432106  0.60180776  1
  O2-  O209  1  0.16694642  0.71107481  0.93617052  1
  O2-  O210  1  0.66184830  0.21051830  0.27100377  1
  O2-  O211  1  0.66538217  0.21204188  0.59656036  1
  O2-  O212  1  0.66418506  0.20199184  0.93803590  1
  O2-  O213  1  0.66271859  0.70474885  0.26658618  1
  O2-  O214  1  0.66734881  0.70945757  0.59570444  1
  O2-  O215  1  0.66140059  0.70612204  0.94013053  1
  O2-  O216  1  0.08379790  0.45023907  0.05931006  1
  O2-  O217  1  0.07485208  0.45268964  0.39850169  1
  O2-  O218  1  0.08320927  0.45067118  0.72956880  1
  O2-  O219  1  0.08553858  0.95349097  0.06439907  1
  O2-  O220  1  0.08585793  0.95810954  0.40395684  1
  O2-  O221  1  0.08334209  0.95889189  0.73718793  1
  O2-  O222  1  0.58516978  0.46379407  0.06844449  1
  O2-  O223  1  0.58579795  0.45927479  0.40596423  1
  O2-  O224  1  0.58226811  0.45356280  0.72658623  1
  O2-  O225  1  0.58280574  0.95126382  0.06527386  1
  O2-  O226  1  0.58276972  0.95259693  0.39614315  1
  O2-  O227  1  0.57706971  0.95638488  0.73162107  1
  O2-  O228  1  0.20487211  0.33370467  0.06256591  1
  O2-  O229  1  0.20595144  0.32992566  0.40195362  1
  O2-  O230  1  0.20254381  0.33110493  0.72833506  1
  O2-  O231  1  0.20740659  0.83655568  0.06521428  1
  O2-  O232  1  0.21697567  0.83709181  0.40070674  1
  O2-  O233  1  0.21373914  0.83627594  0.74034111  1
  O2-  O234  1  0.70308216  0.32942991  0.06588629  1
  O2-  O235  1  0.71248111  0.33421188  0.40406900  1
  O2-  O236  1  0.70037170  0.33507505  0.72927854  1
  O2-  O237  1  0.70102336  0.83306409  0.06393716  1
  O2-  O238  1  0.69850443  0.83023426  0.39282389  1
  O2-  O239  1  0.70177288  0.82966307  0.73319401  1
  O2-  O240  1  0.46221618  0.41246476  0.27319621  1
  O2-  O241  1  0.45415497  0.41562272  0.59924387  1
  O2-  O242  1  0.46288481  0.41720730  0.93204800  1
  O2-  O243  1  0.45921897  0.91183934  0.26686512  1
  O2-  O244  1  0.44885248  0.91583232  0.60245875  1
  O2-  O245  1  0.45508993  0.91450549  0.93702627  1
  O2-  O246  1  0.95499588  0.41527507  0.26292067  1
  O2-  O247  1  0.95493633  0.41477626  0.60286492  1
  O2-  O248  1  0.95779668  0.41775201  0.93061511  1
  O2-  O249  1  0.95923068  0.91636754  0.27309984  1
  O2-  O250  1  0.95388465  0.91695773  0.60690883  1
  O2-  O251  1  0.96311089  0.91534190  0.92949813  1
  O2-  O252  1  0.33669547  0.29708119  0.27196501  1
  O2-  O253  1  0.33301608  0.29891418  0.59966881  1
  O2-  O254  1  0.33289008  0.29199328  0.93135491  1
  O2-  O255  1  0.33921220  0.79408878  0.26698019  1
  O2-  O256  1  0.33487282  0.79158440  0.60532812  1
  O2-  O257  1  0.33553117  0.79573136  0.93873045  1
  O2-  O258  1  0.83299687  0.28254615  0.26701410  1
  O2-  O259  1  0.83261813  0.29888789  0.60527542  1
  O2-  O260  1  0.83085307  0.28931677  0.93144489  1
  O2-  O261  1  0.83262949  0.80354883  0.27065901  1
  O2-  O262  1  0.83328104  0.79938606  0.60397298  1
  O2-  O263  1  0.83035625  0.79420226  0.93288806  1
  O2-  O264  1  0.41633500  0.03990196  0.06943310  1
  O2-  O265  1  0.41906331  0.04311687  0.39449256  1
  O2-  O266  1  0.41440590  0.04730227  0.72761371  1
  O2-  O267  1  0.41587757  0.53871318  0.06864660  1
  O2-  O268  1  0.41730786  0.53937201  0.40350170  1
  O2-  O269  1  0.41684905  0.53784343  0.73403239  1
  O2-  O270  1  0.91720477  0.03704101  0.06773410  1
  O2-  O271  1  0.91612519  0.04170702  0.40257829  1
  O2-  O272  1  0.91804282  0.04579195  0.73791646  1
  O2-  O273  1  0.92703860  0.55209483  0.06213862  1
  O2-  O274  1  0.91677392  0.54831959  0.39030705  1
  O2-  O275  1  0.91757036  0.53999007  0.73432699  1
  O2-  O276  1  0.29201943  0.16826802  0.06731505  1
  O2-  O277  1  0.30714105  0.16841191  0.39548037  1
  O2-  O278  1  0.29797749  0.16951102  0.72390728  1
  O2-  O279  1  0.29278593  0.66789168  0.06795747  1
  O2-  O280  1  0.29760848  0.67173116  0.39954370  1
  O2-  O281  1  0.28984045  0.66496995  0.73694266  1
  O2-  O282  1  0.78833387  0.16471195  0.06931772  1
  O2-  O283  1  0.78435943  0.16268436  0.40362467  1
  O2-  O284  1  0.78864124  0.17140784  0.73452399  1
  O2-  O285  1  0.79186402  0.67015340  0.06979465  1
  O2-  O286  1  0.79653686  0.66868175  0.39336176  1
  O2-  O287  1  0.79155625  0.66704314  0.73003526  1
