# generated using pymatgen
data_Ca2Al2SiO7
_symmetry_space_group_name_H-M   'P 1'
_cell_length_a   15.45702375
_cell_length_b   15.45631777
_cell_length_c   15.28282457
_cell_angle_alpha   90.00084711
_cell_angle_beta   89.98508484
_cell_angle_gamma   90.00609279
_symmetry_Int_Tables_number   1
_chemical_formula_structural   Ca2Al2SiO7
_chemical_formula_sum   'Ca48 Al48 Si24 O168'
_cell_volume   3651.19916088
_cell_formula_units_Z   24
loop_
 _symmetry_equiv_pos_site_id
 _symmetry_equiv_pos_as_xyz
  1  'x, y, z'
loop_
 _atom_type_symbol
 _atom_type_oxidation_number
  Ca2+  2.0
  Al0+  0.0
  Si0+  0.0
  O2-  -2.0
loop_
 _atom_site_type_symbol
 _atom_site_label
 _atom_site_symmetry_multiplicity
 _atom_site_fract_x
 _atom_site_fract_y
 _atom_site_fract_z
 _atom_site_occupancy
  Ca2+  Ca0  1  0.16862857  0.08229429  0.17996250  1
  Ca2+  Ca1  1  0.17159718  0.08492338  0.49742432  1
  Ca2+  Ca2  1  0.17146882  0.08510818  0.83109384  1
  Ca2+  Ca3  1  0.17528933  0.57554201  0.17312765  1
  Ca2+  Ca4  1  0.16654034  0.57652541  0.50623518  1
  Ca2+  Ca5  1  0.17930477  0.59067597  0.83525706  1
  Ca2+  Ca6  1  0.67113334  0.07769552  0.17286371  1
  Ca2+  Ca7  1  0.68065541  0.08021979  0.50786777  1
  Ca2+  Ca8  1  0.66835494  0.07059363  0.83475551  1
  Ca2+  Ca9  1  0.66784185  0.57991760  0.17649250  1
  Ca2+  Ca10  1  0.67461092  0.58269932  0.49553791  1
  Ca2+  Ca11  1  0.67301879  0.58697442  0.83531436  1
  Ca2+  Ca12  1  0.07484698  0.33509652  0.17077757  1
  Ca2+  Ca13  1  0.07875027  0.32785773  0.48774642  1
  Ca2+  Ca14  1  0.07741072  0.33404688  0.83227460  1
  Ca2+  Ca15  1  0.07771502  0.84018391  0.16968983  1
  Ca2+  Ca16  1  0.07553493  0.82961744  0.49385273  1
  Ca2+  Ca17  1  0.07672154  0.82559397  0.82118928  1
  Ca2+  Ca18  1  0.57370136  0.33848500  0.16518112  1
  Ca2+  Ca19  1  0.57194209  0.33973313  0.49323932  1
  Ca2+  Ca20  1  0.57041278  0.33473960  0.82870599  1
  Ca2+  Ca21  1  0.58936553  0.82118310  0.16238503  1
  Ca2+  Ca22  1  0.58814269  0.82865728  0.49502318  1
  Ca2+  Ca23  1  0.59083503  0.83128229  0.83096282  1
  Ca2+  Ca24  1  0.33452931  0.41644541  0.17352664  1
  Ca2+  Ca25  1  0.32956245  0.41508751  0.50304848  1
  Ca2+  Ca26  1  0.33860600  0.42367409  0.83536389  1
  Ca2+  Ca27  1  0.32452069  0.92549112  0.17853601  1
  Ca2+  Ca28  1  0.32975184  0.92788959  0.50261663  1
  Ca2+  Ca29  1  0.33529552  0.92331285  0.83563143  1
  Ca2+  Ca30  1  0.82932778  0.41940968  0.18127579  1
  Ca2+  Ca31  1  0.83367313  0.42464131  0.50233594  1
  Ca2+  Ca32  1  0.83699752  0.42260512  0.83776107  1
  Ca2+  Ca33  1  0.83092419  0.91989651  0.17516233  1
  Ca2+  Ca34  1  0.83722323  0.92353891  0.50528363  1
  Ca2+  Ca35  1  0.82669398  0.91448398  0.83123590  1
  Ca2+  Ca36  1  0.40912076  0.17840235  0.16666146  1
  Ca2+  Ca37  1  0.41136038  0.17303212  0.49366824  1
  Ca2+  Ca38  1  0.41347194  0.17696368  0.82457720  1
  Ca2+  Ca39  1  0.42981350  0.66042710  0.16112203  1
  Ca2+  Ca40  1  0.42249982  0.66438164  0.49463614  1
  Ca2+  Ca41  1  0.42178325  0.65995946  0.82893631  1
  Ca2+  Ca42  1  0.91564009  0.17502456  0.16884325  1
  Ca2+  Ca43  1  0.91867150  0.16644759  0.48694405  1
  Ca2+  Ca44  1  0.91319287  0.17075006  0.83006565  1
  Ca2+  Ca45  1  0.91340973  0.67003440  0.16877929  1
  Ca2+  Ca46  1  0.90785029  0.67601836  0.49695076  1
  Ca2+  Ca47  1  0.92321487  0.67056819  0.81915915  1
  Al0+  Al48  1  -0.00008010  0.00135502  -0.00267324  1
  Al0+  Al49  1  -0.00001846  -0.00171287  0.33165728  1
  Al0+  Al50  1  0.00014435  0.00039482  0.66922460  1
  Al0+  Al51  1  0.00224713  0.50070209  -0.00394550  1
  Al0+  Al52  1  0.00154392  0.50285995  0.33747533  1
  Al0+  Al53  1  0.00042873  0.49802096  0.66809781  1
  Al0+  Al54  1  0.50048483  -0.00117615  0.00721450  1
  Al0+  Al55  1  0.49892845  -0.00001129  0.33606351  1
  Al0+  Al56  1  0.50023710  0.00024747  0.67447662  1
  Al0+  Al57  1  0.50209219  0.50099520  -0.00615965  1
  Al0+  Al58  1  0.50163935  0.50025056  0.32897377  1
  Al0+  Al59  1  0.49835578  0.49930437  0.66461781  1
  Al0+  Al60  1  0.24787314  0.25097113  -0.00541254  1
  Al0+  Al61  1  0.24936709  0.25167178  0.33176566  1
  Al0+  Al62  1  0.24801878  0.25099772  0.66802536  1
  Al0+  Al63  1  0.25172646  0.75076502  0.00670300  1
  Al0+  Al64  1  0.24990593  0.75111566  0.33590607  1
  Al0+  Al65  1  0.25149454  0.74836729  0.66578060  1
  Al0+  Al66  1  0.74989918  0.24978323  -0.00570941  1
  Al0+  Al67  1  0.74615681  0.24960241  0.33809518  1
  Al0+  Al68  1  0.74726231  0.24933939  0.67202560  1
  Al0+  Al69  1  0.75022033  0.75029985  -0.00070215  1
  Al0+  Al70  1  0.75001280  0.74870188  0.32684545  1
  Al0+  Al71  1  0.75049011  0.74807502  0.66967376  1
  Al0+  Al72  1  0.82045609  0.56820304  0.68117592  1
  Al0+  Al73  1  0.42933225  0.32001657  0.65057006  1
  Al0+  Al74  1  0.67674810  0.42790083  0.34744959  1
  Al0+  Al75  1  0.82441725  0.07317977  0.68377462  1
  Al0+  Al76  1  0.81943707  0.07056646  0.34436985  1
  Al0+  Al77  1  0.32316326  0.56966450  0.01473945  1
  Al0+  Al78  1  0.17690022  0.92734591  0.34983252  1
  Al0+  Al79  1  0.06989971  0.17930066  0.31898661  1
  Al0+  Al80  1  0.57103234  0.68058423  0.98306870  1
  Al0+  Al81  1  0.67972799  0.92786401  0.68078632  1
  Al0+  Al82  1  0.17951507  0.43038211  0.34610987  1
  Al0+  Al83  1  0.32115545  0.07271711  0.34782070  1
  Al0+  Al84  1  0.42921148  0.31961625  0.98444039  1
  Al0+  Al85  1  0.93025886  0.81961370  0.31835592  1
  Al0+  Al86  1  0.31958215  0.07204039  0.68151941  1
  Al0+  Al87  1  0.32098868  0.57048071  0.67922172  1
  Al0+  Al88  1  0.92581239  0.32366306  0.32235062  1
  Al0+  Al89  1  0.07380540  0.67688531  0.65066076  1
  Al0+  Al90  1  0.92862472  0.81984384  0.65108624  1
  Al0+  Al91  1  0.82173139  0.57210376  0.34692814  1
  Al0+  Al92  1  0.42992626  0.31928114  0.31974505  1
  Al0+  Al93  1  0.68044840  0.92817595  0.01721626  1
  Al0+  Al94  1  0.56884647  0.68165885  0.31982653  1
  Al0+  Al95  1  0.92837779  0.32199417  0.98627529  1
  Si0+  Si96  1  0.42599521  0.82444644  0.31708499  1
  Si0+  Si97  1  0.82248477  0.07294056  0.01789167  1
  Si0+  Si98  1  0.17772130  0.42732294  0.68556953  1
  Si0+  Si99  1  0.17939922  0.92729714  0.68387957  1
  Si0+  Si100  1  0.68068589  0.42884996  0.01243484  1
  Si0+  Si101  1  0.42900504  0.82345519  0.65277835  1
  Si0+  Si102  1  0.17800792  0.92970396  0.01415187  1
  Si0+  Si103  1  0.57252646  0.17468968  0.31778189  1
  Si0+  Si104  1  0.17747401  0.42800842  0.01689946  1
  Si0+  Si105  1  0.67843587  0.92649208  0.34821746  1
  Si0+  Si106  1  0.67605414  0.42847199  0.68500724  1
  Si0+  Si107  1  0.57055814  0.67932642  0.65096165  1
  Si0+  Si108  1  0.06972683  0.17996299  0.65218067  1
  Si0+  Si109  1  0.57203874  0.17489802  0.98292833  1
  Si0+  Si110  1  0.07091406  0.17680125  0.98073475  1
  Si0+  Si111  1  0.57098667  0.17609489  0.65062194  1
  Si0+  Si112  1  0.31952694  0.07305561  0.01475010  1
  Si0+  Si113  1  0.82323733  0.57010613  0.01405992  1
  Si0+  Si114  1  0.32376611  0.57132258  0.34860559  1
  Si0+  Si115  1  0.92607619  0.32031954  0.65236024  1
  Si0+  Si116  1  0.93024497  0.82109519  0.98421413  1
  Si0+  Si117  1  0.07580721  0.67728334  0.31485802  1
  Si0+  Si118  1  0.07329180  0.68000401  0.98635462  1
  Si0+  Si119  1  0.42690956  0.82257303  0.98440591  1
  O2-  O120  1  0.24849827  0.00155018  0.05551108  1
  O2-  O121  1  0.25043005  -0.00094447  0.39737394  1
  O2-  O122  1  0.24785697  -0.00470765  0.73056711  1
  O2-  O123  1  0.24985573  0.49321626  0.06034340  1
  O2-  O124  1  0.25243533  0.50657586  0.39326773  1
  O2-  O125  1  0.24421412  0.49901206  0.72833442  1
  O2-  O126  1  0.75423092  0.00428658  0.06237923  1
  O2-  O127  1  0.74399937  -0.00283333  0.39219958  1
  O2-  O128  1  0.75239851  -0.00036753  0.73139263  1
  O2-  O129  1  0.75527728  0.49590799  0.05514306  1
  O2-  O130  1  0.75462377  0.49468248  0.39589816  1
  O2-  O131  1  0.74826609  0.49258830  0.73091274  1
  O2-  O132  1  -0.00361320  0.25097162  0.27024917  1
  O2-  O133  1  -0.00735698  0.24490979  0.61151945  1
  O2-  O134  1  0.00141425  0.24570160  0.93831233  1
  O2-  O135  1  0.00640821  0.74582640  0.27073400  1
  O2-  O136  1  0.00068307  0.74772149  0.60114209  1
  O2-  O137  1  0.00238927  0.75069628  0.94344804  1
  O2-  O138  1  0.50362480  0.24322077  0.27287305  1
  O2-  O139  1  0.50341551  0.24456508  0.60480318  1
  O2-  O140  1  0.50165164  0.24191368  0.93821073  1
  O2-  O141  1  0.49388218  0.75587897  0.27184090  1
  O2-  O142  1  0.50054302  0.75268056  0.61074417  1
  O2-  O143  1  0.49514638  0.75517496  0.93721966  1
  O2-  O144  1  0.07263818  0.17348363  0.08545818  1
  O2-  O145  1  0.06964858  0.18066765  0.43295085  1
  O2-  O146  1  0.07186848  0.18312779  0.75783307  1
  O2-  O147  1  0.07224633  0.67930593  0.09115949  1
  O2-  O148  1  0.07884481  0.67783029  0.41982683  1
  O2-  O149  1  0.07389222  0.68082341  0.76558057  1
  O2-  O150  1  0.57303608  0.17634261  0.08841108  1
  O2-  O151  1  0.57139685  0.17283172  0.42307226  1
  O2-  O152  1  0.56840952  0.17756479  0.75668920  1
  O2-  O153  1  0.57163501  0.67997464  0.09585172  1
  O2-  O154  1  0.56827830  0.68294792  0.43335319  1
  O2-  O155  1  0.56976690  0.67877895  0.75633529  1
  O2-  O156  1  0.18092194  0.43166675  0.23252281  1
  O2-  O157  1  0.17900547  0.42484653  0.58021970  1
  O2-  O158  1  0.17534415  0.42993517  0.91127182  1
  O2-  O159  1  0.17932761  0.92917384  0.23500507  1
  O2-  O160  1  0.18046517  0.92841021  0.57909091  1
  O2-  O161  1  0.17846431  0.92878793  0.90899636  1
  O2-  O162  1  0.67460597  0.43146852  0.23305116  1
  O2-  O163  1  0.67554494  0.43014560  0.57988488  1
  O2-  O164  1  0.68144424  0.43131339  0.90714249  1
  O2-  O165  1  0.68062831  0.92709092  0.24226400  1
  O2-  O166  1  0.67890312  0.92914567  0.56738137  1
  O2-  O167  1  0.68267287  0.92806384  0.90441032  1
  O2-  O168  1  0.42912593  0.31908722  0.09739719  1
  O2-  O169  1  0.42992358  0.32022386  0.43264711  1
  O2-  O170  1  0.43106935  0.32013170  0.76421522  1
  O2-  O171  1  0.42627079  0.82144485  0.08963085  1
  O2-  O172  1  0.42744928  0.82433499  0.42287255  1
  O2-  O173  1  0.42819204  0.82307289  0.75814842  1
  O2-  O174  1  0.92821359  0.32299726  0.09869201  1
  O2-  O175  1  0.92856608  0.32176921  0.43608916  1
  O2-  O176  1  0.92965244  0.32145775  0.75800735  1
  O2-  O177  1  0.93104999  0.82195949  0.08920799  1
  O2-  O178  1  0.92823502  0.81909861  0.43079793  1
  O2-  O179  1  0.93054181  0.81733632  0.76582928  1
  O2-  O180  1  0.31975650  0.07164683  0.23338375  1
  O2-  O181  1  0.31760434  0.07215172  0.56934658  1
  O2-  O182  1  0.31856112  0.07220957  0.90939481  1
  O2-  O183  1  0.32380275  0.56899659  0.24252112  1
  O2-  O184  1  0.32346095  0.56810121  0.56655377  1
  O2-  O185  1  0.32084567  0.57060071  0.90156305  1
  O2-  O186  1  0.81759892  0.06956310  0.23077924  1
  O2-  O187  1  0.82431476  0.07447943  0.57042471  1
  O2-  O188  1  0.82303936  0.07145773  0.91247187  1
  O2-  O189  1  0.81866509  0.57273090  0.23244652  1
  O2-  O190  1  0.81786536  0.56900319  0.56884815  1
  O2-  O191  1  0.82277710  0.56986964  0.90872133  1
  O2-  O192  1  0.04326344  0.08098355  0.26534209  1
  O2-  O193  1  0.04986805  0.08535770  0.60822111  1
  O2-  O194  1  0.04552001  0.08376632  0.93160527  1
  O2-  O195  1  0.04971695  0.58421552  0.26803145  1
  O2-  O196  1  0.04800517  0.57605977  0.60263121  1
  O2-  O197  1  0.04751892  0.58878851  0.93689089  1
  O2-  O198  1  0.54778694  0.08065684  0.27034495  1
  O2-  O199  1  0.54613448  0.08164575  0.60688167  1
  O2-  O200  1  0.54627790  0.07992960  0.93940204  1
  O2-  O201  1  0.53777656  0.58628866  0.26326905  1
  O2-  O202  1  0.53943447  0.58893670  0.60367825  1
  O2-  O203  1  0.54128639  0.58498860  0.92677238  1
  O2-  O204  1  0.16673451  0.21029069  0.26426863  1
  O2-  O205  1  0.15910007  0.21350708  0.60428583  1
  O2-  O206  1  0.16319908  0.20425490  0.93186258  1
  O2-  O207  1  0.16957171  0.70353120  0.26761063  1
  O2-  O208  1  0.17271590  0.70402214  0.59844116  1
  O2-  O209  1  0.16567506  0.71000672  0.94046084  1
  O2-  O210  1  0.66540767  0.19984534  0.27019493  1
  O2-  O211  1  0.66604908  0.20089247  0.60701064  1
  O2-  O212  1  0.66487963  0.20027396  0.93491370  1
  O2-  O213  1  0.66364782  0.71192193  0.26191217  1
  O2-  O214  1  0.66246898  0.70636258  0.60476083  1
  O2-  O215  1  0.66812046  0.71292949  0.92962111  1
  O2-  O216  1  0.08535843  0.45883499  0.06347836  1
  O2-  O217  1  0.08413930  0.45918703  0.40291586  1
  O2-  O218  1  0.08353930  0.44971480  0.73210086  1
  O2-  O219  1  0.08553632  0.95791294  0.06034917  1
  O2-  O220  1  0.07924870  0.95550784  0.40179380  1
  O2-  O221  1  0.08666348  0.95390951  0.73166601  1
  O2-  O222  1  0.58988140  0.46043016  0.05865405  1
  O2-  O223  1  0.58148863  0.46513803  0.40168750  1
  O2-  O224  1  0.58427964  0.45995103  0.73152022  1
  O2-  O225  1  0.58267608  0.95513876  0.07169711  1
  O2-  O226  1  0.58296034  0.94653399  0.39248206  1
  O2-  O227  1  0.58250725  0.95592141  0.73822662  1
  O2-  O228  1  0.19890979  0.33193689  0.05920611  1
  O2-  O229  1  0.21117036  0.33505501  0.40061124  1
  O2-  O230  1  0.20632144  0.33589889  0.73474041  1
  O2-  O231  1  0.20485967  0.83920275  0.06428023  1
  O2-  O232  1  0.20458785  0.82893563  0.40304933  1
  O2-  O233  1  0.20619219  0.83394573  0.73023451  1
  O2-  O234  1  0.70286575  0.33440726  0.05712260  1
  O2-  O235  1  0.69394514  0.32808876  0.40099535  1
  O2-  O236  1  0.69534706  0.33335894  0.73098760  1
  O2-  O237  1  0.71428948  0.83171288  0.06992737  1
  O2-  O238  1  0.70633436  0.83348074  0.39244153  1
  O2-  O239  1  0.70823118  0.83014175  0.73579925  1
  O2-  O240  1  0.46267799  0.41473850  0.26410036  1
  O2-  O241  1  0.46148310  0.41620464  0.59689781  1
  O2-  O242  1  0.46433300  0.41440144  0.92959680  1
  O2-  O243  1  0.45035081  0.91843715  0.27051688  1
  O2-  O244  1  0.45640739  0.91596759  0.60683108  1
  O2-  O245  1  0.45201618  0.91777965  0.94045938  1
  O2-  O246  1  0.95623149  0.42244074  0.27015729  1
  O2-  O247  1  0.95710458  0.41084840  0.60549890  1
  O2-  O248  1  0.96268487  0.41746851  0.92981579  1
  O2-  O249  1  0.96145534  0.91471760  0.26125203  1
  O2-  O250  1  0.95644782  0.92035600  0.60267948  1
  O2-  O251  1  0.95735268  0.91340886  0.93681200  1
  O2-  O252  1  0.33421013  0.28953840  0.26353362  1
  O2-  O253  1  0.33080732  0.28964255  0.60106366  1
  O2-  O254  1  0.33135404  0.29200141  0.93044317  1
  O2-  O255  1  0.33162329  0.80057753  0.27133073  1
  O2-  O256  1  0.33822785  0.79520149  0.60447732  1
  O2-  O257  1  0.33222461  0.79839069  0.93889331  1
  O2-  O258  1  0.82585807  0.29656303  0.27116924  1
  O2-  O259  1  0.83081644  0.29892622  0.60995159  1
  O2-  O260  1  0.83215933  0.29338207  0.92923391  1
  O2-  O261  1  0.83553910  0.78693199  0.26093399  1
  O2-  O262  1  0.82993456  0.78957288  0.60015839  1
  O2-  O263  1  0.83930881  0.79129497  0.93746936  1
  O2-  O264  1  0.41126189  0.04737655  0.06253127  1
  O2-  O265  1  0.41966813  0.04524292  0.40186216  1
  O2-  O266  1  0.41542701  0.04310360  0.73793825  1
  O2-  O267  1  0.42119638  0.53872843  0.06529156  1
  O2-  O268  1  0.41597489  0.54276541  0.39417470  1
  O2-  O269  1  0.41654869  0.53651449  0.73447697  1
  O2-  O270  1  0.91723033  0.04698598  0.06153447  1
  O2-  O271  1  0.91539467  0.03853472  0.39692311  1
  O2-  O272  1  0.92292149  0.04666919  0.73844948  1
  O2-  O273  1  0.91705951  0.54621421  0.05907165  1
  O2-  O274  1  0.92155856  0.55356377  0.39944610  1
  O2-  O275  1  0.91779438  0.53830732  0.73581450  1
  O2-  O276  1  0.28965444  0.16521715  0.05993481  1
  O2-  O277  1  0.29050986  0.16998923  0.40000830  1
  O2-  O278  1  0.28362756  0.16679041  0.73698625  1
  O2-  O279  1  0.29273992  0.66618445  0.06970583  1
  O2-  O280  1  0.30379841  0.66716582  0.39199621  1
  O2-  O281  1  0.29418568  0.66818082  0.73491377  1
  O2-  O282  1  0.79593875  0.16768244  0.06103898  1
  O2-  O283  1  0.79087894  0.16603684  0.40098707  1
  O2-  O284  1  0.79316696  0.17072952  0.73870910  1
  O2-  O285  1  0.79321478  0.66155089  0.05990537  1
  O2-  O286  1  0.78417761  0.66813084  0.39912670  1
  O2-  O287  1  0.78846248  0.66340438  0.73720017  1
