# generated using pymatgen
data_Ca2Al2SiO7
_symmetry_space_group_name_H-M   'P 1'
_cell_length_a   15.46859383
_cell_length_b   15.46552465
_cell_length_c   15.29053054
_cell_angle_alpha   90.01248007
_cell_angle_beta   90.00203862
_cell_angle_gamma   89.98543754
_symmetry_Int_Tables_number   1
_chemical_formula_structural   Ca2Al2SiO7
_chemical_formula_sum   'Ca48 Al48 Si24 O168'
_cell_volume   3657.95217780
_cell_formula_units_Z   24
loop_
 _symmetry_equiv_pos_site_id
 _symmetry_equiv_pos_as_xyz
  1  'x, y, z'
loop_
 _atom_type_symbol
 _atom_type_oxidation_number
  Ca2+  2.0
  Al0+  0.0
  Si0+  0.0
  O2-  -2.0
loop_
 _atom_site_type_symbol
 _atom_site_label
 _atom_site_symmetry_multiplicity
 _atom_site_fract_x
 _atom_site_fract_y
 _atom_site_fract_z
 _atom_site_occupancy
  Ca2+  Ca0  1  0.15336807  0.07590225  0.17125548  1
  Ca2+  Ca1  1  0.15193838  0.07583274  0.50398856  1
  Ca2+  Ca2  1  0.15078153  0.07402153  0.83362652  1
  Ca2+  Ca3  1  0.16421844  0.57422629  0.17167077  1
  Ca2+  Ca4  1  0.16906506  0.56963075  0.51077268  1
  Ca2+  Ca5  1  0.16033151  0.57939307  0.83426009  1
  Ca2+  Ca6  1  0.67456837  0.08906156  0.17748832  1
  Ca2+  Ca7  1  0.68012184  0.09390898  0.50274921  1
  Ca2+  Ca8  1  0.67476633  0.08457437  0.83396944  1
  Ca2+  Ca9  1  0.67658020  0.57659262  0.17150375  1
  Ca2+  Ca10  1  0.66557588  0.57884018  0.50384133  1
  Ca2+  Ca11  1  0.67611221  0.58550121  0.83733595  1
  Ca2+  Ca12  1  0.08456549  0.32146988  0.15894466  1
  Ca2+  Ca13  1  0.08847255  0.32448181  0.49562064  1
  Ca2+  Ca14  1  0.07336619  0.32600003  0.82259494  1
  Ca2+  Ca15  1  0.08276695  0.83243138  0.16375231  1
  Ca2+  Ca16  1  0.07814050  0.83834764  0.49719817  1
  Ca2+  Ca17  1  0.08655197  0.82408088  0.82501975  1
  Ca2+  Ca18  1  0.57703556  0.33628789  0.16905192  1
  Ca2+  Ca19  1  0.57210300  0.33394420  0.49125507  1
  Ca2+  Ca20  1  0.56986872  0.34030946  0.82861844  1
  Ca2+  Ca21  1  0.58030096  0.83401921  0.16407082  1
  Ca2+  Ca22  1  0.58472638  0.82568434  0.49934185  1
  Ca2+  Ca23  1  0.57941459  0.82567795  0.82414638  1
  Ca2+  Ca24  1  0.33147114  0.41305914  0.17250524  1
  Ca2+  Ca25  1  0.32541674  0.41225189  0.50655597  1
  Ca2+  Ca26  1  0.32957968  0.41438867  0.82822960  1
  Ca2+  Ca27  1  0.31953004  0.92112302  0.17208485  1
  Ca2+  Ca28  1  0.32038033  0.92105385  0.50648547  1
  Ca2+  Ca29  1  0.31858372  0.91688964  0.83738208  1
  Ca2+  Ca30  1  0.83677201  0.42070171  0.17083359  1
  Ca2+  Ca31  1  0.82384591  0.40649103  0.50547292  1
  Ca2+  Ca32  1  0.84088854  0.41948940  0.84030511  1
  Ca2+  Ca33  1  0.83714960  0.92487928  0.17730409  1
  Ca2+  Ca34  1  0.84399970  0.92653086  0.50497601  1
  Ca2+  Ca35  1  0.84376657  0.92187064  0.83000404  1
  Ca2+  Ca36  1  0.41761528  0.17985074  0.16454944  1
  Ca2+  Ca37  1  0.41979667  0.17804705  0.49227632  1
  Ca2+  Ca38  1  0.41511605  0.17804338  0.82834612  1
  Ca2+  Ca39  1  0.41718003  0.66752215  0.16390228  1
  Ca2+  Ca40  1  0.41721830  0.65898283  0.50362346  1
  Ca2+  Ca41  1  0.42426328  0.65935434  0.82253909  1
  Ca2+  Ca42  1  0.92400182  0.17049415  0.16537264  1
  Ca2+  Ca43  1  0.92275144  0.16515554  0.50018026  1
  Ca2+  Ca44  1  0.92279145  0.17321527  0.82757024  1
  Ca2+  Ca45  1  0.92206515  0.67088751  0.16036330  1
  Ca2+  Ca46  1  0.92279400  0.67950518  0.50021385  1
  Ca2+  Ca47  1  0.92797268  0.66881757  0.82672694  1
  Al0+  Al48  1  -0.00298165  -0.00086002  0.00336716  1
  Al0+  Al49  1  -0.00233665  0.00022686  0.33249898  1
  Al0+  Al50  1  -0.00181282  0.00131044  0.67158792  1
  Al0+  Al51  1  0.00058138  0.50170046  0.00114546  1
  Al0+  Al52  1  0.00137389  0.50289092  0.34049600  1
  Al0+  Al53  1  -0.00335863  0.49998522  0.66161417  1
  Al0+  Al54  1  0.49838938  0.00032731  0.00029743  1
  Al0+  Al55  1  0.50081551  -0.00142198  0.33026740  1
  Al0+  Al56  1  0.50070870  -0.00122369  0.66777168  1
  Al0+  Al57  1  0.50013620  0.50018654  -0.00228243  1
  Al0+  Al58  1  0.50272144  0.50188168  0.33111776  1
  Al0+  Al59  1  0.49981474  0.49877747  0.66143574  1
  Al0+  Al60  1  0.25216757  0.24759095  -0.00932670  1
  Al0+  Al61  1  0.25091298  0.24875568  0.32687265  1
  Al0+  Al62  1  0.24989817  0.24914919  0.66361142  1
  Al0+  Al63  1  0.24985273  0.75090378  0.00237083  1
  Al0+  Al64  1  0.25060109  0.75023824  0.33691559  1
  Al0+  Al65  1  0.25332558  0.74865960  0.66985690  1
  Al0+  Al66  1  0.74721655  0.24977353  -0.00082174  1
  Al0+  Al67  1  0.75045143  0.25191439  0.33797022  1
  Al0+  Al68  1  0.74936420  0.24888060  0.67359118  1
  Al0+  Al69  1  0.74923835  0.74927155  0.00586820  1
  Al0+  Al70  1  0.75058377  0.75161061  0.32850023  1
  Al0+  Al71  1  0.74847220  0.74919562  0.65890874  1
  Al0+  Al72  1  0.92838293  0.32181227  0.98808401  1
  Al0+  Al73  1  0.82286399  0.57051098  0.01401837  1
  Al0+  Al74  1  0.06940260  0.18013688  0.31922363  1
  Al0+  Al75  1  0.07559315  0.67721892  0.65037770  1
  Al0+  Al76  1  0.42937710  0.32207961  0.31695993  1
  Al0+  Al77  1  0.81942251  0.07042109  0.68361520  1
  Al0+  Al78  1  0.43016241  0.32203446  0.98315532  1
  Al0+  Al79  1  0.32147485  0.56834983  0.68139258  1
  Al0+  Al80  1  0.92538645  0.32237597  0.65116411  1
  Al0+  Al81  1  0.18003250  0.42693322  0.34433316  1
  Al0+  Al82  1  0.81906994  0.07040949  0.34755868  1
  Al0+  Al83  1  0.17939853  0.93020990  0.68062628  1
  Al0+  Al84  1  0.06948578  0.18026219  0.65106604  1
  Al0+  Al85  1  0.93121597  0.82052128  0.65318323  1
  Al0+  Al86  1  0.57396367  0.17912685  0.31970642  1
  Al0+  Al87  1  0.43030062  0.31908400  0.65118619  1
  Al0+  Al88  1  0.93087478  0.82038086  0.31818785  1
  Al0+  Al89  1  0.17587125  0.42699980  0.68290175  1
  Al0+  Al90  1  0.68159271  0.43184288  0.34744866  1
  Al0+  Al91  1  0.57030433  0.67885729  0.65238039  1
  Al0+  Al92  1  0.17930399  0.93109434  0.34770994  1
  Al0+  Al93  1  0.07194252  0.68044705  0.98835113  1
  Al0+  Al94  1  0.07000678  0.17608846  0.98409189  1
  Al0+  Al95  1  0.17854440  0.93006101  0.01546149  1
  Si0+  Si96  1  0.92809186  0.32542636  0.31918396  1
  Si0+  Si97  1  0.81791668  0.07072460  0.01728153  1
  Si0+  Si98  1  0.67897334  0.42960419  0.68251128  1
  Si0+  Si99  1  0.32558663  0.07195368  0.68330013  1
  Si0+  Si100  1  0.92535768  0.82091140  0.98485958  1
  Si0+  Si101  1  0.67597942  0.42910971  0.01622829  1
  Si0+  Si102  1  0.42710751  0.82106877  0.31759761  1
  Si0+  Si103  1  0.42884562  0.82138494  0.98571102  1
  Si0+  Si104  1  0.42804829  0.82371203  0.64956832  1
  Si0+  Si105  1  0.57226393  0.17537066  0.65212529  1
  Si0+  Si106  1  0.67712992  0.92527115  0.68330944  1
  Si0+  Si107  1  0.82280473  0.57578951  0.35259037  1
  Si0+  Si108  1  0.57192301  0.17568154  0.98196728  1
  Si0+  Si109  1  0.32406152  0.07263055  0.01773465  1
  Si0+  Si110  1  0.32291839  0.57064566  0.01470498  1
  Si0+  Si111  1  0.57047744  0.68071666  0.98620550  1
  Si0+  Si112  1  0.32327273  0.57245087  0.34828665  1
  Si0+  Si113  1  0.81879489  0.57310032  0.68005504  1
  Si0+  Si114  1  0.57132738  0.68017122  0.31507428  1
  Si0+  Si115  1  0.32467292  0.07151965  0.34857315  1
  Si0+  Si116  1  0.07402671  0.67784595  0.31693687  1
  Si0+  Si117  1  0.18042749  0.42778030  0.01263677  1
  Si0+  Si118  1  0.67556060  0.92597986  0.35044832  1
  Si0+  Si119  1  0.67600766  0.92852160  0.01534284  1
  O2-  O120  1  0.25009364  0.00897315  0.06131288  1
  O2-  O121  1  0.25330762  0.00656249  0.39388255  1
  O2-  O122  1  0.25464221  0.00519691  0.72723833  1
  O2-  O123  1  0.25260143  0.49860940  0.05570507  1
  O2-  O124  1  0.25570540  0.50198247  0.38923347  1
  O2-  O125  1  0.24493678  0.50271412  0.73367013  1
  O2-  O126  1  0.74575470  -0.00021818  0.05847280  1
  O2-  O127  1  0.74103885  -0.00256328  0.39335255  1
  O2-  O128  1  0.74493800  -0.00645153  0.72911352  1
  O2-  O129  1  0.75114268  0.49152796  0.05935049  1
  O2-  O130  1  0.75811795  0.50340824  0.39662948  1
  O2-  O131  1  0.75320380  0.49731377  0.72410863  1
  O2-  O132  1  0.00006600  0.26099149  0.27404212  1
  O2-  O133  1  0.00206267  0.25637885  0.60063020  1
  O2-  O134  1  0.00041098  0.25140984  0.93644736  1
  O2-  O135  1  0.00462989  0.74505682  0.27134102  1
  O2-  O136  1  0.00720889  0.75351050  0.60172701  1
  O2-  O137  1  -0.00380876  0.75433676  0.94224279  1
  O2-  O138  1  0.50136750  0.24914847  0.26758178  1
  O2-  O139  1  0.50212467  0.24094545  0.60713031  1
  O2-  O140  1  0.50508253  0.24610046  0.93831408  1
  O2-  O141  1  0.49931751  0.75100768  0.27405714  1
  O2-  O142  1  0.49542281  0.75341453  0.60562464  1
  O2-  O143  1  0.49976512  0.75081586  0.94287482  1
  O2-  O144  1  0.06706603  0.17670781  0.09810558  1
  O2-  O145  1  0.06753804  0.17822810  0.43152080  1
  O2-  O146  1  0.06537977  0.17871927  0.76459979  1
  O2-  O147  1  0.07184418  0.68037230  0.10172084  1
  O2-  O148  1  0.07462756  0.67871353  0.42179277  1
  O2-  O149  1  0.07148221  0.67855588  0.76455655  1
  O2-  O150  1  0.57202688  0.17380322  0.08725677  1
  O2-  O151  1  0.57169044  0.18104417  0.43312912  1
  O2-  O152  1  0.57069590  0.17598907  0.75812436  1
  O2-  O153  1  0.56893152  0.68187333  0.09149433  1
  O2-  O154  1  0.57162854  0.67976651  0.41980214  1
  O2-  O155  1  0.57141301  0.68077341  0.76619121  1
  O2-  O156  1  0.18035906  0.42916327  0.23021851  1
  O2-  O157  1  0.18047138  0.42550660  0.56926029  1
  O2-  O158  1  0.17978487  0.43013003  0.90821591  1
  O2-  O159  1  0.18141025  0.92980073  0.23433278  1
  O2-  O160  1  0.18025411  0.93247141  0.56744865  1
  O2-  O161  1  0.18146268  0.92742210  0.90273533  1
  O2-  O162  1  0.68119794  0.43537756  0.23401880  1
  O2-  O163  1  0.67852420  0.43095786  0.57741427  1
  O2-  O164  1  0.67167080  0.43416582  0.91079070  1
  O2-  O165  1  0.67654288  0.92392259  0.24425491  1
  O2-  O166  1  0.67504528  0.92458868  0.57819290  1
  O2-  O167  1  0.67418364  0.92686037  0.91062862  1
  O2-  O168  1  0.43219675  0.32451856  0.09593935  1
  O2-  O169  1  0.43058258  0.32218289  0.43002527  1
  O2-  O170  1  0.43383689  0.32024766  0.76460910  1
  O2-  O171  1  0.43084729  0.81969295  0.09118779  1
  O2-  O172  1  0.42711220  0.82039111  0.42212699  1
  O2-  O173  1  0.43164475  0.82556875  0.75548025  1
  O2-  O174  1  0.92929025  0.32107212  0.10205981  1
  O2-  O175  1  0.92645707  0.32280351  0.42417285  1
  O2-  O176  1  0.92356186  0.31994400  0.76498487  1
  O2-  O177  1  0.92447989  0.82014141  0.09064018  1
  O2-  O178  1  0.93121999  0.82030409  0.43067932  1
  O2-  O179  1  0.92903801  0.81689637  0.76723381  1
  O2-  O180  1  0.32697216  0.06761340  0.24289923  1
  O2-  O181  1  0.33220596  0.06795565  0.57805489  1
  O2-  O182  1  0.33220411  0.06718678  0.91286273  1
  O2-  O183  1  0.32284988  0.57516816  0.24188587  1
  O2-  O184  1  0.32447754  0.56345880  0.56775816  1
  O2-  O185  1  0.32707588  0.57167028  0.91064268  1
  O2-  O186  1  0.81808913  0.06830421  0.23377915  1
  O2-  O187  1  0.81773491  0.07041285  0.57080987  1
  O2-  O188  1  0.81702630  0.06926520  0.91245004  1
  O2-  O189  1  0.82059148  0.57583228  0.24648176  1
  O2-  O190  1  0.81325151  0.57656004  0.57534084  1
  O2-  O191  1  0.81850461  0.57510009  0.90108424  1
  O2-  O192  1  0.03145409  0.08616625  0.26457069  1
  O2-  O193  1  0.03417132  0.08296497  0.60078494  1
  O2-  O194  1  0.03547392  0.07835831  0.93360684  1
  O2-  O195  1  0.04770505  0.58356615  0.27152791  1
  O2-  O196  1  0.04233528  0.58119938  0.59668132  1
  O2-  O197  1  0.04144185  0.58433530  0.93465709  1
  O2-  O198  1  0.55094820  0.07798058  0.26810785  1
  O2-  O199  1  0.55249662  0.08008365  0.60724304  1
  O2-  O200  1  0.54556687  0.08195110  0.93576391  1
  O2-  O201  1  0.54329233  0.58988429  0.26508400  1
  O2-  O202  1  0.53848840  0.58428482  0.59605413  1
  O2-  O203  1  0.54307881  0.58956644  0.93836817  1
  O2-  O204  1  0.16736394  0.20345174  0.26399659  1
  O2-  O205  1  0.17028902  0.19965333  0.59985812  1
  O2-  O206  1  0.17102023  0.19493004  0.93383179  1
  O2-  O207  1  0.16813263  0.70380724  0.27132892  1
  O2-  O208  1  0.17726610  0.69894100  0.60238016  1
  O2-  O209  1  0.16892913  0.71054274  0.93493117  1
  O2-  O210  1  0.67143278  0.21118596  0.26624058  1
  O2-  O211  1  0.66516918  0.20465874  0.60891092  1
  O2-  O212  1  0.66563886  0.19951832  0.93578194  1
  O2-  O213  1  0.66191565  0.70933462  0.26583641  1
  O2-  O214  1  0.66339016  0.71089377  0.59331681  1
  O2-  O215  1  0.66242997  0.70952480  0.93999795  1
  O2-  O216  1  0.09009551  0.45700104  0.06208301  1
  O2-  O217  1  0.08446432  0.45691628  0.40077310  1
  O2-  O218  1  0.07449951  0.45377047  0.73163047  1
  O2-  O219  1  0.08007353  0.95703944  0.06875298  1
  O2-  O220  1  0.08267870  0.96258785  0.39923069  1
  O2-  O221  1  0.08365086  0.96023289  0.73623426  1
  O2-  O222  1  0.58595212  0.46366090  0.06506418  1
  O2-  O223  1  0.58552476  0.46689699  0.40057151  1
  O2-  O224  1  0.58893995  0.46322274  0.72928373  1
  O2-  O225  1  0.58347523  0.95436916  0.06348712  1
  O2-  O226  1  0.57985922  0.94492137  0.39464295  1
  O2-  O227  1  0.58354526  0.95006093  0.73149197  1
  O2-  O228  1  0.20937264  0.33439423  0.05654108  1
  O2-  O229  1  0.21113780  0.32975335  0.39625368  1
  O2-  O230  1  0.20877771  0.32894677  0.73482666  1
  O2-  O231  1  0.21463518  0.83489818  0.07073970  1
  O2-  O232  1  0.21149221  0.83444628  0.40073401  1
  O2-  O233  1  0.21220661  0.83380221  0.73444117  1
  O2-  O234  1  0.69292416  0.33228653  0.05876224  1
  O2-  O235  1  0.70811627  0.33565318  0.40337900  1
  O2-  O236  1  0.70060335  0.33734709  0.73159398  1
  O2-  O237  1  0.70224209  0.83696990  0.06486175  1
  O2-  O238  1  0.70343786  0.83237498  0.39515361  1
  O2-  O239  1  0.70278180  0.83091023  0.72844115  1
  O2-  O240  1  0.46017942  0.42090255  0.26456577  1
  O2-  O241  1  0.46606283  0.41263477  0.59612801  1
  O2-  O242  1  0.46356889  0.41833436  0.92941740  1
  O2-  O243  1  0.45454996  0.91164663  0.26732324  1
  O2-  O244  1  0.45633433  0.91592528  0.60199677  1
  O2-  O245  1  0.45695984  0.91264099  0.93812959  1
  O2-  O246  1  0.94884581  0.42238841  0.27731219  1
  O2-  O247  1  0.94022978  0.42362008  0.60020257  1
  O2-  O248  1  0.95466214  0.42114946  0.93686708  1
  O2-  O249  1  0.96249423  0.91562373  0.26277729  1
  O2-  O250  1  0.95680046  0.92018422  0.60330443  1
  O2-  O251  1  0.94861131  0.91548203  0.94141504  1
  O2-  O252  1  0.33314233  0.29203650  0.26050939  1
  O2-  O253  1  0.33372138  0.29044625  0.59796665  1
  O2-  O254  1  0.33527528  0.29143481  0.92682883  1
  O2-  O255  1  0.33669196  0.79032162  0.26823273  1
  O2-  O256  1  0.33514218  0.79900963  0.60334399  1
  O2-  O257  1  0.33762156  0.79325765  0.93926727  1
  O2-  O258  1  0.83554562  0.29713736  0.27275697  1
  O2-  O259  1  0.82696561  0.28756426  0.60150259  1
  O2-  O260  1  0.82765784  0.29693108  0.93745894  1
  O2-  O261  1  0.83313749  0.79234462  0.26330915  1
  O2-  O262  1  0.83387205  0.79069986  0.59887428  1
  O2-  O263  1  0.83117878  0.79472481  0.94051129  1
  O2-  O264  1  0.41530152  0.04160421  0.06733981  1
  O2-  O265  1  0.41717177  0.04232898  0.39549741  1
  O2-  O266  1  0.41822575  0.04470348  0.73260184  1
  O2-  O267  1  0.41498352  0.54351703  0.06374020  1
  O2-  O268  1  0.41843860  0.55018156  0.39167161  1
  O2-  O269  1  0.41976641  0.53456357  0.73415096  1
  O2-  O270  1  0.90845706  0.04141247  0.06603246  1
  O2-  O271  1  0.91325572  0.03471550  0.40139890  1
  O2-  O272  1  0.91350737  0.03797582  0.74089056  1
  O2-  O273  1  0.91916904  0.54320341  0.07110283  1
  O2-  O274  1  0.91807338  0.55828983  0.39701543  1
  O2-  O275  1  0.91206552  0.55077342  0.72625495  1
  O2-  O276  1  0.30370440  0.16926337  0.05940312  1
  O2-  O277  1  0.30305109  0.16704922  0.39037911  1
  O2-  O278  1  0.30160199  0.16628573  0.72730578  1
  O2-  O279  1  0.29587269  0.66241854  0.06347262  1
  O2-  O280  1  0.29900098  0.66537286  0.39599828  1
  O2-  O281  1  0.30704112  0.67055456  0.73242644  1
  O2-  O282  1  0.78981426  0.16307263  0.06400715  1
  O2-  O283  1  0.79070496  0.16688073  0.40226265  1
  O2-  O284  1  0.78500570  0.16448242  0.74175968  1
  O2-  O285  1  0.78639227  0.66472505  0.07140843  1
  O2-  O286  1  0.78951218  0.66791013  0.39652059  1
  O2-  O287  1  0.78372244  0.66247117  0.72851249  1
