# generated using pymatgen
data_Ca2Al2SiO7
_symmetry_space_group_name_H-M   'P 1'
_cell_length_a   15.46569839
_cell_length_b   15.46744727
_cell_length_c   15.28883201
_cell_angle_alpha   90.01263232
_cell_angle_beta   90.01339317
_cell_angle_gamma   90.03376714
_symmetry_Int_Tables_number   1
_chemical_formula_structural   Ca2Al2SiO7
_chemical_formula_sum   'Ca48 Al48 Si24 O168'
_cell_volume   3657.31520442
_cell_formula_units_Z   24
loop_
 _symmetry_equiv_pos_site_id
 _symmetry_equiv_pos_as_xyz
  1  'x, y, z'
loop_
 _atom_type_symbol
 _atom_type_oxidation_number
  Ca2+  2.0
  Al0+  0.0
  Si0+  0.0
  O2-  -2.0
loop_
 _atom_site_type_symbol
 _atom_site_label
 _atom_site_symmetry_multiplicity
 _atom_site_fract_x
 _atom_site_fract_y
 _atom_site_fract_z
 _atom_site_occupancy
  Ca2+  Ca0  1  0.18038431  0.08376549  0.17525447  1
  Ca2+  Ca1  1  0.17275032  0.08339731  0.50705945  1
  Ca2+  Ca2  1  0.17559503  0.08232789  0.83194337  1
  Ca2+  Ca3  1  0.16452368  0.57483451  0.16764831  1
  Ca2+  Ca4  1  0.16528161  0.56879203  0.50388556  1
  Ca2+  Ca5  1  0.16371588  0.57075049  0.83908268  1
  Ca2+  Ca6  1  0.66420210  0.07490921  0.17183662  1
  Ca2+  Ca7  1  0.66574159  0.07709727  0.50513505  1
  Ca2+  Ca8  1  0.67430252  0.07799637  0.83858091  1
  Ca2+  Ca9  1  0.65876295  0.56874184  0.16913456  1
  Ca2+  Ca10  1  0.67057328  0.57679738  0.50431600  1
  Ca2+  Ca11  1  0.67035665  0.57977619  0.83564522  1
  Ca2+  Ca12  1  0.08803676  0.33143447  0.16507149  1
  Ca2+  Ca13  1  0.08870731  0.32213865  0.49702262  1
  Ca2+  Ca14  1  0.08703792  0.32752734  0.82530739  1
  Ca2+  Ca15  1  0.08944771  0.82671514  0.15901622  1
  Ca2+  Ca16  1  0.08395899  0.84085047  0.49413403  1
  Ca2+  Ca17  1  0.08800215  0.82662729  0.82615934  1
  Ca2+  Ca18  1  0.58182040  0.32853452  0.15875783  1
  Ca2+  Ca19  1  0.57804258  0.32567929  0.49119524  1
  Ca2+  Ca20  1  0.57112846  0.33597287  0.82825760  1
  Ca2+  Ca21  1  0.58124626  0.83790192  0.15972971  1
  Ca2+  Ca22  1  0.57904926  0.84444142  0.49861649  1
  Ca2+  Ca23  1  0.57663424  0.84603237  0.83039052  1
  Ca2+  Ca24  1  0.32423546  0.40946805  0.16733992  1
  Ca2+  Ca25  1  0.32331675  0.40832349  0.50559564  1
  Ca2+  Ca26  1  0.32451387  0.40627639  0.83778919  1
  Ca2+  Ca27  1  0.33418704  0.92671977  0.17200559  1
  Ca2+  Ca28  1  0.32506781  0.92866972  0.50676954  1
  Ca2+  Ca29  1  0.33983431  0.92674208  0.83636950  1
  Ca2+  Ca30  1  0.82065075  0.41421929  0.16814499  1
  Ca2+  Ca31  1  0.82867860  0.41954498  0.50315659  1
  Ca2+  Ca32  1  0.82869992  0.42107241  0.83724346  1
  Ca2+  Ca33  1  0.82374215  0.92003130  0.16759377  1
  Ca2+  Ca34  1  0.82189832  0.92293156  0.50862194  1
  Ca2+  Ca35  1  0.82530238  0.92799365  0.83703583  1
  Ca2+  Ca36  1  0.41890528  0.16505049  0.16376348  1
  Ca2+  Ca37  1  0.41565789  0.16508425  0.49810203  1
  Ca2+  Ca38  1  0.40819517  0.17319885  0.82938940  1
  Ca2+  Ca39  1  0.41584669  0.67780658  0.15768308  1
  Ca2+  Ca40  1  0.41391891  0.67645480  0.50064868  1
  Ca2+  Ca41  1  0.41649345  0.68278079  0.82721976  1
  Ca2+  Ca42  1  0.92511977  0.16120301  0.16340441  1
  Ca2+  Ca43  1  0.93026602  0.15456905  0.49865871  1
  Ca2+  Ca44  1  0.92081159  0.16078364  0.82552857  1
  Ca2+  Ca45  1  0.92450469  0.66942382  0.15937665  1
  Ca2+  Ca46  1  0.91434642  0.66637463  0.49801921  1
  Ca2+  Ca47  1  0.92019734  0.66358141  0.82915087  1
  Al0+  Al48  1  0.00058418  -0.00169580  0.00159371  1
  Al0+  Al49  1  -0.00122749  -0.00129286  0.32605798  1
  Al0+  Al50  1  0.00017102  -0.00287518  0.66892390  1
  Al0+  Al51  1  0.00044150  0.49867433  0.00054070  1
  Al0+  Al52  1  0.00046172  0.50105939  0.33486691  1
  Al0+  Al53  1  -0.00117386  0.49857428  0.67238044  1
  Al0+  Al54  1  0.50129911  0.00174951  0.00305651  1
  Al0+  Al55  1  0.49950928  0.00223175  0.33622963  1
  Al0+  Al56  1  0.49806116  0.00168552  0.66827802  1
  Al0+  Al57  1  0.49835917  0.50121249  -0.00151224  1
  Al0+  Al58  1  0.49956762  0.50215018  0.33786185  1
  Al0+  Al59  1  0.49756550  0.50185641  0.65984550  1
  Al0+  Al60  1  0.24987214  0.24873378  0.00536181  1
  Al0+  Al61  1  0.24972970  0.25113011  0.33586663  1
  Al0+  Al62  1  0.24842977  0.24907972  0.66560414  1
  Al0+  Al63  1  0.25084711  0.74786345  -0.01126895  1
  Al0+  Al64  1  0.24984633  0.75005615  0.33453477  1
  Al0+  Al65  1  0.25027500  0.74716302  0.66101949  1
  Al0+  Al66  1  0.75324916  0.25071795  0.00582123  1
  Al0+  Al67  1  0.75036794  0.25045201  0.33368277  1
  Al0+  Al68  1  0.74922224  0.25128348  0.66904709  1
  Al0+  Al69  1  0.75207829  0.75034345  0.00235939  1
  Al0+  Al70  1  0.74934037  0.75004541  0.33409055  1
  Al0+  Al71  1  0.75056045  0.74777680  0.67402002  1
  Al0+  Al72  1  0.67660457  0.43074396  0.01143157  1
  Al0+  Al73  1  0.31983177  0.07061502  0.01474104  1
  Al0+  Al74  1  0.17972343  0.43103425  0.34775645  1
  Al0+  Al75  1  0.17943324  0.42919129  0.01462872  1
  Al0+  Al76  1  0.42948164  0.82322370  0.65034159  1
  Al0+  Al77  1  0.43178809  0.82278977  0.98673613  1
  Al0+  Al78  1  0.42912649  0.32012092  0.98769416  1
  Al0+  Al79  1  0.17773454  0.92741489  0.34504428  1
  Al0+  Al80  1  0.07108596  0.17909229  0.31810786  1
  Al0+  Al81  1  0.17789596  0.92550351  0.68160996  1
  Al0+  Al82  1  0.82491063  0.07281965  0.01770084  1
  Al0+  Al83  1  0.82013941  0.56929723  0.68038253  1
  Al0+  Al84  1  0.06782763  0.17812699  0.65448037  1
  Al0+  Al85  1  0.57121211  0.17947025  0.31961627  1
  Al0+  Al86  1  0.42815455  0.32120863  0.65212289  1
  Al0+  Al87  1  0.67967231  0.93059739  0.01639575  1
  Al0+  Al88  1  0.31934431  0.07079439  0.68313989  1
  Al0+  Al89  1  0.67752246  0.42699161  0.34771116  1
  Al0+  Al90  1  0.07011648  0.67800685  0.98444971  1
  Al0+  Al91  1  0.82210756  0.07263314  0.67975856  1
  Al0+  Al92  1  0.67763043  0.92949034  0.68200844  1
  Al0+  Al93  1  0.32043563  0.07181010  0.34973995  1
  Al0+  Al94  1  0.18142216  0.42964644  0.68066843  1
  Al0+  Al95  1  0.67989632  0.92934357  0.34784321  1
  Si0+  Si96  1  0.42855702  0.32435715  0.31662570  1
  Si0+  Si97  1  0.32295527  0.57479356  0.35077528  1
  Si0+  Si98  1  0.57251272  0.67861789  0.31805181  1
  Si0+  Si99  1  0.92868887  0.32084976  0.98518327  1
  Si0+  Si100  1  0.07106029  0.17899999  0.98564405  1
  Si0+  Si101  1  0.92605732  0.32357963  0.65072391  1
  Si0+  Si102  1  0.32331295  0.57259733  0.68360744  1
  Si0+  Si103  1  0.57374044  0.67878327  0.64850285  1
  Si0+  Si104  1  0.67457436  0.42837909  0.68204946  1
  Si0+  Si105  1  0.17984801  0.92461444  0.01374680  1
  Si0+  Si106  1  0.92928883  0.81791455  0.65174093  1
  Si0+  Si107  1  0.57358150  0.17988063  0.65130777  1
  Si0+  Si108  1  0.82079276  0.57112871  0.34799495  1
  Si0+  Si109  1  0.57389205  0.67715216  0.98373797  1
  Si0+  Si110  1  0.32092140  0.57410963  0.01482426  1
  Si0+  Si111  1  0.92914390  0.32512915  0.31602467  1
  Si0+  Si112  1  0.43021395  0.82006613  0.31881311  1
  Si0+  Si113  1  0.82267331  0.57109051  0.01768033  1
  Si0+  Si114  1  0.92618971  0.81999711  0.31733626  1
  Si0+  Si115  1  0.57476668  0.17943034  0.98379673  1
  Si0+  Si116  1  0.92778857  0.82174601  0.98096565  1
  Si0+  Si117  1  0.06989001  0.67526983  0.64924978  1
  Si0+  Si118  1  0.07040152  0.67893806  0.31860457  1
  Si0+  Si119  1  0.82347123  0.07232944  0.34936435  1
  O2-  O120  1  0.24708445  -0.00708670  0.05959701  1
  O2-  O121  1  0.24402752  0.00274150  0.39667100  1
  O2-  O122  1  0.25150461  -0.00560133  0.73278824  1
  O2-  O123  1  0.25503730  0.50368097  0.06064227  1
  O2-  O124  1  0.25744684  0.50272128  0.39382870  1
  O2-  O125  1  0.25719903  0.50238751  0.72861983  1
  O2-  O126  1  0.75027791  0.00347086  0.06728091  1
  O2-  O127  1  0.75272148  0.00595862  0.39346877  1
  O2-  O128  1  0.74781806  0.00381379  0.73011766  1
  O2-  O129  1  0.74959164  0.50687057  0.06064883  1
  O2-  O130  1  0.75330625  0.50172533  0.39237760  1
  O2-  O131  1  0.74473983  0.49537031  0.72633542  1
  O2-  O132  1  -0.00417027  0.25435166  0.27161248  1
  O2-  O133  1  -0.01007719  0.25047802  0.60713989  1
  O2-  O134  1  -0.00303683  0.24715546  0.94369484  1
  O2-  O135  1  0.00242563  0.75299937  0.27629351  1
  O2-  O136  1  0.00257971  0.74980587  0.60678657  1
  O2-  O137  1  -0.00279482  0.75377188  0.93659172  1
  O2-  O138  1  0.49918856  0.25752782  0.27294994  1
  O2-  O139  1  0.50600594  0.24963883  0.60668869  1
  O2-  O140  1  0.50654067  0.24873019  0.93968246  1
  O2-  O141  1  0.50170547  0.74951637  0.27569252  1
  O2-  O142  1  0.50770237  0.75026764  0.60423765  1
  O2-  O143  1  0.50936673  0.74977890  0.94044690  1
  O2-  O144  1  0.07127395  0.18142887  0.09089321  1
  O2-  O145  1  0.06926678  0.17913018  0.43110683  1
  O2-  O146  1  0.06842120  0.18123455  0.76793526  1
  O2-  O147  1  0.06876623  0.67877744  0.09841851  1
  O2-  O148  1  0.06751266  0.67621022  0.42348143  1
  O2-  O149  1  0.06709016  0.67364234  0.75422756  1
  O2-  O150  1  0.57358987  0.18039595  0.08967276  1
  O2-  O151  1  0.57079436  0.18005594  0.43274449  1
  O2-  O152  1  0.57662837  0.18274939  0.75676279  1
  O2-  O153  1  0.57065794  0.67489395  0.08974346  1
  O2-  O154  1  0.57430833  0.67797631  0.42278677  1
  O2-  O155  1  0.57196712  0.67472536  0.75387052  1
  O2-  O156  1  0.17906661  0.43385862  0.23449134  1
  O2-  O157  1  0.18034465  0.43142285  0.56749102  1
  O2-  O158  1  0.17904650  0.42858867  0.90179200  1
  O2-  O159  1  0.18332380  0.92237492  0.23138084  1
  O2-  O160  1  0.17674151  0.92860009  0.56808650  1
  O2-  O161  1  0.17975437  0.92526877  0.90854419  1
  O2-  O162  1  0.67717078  0.43008576  0.23446989  1
  O2-  O163  1  0.67618711  0.42986608  0.57635387  1
  O2-  O164  1  0.67848458  0.43305267  0.89839722  1
  O2-  O165  1  0.68163280  0.92657931  0.23516199  1
  O2-  O166  1  0.68053406  0.92973199  0.56799046  1
  O2-  O167  1  0.68064076  0.93188499  0.90332588  1
  O2-  O168  1  0.42947691  0.31956548  0.10079691  1
  O2-  O169  1  0.42972311  0.32454646  0.42224828  1
  O2-  O170  1  0.42901272  0.32071905  0.76553174  1
  O2-  O171  1  0.43055170  0.81949688  0.10051085  1
  O2-  O172  1  0.43065486  0.81712952  0.42361522  1
  O2-  O173  1  0.43061514  0.82087115  0.76343229  1
  O2-  O174  1  0.92977695  0.32399431  0.09026167  1
  O2-  O175  1  0.93062324  0.32942510  0.42136842  1
  O2-  O176  1  0.92778036  0.32626805  0.75645966  1
  O2-  O177  1  0.92823372  0.81900536  0.08702216  1
  O2-  O178  1  0.92343707  0.81705467  0.42239669  1
  O2-  O179  1  0.92991590  0.81475230  0.75654760  1
  O2-  O180  1  0.32157842  0.06906672  0.23574202  1
  O2-  O181  1  0.31797350  0.07139012  0.56986494  1
  O2-  O182  1  0.31723696  0.07283016  0.90217958  1
  O2-  O183  1  0.32189253  0.57926818  0.24519295  1
  O2-  O184  1  0.32066996  0.57338691  0.57773528  1
  O2-  O185  1  0.31912005  0.57519608  0.90968187  1
  O2-  O186  1  0.82409434  0.06933497  0.24394053  1
  O2-  O187  1  0.82290943  0.06854471  0.56601397  1
  O2-  O188  1  0.82508227  0.07132450  0.90430998  1
  O2-  O189  1  0.82136579  0.57150189  0.24257071  1
  O2-  O190  1  0.81982136  0.56839287  0.56685341  1
  O2-  O191  1  0.82380162  0.56853658  0.91216380  1
  O2-  O192  1  0.04107074  0.08278122  0.26161507  1
  O2-  O193  1  0.03886493  0.08042904  0.60034765  1
  O2-  O194  1  0.04677429  0.08518320  0.94051276  1
  O2-  O195  1  0.03880241  0.58894828  0.26890390  1
  O2-  O196  1  0.03530401  0.58506230  0.60199398  1
  O2-  O197  1  0.03593656  0.58169174  0.93133739  1
  O2-  O198  1  0.53746734  0.08349363  0.26495472  1
  O2-  O199  1  0.54596089  0.08681511  0.60579454  1
  O2-  O200  1  0.54864924  0.08602245  0.93906509  1
  O2-  O201  1  0.54321939  0.58664585  0.27068524  1
  O2-  O202  1  0.54524411  0.58718513  0.59849078  1
  O2-  O203  1  0.54561169  0.58573603  0.93488730  1
  O2-  O204  1  0.16780636  0.21257814  0.26535706  1
  O2-  O205  1  0.16200673  0.21356558  0.59937304  1
  O2-  O206  1  0.16133341  0.21127205  0.93900864  1
  O2-  O207  1  0.16341674  0.70380578  0.27156759  1
  O2-  O208  1  0.16322442  0.69551383  0.60197860  1
  O2-  O209  1  0.16584068  0.70427167  0.92716747  1
  O2-  O210  1  0.66953161  0.20700479  0.26642341  1
  O2-  O211  1  0.66747228  0.20401156  0.60347540  1
  O2-  O212  1  0.66988664  0.20445776  0.94054643  1
  O2-  O213  1  0.66422086  0.70505443  0.26951483  1
  O2-  O214  1  0.66954454  0.70073626  0.60492999  1
  O2-  O215  1  0.67043085  0.69734354  0.94130914  1
  O2-  O216  1  0.08337484  0.46180894  0.06877795  1
  O2-  O217  1  0.08430052  0.46571482  0.40150771  1
  O2-  O218  1  0.08541020  0.46127908  0.73482909  1
  O2-  O219  1  0.08514269  0.94660639  0.05890633  1
  O2-  O220  1  0.07507065  0.94846007  0.39147973  1
  O2-  O221  1  0.08004631  0.95205711  0.73543119  1
  O2-  O222  1  0.58052552  0.46162491  0.06713341  1
  O2-  O223  1  0.58235071  0.46026268  0.40255469  1
  O2-  O224  1  0.58120588  0.45777928  0.72589284  1
  O2-  O225  1  0.58203282  0.95870786  0.07053899  1
  O2-  O226  1  0.58363590  0.96030619  0.40061598  1
  O2-  O227  1  0.57946551  0.95749265  0.73319016  1
  O2-  O228  1  0.21121685  0.33434989  0.07048863  1
  O2-  O229  1  0.20849952  0.33470619  0.40159389  1
  O2-  O230  1  0.21150545  0.33359180  0.73422984  1
  O2-  O231  1  0.20545211  0.82944521  0.05671371  1
  O2-  O232  1  0.20597509  0.82958150  0.39967268  1
  O2-  O233  1  0.20180360  0.82327079  0.72815145  1
  O2-  O234  1  0.70993278  0.33618176  0.06725180  1
  O2-  O235  1  0.70875170  0.33152678  0.40272077  1
  O2-  O236  1  0.69760705  0.33512566  0.72867644  1
  O2-  O237  1  0.70768785  0.83040376  0.06784174  1
  O2-  O238  1  0.71095662  0.83229439  0.40097699  1
  O2-  O239  1  0.70609265  0.83136691  0.73424622  1
  O2-  O240  1  0.45083064  0.42047647  0.27339412  1
  O2-  O241  1  0.45332773  0.41920060  0.59693094  1
  O2-  O242  1  0.45503528  0.41860181  0.93402192  1
  O2-  O243  1  0.45816404  0.91208177  0.27315149  1
  O2-  O244  1  0.45841628  0.92046724  0.59674025  1
  O2-  O245  1  0.46247797  0.91974403  0.93361668  1
  O2-  O246  1  0.95732597  0.41786922  0.26812704  1
  O2-  O247  1  0.95636479  0.41572345  0.60378060  1
  O2-  O248  1  0.95869229  0.41154665  0.93668874  1
  O2-  O249  1  0.94769416  0.91184448  0.26777698  1
  O2-  O250  1  0.95456450  0.90986242  0.60364081  1
  O2-  O251  1  0.95241182  0.91605634  0.93650710  1
  O2-  O252  1  0.33493340  0.29736567  0.27175003  1
  O2-  O253  1  0.33295002  0.28727410  0.59803541  1
  O2-  O254  1  0.33231019  0.28571645  0.93551117  1
  O2-  O255  1  0.33866681  0.79002938  0.27128939  1
  O2-  O256  1  0.33448546  0.78704893  0.59473014  1
  O2-  O257  1  0.33766757  0.78970798  0.92950091  1
  O2-  O258  1  0.83424187  0.30150396  0.27156095  1
  O2-  O259  1  0.82985586  0.30510079  0.60647098  1
  O2-  O260  1  0.83565392  0.29759636  0.93759550  1
  O2-  O261  1  0.83727338  0.78562305  0.26725632  1
  O2-  O262  1  0.83781423  0.78592279  0.60504862  1
  O2-  O263  1  0.83448449  0.79444608  0.93504271  1
  O2-  O264  1  0.41717519  0.04254984  0.06775854  1
  O2-  O265  1  0.41684977  0.04011721  0.40320643  1
  O2-  O266  1  0.41882678  0.04743472  0.73520129  1
  O2-  O267  1  0.41548909  0.55272654  0.06054447  1
  O2-  O268  1  0.41722365  0.55454137  0.39747454  1
  O2-  O269  1  0.41875250  0.55136237  0.72692106  1
  O2-  O270  1  0.92250797  0.04004579  0.07123280  1
  O2-  O271  1  0.91608623  0.04165503  0.39396570  1
  O2-  O272  1  0.91781200  0.03947246  0.73424506  1
  O2-  O273  1  0.91381638  0.54017429  0.06543330  1
  O2-  O274  1  0.91417255  0.54678845  0.39517991  1
  O2-  O275  1  0.91456987  0.53767213  0.73757689  1
  O2-  O276  1  0.28576137  0.16414468  0.07210431  1
  O2-  O277  1  0.29585077  0.17129528  0.40050010  1
  O2-  O278  1  0.28522540  0.16730399  0.73586627  1
  O2-  O279  1  0.29140765  0.66664693  0.06179900  1
  O2-  O280  1  0.29275538  0.66577187  0.39941644  1
  O2-  O281  1  0.29559653  0.66546537  0.72890875  1
  O2-  O282  1  0.80372103  0.17286418  0.06974020  1
  O2-  O283  1  0.80388626  0.16764352  0.39308110  1
  O2-  O284  1  0.79923903  0.17302755  0.73199477  1
  O2-  O285  1  0.80368979  0.66642885  0.06234128  1
  O2-  O286  1  0.79346408  0.66346500  0.39555923  1
  O2-  O287  1  0.79152102  0.66378491  0.73883977  1
