# generated using pymatgen
data_Ca2Al2SiO7
_symmetry_space_group_name_H-M   'P 1'
_cell_length_a   15.45546023
_cell_length_b   15.45437561
_cell_length_c   15.28098797
_cell_angle_alpha   90.00476739
_cell_angle_beta   89.99292819
_cell_angle_gamma   90.01067474
_symmetry_Int_Tables_number   1
_chemical_formula_structural   Ca2Al2SiO7
_chemical_formula_sum   'Ca48 Al48 Si24 O168'
_cell_volume   3649.93245068
_cell_formula_units_Z   24
loop_
 _symmetry_equiv_pos_site_id
 _symmetry_equiv_pos_as_xyz
  1  'x, y, z'
loop_
 _atom_type_symbol
 _atom_type_oxidation_number
  Ca2+  2.0
  Al0+  0.0
  Si0+  0.0
  O2-  -2.0
loop_
 _atom_site_type_symbol
 _atom_site_label
 _atom_site_symmetry_multiplicity
 _atom_site_fract_x
 _atom_site_fract_y
 _atom_site_fract_z
 _atom_site_occupancy
  Ca2+  Ca0  1  0.16218165  0.06884524  0.16984087  1
  Ca2+  Ca1  1  0.16820462  0.07938186  0.50748767  1
  Ca2+  Ca2  1  0.16785786  0.08145692  0.83471877  1
  Ca2+  Ca3  1  0.16514690  0.58158196  0.16862342  1
  Ca2+  Ca4  1  0.17624100  0.57983109  0.50686088  1
  Ca2+  Ca5  1  0.16277136  0.57510699  0.83668803  1
  Ca2+  Ca6  1  0.67720316  0.07849519  0.16553099  1
  Ca2+  Ca7  1  0.67853376  0.08630692  0.50797089  1
  Ca2+  Ca8  1  0.67627810  0.08021924  0.83670197  1
  Ca2+  Ca9  1  0.67157106  0.58891967  0.16369417  1
  Ca2+  Ca10  1  0.66842480  0.57380922  0.50742248  1
  Ca2+  Ca11  1  0.67216369  0.58012112  0.83886431  1
  Ca2+  Ca12  1  0.07348015  0.33473211  0.15773281  1
  Ca2+  Ca13  1  0.07951235  0.32983216  0.50055381  1
  Ca2+  Ca14  1  0.07508792  0.33363062  0.82534347  1
  Ca2+  Ca15  1  0.08364034  0.83152108  0.16295659  1
  Ca2+  Ca16  1  0.07355555  0.84056406  0.49615762  1
  Ca2+  Ca17  1  0.08231952  0.82953179  0.83048410  1
  Ca2+  Ca18  1  0.57988441  0.33279074  0.16310741  1
  Ca2+  Ca19  1  0.59024133  0.32770508  0.50281739  1
  Ca2+  Ca20  1  0.58540579  0.32726637  0.82353013  1
  Ca2+  Ca21  1  0.57731707  0.83251128  0.15846981  1
  Ca2+  Ca22  1  0.56753103  0.83631034  0.49622908  1
  Ca2+  Ca23  1  0.58437006  0.83033015  0.82839549  1
  Ca2+  Ca24  1  0.32411303  0.42341469  0.17203323  1
  Ca2+  Ca25  1  0.32972190  0.42963745  0.51187712  1
  Ca2+  Ca26  1  0.31847259  0.41781348  0.83475021  1
  Ca2+  Ca27  1  0.32109414  0.90676785  0.17066103  1
  Ca2+  Ca28  1  0.32824498  0.91341518  0.50597466  1
  Ca2+  Ca29  1  0.33251544  0.91991336  0.83414160  1
  Ca2+  Ca30  1  0.84354370  0.42253065  0.16606232  1
  Ca2+  Ca31  1  0.83296466  0.41107407  0.50640856  1
  Ca2+  Ca32  1  0.83307111  0.41442496  0.83810122  1
  Ca2+  Ca33  1  0.83566289  0.92706496  0.17330428  1
  Ca2+  Ca34  1  0.84102138  0.92630836  0.50590610  1
  Ca2+  Ca35  1  0.83617708  0.92838581  0.83950096  1
  Ca2+  Ca36  1  0.41822326  0.16822166  0.16211283  1
  Ca2+  Ca37  1  0.42378715  0.15892289  0.50146006  1
  Ca2+  Ca38  1  0.42348144  0.16289543  0.82159636  1
  Ca2+  Ca39  1  0.41980179  0.66779440  0.16327724  1
  Ca2+  Ca40  1  0.40780747  0.67275064  0.49666695  1
  Ca2+  Ca41  1  0.42064367  0.67081748  0.82727027  1
  Ca2+  Ca42  1  0.90800346  0.17487376  0.16361069  1
  Ca2+  Ca43  1  0.91578025  0.17318802  0.49912483  1
  Ca2+  Ca44  1  0.91762286  0.17238245  0.82364276  1
  Ca2+  Ca45  1  0.92078171  0.67236722  0.15628237  1
  Ca2+  Ca46  1  0.91618800  0.68111688  0.49659403  1
  Ca2+  Ca47  1  0.91978492  0.66965221  0.83141186  1
  Al0+  Al48  1  0.00192173  0.00259555  0.00878311  1
  Al0+  Al49  1  0.00008756  0.00094640  0.33762960  1
  Al0+  Al50  1  0.00071263  0.00091835  0.66513694  1
  Al0+  Al51  1  -0.00086664  0.50051100  -0.00041203  1
  Al0+  Al52  1  -0.00072075  0.49922987  0.33297296  1
  Al0+  Al53  1  -0.00017480  0.50166064  0.66360160  1
  Al0+  Al54  1  0.50055347  0.00158369  0.00382007  1
  Al0+  Al55  1  0.50035411  -0.00127563  0.32460140  1
  Al0+  Al56  1  0.49989295  -0.00148102  0.66112047  1
  Al0+  Al57  1  0.49942683  0.50112854  -0.00479470  1
  Al0+  Al58  1  0.50031866  0.49900924  0.33684692  1
  Al0+  Al59  1  0.50156387  0.49957844  0.67554701  1
  Al0+  Al60  1  0.24875641  0.25170911  0.00564602  1
  Al0+  Al61  1  0.25055267  0.24828566  0.33167462  1
  Al0+  Al62  1  0.25058798  0.24975855  0.66962891  1
  Al0+  Al63  1  0.25028915  0.75014083  -0.00255034  1
  Al0+  Al64  1  0.24932371  0.74959600  0.33769142  1
  Al0+  Al65  1  0.25093891  0.74907457  0.66807620  1
  Al0+  Al66  1  0.74723534  0.25054299  0.00045209  1
  Al0+  Al67  1  0.75059031  0.24954677  0.33065112  1
  Al0+  Al68  1  0.74982791  0.24941192  0.66772157  1
  Al0+  Al69  1  0.74784425  0.74963223  0.00216710  1
  Al0+  Al70  1  0.74904812  0.75046561  0.33117267  1
  Al0+  Al71  1  0.74917683  0.74905592  0.65992363  1
  Al0+  Al72  1  0.67808704  0.92786023  0.01443244  1
  Al0+  Al73  1  0.18047299  0.92995169  0.34909468  1
  Al0+  Al74  1  0.18079279  0.92813989  0.01266701  1
  Al0+  Al75  1  0.92980158  0.31978325  0.31738314  1
  Al0+  Al76  1  0.82038718  0.56987296  0.01241997  1
  Al0+  Al77  1  0.82184076  0.06940500  0.68024238  1
  Al0+  Al78  1  0.92896823  0.31924298  0.98550920  1
  Al0+  Al79  1  0.57220494  0.67939656  0.98492238  1
  Al0+  Al80  1  0.42765967  0.81940267  0.31764319  1
  Al0+  Al81  1  0.68202689  0.42850189  0.68063356  1
  Al0+  Al82  1  0.07390472  0.17853567  0.65222498  1
  Al0+  Al83  1  0.92904615  0.82127372  0.65522216  1
  Al0+  Al84  1  0.32155984  0.57367789  0.68557147  1
  Al0+  Al85  1  0.32067034  0.56868313  0.34642745  1
  Al0+  Al86  1  0.07109475  0.67997381  0.98651872  1
  Al0+  Al87  1  0.82152801  0.07265852  0.01549895  1
  Al0+  Al88  1  0.92884719  0.32178055  0.65177336  1
  Al0+  Al89  1  0.92848009  0.82283591  0.31826086  1
  Al0+  Al90  1  0.32241243  0.06927106  0.67793875  1
  Al0+  Al91  1  0.17721711  0.42892529  0.68120058  1
  Al0+  Al92  1  0.42975801  0.81910497  0.65348744  1
  Al0+  Al93  1  0.81826092  0.07076642  0.34991525  1
  Al0+  Al94  1  0.57072670  0.17893420  0.65324960  1
  Al0+  Al95  1  0.17760364  0.42993889  0.01537367  1
  Si0+  Si96  1  0.57143149  0.17976589  0.31606173  1
  Si0+  Si97  1  0.92830668  0.82474024  0.98621905  1
  Si0+  Si98  1  0.32258278  0.57114305  0.01648242  1
  Si0+  Si99  1  0.32302081  0.07290348  0.01737513  1
  Si0+  Si100  1  0.82179826  0.57522086  0.68151774  1
  Si0+  Si101  1  0.32488306  0.07329583  0.34897180  1
  Si0+  Si102  1  0.42847595  0.82278764  0.98260213  1
  Si0+  Si103  1  0.42666191  0.32166176  0.98487378  1
  Si0+  Si104  1  0.67572905  0.42825819  0.01746898  1
  Si0+  Si105  1  0.67611806  0.92658679  0.35067132  1
  Si0+  Si106  1  0.07001962  0.67886868  0.31791454  1
  Si0+  Si107  1  0.56823871  0.17988423  0.98446975  1
  Si0+  Si108  1  0.07366093  0.17699898  0.98464279  1
  Si0+  Si109  1  0.82214660  0.57247311  0.34815449  1
  Si0+  Si110  1  0.07430772  0.17780094  0.31514472  1
  Si0+  Si111  1  0.17720890  0.92823777  0.68385397  1
  Si0+  Si112  1  0.67973847  0.42942799  0.34713051  1
  Si0+  Si113  1  0.42893432  0.32238838  0.31962373  1
  Si0+  Si114  1  0.17639549  0.42602102  0.35013178  1
  Si0+  Si115  1  0.07243207  0.67804423  0.64903198  1
  Si0+  Si116  1  0.42855973  0.32268079  0.65132673  1
  Si0+  Si117  1  0.57136828  0.67493532  0.31690871  1
  Si0+  Si118  1  0.67749752  0.92718621  0.67944114  1
  Si0+  Si119  1  0.57213362  0.67527604  0.64867413  1
  O2-  O120  1  0.25518397  0.00331146  0.06055981  1
  O2-  O121  1  0.25639433  0.00517768  0.39298597  1
  O2-  O122  1  0.24666736  -0.00291983  0.72671764  1
  O2-  O123  1  0.25276590  0.50449910  0.06218187  1
  O2-  O124  1  0.24757644  0.49240014  0.39302722  1
  O2-  O125  1  0.24793360  0.50201076  0.73266052  1
  O2-  O126  1  0.75425027  -0.00474713  0.06506713  1
  O2-  O127  1  0.74597634  -0.00717651  0.39621191  1
  O2-  O128  1  0.74980897  -0.00909298  0.72473291  1
  O2-  O129  1  0.74520719  0.49579185  0.06184337  1
  O2-  O130  1  0.75073625  0.50084488  0.38861479  1
  O2-  O131  1  0.75699662  0.50309135  0.72579541  1
  O2-  O132  1  0.00756587  0.24826954  0.27063294  1
  O2-  O133  1  0.00227624  0.25104895  0.60189206  1
  O2-  O134  1  0.00270081  0.24302146  0.94072418  1
  O2-  O135  1  0.00047638  0.74568556  0.27190116  1
  O2-  O136  1  0.00401166  0.74753851  0.60606824  1
  O2-  O137  1  -0.00280071  0.75662914  0.94123470  1
  O2-  O138  1  0.49628822  0.24828335  0.27553549  1
  O2-  O139  1  0.49595471  0.25362369  0.60485393  1
  O2-  O140  1  0.49571020  0.24920839  0.94240046  1
  O2-  O141  1  0.50438175  0.74556068  0.27295569  1
  O2-  O142  1  0.50152845  0.74188820  0.60481626  1
  O2-  O143  1  0.49965119  0.75653341  0.93903153  1
  O2-  O144  1  0.07594342  0.17880824  0.09043179  1
  O2-  O145  1  0.07698470  0.17984364  0.42034452  1
  O2-  O146  1  0.07188469  0.17684016  0.76596339  1
  O2-  O147  1  0.07067921  0.68098862  0.10001804  1
  O2-  O148  1  0.06757880  0.67832501  0.42339693  1
  O2-  O149  1  0.07111898  0.67815667  0.75480060  1
  O2-  O150  1  0.56679667  0.18205045  0.09019914  1
  O2-  O151  1  0.57225650  0.18085250  0.42098709  1
  O2-  O152  1  0.56924160  0.17930013  0.76650133  1
  O2-  O153  1  0.56711155  0.67673441  0.09834657  1
  O2-  O154  1  0.57116529  0.67218105  0.42226271  1
  O2-  O155  1  0.57460076  0.67806220  0.75413388  1
  O2-  O156  1  0.17682424  0.42777994  0.24426429  1
  O2-  O157  1  0.18009543  0.43097552  0.56703291  1
  O2-  O158  1  0.17907182  0.42867189  0.90297127  1
  O2-  O159  1  0.18209728  0.92884088  0.23567573  1
  O2-  O160  1  0.17795664  0.92824580  0.57813964  1
  O2-  O161  1  0.18237758  0.92889587  0.89977368  1
  O2-  O162  1  0.67615504  0.42983560  0.24212282  1
  O2-  O163  1  0.68179573  0.42974521  0.56662260  1
  O2-  O164  1  0.67529883  0.42738595  0.91226434  1
  O2-  O165  1  0.67575755  0.92862147  0.24517037  1
  O2-  O166  1  0.67647017  0.92967808  0.57372888  1
  O2-  O167  1  0.67585817  0.93190129  0.90069681  1
  O2-  O168  1  0.42903194  0.32099324  0.09082798  1
  O2-  O169  1  0.43084009  0.32427853  0.42412205  1
  O2-  O170  1  0.43074782  0.32020304  0.75715484  1
  O2-  O171  1  0.42743979  0.82000697  0.08843642  1
  O2-  O172  1  0.42858222  0.81939544  0.43064063  1
  O2-  O173  1  0.43346642  0.82095667  0.76656040  1
  O2-  O174  1  0.93025124  0.31889712  0.09913662  1
  O2-  O175  1  0.92774063  0.31944867  0.42984227  1
  O2-  O176  1  0.92795061  0.32015037  0.76533581  1
  O2-  O177  1  0.93033863  0.82280332  0.09207187  1
  O2-  O178  1  0.92962176  0.82116225  0.43150851  1
  O2-  O179  1  0.92932628  0.82008665  0.76851283  1
  O2-  O180  1  0.32418653  0.07560084  0.24321509  1
  O2-  O181  1  0.32386566  0.06540203  0.56481863  1
  O2-  O182  1  0.32564343  0.07335752  0.91197566  1
  O2-  O183  1  0.32153793  0.56585270  0.23310488  1
  O2-  O184  1  0.32023020  0.57256135  0.57136111  1
  O2-  O185  1  0.32332017  0.56854676  0.91151212  1
  O2-  O186  1  0.81451819  0.07248449  0.23692644  1
  O2-  O187  1  0.81962697  0.06979465  0.56697141  1
  O2-  O188  1  0.81981056  0.07325492  0.90197418  1
  O2-  O189  1  0.82246480  0.57247196  0.24306364  1
  O2-  O190  1  0.81815047  0.57748447  0.57541202  1
  O2-  O191  1  0.81939268  0.56887250  0.89950021  1
  O2-  O192  1  0.04550844  0.08454447  0.27090472  1
  O2-  O193  1  0.04578899  0.08062714  0.59830727  1
  O2-  O194  1  0.05183499  0.08153197  0.94090088  1
  O2-  O195  1  0.04592091  0.58443214  0.27208196  1
  O2-  O196  1  0.04741521  0.58582862  0.60012883  1
  O2-  O197  1  0.03707529  0.58515658  0.93192713  1
  O2-  O198  1  0.54617218  0.08831124  0.26636748  1
  O2-  O199  1  0.53956660  0.08422969  0.59585493  1
  O2-  O200  1  0.54151606  0.08744571  0.93813903  1
  O2-  O201  1  0.54396871  0.58173733  0.26983376  1
  O2-  O202  1  0.54800682  0.57982150  0.60560831  1
  O2-  O203  1  0.54103342  0.58302299  0.92970218  1
  O2-  O204  1  0.16937782  0.19879142  0.26790247  1
  O2-  O205  1  0.17326719  0.20519012  0.59883042  1
  O2-  O206  1  0.16802801  0.20391799  0.94015283  1
  O2-  O207  1  0.16349926  0.70576707  0.27282497  1
  O2-  O208  1  0.16656019  0.70321506  0.60426317  1
  O2-  O209  1  0.16768216  0.70904460  0.93133297  1
  O2-  O210  1  0.65964947  0.21403043  0.26631602  1
  O2-  O211  1  0.66506049  0.21345916  0.59760781  1
  O2-  O212  1  0.65901022  0.20936417  0.93708379  1
  O2-  O213  1  0.66569401  0.69883788  0.27125161  1
  O2-  O214  1  0.66441414  0.70017074  0.59912627  1
  O2-  O215  1  0.66946553  0.70685807  0.93015168  1
  O2-  O216  1  0.08248125  0.46280628  0.06989633  1
  O2-  O217  1  0.08352025  0.45351553  0.39622908  1
  O2-  O218  1  0.07811026  0.45836536  0.73271141  1
  O2-  O219  1  0.08595441  0.95786359  0.07096875  1
  O2-  O220  1  0.08490887  0.96209633  0.40361457  1
  O2-  O221  1  0.08469203  0.95431129  0.73072364  1
  O2-  O222  1  0.58182169  0.45585827  0.06323111  1
  O2-  O223  1  0.58888668  0.45613050  0.39734719  1
  O2-  O224  1  0.58616765  0.45643741  0.73733509  1
  O2-  O225  1  0.58157104  0.96157874  0.07055599  1
  O2-  O226  1  0.58161181  0.95545198  0.39369786  1
  O2-  O227  1  0.58587151  0.95657011  0.72642559  1
  O2-  O228  1  0.20946557  0.33441945  0.07244032  1
  O2-  O229  1  0.20100268  0.33081750  0.39277526  1
  O2-  O230  1  0.20672455  0.33151296  0.73528873  1
  O2-  O231  1  0.21305456  0.83189025  0.06770024  1
  O2-  O232  1  0.21030786  0.83394304  0.40398898  1
  O2-  O233  1  0.20317027  0.83454904  0.72873700  1
  O2-  O234  1  0.69830604  0.33437749  0.06416618  1
  O2-  O235  1  0.70873378  0.33782155  0.39358696  1
  O2-  O236  1  0.71077517  0.33262739  0.73627768  1
  O2-  O237  1  0.69720293  0.82765253  0.06689060  1
  O2-  O238  1  0.69645485  0.83083332  0.39477601  1
  O2-  O239  1  0.69833239  0.83084664  0.72188367  1
  O2-  O240  1  0.46156973  0.41184061  0.26963994  1
  O2-  O241  1  0.45728918  0.41663435  0.60720016  1
  O2-  O242  1  0.45481160  0.41234524  0.93688092  1
  O2-  O243  1  0.45597220  0.91602418  0.26111607  1
  O2-  O244  1  0.46244557  0.91305650  0.59534674  1
  O2-  O245  1  0.45197916  0.91891910  0.94074568  1
  O2-  O246  1  0.95830092  0.41854368  0.26503671  1
  O2-  O247  1  0.95268886  0.42191484  0.59875337  1
  O2-  O248  1  0.95994140  0.41594843  0.93337849  1
  O2-  O249  1  0.96138285  0.91963485  0.26663445  1
  O2-  O250  1  0.96131567  0.91624247  0.59942835  1
  O2-  O251  1  0.95500874  0.91947910  0.94320510  1
  O2-  O252  1  0.33640089  0.29747629  0.27072507  1
  O2-  O253  1  0.33484581  0.29978151  0.60565248  1
  O2-  O254  1  0.33362174  0.29510993  0.93994901  1
  O2-  O255  1  0.33131592  0.78519167  0.26516479  1
  O2-  O256  1  0.33190242  0.79070539  0.60001913  1
  O2-  O257  1  0.33643380  0.79563442  0.93512585  1
  O2-  O258  1  0.83305992  0.28829922  0.26298838  1
  O2-  O259  1  0.83116241  0.29023539  0.59906089  1
  O2-  O260  1  0.82934381  0.29248023  0.93526354  1
  O2-  O261  1  0.83017377  0.79447411  0.26598358  1
  O2-  O262  1  0.83331738  0.79115634  0.59732757  1
  O2-  O263  1  0.83417044  0.79929563  0.94238384  1
  O2-  O264  1  0.41630810  0.04948777  0.06541189  1
  O2-  O265  1  0.42030300  0.04768570  0.39099412  1
  O2-  O266  1  0.41839969  0.03568326  0.73271108  1
  O2-  O267  1  0.41569144  0.54248812  0.06286272  1
  O2-  O268  1  0.41710245  0.53822181  0.40174240  1
  O2-  O269  1  0.41990604  0.54569610  0.73774966  1
  O2-  O270  1  0.92065774  0.05139523  0.07014784  1
  O2-  O271  1  0.91615363  0.04340606  0.40181226  1
  O2-  O272  1  0.91863941  0.03999920  0.73402621  1
  O2-  O273  1  0.91525033  0.53846786  0.06919797  1
  O2-  O274  1  0.91330112  0.54442469  0.39627679  1
  O2-  O275  1  0.91748060  0.55529607  0.72403992  1
  O2-  O276  1  0.29806309  0.16633616  0.06488218  1
  O2-  O277  1  0.30265945  0.16825555  0.39468490  1
  O2-  O278  1  0.29798107  0.16679113  0.73285681  1
  O2-  O279  1  0.29873486  0.66586459  0.06041344  1
  O2-  O280  1  0.28806061  0.66356846  0.40150679  1
  O2-  O281  1  0.29469830  0.67228908  0.73841812  1
  O2-  O282  1  0.78341830  0.16841447  0.06929909  1
  O2-  O283  1  0.78221961  0.16706138  0.40174543  1
  O2-  O284  1  0.78654557  0.16392531  0.73384240  1
  O2-  O285  1  0.78976447  0.66581711  0.06827972  1
  O2-  O286  1  0.79355900  0.66421960  0.39575007  1
  O2-  O287  1  0.79188052  0.66723568  0.72884280  1
