# generated using pymatgen
data_Ca2Al2SiO7
_symmetry_space_group_name_H-M   'P 1'
_cell_length_a   15.45906825
_cell_length_b   15.45829023
_cell_length_c   15.28445069
_cell_angle_alpha   89.99143456
_cell_angle_beta   90.01309016
_cell_angle_gamma   90.00142005
_symmetry_Int_Tables_number   1
_chemical_formula_structural   Ca2Al2SiO7
_chemical_formula_sum   'Ca48 Al48 Si24 O168'
_cell_volume   3652.53671761
_cell_formula_units_Z   24
loop_
 _symmetry_equiv_pos_site_id
 _symmetry_equiv_pos_as_xyz
  1  'x, y, z'
loop_
 _atom_type_symbol
 _atom_type_oxidation_number
  Ca2+  2.0
  Al0+  0.0
  Si0+  0.0
  O2-  -2.0
loop_
 _atom_site_type_symbol
 _atom_site_label
 _atom_site_symmetry_multiplicity
 _atom_site_fract_x
 _atom_site_fract_y
 _atom_site_fract_z
 _atom_site_occupancy
  Ca2+  Ca0  1  0.15945689  0.07898080  0.17164754  1
  Ca2+  Ca1  1  0.15552632  0.07178667  0.50229983  1
  Ca2+  Ca2  1  0.16094687  0.07577470  0.83893001  1
  Ca2+  Ca3  1  0.17726584  0.59032226  0.17195630  1
  Ca2+  Ca4  1  0.16868606  0.58705626  0.50639371  1
  Ca2+  Ca5  1  0.16361641  0.57300593  0.83847490  1
  Ca2+  Ca6  1  0.67313817  0.08561924  0.17061618  1
  Ca2+  Ca7  1  0.66423574  0.08561316  0.50512516  1
  Ca2+  Ca8  1  0.67306733  0.08215468  0.83883899  1
  Ca2+  Ca9  1  0.66873772  0.57747915  0.16849255  1
  Ca2+  Ca10  1  0.67253017  0.57140281  0.51128467  1
  Ca2+  Ca11  1  0.67056865  0.58397708  0.84055053  1
  Ca2+  Ca12  1  0.08645679  0.32346080  0.16021453  1
  Ca2+  Ca13  1  0.07646404  0.33420948  0.49021838  1
  Ca2+  Ca14  1  0.09087161  0.33105313  0.82934672  1
  Ca2+  Ca15  1  0.08292869  0.82883261  0.16411571  1
  Ca2+  Ca16  1  0.08487791  0.82718386  0.49934884  1
  Ca2+  Ca17  1  0.07308571  0.82541295  0.82534636  1
  Ca2+  Ca18  1  0.58980322  0.33573957  0.16601266  1
  Ca2+  Ca19  1  0.59424581  0.32661511  0.49487102  1
  Ca2+  Ca20  1  0.59025700  0.33408839  0.82858840  1
  Ca2+  Ca21  1  0.57259915  0.82442080  0.15349015  1
  Ca2+  Ca22  1  0.58385816  0.82287598  0.49948699  1
  Ca2+  Ca23  1  0.58077619  0.81789288  0.83167600  1
  Ca2+  Ca24  1  0.32954117  0.42887240  0.16637092  1
  Ca2+  Ca25  1  0.32471136  0.42111249  0.50261863  1
  Ca2+  Ca26  1  0.32340188  0.42186343  0.83976926  1
  Ca2+  Ca27  1  0.32848035  0.91436366  0.17438519  1
  Ca2+  Ca28  1  0.32006170  0.91814687  0.50404601  1
  Ca2+  Ca29  1  0.32933772  0.91272505  0.83530628  1
  Ca2+  Ca30  1  0.82588457  0.41676490  0.16795667  1
  Ca2+  Ca31  1  0.82940782  0.41826648  0.50569515  1
  Ca2+  Ca32  1  0.82393841  0.43271102  0.83783169  1
  Ca2+  Ca33  1  0.84236693  0.92194136  0.16351982  1
  Ca2+  Ca34  1  0.83786140  0.92023872  0.50562287  1
  Ca2+  Ca35  1  0.84034142  0.91881514  0.84149895  1
  Ca2+  Ca36  1  0.42350564  0.16795809  0.16295625  1
  Ca2+  Ca37  1  0.42808498  0.16946059  0.49656570  1
  Ca2+  Ca38  1  0.42497698  0.17162253  0.82555000  1
  Ca2+  Ca39  1  0.41659911  0.66581307  0.15703237  1
  Ca2+  Ca40  1  0.42053897  0.65954453  0.49741117  1
  Ca2+  Ca41  1  0.42529564  0.65813043  0.83601891  1
  Ca2+  Ca42  1  0.92287114  0.17336763  0.16372119  1
  Ca2+  Ca43  1  0.92151577  0.17790941  0.49000072  1
  Ca2+  Ca44  1  0.91884821  0.16717163  0.83516903  1
  Ca2+  Ca45  1  0.92072429  0.66961375  0.15930925  1
  Ca2+  Ca46  1  0.92835043  0.66224949  0.50078293  1
  Ca2+  Ca47  1  0.91151695  0.67215861  0.82498776  1
  Al0+  Al48  1  0.00029335  0.00077414  -0.00256953  1
  Al0+  Al49  1  -0.00102135  0.00055857  0.33591277  1
  Al0+  Al50  1  0.00002925  -0.00037874  0.66839966  1
  Al0+  Al51  1  -0.00287420  0.49587848  0.00814410  1
  Al0+  Al52  1  -0.00039025  0.50256354  0.32166894  1
  Al0+  Al53  1  -0.00067324  0.50042964  0.67126232  1
  Al0+  Al54  1  0.49887387  -0.00024139  -0.00469716  1
  Al0+  Al55  1  0.50028386  0.00009537  0.33084678  1
  Al0+  Al56  1  0.50035551  0.00131972  0.66276878  1
  Al0+  Al57  1  0.49782597  0.49768511  0.00291044  1
  Al0+  Al58  1  0.50108016  0.49827091  0.34264670  1
  Al0+  Al59  1  0.49751434  0.49739471  0.66417240  1
  Al0+  Al60  1  0.25155115  0.24674450  -0.00116768  1
  Al0+  Al61  1  0.25337517  0.25061154  0.33018896  1
  Al0+  Al62  1  0.25283169  0.24865669  0.66694585  1
  Al0+  Al63  1  0.24771180  0.75051006  -0.00230922  1
  Al0+  Al64  1  0.25016030  0.75156902  0.34005619  1
  Al0+  Al65  1  0.25021683  0.75209967  0.67041948  1
  Al0+  Al66  1  0.75321029  0.24867089  0.00659965  1
  Al0+  Al67  1  0.75090179  0.24925599  0.32876483  1
  Al0+  Al68  1  0.75172556  0.24925303  0.66684779  1
  Al0+  Al69  1  0.74875129  0.75120913  -0.00182714  1
  Al0+  Al70  1  0.75023482  0.75067056  0.33312785  1
  Al0+  Al71  1  0.74762329  0.75295825  0.65914068  1
  Al0+  Al72  1  0.17830747  0.42841280  0.67771217  1
  Al0+  Al73  1  0.17754844  0.42455417  0.01614622  1
  Al0+  Al74  1  0.67837332  0.42686255  0.68094457  1
  Al0+  Al75  1  0.07286831  0.68151702  0.31916965  1
  Al0+  Al76  1  0.56897387  0.67666504  0.98709114  1
  Al0+  Al77  1  0.92780038  0.82329683  0.65017249  1
  Al0+  Al78  1  0.17890581  0.93186705  0.34722605  1
  Al0+  Al79  1  0.07102389  0.67760788  0.65384789  1
  Al0+  Al80  1  0.93096708  0.81933878  0.98784740  1
  Al0+  Al81  1  0.31701079  0.57121372  0.01379262  1
  Al0+  Al82  1  0.17837810  0.92988035  0.68380182  1
  Al0+  Al83  1  0.07247684  0.17861093  0.31972695  1
  Al0+  Al84  1  0.42467635  0.82271150  0.98430710  1
  Al0+  Al85  1  0.92844918  0.32328256  0.31648192  1
  Al0+  Al86  1  0.82070605  0.57594425  0.01671900  1
  Al0+  Al87  1  0.81927431  0.57331412  0.67958772  1
  Al0+  Al88  1  0.67837857  0.42932214  0.01577759  1
  Al0+  Al89  1  0.68310481  0.42976009  0.34932042  1
  Al0+  Al90  1  0.82171035  0.06888433  0.01495318  1
  Al0+  Al91  1  0.56931202  0.67687874  0.65116019  1
  Al0+  Al92  1  0.57012049  0.17881699  0.31746072  1
  Al0+  Al93  1  0.07095994  0.18101510  0.98429253  1
  Al0+  Al94  1  0.31995021  0.57122670  0.34907039  1
  Al0+  Al95  1  0.57239744  0.18136523  0.65398003  1
  Si0+  Si96  1  0.32363363  0.07049040  0.68387159  1
  Si0+  Si97  1  0.67576502  0.92920197  0.01595005  1
  Si0+  Si98  1  0.07315654  0.17870150  0.65263726  1
  Si0+  Si99  1  0.43030468  0.81924287  0.32107710  1
  Si0+  Si100  1  0.82424078  0.57604223  0.35040761  1
  Si0+  Si101  1  0.57344225  0.17905682  0.98527641  1
  Si0+  Si102  1  0.67641904  0.92983640  0.68073532  1
  Si0+  Si103  1  0.42849047  0.82315999  0.64784294  1
  Si0+  Si104  1  0.17981853  0.93113695  0.01435400  1
  Si0+  Si105  1  0.32217675  0.57303159  0.68402202  1
  Si0+  Si106  1  0.93115376  0.31978625  0.65450729  1
  Si0+  Si107  1  0.42900645  0.32411266  0.31509258  1
  Si0+  Si108  1  0.17686366  0.42784197  0.34684733  1
  Si0+  Si109  1  0.92617460  0.32171798  0.98070236  1
  Si0+  Si110  1  0.32376620  0.07036626  0.01471019  1
  Si0+  Si111  1  0.32560421  0.07349910  0.34995314  1
  Si0+  Si112  1  0.07132245  0.67463013  0.98471200  1
  Si0+  Si113  1  0.82071674  0.07017071  0.68110604  1
  Si0+  Si114  1  0.67620920  0.92813025  0.34836218  1
  Si0+  Si115  1  0.92679029  0.82283597  0.31635172  1
  Si0+  Si116  1  0.42959813  0.31884140  0.98491558  1
  Si0+  Si117  1  0.81882143  0.06901613  0.34942456  1
  Si0+  Si118  1  0.57098141  0.67735048  0.31995756  1
  Si0+  Si119  1  0.42565405  0.32125405  0.64785175  1
  O2-  O120  1  0.25566881  -0.00309402  0.05687946  1
  O2-  O121  1  0.25033398  0.01150222  0.39316365  1
  O2-  O122  1  0.25338347  0.00487687  0.72995273  1
  O2-  O123  1  0.24171498  0.50370692  0.06595411  1
  O2-  O124  1  0.24229893  0.49815340  0.39360283  1
  O2-  O125  1  0.25040229  0.50571620  0.72482367  1
  O2-  O126  1  0.74543746  -0.00423711  0.06230527  1
  O2-  O127  1  0.74758573  -0.00167089  0.39201650  1
  O2-  O128  1  0.75124665  -0.00284042  0.72252422  1
  O2-  O129  1  0.74865362  0.50306682  0.06559934  1
  O2-  O130  1  0.75809071  0.50475466  0.39451141  1
  O2-  O131  1  0.74222945  0.50626905  0.72960570  1
  O2-  O132  1  0.00631913  0.25525328  0.26909714  1
  O2-  O133  1  0.00641112  0.25328947  0.61108713  1
  O2-  O134  1  0.00106557  0.25933606  0.93586852  1
  O2-  O135  1  -0.00559724  0.75300568  0.27334165  1
  O2-  O136  1  -0.00081481  0.74970855  0.60216714  1
  O2-  O137  1  -0.00254292  0.73791677  0.94091149  1
  O2-  O138  1  0.49608762  0.25354734  0.27041435  1
  O2-  O139  1  0.50072642  0.25796453  0.60570915  1
  O2-  O140  1  0.50467270  0.25145606  0.94280205  1
  O2-  O141  1  0.50040391  0.74852294  0.27771594  1
  O2-  O142  1  0.49253333  0.75014627  0.60323976  1
  O2-  O143  1  0.49610496  0.74883737  0.93703403  1
  O2-  O144  1  0.06972643  0.17828279  0.09712451  1
  O2-  O145  1  0.06747796  0.17744825  0.43394093  1
  O2-  O146  1  0.07158531  0.17798870  0.75773247  1
  O2-  O147  1  0.07536658  0.68224796  0.09030315  1
  O2-  O148  1  0.07394172  0.68225165  0.43211754  1
  O2-  O149  1  0.06969625  0.67726165  0.76728456  1
  O2-  O150  1  0.57019597  0.17679238  0.09033090  1
  O2-  O151  1  0.56953898  0.17782669  0.43069510  1
  O2-  O152  1  0.57115364  0.17990664  0.76730716  1
  O2-  O153  1  0.56684505  0.67886406  0.10139385  1
  O2-  O154  1  0.57055377  0.67999776  0.42507405  1
  O2-  O155  1  0.56895587  0.67850810  0.76387403  1
  O2-  O156  1  0.18192572  0.42651229  0.24191457  1
  O2-  O157  1  0.17967859  0.42562519  0.56441624  1
  O2-  O158  1  0.18319236  0.42342205  0.90222210  1
  O2-  O159  1  0.18148013  0.93142012  0.23375053  1
  O2-  O160  1  0.17871939  0.93273407  0.57048544  1
  O2-  O161  1  0.17934729  0.93439522  0.90944061  1
  O2-  O162  1  0.68117042  0.43233598  0.23661804  1
  O2-  O163  1  0.68520710  0.42352990  0.56740110  1
  O2-  O164  1  0.68025942  0.42753701  0.90234739  1
  O2-  O165  1  0.67425499  0.92877740  0.24365571  1
  O2-  O166  1  0.67456153  0.93309911  0.57515347  1
  O2-  O167  1  0.67489752  0.93281893  0.91024744  1
  O2-  O168  1  0.42817623  0.31560440  0.08996677  1
  O2-  O169  1  0.42781895  0.32219014  0.42068239  1
  O2-  O170  1  0.42130567  0.31744091  0.75340123  1
  O2-  O171  1  0.42684312  0.82531459  0.09866534  1
  O2-  O172  1  0.43261917  0.82022347  0.42608209  1
  O2-  O173  1  0.43205339  0.82668467  0.75288663  1
  O2-  O174  1  0.92355309  0.31602850  0.08584941  1
  O2-  O175  1  0.92853550  0.32012585  0.43138978  1
  O2-  O176  1  0.92949231  0.31561005  0.75913609  1
  O2-  O177  1  0.93697190  0.82308876  0.10116226  1
  O2-  O178  1  0.92579808  0.82463618  0.42148326  1
  O2-  O179  1  0.93025173  0.82624533  0.76368008  1
  O2-  O180  1  0.33103520  0.06839321  0.24442765  1
  O2-  O181  1  0.32509502  0.06901246  0.57829858  1
  O2-  O182  1  0.32450339  0.07214047  0.90972910  1
  O2-  O183  1  0.32104902  0.57276059  0.23630647  1
  O2-  O184  1  0.32206561  0.57150719  0.57802653  1
  O2-  O185  1  0.31847167  0.56744720  0.90031683  1
  O2-  O186  1  0.81959127  0.06659212  0.24449801  1
  O2-  O187  1  0.82010654  0.07167317  0.57577376  1
  O2-  O188  1  0.81963278  0.06879155  0.90137788  1
  O2-  O189  1  0.81902413  0.58110741  0.24531772  1
  O2-  O190  1  0.82223605  0.56753817  0.56577625  1
  O2-  O191  1  0.81882509  0.57678656  0.90303309  1
  O2-  O192  1  0.03814799  0.08138372  0.26742113  1
  O2-  O193  1  0.03950277  0.08888351  0.60555197  1
  O2-  O194  1  0.03448417  0.08645161  0.92945982  1
  O2-  O195  1  0.04896170  0.58535799  0.26202050  1
  O2-  O196  1  0.04291273  0.57865244  0.60015908  1
  O2-  O197  1  0.05208580  0.57676942  0.94591981  1
  O2-  O198  1  0.53932632  0.08198395  0.26300528  1
  O2-  O199  1  0.53905718  0.08587906  0.59794592  1
  O2-  O200  1  0.54417415  0.08835851  0.93639848  1
  O2-  O201  1  0.54224913  0.58476001  0.27630654  1
  O2-  O202  1  0.53964858  0.57950336  0.59704992  1
  O2-  O203  1  0.53937103  0.57837792  0.93415992  1
  O2-  O204  1  0.17451305  0.19774391  0.26955309  1
  O2-  O205  1  0.16728277  0.19926390  0.60709084  1
  O2-  O206  1  0.16999703  0.20495506  0.93078357  1
  O2-  O207  1  0.16867483  0.71877759  0.26685250  1
  O2-  O208  1  0.17073255  0.70761697  0.60325261  1
  O2-  O209  1  0.16215790  0.70470980  0.93610238  1
  O2-  O210  1  0.66654033  0.20783028  0.26384040  1
  O2-  O211  1  0.66989604  0.20844840  0.59884466  1
  O2-  O212  1  0.66687334  0.20463233  0.94067243  1
  O2-  O213  1  0.66284990  0.70576931  0.27322717  1
  O2-  O214  1  0.66301503  0.71150001  0.59365084  1
  O2-  O215  1  0.66566224  0.70888163  0.93311575  1
  O2-  O216  1  0.07550942  0.43846083  0.06493143  1
  O2-  O217  1  0.08042210  0.45066749  0.38769980  1
  O2-  O218  1  0.08249697  0.45470466  0.73490467  1
  O2-  O219  1  0.09074798  0.96527045  0.06235188  1
  O2-  O220  1  0.08181577  0.96045105  0.40246933  1
  O2-  O221  1  0.08266927  0.96383212  0.73773341  1
  O2-  O222  1  0.57864482  0.45225540  0.06838195  1
  O2-  O223  1  0.58650752  0.45758077  0.40502471  1
  O2-  O224  1  0.57482959  0.44434925  0.72661629  1
  O2-  O225  1  0.58230562  0.95724065  0.06206730  1
  O2-  O226  1  0.58517140  0.95701164  0.39712788  1
  O2-  O227  1  0.58672268  0.96254106  0.72892646  1
  O2-  O228  1  0.21498394  0.32805450  0.06800252  1
  O2-  O229  1  0.20426065  0.33399599  0.39344061  1
  O2-  O230  1  0.21201934  0.33165360  0.73129630  1
  O2-  O231  1  0.20245578  0.83771825  0.06053010  1
  O2-  O232  1  0.21513152  0.83909064  0.40461307  1
  O2-  O233  1  0.20906879  0.83389554  0.73851174  1
  O2-  O234  1  0.70918808  0.33126355  0.06919782  1
  O2-  O235  1  0.71387624  0.33072562  0.39930937  1
  O2-  O236  1  0.71276116  0.33031253  0.73453450  1
  O2-  O237  1  0.69815303  0.83531139  0.06153791  1
  O2-  O238  1  0.70356814  0.83594587  0.39604691  1
  O2-  O239  1  0.69921177  0.83649748  0.72582196  1
  O2-  O240  1  0.45918911  0.41715891  0.27092270  1
  O2-  O241  1  0.44306294  0.41631411  0.60253478  1
  O2-  O242  1  0.45343964  0.41095309  0.93731383  1
  O2-  O243  1  0.45741133  0.91082501  0.27245065  1
  O2-  O244  1  0.45832056  0.91485287  0.59945373  1
  O2-  O245  1  0.45381914  0.92076193  0.92960403  1
  O2-  O246  1  0.94642054  0.42277674  0.26291824  1
  O2-  O247  1  0.95531173  0.41216275  0.60748098  1
  O2-  O248  1  0.94386769  0.41863899  0.93886368  1
  O2-  O249  1  0.95454357  0.91630012  0.27123394  1
  O2-  O250  1  0.95975346  0.92180112  0.59723817  1
  O2-  O251  1  0.96685941  0.91370572  0.93248476  1
  O2-  O252  1  0.33570428  0.30082642  0.26729275  1
  O2-  O253  1  0.33588824  0.28771933  0.59713602  1
  O2-  O254  1  0.34100886  0.28507095  0.93478528  1
  O2-  O255  1  0.33819348  0.79242183  0.27489154  1
  O2-  O256  1  0.33256809  0.80183256  0.60508856  1
  O2-  O257  1  0.32597708  0.79727696  0.93099414  1
  O2-  O258  1  0.83437486  0.28522792  0.26193399  1
  O2-  O259  1  0.84225583  0.28581459  0.60452871  1
  O2-  O260  1  0.83558924  0.28611510  0.93407150  1
  O2-  O261  1  0.83194428  0.80063103  0.27007054  1
  O2-  O262  1  0.82773591  0.80375530  0.59694742  1
  O2-  O263  1  0.83071173  0.80020922  0.93616295  1
  O2-  O264  1  0.41654988  0.04545496  0.06262181  1
  O2-  O265  1  0.41626104  0.04052539  0.39894131  1
  O2-  O266  1  0.41684941  0.04276494  0.73043095  1
  O2-  O267  1  0.41368378  0.53852255  0.06797069  1
  O2-  O268  1  0.41455796  0.53730238  0.40546605  1
  O2-  O269  1  0.41431522  0.54260047  0.73000215  1
  O2-  O270  1  0.91727699  0.03445709  0.06889718  1
  O2-  O271  1  0.90970092  0.04137059  0.39906217  1
  O2-  O272  1  0.91233919  0.04411334  0.72948968  1
  O2-  O273  1  0.91880489  0.54793936  0.07045661  1
  O2-  O274  1  0.92064565  0.55210233  0.39104689  1
  O2-  O275  1  0.91527968  0.54191119  0.73503959  1
  O2-  O276  1  0.29450751  0.16026901  0.06416689  1
  O2-  O277  1  0.30863256  0.17024558  0.39260254  1
  O2-  O278  1  0.30128068  0.16499466  0.72915924  1
  O2-  O279  1  0.29249187  0.67187839  0.06594848  1
  O2-  O280  1  0.29164100  0.66740842  0.40501149  1
  O2-  O281  1  0.30321800  0.66819426  0.72842075  1
  O2-  O282  1  0.79138239  0.16348997  0.07174672  1
  O2-  O283  1  0.79023617  0.16077254  0.39587757  1
  O2-  O284  1  0.79088327  0.16021925  0.73027724  1
  O2-  O285  1  0.79307430  0.67489713  0.06979095  1
  O2-  O286  1  0.79744873  0.66926156  0.39760261  1
  O2-  O287  1  0.79360817  0.67497419  0.72671507  1
