# generated using pymatgen
data_Ca2Al2SiO7
_symmetry_space_group_name_H-M   'P 1'
_cell_length_a   15.46857858
_cell_length_b   15.46742592
_cell_length_c   15.29027190
_cell_angle_alpha   90.00196031
_cell_angle_beta   89.98890976
_cell_angle_gamma   90.00484757
_symmetry_Int_Tables_number   1
_chemical_formula_structural   Ca2Al2SiO7
_chemical_formula_sum   'Ca48 Al48 Si24 O168'
_cell_volume   3658.33650696
_cell_formula_units_Z   24
loop_
 _symmetry_equiv_pos_site_id
 _symmetry_equiv_pos_as_xyz
  1  'x, y, z'
loop_
 _atom_type_symbol
 _atom_type_oxidation_number
  Ca2+  2.0
  Al0+  0.0
  Si0+  0.0
  O2-  -2.0
loop_
 _atom_site_type_symbol
 _atom_site_label
 _atom_site_symmetry_multiplicity
 _atom_site_fract_x
 _atom_site_fract_y
 _atom_site_fract_z
 _atom_site_occupancy
  Ca2+  Ca0  1  0.17123599  0.07275228  0.17360959  1
  Ca2+  Ca1  1  0.17118510  0.07304366  0.50237276  1
  Ca2+  Ca2  1  0.17499039  0.07048107  0.83961052  1
  Ca2+  Ca3  1  0.15730615  0.57869151  0.17128697  1
  Ca2+  Ca4  1  0.16036043  0.58477887  0.49893992  1
  Ca2+  Ca5  1  0.16802689  0.57766747  0.84001479  1
  Ca2+  Ca6  1  0.67431317  0.08451590  0.16654971  1
  Ca2+  Ca7  1  0.67445729  0.08136122  0.50441869  1
  Ca2+  Ca8  1  0.67791422  0.07920288  0.83721806  1
  Ca2+  Ca9  1  0.67463583  0.58258246  0.17291954  1
  Ca2+  Ca10  1  0.67374811  0.58488600  0.49845761  1
  Ca2+  Ca11  1  0.67596980  0.58313850  0.84325243  1
  Ca2+  Ca12  1  0.07276129  0.33074297  0.16160374  1
  Ca2+  Ca13  1  0.07526558  0.32229140  0.48708236  1
  Ca2+  Ca14  1  0.07843702  0.33459044  0.83449166  1
  Ca2+  Ca15  1  0.08429057  0.83128951  0.16379625  1
  Ca2+  Ca16  1  0.08109975  0.83453824  0.49527297  1
  Ca2+  Ca17  1  0.07740289  0.84237776  0.83232821  1
  Ca2+  Ca18  1  0.58764676  0.33814252  0.16137447  1
  Ca2+  Ca19  1  0.58450741  0.33246943  0.49335362  1
  Ca2+  Ca20  1  0.58718283  0.33322530  0.83460262  1
  Ca2+  Ca21  1  0.58104559  0.82288047  0.16351243  1
  Ca2+  Ca22  1  0.57028410  0.83234543  0.49129749  1
  Ca2+  Ca23  1  0.57943746  0.82845807  0.82935749  1
  Ca2+  Ca24  1  0.32531807  0.41641344  0.16633154  1
  Ca2+  Ca25  1  0.33102520  0.41986660  0.50193922  1
  Ca2+  Ca26  1  0.32476257  0.41725986  0.84129633  1
  Ca2+  Ca27  1  0.32510248  0.92039262  0.17631505  1
  Ca2+  Ca28  1  0.32517657  0.91580358  0.50635745  1
  Ca2+  Ca29  1  0.32546406  0.91780285  0.83896873  1
  Ca2+  Ca30  1  0.82937510  0.42266582  0.17210244  1
  Ca2+  Ca31  1  0.83613337  0.42763871  0.49806413  1
  Ca2+  Ca32  1  0.83196456  0.43014452  0.84462965  1
  Ca2+  Ca33  1  0.84132559  0.92090573  0.16545630  1
  Ca2+  Ca34  1  0.83653448  0.92145546  0.50955674  1
  Ca2+  Ca35  1  0.84663509  0.92520834  0.83862998  1
  Ca2+  Ca36  1  0.41298391  0.16194936  0.16318907  1
  Ca2+  Ca37  1  0.41198885  0.16229852  0.49531204  1
  Ca2+  Ca38  1  0.41227176  0.16161025  0.83016167  1
  Ca2+  Ca39  1  0.42852168  0.66795779  0.16433394  1
  Ca2+  Ca40  1  0.41980482  0.68045654  0.48958143  1
  Ca2+  Ca41  1  0.42516521  0.67073041  0.82860965  1
  Ca2+  Ca42  1  0.91824291  0.17636053  0.16008684  1
  Ca2+  Ca43  1  0.92263289  0.16953726  0.48931630  1
  Ca2+  Ca44  1  0.90871489  0.17163980  0.83043198  1
  Ca2+  Ca45  1  0.91602647  0.66807795  0.16153330  1
  Ca2+  Ca46  1  0.91740866  0.66850398  0.49574342  1
  Ca2+  Ca47  1  0.91078553  0.67665886  0.83052560  1
  Al0+  Al48  1  0.00336336  0.00108471  0.00571732  1
  Al0+  Al49  1  0.00238523  0.00096615  0.33353997  1
  Al0+  Al50  1  0.00164082  0.00128769  0.66958211  1
  Al0+  Al51  1  -0.00004485  0.49937514  0.00183364  1
  Al0+  Al52  1  -0.00239894  0.50084674  0.33196111  1
  Al0+  Al53  1  -0.00221196  0.49956215  0.67075868  1
  Al0+  Al54  1  0.50152857  0.00061541  0.00078975  1
  Al0+  Al55  1  0.50036126  0.00248029  0.33123585  1
  Al0+  Al56  1  0.50159051  0.00102903  0.66439743  1
  Al0+  Al57  1  0.49996153  0.49857866  -0.00462508  1
  Al0+  Al58  1  0.49992526  0.49883169  0.33424752  1
  Al0+  Al59  1  0.49935541  0.49742871  0.66526762  1
  Al0+  Al60  1  0.25026198  0.25111301  0.00554836  1
  Al0+  Al61  1  0.24984341  0.24915058  0.33245736  1
  Al0+  Al62  1  0.24941052  0.24961338  0.66793367  1
  Al0+  Al63  1  0.25177555  0.74939622  0.00228372  1
  Al0+  Al64  1  0.24770945  0.74986878  0.32863620  1
  Al0+  Al65  1  0.24998166  0.74725925  0.66836363  1
  Al0+  Al66  1  0.74985690  0.24990451  0.00037908  1
  Al0+  Al67  1  0.74760603  0.25167594  0.33398701  1
  Al0+  Al68  1  0.74832317  0.25097650  0.66712227  1
  Al0+  Al69  1  0.75039665  0.75116611  -0.00614537  1
  Al0+  Al70  1  0.74913167  0.75092386  0.33494982  1
  Al0+  Al71  1  0.75063851  0.74922059  0.66486101  1
  Al0+  Al72  1  0.82139551  0.07081478  0.01388966  1
  Al0+  Al73  1  0.82150548  0.07108413  0.67851866  1
  Al0+  Al74  1  0.42796589  0.82315526  0.31690105  1
  Al0+  Al75  1  0.17961872  0.92562244  0.68329696  1
  Al0+  Al76  1  0.92714575  0.32012098  0.31824995  1
  Al0+  Al77  1  0.93200218  0.82172466  0.98734086  1
  Al0+  Al78  1  0.07246128  0.17765383  0.31658708  1
  Al0+  Al79  1  0.67727281  0.42858090  0.35040327  1
  Al0+  Al80  1  0.42928549  0.82021533  0.65401119  1
  Al0+  Al81  1  0.32205851  0.07141331  0.35001150  1
  Al0+  Al82  1  0.57134561  0.67836877  0.31863255  1
  Al0+  Al83  1  0.17970627  0.92682795  0.01830731  1
  Al0+  Al84  1  0.82180620  0.57315944  0.35007466  1
  Al0+  Al85  1  0.82058477  0.57431152  0.01566387  1
  Al0+  Al86  1  0.06889346  0.67971231  0.32084270  1
  Al0+  Al87  1  0.67856716  0.42968248  0.01378403  1
  Al0+  Al88  1  0.32215112  0.07137458  0.68194707  1
  Al0+  Al89  1  0.17861119  0.92637469  0.35100263  1
  Al0+  Al90  1  0.17833800  0.43040961  0.01430587  1
  Al0+  Al91  1  0.92804702  0.32048590  0.98394402  1
  Al0+  Al92  1  0.32287542  0.07036230  0.01582483  1
  Al0+  Al93  1  0.57091737  0.67798484  0.98474479  1
  Al0+  Al94  1  0.82047752  0.57115830  0.68234190  1
  Al0+  Al95  1  0.93086970  0.82209296  0.65361240  1
  Si0+  Si96  1  0.67615917  0.42834604  0.68415355  1
  Si0+  Si97  1  0.92657101  0.82397313  0.31848100  1
  Si0+  Si98  1  0.92789719  0.32169499  0.65159128  1
  Si0+  Si99  1  0.32077112  0.56984437  0.34717221  1
  Si0+  Si100  1  0.57100431  0.17987339  0.31742942  1
  Si0+  Si101  1  0.42805700  0.32167318  0.31796676  1
  Si0+  Si102  1  0.17912464  0.42872032  0.67981981  1
  Si0+  Si103  1  0.07411386  0.67679384  0.98306455  1
  Si0+  Si104  1  0.67837879  0.92805890  0.68152957  1
  Si0+  Si105  1  0.07129753  0.67473853  0.65201020  1
  Si0+  Si106  1  0.57170765  0.18050441  0.65072672  1
  Si0+  Si107  1  0.42898553  0.82259498  0.98294443  1
  Si0+  Si108  1  0.82010666  0.07098530  0.34687759  1
  Si0+  Si109  1  0.57188677  0.67552053  0.64863159  1
  Si0+  Si110  1  0.07289830  0.18013864  0.98192625  1
  Si0+  Si111  1  0.17820364  0.42940484  0.34850816  1
  Si0+  Si112  1  0.67878678  0.92973795  0.34724966  1
  Si0+  Si113  1  0.42684148  0.32011827  0.65108531  1
  Si0+  Si114  1  0.42816247  0.31949284  0.98407021  1
  Si0+  Si115  1  0.32293726  0.57102645  0.01592368  1
  Si0+  Si116  1  0.07139297  0.18105992  0.65270371  1
  Si0+  Si117  1  0.67773603  0.92803612  0.01591022  1
  Si0+  Si118  1  0.32239181  0.56947326  0.68060188  1
  Si0+  Si119  1  0.57178694  0.17766742  0.98340046  1
  O2-  O120  1  0.25412261  -0.00297186  0.06634108  1
  O2-  O121  1  0.25291557  -0.00293149  0.39971132  1
  O2-  O122  1  0.25496052  -0.00443852  0.73149371  1
  O2-  O123  1  0.24923214  0.50862276  0.06108664  1
  O2-  O124  1  0.24842511  0.50070257  0.39184779  1
  O2-  O125  1  0.24981842  0.49989292  0.72227194  1
  O2-  O126  1  0.74888427  -0.00592872  0.06063777  1
  O2-  O127  1  0.75307357  -0.00286721  0.39040406  1
  O2-  O128  1  0.75175410  -0.00819673  0.72574035  1
  O2-  O129  1  0.74898282  0.50158076  0.06456172  1
  O2-  O130  1  0.74881103  0.50098179  0.39947907  1
  O2-  O131  1  0.74277887  0.49855441  0.72720450  1
  O2-  O132  1  -0.00137286  0.24815257  0.26781935  1
  O2-  O133  1  -0.00292186  0.24897960  0.60987032  1
  O2-  O134  1  0.00165871  0.24517168  0.93477624  1
  O2-  O135  1  -0.00547428  0.75452030  0.27532293  1
  O2-  O136  1  0.00565451  0.74668646  0.60859465  1
  O2-  O137  1  0.00677771  0.74670755  0.93923937  1
  O2-  O138  1  0.49851389  0.25000507  0.27659974  1
  O2-  O139  1  0.49780088  0.24928672  0.60894346  1
  O2-  O140  1  0.49838975  0.24737475  0.94214445  1
  O2-  O141  1  0.49995045  0.75053046  0.26802140  1
  O2-  O142  1  0.50393751  0.74560183  0.60604148  1
  O2-  O143  1  0.49637401  0.75302797  0.93776013  1
  O2-  O144  1  0.07156545  0.18385048  0.08712957  1
  O2-  O145  1  0.07019735  0.17954170  0.43143221  1
  O2-  O146  1  0.07344635  0.18521582  0.75748690  1
  O2-  O147  1  0.07359155  0.67651561  0.08841928  1
  O2-  O148  1  0.06808568  0.67858773  0.43437832  1
  O2-  O149  1  0.07089669  0.66915443  0.75715142  1
  O2-  O150  1  0.57281971  0.17757510  0.08838873  1
  O2-  O151  1  0.57304862  0.18038358  0.42287575  1
  O2-  O152  1  0.57444997  0.18276419  0.75556767  1
  O2-  O153  1  0.56846382  0.67820261  0.09736625  1
  O2-  O154  1  0.56812734  0.68051806  0.43266386  1
  O2-  O155  1  0.56914896  0.67390816  0.75432653  1
  O2-  O156  1  0.18039879  0.43004958  0.24377552  1
  O2-  O157  1  0.18052077  0.42840067  0.57460904  1
  O2-  O158  1  0.18210359  0.43021868  0.90019349  1
  O2-  O159  1  0.17852650  0.92718486  0.23801440  1
  O2-  O160  1  0.17869758  0.92636775  0.57016496  1
  O2-  O161  1  0.18088690  0.92796020  0.90443915  1
  O2-  O162  1  0.67630476  0.42742694  0.23763133  1
  O2-  O163  1  0.67443364  0.42668520  0.57896212  1
  O2-  O164  1  0.67904693  0.43058380  0.89963284  1
  O2-  O165  1  0.67892446  0.93201235  0.24230677  1
  O2-  O166  1  0.67735683  0.93233980  0.57563559  1
  O2-  O167  1  0.67416039  0.93173276  0.91015214  1
  O2-  O168  1  0.42769644  0.32132216  0.08898313  1
  O2-  O169  1  0.42731730  0.32253984  0.42360490  1
  O2-  O170  1  0.42563535  0.32214759  0.75590936  1
  O2-  O171  1  0.43100756  0.82232119  0.08804092  1
  O2-  O172  1  0.42973907  0.82128596  0.43112770  1
  O2-  O173  1  0.43230072  0.81685114  0.76722583  1
  O2-  O174  1  0.92811866  0.31912375  0.09637844  1
  O2-  O175  1  0.93015091  0.31773102  0.43309644  1
  O2-  O176  1  0.92911643  0.32206375  0.75663409  1
  O2-  O177  1  0.93174011  0.82100464  0.10031415  1
  O2-  O178  1  0.92667871  0.82528509  0.42439831  1
  O2-  O179  1  0.93216433  0.82225215  0.76640930  1
  O2-  O180  1  0.32174465  0.07163064  0.23698367  1
  O2-  O181  1  0.31847958  0.07479157  0.56917032  1
  O2-  O182  1  0.32218407  0.06972826  0.90200468  1
  O2-  O183  1  0.32197282  0.56528777  0.24239452  1
  O2-  O184  1  0.32394299  0.56696230  0.57550933  1
  O2-  O185  1  0.32265244  0.56748654  0.90955715  1
  O2-  O186  1  0.81716102  0.07144858  0.24196563  1
  O2-  O187  1  0.81849835  0.07280002  0.56497783  1
  O2-  O188  1  0.81797952  0.07095621  0.90050218  1
  O2-  O189  1  0.82146048  0.57390190  0.23722073  1
  O2-  O190  1  0.82343884  0.56823549  0.56971785  1
  O2-  O191  1  0.81911304  0.57296760  0.90149539  1
  O2-  O192  1  0.04472595  0.07931902  0.26472895  1
  O2-  O193  1  0.04533834  0.08889048  0.60625520  1
  O2-  O194  1  0.05049509  0.08478041  0.93933455  1
  O2-  O195  1  0.03961381  0.58321853  0.26621248  1
  O2-  O196  1  0.04222986  0.58202535  0.60412993  1
  O2-  O197  1  0.04939027  0.58285996  0.93708155  1
  O2-  O198  1  0.54619838  0.08876621  0.26782358  1
  O2-  O199  1  0.54862108  0.08832524  0.60195319  1
  O2-  O200  1  0.54636147  0.08568970  0.93442363  1
  O2-  O201  1  0.54028968  0.57996133  0.26749896  1
  O2-  O202  1  0.54445519  0.58163848  0.60363647  1
  O2-  O203  1  0.53742839  0.58256407  0.92828300  1
  O2-  O204  1  0.16991759  0.20901773  0.26463086  1
  O2-  O205  1  0.16120198  0.21359520  0.60354334  1
  O2-  O206  1  0.16569206  0.21161650  0.93680590  1
  O2-  O207  1  0.16551635  0.70440364  0.26430014  1
  O2-  O208  1  0.16705512  0.69437333  0.60762864  1
  O2-  O209  1  0.17004208  0.69851445  0.93827904  1
  O2-  O210  1  0.66159137  0.20879553  0.26864977  1
  O2-  O211  1  0.66164086  0.21190423  0.60024087  1
  O2-  O212  1  0.66165359  0.20818466  0.93364320  1
  O2-  O213  1  0.66948033  0.70866527  0.26685907  1
  O2-  O214  1  0.66595254  0.69966700  0.60410782  1
  O2-  O215  1  0.66553650  0.71050990  0.92800225  1
  O2-  O216  1  0.08229956  0.45762751  0.06915002  1
  O2-  O217  1  0.08708542  0.45749523  0.39650773  1
  O2-  O218  1  0.08796017  0.45561735  0.72838737  1
  O2-  O219  1  0.08332561  0.95752243  0.07242146  1
  O2-  O220  1  0.08001585  0.95790626  0.40365222  1
  O2-  O221  1  0.08343178  0.96064160  0.73636534  1
  O2-  O222  1  0.57738253  0.45326062  0.06279459  1
  O2-  O223  1  0.57768316  0.45480848  0.40392792  1
  O2-  O224  1  0.58051647  0.44963511  0.72918436  1
  O2-  O225  1  0.58647088  0.95686951  0.06433845  1
  O2-  O226  1  0.58919223  0.96293201  0.39586992  1
  O2-  O227  1  0.58775845  0.95969802  0.72975106  1
  O2-  O228  1  0.21454954  0.33740937  0.07014886  1
  O2-  O229  1  0.20852881  0.33862477  0.39649433  1
  O2-  O230  1  0.20933280  0.33895764  0.72911424  1
  O2-  O231  1  0.20516914  0.82647013  0.06848054  1
  O2-  O232  1  0.20458696  0.82598638  0.40161386  1
  O2-  O233  1  0.20386962  0.82542610  0.73529701  1
  O2-  O234  1  0.70429444  0.33040286  0.06470924  1
  O2-  O235  1  0.70527132  0.32956548  0.40436324  1
  O2-  O236  1  0.70251722  0.33487493  0.72976931  1
  O2-  O237  1  0.70158003  0.83383639  0.05930168  1
  O2-  O238  1  0.70134215  0.83786274  0.39631810  1
  O2-  O239  1  0.69690896  0.83215990  0.72443250  1
  O2-  O240  1  0.45522578  0.41272768  0.26970745  1
  O2-  O241  1  0.45441229  0.41177820  0.60191129  1
  O2-  O242  1  0.45572251  0.40971961  0.93260240  1
  O2-  O243  1  0.45885621  0.92115081  0.26543404  1
  O2-  O244  1  0.46042254  0.91706061  0.60021359  1
  O2-  O245  1  0.45711075  0.91580127  0.93685798  1
  O2-  O246  1  0.95677713  0.41793186  0.26729197  1
  O2-  O247  1  0.95959067  0.41248844  0.60472888  1
  O2-  O248  1  0.96240154  0.41700721  0.93054372  1
  O2-  O249  1  0.95233090  0.91737262  0.27272768  1
  O2-  O250  1  0.95978724  0.92012364  0.60029149  1
  O2-  O251  1  0.96427934  0.91968690  0.93495317  1
  O2-  O252  1  0.33645402  0.29521200  0.26993694  1
  O2-  O253  1  0.33491183  0.29401934  0.60233564  1
  O2-  O254  1  0.33601564  0.29245485  0.93596130  1
  O2-  O255  1  0.33074174  0.79288238  0.26491149  1
  O2-  O256  1  0.33276407  0.78662435  0.60114029  1
  O2-  O257  1  0.33504068  0.79622264  0.93753592  1
  O2-  O258  1  0.82841025  0.29157948  0.26729990  1
  O2-  O259  1  0.83484910  0.29607667  0.60602261  1
  O2-  O260  1  0.83149920  0.28849738  0.92951752  1
  O2-  O261  1  0.83225426  0.80141631  0.27334569  1
  O2-  O262  1  0.83264636  0.79427861  0.60006389  1
  O2-  O263  1  0.83484199  0.79574908  0.93111271  1
  O2-  O264  1  0.42399200  0.04792640  0.06579151  1
  O2-  O265  1  0.42384402  0.04915399  0.39970236  1
  O2-  O266  1  0.42444324  0.05041697  0.72997387  1
  O2-  O267  1  0.41343486  0.53705083  0.06167667  1
  O2-  O268  1  0.41013126  0.53909159  0.39765950  1
  O2-  O269  1  0.41295752  0.53843826  0.72923991  1
  O2-  O270  1  0.91765237  0.04345723  0.06845598  1
  O2-  O271  1  0.91302666  0.04706088  0.39341968  1
  O2-  O272  1  0.91840481  0.04648633  0.73342073  1
  O2-  O273  1  0.91993815  0.54714546  0.06508303  1
  O2-  O274  1  0.91932280  0.54085224  0.40441740  1
  O2-  O275  1  0.91567383  0.53749206  0.73775136  1
  O2-  O276  1  0.29600576  0.16948721  0.06701106  1
  O2-  O277  1  0.29350020  0.17135544  0.40152434  1
  O2-  O278  1  0.29145639  0.17009836  0.73469577  1
  O2-  O279  1  0.30587348  0.66626664  0.06013876  1
  O2-  O280  1  0.29295151  0.66174625  0.39338957  1
  O2-  O281  1  0.29653962  0.65982428  0.73067247  1
  O2-  O282  1  0.78549385  0.16499429  0.06806688  1
  O2-  O283  1  0.78783456  0.16090665  0.39519334  1
  O2-  O284  1  0.78526239  0.16649789  0.73222039  1
  O2-  O285  1  0.79176844  0.67348095  0.06540856  1
  O2-  O286  1  0.79305802  0.67201661  0.40354641  1
  O2-  O287  1  0.79168138  0.66934720  0.73411147  1
