# generated using pymatgen
data_Ca2Al2SiO7
_symmetry_space_group_name_H-M   'P 1'
_cell_length_a   15.46396915
_cell_length_b   15.46620238
_cell_length_c   15.28715919
_cell_angle_alpha   90.00350255
_cell_angle_beta   90.00154806
_cell_angle_gamma   90.01861884
_symmetry_Int_Tables_number   1
_chemical_formula_structural   Ca2Al2SiO7
_chemical_formula_sum   'Ca48 Al48 Si24 O168'
_cell_volume   3656.21248412
_cell_formula_units_Z   24
loop_
 _symmetry_equiv_pos_site_id
 _symmetry_equiv_pos_as_xyz
  1  'x, y, z'
loop_
 _atom_type_symbol
 _atom_type_oxidation_number
  Ca2+  2.0
  Al0+  0.0
  Si0+  0.0
  O2-  -2.0
loop_
 _atom_site_type_symbol
 _atom_site_label
 _atom_site_symmetry_multiplicity
 _atom_site_fract_x
 _atom_site_fract_y
 _atom_site_fract_z
 _atom_site_occupancy
  Ca2+  Ca0  1  0.16171362  0.07207590  0.16515469  1
  Ca2+  Ca1  1  0.16228006  0.07087791  0.50713706  1
  Ca2+  Ca2  1  0.15838649  0.07208364  0.83729360  1
  Ca2+  Ca3  1  0.17407236  0.58259427  0.17492762  1
  Ca2+  Ca4  1  0.16807601  0.57353109  0.50729332  1
  Ca2+  Ca5  1  0.16019487  0.58145909  0.83467744  1
  Ca2+  Ca6  1  0.66796788  0.07041779  0.16663044  1
  Ca2+  Ca7  1  0.67189603  0.07885608  0.50600959  1
  Ca2+  Ca8  1  0.67971383  0.08047079  0.84093293  1
  Ca2+  Ca9  1  0.67961084  0.59512552  0.17076579  1
  Ca2+  Ca10  1  0.67615451  0.58675887  0.50501305  1
  Ca2+  Ca11  1  0.67670341  0.58240614  0.83488042  1
  Ca2+  Ca12  1  0.08544571  0.32843268  0.16014433  1
  Ca2+  Ca13  1  0.09154524  0.33015849  0.49901998  1
  Ca2+  Ca14  1  0.08541213  0.31866469  0.82462672  1
  Ca2+  Ca15  1  0.07848163  0.83047699  0.15426310  1
  Ca2+  Ca16  1  0.08614611  0.82973646  0.50047553  1
  Ca2+  Ca17  1  0.08432723  0.82469249  0.82940829  1
  Ca2+  Ca18  1  0.57502030  0.33282700  0.15860723  1
  Ca2+  Ca19  1  0.58134284  0.34038712  0.50074593  1
  Ca2+  Ca20  1  0.57388987  0.34054144  0.82570383  1
  Ca2+  Ca21  1  0.58311055  0.83316173  0.16094328  1
  Ca2+  Ca22  1  0.57903776  0.83093349  0.49194543  1
  Ca2+  Ca23  1  0.57208794  0.84356938  0.83106019  1
  Ca2+  Ca24  1  0.32812670  0.42155373  0.17370375  1
  Ca2+  Ca25  1  0.32749835  0.42152128  0.50514407  1
  Ca2+  Ca26  1  0.32987855  0.40970690  0.83520924  1
  Ca2+  Ca27  1  0.32021865  0.90635309  0.16681580  1
  Ca2+  Ca28  1  0.32298428  0.91123285  0.50621318  1
  Ca2+  Ca29  1  0.32423541  0.90759664  0.83734999  1
  Ca2+  Ca30  1  0.83719670  0.43126494  0.17026253  1
  Ca2+  Ca31  1  0.82808620  0.42919178  0.51015347  1
  Ca2+  Ca32  1  0.83484822  0.42813142  0.83427140  1
  Ca2+  Ca33  1  0.82747997  0.91388104  0.16482282  1
  Ca2+  Ca34  1  0.82623963  0.91964274  0.50460849  1
  Ca2+  Ca35  1  0.83473473  0.92455910  0.84291032  1
  Ca2+  Ca36  1  0.41570570  0.17363591  0.15876705  1
  Ca2+  Ca37  1  0.41326968  0.17450965  0.50073755  1
  Ca2+  Ca38  1  0.41638474  0.17758619  0.82831317  1
  Ca2+  Ca39  1  0.42228395  0.66824316  0.16279210  1
  Ca2+  Ca40  1  0.42225074  0.66790205  0.49531524  1
  Ca2+  Ca41  1  0.41712317  0.67935329  0.82842667  1
  Ca2+  Ca42  1  0.92191836  0.16743764  0.15737423  1
  Ca2+  Ca43  1  0.91947433  0.16390453  0.50197659  1
  Ca2+  Ca44  1  0.92394390  0.15614775  0.82832475  1
  Ca2+  Ca45  1  0.92140472  0.66996394  0.15669553  1
  Ca2+  Ca46  1  0.92005483  0.65759705  0.49852907  1
  Ca2+  Ca47  1  0.92177716  0.66717120  0.83266435  1
  Al0+  Al48  1  -0.00004059  -0.00040641  0.00246610  1
  Al0+  Al49  1  0.00003113  0.00021826  0.33578884  1
  Al0+  Al50  1  0.00015419  -0.00211556  0.66763574  1
  Al0+  Al51  1  0.00020515  0.49745748  0.00151184  1
  Al0+  Al52  1  -0.00002303  0.49835033  0.33887078  1
  Al0+  Al53  1  0.00128545  0.49876002  0.67092498  1
  Al0+  Al54  1  0.49949410  0.00265242  -0.00095299  1
  Al0+  Al55  1  0.49908431  0.00120623  0.33554040  1
  Al0+  Al56  1  0.49730550  0.00274991  0.65979869  1
  Al0+  Al57  1  0.49863114  0.50076702  -0.00463848  1
  Al0+  Al58  1  0.50133853  0.50117275  0.32951683  1
  Al0+  Al59  1  0.49963439  0.50278872  0.66472349  1
  Al0+  Al60  1  0.24924752  0.24864683  -0.00663897  1
  Al0+  Al61  1  0.24966986  0.24808284  0.33358825  1
  Al0+  Al62  1  0.25052943  0.24928215  0.65989285  1
  Al0+  Al63  1  0.25178142  0.74733506  -0.00210688  1
  Al0+  Al64  1  0.25060183  0.74922045  0.34141312  1
  Al0+  Al65  1  0.24865757  0.74883567  0.66100471  1
  Al0+  Al66  1  0.74958553  0.25136741  0.00484168  1
  Al0+  Al67  1  0.75084420  0.25029970  0.32946140  1
  Al0+  Al68  1  0.74954312  0.25011055  0.67392833  1
  Al0+  Al69  1  0.75087671  0.74924592  0.00198601  1
  Al0+  Al70  1  0.75027218  0.75184513  0.33876435  1
  Al0+  Al71  1  0.74928671  0.75181825  0.67227141  1
  Al0+  Al72  1  0.67636492  0.92945250  0.01397633  1
  Al0+  Al73  1  0.82312763  0.07223794  0.01728362  1
  Al0+  Al74  1  0.17973290  0.42757959  0.34787079  1
  Al0+  Al75  1  0.17826522  0.92947019  0.34727479  1
  Al0+  Al76  1  0.67862761  0.93027738  0.34792574  1
  Al0+  Al77  1  0.18153555  0.42720655  0.68254535  1
  Al0+  Al78  1  0.67698013  0.43015254  0.68141633  1
  Al0+  Al79  1  0.82160028  0.56923127  0.01527827  1
  Al0+  Al80  1  0.06848500  0.17950428  0.98670672  1
  Al0+  Al81  1  0.57219875  0.68077689  0.31951045  1
  Al0+  Al82  1  0.82028804  0.57130555  0.34700752  1
  Al0+  Al83  1  0.18092748  0.92683931  0.01233313  1
  Al0+  Al84  1  0.42865041  0.82257299  0.65078191  1
  Al0+  Al85  1  0.42985451  0.32134827  0.98634913  1
  Al0+  Al86  1  0.18110184  0.92794998  0.68178671  1
  Al0+  Al87  1  0.82017916  0.06919831  0.67944041  1
  Al0+  Al88  1  0.92811701  0.82043534  0.98602536  1
  Al0+  Al89  1  0.06927520  0.17717125  0.65062811  1
  Al0+  Al90  1  0.07281074  0.67653553  0.98712194  1
  Al0+  Al91  1  0.43012432  0.82181354  0.98812123  1
  Al0+  Al92  1  0.82281873  0.57347740  0.68446137  1
  Al0+  Al93  1  0.42972355  0.32275951  0.65004274  1
  Al0+  Al94  1  0.06818702  0.67733533  0.65097459  1
  Al0+  Al95  1  0.32427763  0.57101171  0.34891746  1
  Si0+  Si96  1  0.92606263  0.32268655  0.98359745  1
  Si0+  Si97  1  0.57357522  0.17985359  0.64906052  1
  Si0+  Si98  1  0.42936770  0.31965153  0.31760457  1
  Si0+  Si99  1  0.32219303  0.07262898  0.68294341  1
  Si0+  Si100  1  0.92730644  0.32120322  0.65054994  1
  Si0+  Si101  1  0.67419354  0.92924254  0.68242103  1
  Si0+  Si102  1  0.92677326  0.82172758  0.64945276  1
  Si0+  Si103  1  0.57322228  0.17909009  0.98300317  1
  Si0+  Si104  1  0.92891293  0.32157344  0.31838571  1
  Si0+  Si105  1  0.93046071  0.82171644  0.31998453  1
  Si0+  Si106  1  0.32235859  0.07299270  0.35013600  1
  Si0+  Si107  1  0.57272171  0.17780973  0.31696678  1
  Si0+  Si108  1  0.07023913  0.17781443  0.31737170  1
  Si0+  Si109  1  0.32171625  0.57054076  0.01374823  1
  Si0+  Si110  1  0.32038080  0.07379697  0.01475556  1
  Si0+  Si111  1  0.42682470  0.82289907  0.31618731  1
  Si0+  Si112  1  0.07095270  0.67755667  0.32064514  1
  Si0+  Si113  1  0.18103708  0.42642300  0.01318957  1
  Si0+  Si114  1  0.67860014  0.42555107  0.34700395  1
  Si0+  Si115  1  0.57291685  0.68062472  0.65024706  1
  Si0+  Si116  1  0.82152084  0.07389623  0.35013416  1
  Si0+  Si117  1  0.67471672  0.43027813  0.01763853  1
  Si0+  Si118  1  0.32136551  0.57206304  0.68471694  1
  Si0+  Si119  1  0.57316443  0.67841318  0.98227199  1
  O2-  O120  1  0.25671649  0.00090218  0.05976803  1
  O2-  O121  1  0.25558334  0.00214347  0.39298923  1
  O2-  O122  1  0.25657448  0.00219424  0.72804977  1
  O2-  O123  1  0.24918491  0.50017760  0.05536598  1
  O2-  O124  1  0.25075522  0.50016652  0.39800459  1
  O2-  O125  1  0.25601987  0.50118033  0.73090129  1
  O2-  O126  1  0.75074599  -0.00079971  0.06507630  1
  O2-  O127  1  0.75166836  0.00673782  0.39410705  1
  O2-  O128  1  0.74463490  -0.00433133  0.72580738  1
  O2-  O129  1  0.74482463  0.49639446  0.06317615  1
  O2-  O130  1  0.74484015  0.49608043  0.39094619  1
  O2-  O131  1  0.74964117  0.50078217  0.73170487  1
  O2-  O132  1  0.00067636  0.25079187  0.27615824  1
  O2-  O133  1  -0.00425758  0.25333524  0.60355253  1
  O2-  O134  1  -0.01046027  0.24950544  0.93971187  1
  O2-  O135  1  0.00252763  0.75089905  0.27831168  1
  O2-  O136  1  -0.00972150  0.74891319  0.60361061  1
  O2-  O137  1  0.00129047  0.74906754  0.93720449  1
  O2-  O138  1  0.50127931  0.24924312  0.27532756  1
  O2-  O139  1  0.50695616  0.25019288  0.60332877  1
  O2-  O140  1  0.50745505  0.25038699  0.93902458  1
  O2-  O141  1  0.49630535  0.75476957  0.27236422  1
  O2-  O142  1  0.50687846  0.75139618  0.60512880  1
  O2-  O143  1  0.50853548  0.75168857  0.93975381  1
  O2-  O144  1  0.07121314  0.18355711  0.10065162  1
  O2-  O145  1  0.06863656  0.17627603  0.42220566  1
  O2-  O146  1  0.06803145  0.17669884  0.76349448  1
  O2-  O147  1  0.07374639  0.67669019  0.10174060  1
  O2-  O148  1  0.06833562  0.67689240  0.42549270  1
  O2-  O149  1  0.06963233  0.67925814  0.76371796  1
  O2-  O150  1  0.57007366  0.17974194  0.08923973  1
  O2-  O151  1  0.57484819  0.17871679  0.42174579  1
  O2-  O152  1  0.57121640  0.17791553  0.75426117  1
  O2-  O153  1  0.57045522  0.67598429  0.08816654  1
  O2-  O154  1  0.57229820  0.68271966  0.43250732  1
  O2-  O155  1  0.57138081  0.68021855  0.75579425  1
  O2-  O156  1  0.18140565  0.42652358  0.23351279  1
  O2-  O157  1  0.18354225  0.42810776  0.56941607  1
  O2-  O158  1  0.18332460  0.42459032  0.90851272  1
  O2-  O159  1  0.17716012  0.93022007  0.23401054  1
  O2-  O160  1  0.18121092  0.93020359  0.56822725  1
  O2-  O161  1  0.18246823  0.92654170  0.89976816  1
  O2-  O162  1  0.68074501  0.42194114  0.24151414  1
  O2-  O163  1  0.67869777  0.43158471  0.56713393  1
  O2-  O164  1  0.67293742  0.43276158  0.91251991  1
  O2-  O165  1  0.67921262  0.93098641  0.23528394  1
  O2-  O166  1  0.67527360  0.93034610  0.57638660  1
  O2-  O167  1  0.67324399  0.93481618  0.90069593  1
  O2-  O168  1  0.42952374  0.31967238  0.10023657  1
  O2-  O169  1  0.42990079  0.31828998  0.42233607  1
  O2-  O170  1  0.42999237  0.31943596  0.76309312  1
  O2-  O171  1  0.42760727  0.81691000  0.10126577  1
  O2-  O172  1  0.42849896  0.82319489  0.42170302  1
  O2-  O173  1  0.42980905  0.82130593  0.76414210  1
  O2-  O174  1  0.93055553  0.32487412  0.08985350  1
  O2-  O175  1  0.92554078  0.32017391  0.42295842  1
  O2-  O176  1  0.92935780  0.31988132  0.75603595  1
  O2-  O177  1  0.92962000  0.81818693  0.10072212  1
  O2-  O178  1  0.93108724  0.82365034  0.42500893  1
  O2-  O179  1  0.92892783  0.82371675  0.75457423  1
  O2-  O180  1  0.32190935  0.07741658  0.24455718  1
  O2-  O181  1  0.32122751  0.07201900  0.57691799  1
  O2-  O182  1  0.31853847  0.07715176  0.90969806  1
  O2-  O183  1  0.32283816  0.56957561  0.23444327  1
  O2-  O184  1  0.32048785  0.56995501  0.57903028  1
  O2-  O185  1  0.32383325  0.57037184  0.90907579  1
  O2-  O186  1  0.82224518  0.07472659  0.24507796  1
  O2-  O187  1  0.81784437  0.06805523  0.56558338  1
  O2-  O188  1  0.82124386  0.07153233  0.90377630  1
  O2-  O189  1  0.82194868  0.57040443  0.23388154  1
  O2-  O190  1  0.82040163  0.57158134  0.57039704  1
  O2-  O191  1  0.82174043  0.56701477  0.90290731  1
  O2-  O192  1  0.03971230  0.08680352  0.26937291  1
  O2-  O193  1  0.03528120  0.08131695  0.59619325  1
  O2-  O194  1  0.04141076  0.08183507  0.93453954  1
  O2-  O195  1  0.04249649  0.58534390  0.27394195  1
  O2-  O196  1  0.04010676  0.57881832  0.59829481  1
  O2-  O197  1  0.04415612  0.57740418  0.93585120  1
  O2-  O198  1  0.54265472  0.08662910  0.26929062  1
  O2-  O199  1  0.54551068  0.08818005  0.59915519  1
  O2-  O200  1  0.54541949  0.08755283  0.93525868  1
  O2-  O201  1  0.54511342  0.58334564  0.26375378  1
  O2-  O202  1  0.54535266  0.58847174  0.60227418  1
  O2-  O203  1  0.54182092  0.58744299  0.93447717  1
  O2-  O204  1  0.16308589  0.20365463  0.27069943  1
  O2-  O205  1  0.16569619  0.20691136  0.59571907  1
  O2-  O206  1  0.16264610  0.21297144  0.93049465  1
  O2-  O207  1  0.16533491  0.70288561  0.27693670  1
  O2-  O208  1  0.16340859  0.71028384  0.59539712  1
  O2-  O209  1  0.17088792  0.70240186  0.93316675  1
  O2-  O210  1  0.66402769  0.20520654  0.26766900  1
  O2-  O211  1  0.66807613  0.20410851  0.60372092  1
  O2-  O212  1  0.66847630  0.20227885  0.93980948  1
  O2-  O213  1  0.66893180  0.71481903  0.26680575  1
  O2-  O214  1  0.66791336  0.70460089  0.60568528  1
  O2-  O215  1  0.66811816  0.69849218  0.93852726  1
  O2-  O216  1  0.08802510  0.44898966  0.06039684  1
  O2-  O217  1  0.08151022  0.45292476  0.40147153  1
  O2-  O218  1  0.08454692  0.45495192  0.73571754  1
  O2-  O219  1  0.08580480  0.95932006  0.06768111  1
  O2-  O220  1  0.08312933  0.96341306  0.40255025  1
  O2-  O221  1  0.08464483  0.95981593  0.73358545  1
  O2-  O222  1  0.58077966  0.45698979  0.06351666  1
  O2-  O223  1  0.58383634  0.44897211  0.39023534  1
  O2-  O224  1  0.57859692  0.46035687  0.73359233  1
  O2-  O225  1  0.57885432  0.96148596  0.06910056  1
  O2-  O226  1  0.58136414  0.96010397  0.40125190  1
  O2-  O227  1  0.58020511  0.95810389  0.72528368  1
  O2-  O228  1  0.21306303  0.33612974  0.06165423  1
  O2-  O229  1  0.20838073  0.32858131  0.39931439  1
  O2-  O230  1  0.21367652  0.32929397  0.73316006  1
  O2-  O231  1  0.21323570  0.83036226  0.06694271  1
  O2-  O232  1  0.20628742  0.83330789  0.40270524  1
  O2-  O233  1  0.21268540  0.83049555  0.73242685  1
  O2-  O234  1  0.69595053  0.33518823  0.06280567  1
  O2-  O235  1  0.70500606  0.33243952  0.39423143  1
  O2-  O236  1  0.70081877  0.33133936  0.73513929  1
  O2-  O237  1  0.70205537  0.82986531  0.06579789  1
  O2-  O238  1  0.71202785  0.83668898  0.40500701  1
  O2-  O239  1  0.69470214  0.83526720  0.72849827  1
  O2-  O240  1  0.45576494  0.41129789  0.26923631  1
  O2-  O241  1  0.45866058  0.42037485  0.59664766  1
  O2-  O242  1  0.45686183  0.41808119  0.93090442  1
  O2-  O243  1  0.44995248  0.91825490  0.27231421  1
  O2-  O244  1  0.45381466  0.92046070  0.59554877  1
  O2-  O245  1  0.45490475  0.92046106  0.93461814  1
  O2-  O246  1  0.95839740  0.41310325  0.27041355  1
  O2-  O247  1  0.95281409  0.41503193  0.60552810  1
  O2-  O248  1  0.95650091  0.41354743  0.93592287  1
  O2-  O249  1  0.95762580  0.91399190  0.27237101  1
  O2-  O250  1  0.95742183  0.91266002  0.60056058  1
  O2-  O251  1  0.95496834  0.91962616  0.93587802  1
  O2-  O252  1  0.33781688  0.28944015  0.27001839  1
  O2-  O253  1  0.33584940  0.28783290  0.59331037  1
  O2-  O254  1  0.33577595  0.28664557  0.93082879  1
  O2-  O255  1  0.33236092  0.79477627  0.27257317  1
  O2-  O256  1  0.33432796  0.78744835  0.59587353  1
  O2-  O257  1  0.33679480  0.78516384  0.93206406  1
  O2-  O258  1  0.83794563  0.29437137  0.26780600  1
  O2-  O259  1  0.83291449  0.29484388  0.60580053  1
  O2-  O260  1  0.82921487  0.30466945  0.94187504  1
  O2-  O261  1  0.83854607  0.79304941  0.27425604  1
  O2-  O262  1  0.82985276  0.80187300  0.60658563  1
  O2-  O263  1  0.82942998  0.79354451  0.93338263  1
  O2-  O264  1  0.41575721  0.05480972  0.05976548  1
  O2-  O265  1  0.41658442  0.05193726  0.39676943  1
  O2-  O266  1  0.41780965  0.05144762  0.72675258  1
  O2-  O267  1  0.41309862  0.54113614  0.06196652  1
  O2-  O268  1  0.42288155  0.54115779  0.40031307  1
  O2-  O269  1  0.41659930  0.55141138  0.72859733  1
  O2-  O270  1  0.92070456  0.04448514  0.07176892  1
  O2-  O271  1  0.91425531  0.04631287  0.39653685  1
  O2-  O272  1  0.91551015  0.03614141  0.73297373  1
  O2-  O273  1  0.91764115  0.53542731  0.07056045  1
  O2-  O274  1  0.91504401  0.53783709  0.40206016  1
  O2-  O275  1  0.91976639  0.54201033  0.73698200  1
  O2-  O276  1  0.28882790  0.16517027  0.06366406  1
  O2-  O277  1  0.29434968  0.16501004  0.39810299  1
  O2-  O278  1  0.29556478  0.16618937  0.72702472  1
  O2-  O279  1  0.29462475  0.66085442  0.06388556  1
  O2-  O280  1  0.29960598  0.66910087  0.40285603  1
  O2-  O281  1  0.29161232  0.66477528  0.72904082  1
  O2-  O282  1  0.79577248  0.17188795  0.07032921  1
  O2-  O283  1  0.79606365  0.16810724  0.39528632  1
  O2-  O284  1  0.79316253  0.16546108  0.73499885  1
  O2-  O285  1  0.79226480  0.66605045  0.06949627  1
  O2-  O286  1  0.79069916  0.66672114  0.40259495  1
  O2-  O287  1  0.79446294  0.67195929  0.73717549  1
