# generated using pymatgen
data_Ca2Al2SiO7
_symmetry_space_group_name_H-M   'P 1'
_cell_length_a   15.45892725
_cell_length_b   15.45993476
_cell_length_c   15.28432451
_cell_angle_alpha   90.01110027
_cell_angle_beta   89.98979242
_cell_angle_gamma   89.99849945
_symmetry_Int_Tables_number   1
_chemical_formula_structural   Ca2Al2SiO7
_chemical_formula_sum   'Ca48 Al48 Si24 O168'
_cell_volume   3652.86182708
_cell_formula_units_Z   24
loop_
 _symmetry_equiv_pos_site_id
 _symmetry_equiv_pos_as_xyz
  1  'x, y, z'
loop_
 _atom_type_symbol
 _atom_type_oxidation_number
  Ca2+  2.0
  Al0+  0.0
  Si0+  0.0
  O2-  -2.0
loop_
 _atom_site_type_symbol
 _atom_site_label
 _atom_site_symmetry_multiplicity
 _atom_site_fract_x
 _atom_site_fract_y
 _atom_site_fract_z
 _atom_site_occupancy
  Ca2+  Ca0  1  0.16883278  0.07687304  0.17155193  1
  Ca2+  Ca1  1  0.17393085  0.08504638  0.50833987  1
  Ca2+  Ca2  1  0.16404248  0.07139492  0.83191944  1
  Ca2+  Ca3  1  0.16744027  0.58696441  0.17008077  1
  Ca2+  Ca4  1  0.16998537  0.57776132  0.50315107  1
  Ca2+  Ca5  1  0.15804971  0.58007555  0.83735320  1
  Ca2+  Ca6  1  0.67201404  0.08092513  0.16513302  1
  Ca2+  Ca7  1  0.66841430  0.07998018  0.50456182  1
  Ca2+  Ca8  1  0.67410494  0.07145849  0.83884283  1
  Ca2+  Ca9  1  0.67418601  0.58498060  0.16760732  1
  Ca2+  Ca10  1  0.67367767  0.57521111  0.51143491  1
  Ca2+  Ca11  1  0.68032388  0.58286029  0.83447963  1
  Ca2+  Ca12  1  0.07646394  0.32617038  0.16367257  1
  Ca2+  Ca13  1  0.08639263  0.32412805  0.49664571  1
  Ca2+  Ca14  1  0.07948985  0.32767900  0.82596182  1
  Ca2+  Ca15  1  0.07563458  0.83059177  0.15652593  1
  Ca2+  Ca16  1  0.07080985  0.84214899  0.49927626  1
  Ca2+  Ca17  1  0.07490877  0.83716944  0.82940716  1
  Ca2+  Ca18  1  0.58396225  0.32503739  0.16526474  1
  Ca2+  Ca19  1  0.58616368  0.32662681  0.49388825  1
  Ca2+  Ca20  1  0.58379605  0.33330255  0.82809739  1
  Ca2+  Ca21  1  0.57028810  0.84140052  0.16175059  1
  Ca2+  Ca22  1  0.57155906  0.84140214  0.49902630  1
  Ca2+  Ca23  1  0.57602036  0.84552418  0.82811748  1
  Ca2+  Ca24  1  0.33151800  0.42787197  0.17536078  1
  Ca2+  Ca25  1  0.32956439  0.42359435  0.50587213  1
  Ca2+  Ca26  1  0.32398627  0.41686460  0.83408336  1
  Ca2+  Ca27  1  0.32665324  0.91185826  0.17196712  1
  Ca2+  Ca28  1  0.33067478  0.92495679  0.50804583  1
  Ca2+  Ca29  1  0.32603199  0.91404397  0.83531203  1
  Ca2+  Ca30  1  0.84504154  0.41957847  0.16794501  1
  Ca2+  Ca31  1  0.83208927  0.42011609  0.50798579  1
  Ca2+  Ca32  1  0.83839926  0.42697047  0.83867735  1
  Ca2+  Ca33  1  0.83368386  0.91379802  0.16705421  1
  Ca2+  Ca34  1  0.82837378  0.91146311  0.50937759  1
  Ca2+  Ca35  1  0.82734820  0.91442838  0.84330540  1
  Ca2+  Ca36  1  0.42248118  0.15574173  0.16880953  1
  Ca2+  Ca37  1  0.41950919  0.16028838  0.49344635  1
  Ca2+  Ca38  1  0.41630570  0.16319622  0.82661322  1
  Ca2+  Ca39  1  0.41340264  0.67638659  0.16177570  1
  Ca2+  Ca40  1  0.41244334  0.67856176  0.49512079  1
  Ca2+  Ca41  1  0.41898875  0.68109717  0.82877407  1
  Ca2+  Ca42  1  0.91589356  0.17515768  0.16211604  1
  Ca2+  Ca43  1  0.93428536  0.16937512  0.49207981  1
  Ca2+  Ca44  1  0.91776890  0.16749957  0.82964210  1
  Ca2+  Ca45  1  0.92114878  0.67530087  0.15712193  1
  Ca2+  Ca46  1  0.91201771  0.67564640  0.50049601  1
  Ca2+  Ca47  1  0.91462442  0.67220065  0.83274493  1
  Al0+  Al48  1  0.00132181  0.00099474  0.00578679  1
  Al0+  Al49  1  -0.00164384  0.00091766  0.32512391  1
  Al0+  Al50  1  0.00182489  0.00191074  0.65982337  1
  Al0+  Al51  1  -0.00046019  0.49766188  -0.00100311  1
  Al0+  Al52  1  0.00003677  0.50049536  0.33417704  1
  Al0+  Al53  1  0.00082306  0.50152834  0.67233747  1
  Al0+  Al54  1  0.50114937  0.00151010  -0.00212513  1
  Al0+  Al55  1  0.49932494  -0.00061389  0.32824292  1
  Al0+  Al56  1  0.50089018  0.00205147  0.66898716  1
  Al0+  Al57  1  0.49951449  0.49940411  -0.00081168  1
  Al0+  Al58  1  0.50142986  0.50077928  0.33854679  1
  Al0+  Al59  1  0.50032278  0.50028481  0.67026097  1
  Al0+  Al60  1  0.25069559  0.25030586  0.00196574  1
  Al0+  Al61  1  0.25130207  0.24977613  0.33136356  1
  Al0+  Al62  1  0.25205666  0.25216925  0.67027851  1
  Al0+  Al63  1  0.25099341  0.74935240  -0.00468028  1
  Al0+  Al64  1  0.24840504  0.74989952  0.33698118  1
  Al0+  Al65  1  0.24937828  0.75089181  0.66370788  1
  Al0+  Al66  1  0.74872076  0.24956352  -0.00252176  1
  Al0+  Al67  1  0.74943396  0.24897918  0.32629758  1
  Al0+  Al68  1  0.74893806  0.25032754  0.66875745  1
  Al0+  Al69  1  0.74762039  0.74722849  0.00787234  1
  Al0+  Al70  1  0.74818835  0.74930766  0.33158270  1
  Al0+  Al71  1  0.74825335  0.74867970  0.67038640  1
  Al0+  Al72  1  0.92790850  0.82023514  0.65471036  1
  Al0+  Al73  1  0.43079045  0.82166105  0.98493393  1
  Al0+  Al74  1  0.17683723  0.92829258  0.68024416  1
  Al0+  Al75  1  0.82203499  0.07183372  0.01551274  1
  Al0+  Al76  1  0.32201206  0.57295978  0.34758521  1
  Al0+  Al77  1  0.18041315  0.92742564  0.01388203  1
  Al0+  Al78  1  0.82143357  0.57097252  0.68253998  1
  Al0+  Al79  1  0.82153523  0.56857413  0.01735867  1
  Al0+  Al80  1  0.57008006  0.17858128  0.31884731  1
  Al0+  Al81  1  0.67804738  0.42598941  0.68199440  1
  Al0+  Al82  1  0.92970283  0.32115603  0.31993657  1
  Al0+  Al83  1  0.92608301  0.82037223  0.31926464  1
  Al0+  Al84  1  0.92923317  0.31856877  0.98397615  1
  Al0+  Al85  1  0.67783180  0.92777582  0.01739992  1
  Al0+  Al86  1  0.42902537  0.82229103  0.65144320  1
  Al0+  Al87  1  0.32186095  0.07108123  0.68156888  1
  Al0+  Al88  1  0.18075777  0.43028584  0.68020775  1
  Al0+  Al89  1  0.32074160  0.06886962  0.34574839  1
  Al0+  Al90  1  0.42871871  0.81917003  0.32027637  1
  Al0+  Al91  1  0.07550190  0.17827414  0.31582921  1
  Al0+  Al92  1  0.07144180  0.67879149  0.98509887  1
  Al0+  Al93  1  0.07196477  0.18053434  0.65393876  1
  Al0+  Al94  1  0.92777310  0.82218398  0.98537625  1
  Al0+  Al95  1  0.68019409  0.93031225  0.67789409  1
  Si0+  Si96  1  0.57086167  0.67708726  0.65003892  1
  Si0+  Si97  1  0.67592175  0.42786050  0.01875015  1
  Si0+  Si98  1  0.67967096  0.92954330  0.34830275  1
  Si0+  Si99  1  0.32247709  0.57382251  0.68481723  1
  Si0+  Si100  1  0.17478840  0.92802033  0.35016362  1
  Si0+  Si101  1  0.57103721  0.67461385  0.98305978  1
  Si0+  Si102  1  0.57158056  0.67549971  0.31733014  1
  Si0+  Si103  1  0.42910573  0.32482134  0.31785942  1
  Si0+  Si104  1  0.07212095  0.67599495  0.64834418  1
  Si0+  Si105  1  0.82403847  0.07219253  0.67905918  1
  Si0+  Si106  1  0.42817063  0.32277711  0.98474780  1
  Si0+  Si107  1  0.32135912  0.56954270  0.01347635  1
  Si0+  Si108  1  0.32189826  0.07302216  0.01722261  1
  Si0+  Si109  1  0.82052982  0.07256205  0.34820923  1
  Si0+  Si110  1  0.17834981  0.42855588  0.34913338  1
  Si0+  Si111  1  0.07070423  0.67822941  0.31934301  1
  Si0+  Si112  1  0.42924132  0.32290211  0.65168271  1
  Si0+  Si113  1  0.07517264  0.17810975  0.98208313  1
  Si0+  Si114  1  0.57072624  0.18040082  0.65209979  1
  Si0+  Si115  1  0.56953823  0.18044605  0.98197246  1
  Si0+  Si116  1  0.68010924  0.42724459  0.34722575  1
  Si0+  Si117  1  0.82107123  0.57138874  0.34882827  1
  Si0+  Si118  1  0.17923629  0.42773302  0.01681613  1
  Si0+  Si119  1  0.92795380  0.32334168  0.65156580  1
  O2-  O120  1  0.25492514  0.00297475  0.06070176  1
  O2-  O121  1  0.24274283  -0.00154482  0.39302576  1
  O2-  O122  1  0.25118781  -0.00205285  0.73065116  1
  O2-  O123  1  0.24887542  0.50077576  0.05759710  1
  O2-  O124  1  0.24911764  0.49572097  0.39282663  1
  O2-  O125  1  0.25138713  0.50798009  0.72945626  1
  O2-  O126  1  0.75464807  -0.00465195  0.06705559  1
  O2-  O127  1  0.75379015  -0.00259676  0.39104332  1
  O2-  O128  1  0.76011865  -0.00050705  0.72334881  1
  O2-  O129  1  0.74628599  0.49348871  0.06457279  1
  O2-  O130  1  0.75141270  0.49791522  0.38939882  1
  O2-  O131  1  0.75198619  0.49528844  0.73156603  1
  O2-  O132  1  0.00136088  0.24970198  0.26857641  1
  O2-  O133  1  -0.00374270  0.25496641  0.60710613  1
  O2-  O134  1  0.00242333  0.24250552  0.93768137  1
  O2-  O135  1  0.00321966  0.74741305  0.27525066  1
  O2-  O136  1  0.00436333  0.74696236  0.60608676  1
  O2-  O137  1  0.00062309  0.75144034  0.93455590  1
  O2-  O138  1  0.49409474  0.25322215  0.27250838  1
  O2-  O139  1  0.50216056  0.25391618  0.60974363  1
  O2-  O140  1  0.49723662  0.25100722  0.94113156  1
  O2-  O141  1  0.50071090  0.74172927  0.27323198  1
  O2-  O142  1  0.50262897  0.74571526  0.60479127  1
  O2-  O143  1  0.50909224  0.74955753  0.93929665  1
  O2-  O144  1  0.07985199  0.18343757  0.08742420  1
  O2-  O145  1  0.07594972  0.18062046  0.42979717  1
  O2-  O146  1  0.06970894  0.18110084  0.76694561  1
  O2-  O147  1  0.07186551  0.67901823  0.09937929  1
  O2-  O148  1  0.06903970  0.67520684  0.42481703  1
  O2-  O149  1  0.07152558  0.67398323  0.75345262  1
  O2-  O150  1  0.56824605  0.18115212  0.08730298  1
  O2-  O151  1  0.57136562  0.18048065  0.43217649  1
  O2-  O152  1  0.56945794  0.18087825  0.75711650  1
  O2-  O153  1  0.56459104  0.66794247  0.08861251  1
  O2-  O154  1  0.57359395  0.67530782  0.42273706  1
  O2-  O155  1  0.56874395  0.67554827  0.75543148  1
  O2-  O156  1  0.17842880  0.43095613  0.24334915  1
  O2-  O157  1  0.18427468  0.43048186  0.56681806  1
  O2-  O158  1  0.18235079  0.42533301  0.91178132  1
  O2-  O159  1  0.17789840  0.92550021  0.24446443  1
  O2-  O160  1  0.17586360  0.93162460  0.56646983  1
  O2-  O161  1  0.18091692  0.92823874  0.90109582  1
  O2-  O162  1  0.67706178  0.42840890  0.24238760  1
  O2-  O163  1  0.67883437  0.42557065  0.56763339  1
  O2-  O164  1  0.67298479  0.43045243  0.91355898  1
  O2-  O165  1  0.67915096  0.93058040  0.24361796  1
  O2-  O166  1  0.67855709  0.93392638  0.56403405  1
  O2-  O167  1  0.67546482  0.93281644  0.90374675  1
  O2-  O168  1  0.42949462  0.32570930  0.08976026  1
  O2-  O169  1  0.43223414  0.32708734  0.42341505  1
  O2-  O170  1  0.42915797  0.32256220  0.75711020  1
  O2-  O171  1  0.42939897  0.81863241  0.09847166  1
  O2-  O172  1  0.43158700  0.82073407  0.43326296  1
  O2-  O173  1  0.43137377  0.82139557  0.76442059  1
  O2-  O174  1  0.93302991  0.31920430  0.09707990  1
  O2-  O175  1  0.92932128  0.32079593  0.43376019  1
  O2-  O176  1  0.92860843  0.32116505  0.75708864  1
  O2-  O177  1  0.93049388  0.81844437  0.09928173  1
  O2-  O178  1  0.92296950  0.81816072  0.43276575  1
  O2-  O179  1  0.92643075  0.82074544  0.76702195  1
  O2-  O180  1  0.32237801  0.06450849  0.23265249  1
  O2-  O181  1  0.32300183  0.07123134  0.56772581  1
  O2-  O182  1  0.32098072  0.07648111  0.91197559  1
  O2-  O183  1  0.32095435  0.57145633  0.23398378  1
  O2-  O184  1  0.32333497  0.57042737  0.57893401  1
  O2-  O185  1  0.32364539  0.56537916  0.90874278  1
  O2-  O186  1  0.81733825  0.07429365  0.24356600  1
  O2-  O187  1  0.82034776  0.07456540  0.57307043  1
  O2-  O188  1  0.81764820  0.07392513  0.90149417  1
  O2-  O189  1  0.82041874  0.57093673  0.24399762  1
  O2-  O190  1  0.81908639  0.56980798  0.56793208  1
  O2-  O191  1  0.82054580  0.56738218  0.90477049  1
  O2-  O192  1  0.04683918  0.08083575  0.26257005  1
  O2-  O193  1  0.04294597  0.08632521  0.59451701  1
  O2-  O194  1  0.05307258  0.08254944  0.94051123  1
  O2-  O195  1  0.04587993  0.58493794  0.27203220  1
  O2-  O196  1  0.04434123  0.58267309  0.60138695  1
  O2-  O197  1  0.04280311  0.57961048  0.93420100  1
  O2-  O198  1  0.53824741  0.08413032  0.26190746  1
  O2-  O199  1  0.54081218  0.09039557  0.60284115  1
  O2-  O200  1  0.54169540  0.08956972  0.93349648  1
  O2-  O201  1  0.54921969  0.58081772  0.27156890  1
  O2-  O202  1  0.54517026  0.58272517  0.60380092  1
  O2-  O203  1  0.53928171  0.58385567  0.93366936  1
  O2-  O204  1  0.17330248  0.20738683  0.26147830  1
  O2-  O205  1  0.16867379  0.21552077  0.60180045  1
  O2-  O206  1  0.16746692  0.20938596  0.93565939  1
  O2-  O207  1  0.16499826  0.70187718  0.27396218  1
  O2-  O208  1  0.16686961  0.69753864  0.60248945  1
  O2-  O209  1  0.17095899  0.70078510  0.93191777  1
  O2-  O210  1  0.66367477  0.21189199  0.26114063  1
  O2-  O211  1  0.66333155  0.20594561  0.60375042  1
  O2-  O212  1  0.65979059  0.20957396  0.93332224  1
  O2-  O213  1  0.66363281  0.70327688  0.26943997  1
  O2-  O214  1  0.66464198  0.70122512  0.60418478  1
  O2-  O215  1  0.66763133  0.69353956  0.94266070  1
  O2-  O216  1  0.08779127  0.45445695  0.06397713  1
  O2-  O217  1  0.08610393  0.45645200  0.39718999  1
  O2-  O218  1  0.08403481  0.45656718  0.73522398  1
  O2-  O219  1  0.08498613  0.95704480  0.07044153  1
  O2-  O220  1  0.07931199  0.95345520  0.39261871  1
  O2-  O221  1  0.07935121  0.96163665  0.73257829  1
  O2-  O222  1  0.58236303  0.45533545  0.06568184  1
  O2-  O223  1  0.58905920  0.45390530  0.39728063  1
  O2-  O224  1  0.57955208  0.45440740  0.73527768  1
  O2-  O225  1  0.58102412  0.96539159  0.06982425  1
  O2-  O226  1  0.58868886  0.96190631  0.39440264  1
  O2-  O227  1  0.58761758  0.96820053  0.73390395  1
  O2-  O228  1  0.21090761  0.33774245  0.06602597  1
  O2-  O229  1  0.20381463  0.33468888  0.39407022  1
  O2-  O230  1  0.21636642  0.33740468  0.73785066  1
  O2-  O231  1  0.21358259  0.83051674  0.06706456  1
  O2-  O232  1  0.19934217  0.83469877  0.39684245  1
  O2-  O233  1  0.20168200  0.82807118  0.73039636  1
  O2-  O234  1  0.69860205  0.33260601  0.06158631  1
  O2-  O235  1  0.70773132  0.33477808  0.39361499  1
  O2-  O236  1  0.70139917  0.32675394  0.73570946  1
  O2-  O237  1  0.69498475  0.82702836  0.06985184  1
  O2-  O238  1  0.70375273  0.83595961  0.39460550  1
  O2-  O239  1  0.70178346  0.83224007  0.73127251  1
  O2-  O240  1  0.45897323  0.41725199  0.27060025  1
  O2-  O241  1  0.45487730  0.41585348  0.60475894  1
  O2-  O242  1  0.45659987  0.41334691  0.93500931  1
  O2-  O243  1  0.46268388  0.91300696  0.26396153  1
  O2-  O244  1  0.46443820  0.91882837  0.59929383  1
  O2-  O245  1  0.45935408  0.91939607  0.93215139  1
  O2-  O246  1  0.95825163  0.42033417  0.26774356  1
  O2-  O247  1  0.95335666  0.41784924  0.60760616  1
  O2-  O248  1  0.96320628  0.41384609  0.93054040  1
  O2-  O249  1  0.95168494  0.91753557  0.26542133  1
  O2-  O250  1  0.95662499  0.91677282  0.59789159  1
  O2-  O251  1  0.95397821  0.92319641  0.93706765  1
  O2-  O252  1  0.33459059  0.30461310  0.27229976  1
  O2-  O253  1  0.33874030  0.29457053  0.60296904  1
  O2-  O254  1  0.33579873  0.29536348  0.93801975  1
  O2-  O255  1  0.33063463  0.78903530  0.26881065  1
  O2-  O256  1  0.33201583  0.79291392  0.59704970  1
  O2-  O257  1  0.33696252  0.78612087  0.92971104  1
  O2-  O258  1  0.83220979  0.29375839  0.26467931  1
  O2-  O259  1  0.83295925  0.29896137  0.60722604  1
  O2-  O260  1  0.83053362  0.29254482  0.93164402  1
  O2-  O261  1  0.83024862  0.78754394  0.26514485  1
  O2-  O262  1  0.83103085  0.78702006  0.60060717  1
  O2-  O263  1  0.82635597  0.79252328  0.93938057  1
  O2-  O264  1  0.41693962  0.04900313  0.06019920  1
  O2-  O265  1  0.41800539  0.03688974  0.39890455  1
  O2-  O266  1  0.41985112  0.04406772  0.73555960  1
  O2-  O267  1  0.41156627  0.53809748  0.06288336  1
  O2-  O268  1  0.41858444  0.54323962  0.40288319  1
  O2-  O269  1  0.41453129  0.54518124  0.73178415  1
  O2-  O270  1  0.92215015  0.05325674  0.06848458  1
  O2-  O271  1  0.91501667  0.04884265  0.39211867  1
  O2-  O272  1  0.91893609  0.05229440  0.72256921  1
  O2-  O273  1  0.91806411  0.53510356  0.07071337  1
  O2-  O274  1  0.91332030  0.54600201  0.39649008  1
  O2-  O275  1  0.91975811  0.54634983  0.73605866  1
  O2-  O276  1  0.29719213  0.16696702  0.06478582  1
  O2-  O277  1  0.29825225  0.16965279  0.39651909  1
  O2-  O278  1  0.29636334  0.17008906  0.73418498  1
  O2-  O279  1  0.29553623  0.66172354  0.06024255  1
  O2-  O280  1  0.28862592  0.66716162  0.40464338  1
  O2-  O281  1  0.29989211  0.66865768  0.72800230  1
  O2-  O282  1  0.78471366  0.16872373  0.06826303  1
  O2-  O283  1  0.78742050  0.16288578  0.39553158  1
  O2-  O284  1  0.79442341  0.16372571  0.72716417  1
  O2-  O285  1  0.78970899  0.66336473  0.07434746  1
  O2-  O286  1  0.78919156  0.66203782  0.39647113  1
  O2-  O287  1  0.78774194  0.66632833  0.73751401  1
