# generated using pymatgen
data_Ca2Al2SiO7
_symmetry_space_group_name_H-M   'P 1'
_cell_length_a   15.46396838
_cell_length_b   15.46410620
_cell_length_c   15.28824785
_cell_angle_alpha   89.99784997
_cell_angle_beta   90.00050111
_cell_angle_gamma   90.04370277
_symmetry_Int_Tables_number   1
_chemical_formula_structural   Ca2Al2SiO7
_chemical_formula_sum   'Ca48 Al48 Si24 O168'
_cell_volume   3655.97624261
_cell_formula_units_Z   24
loop_
 _symmetry_equiv_pos_site_id
 _symmetry_equiv_pos_as_xyz
  1  'x, y, z'
loop_
 _atom_type_symbol
 _atom_type_oxidation_number
  Ca2+  2.0
  Al0+  0.0
  Si0+  0.0
  O2-  -2.0
loop_
 _atom_site_type_symbol
 _atom_site_label
 _atom_site_symmetry_multiplicity
 _atom_site_fract_x
 _atom_site_fract_y
 _atom_site_fract_z
 _atom_site_occupancy
  Ca2+  Ca0  1  0.17169130  0.08795183  0.17383225  1
  Ca2+  Ca1  1  0.17203460  0.07701809  0.50055644  1
  Ca2+  Ca2  1  0.17586190  0.08289353  0.83499121  1
  Ca2+  Ca3  1  0.17073577  0.57717648  0.17613280  1
  Ca2+  Ca4  1  0.17653565  0.57344778  0.50600182  1
  Ca2+  Ca5  1  0.17239103  0.58114764  0.83368367  1
  Ca2+  Ca6  1  0.67584841  0.07379153  0.17338417  1
  Ca2+  Ca7  1  0.67450093  0.07602216  0.50663946  1
  Ca2+  Ca8  1  0.67271072  0.07499573  0.84124424  1
  Ca2+  Ca9  1  0.66675739  0.57837751  0.17428238  1
  Ca2+  Ca10  1  0.66890587  0.59082373  0.49619033  1
  Ca2+  Ca11  1  0.66509094  0.57634787  0.83857973  1
  Ca2+  Ca12  1  0.08650293  0.32191912  0.16390957  1
  Ca2+  Ca13  1  0.09004349  0.32883859  0.49310704  1
  Ca2+  Ca14  1  0.08533917  0.32605111  0.82927580  1
  Ca2+  Ca15  1  0.08552121  0.82927986  0.16140918  1
  Ca2+  Ca16  1  0.08507984  0.84081155  0.49427256  1
  Ca2+  Ca17  1  0.08870102  0.82975791  0.82825721  1
  Ca2+  Ca18  1  0.57590113  0.33208335  0.15725369  1
  Ca2+  Ca19  1  0.57447327  0.33043850  0.49721825  1
  Ca2+  Ca20  1  0.57213279  0.33456302  0.82867020  1
  Ca2+  Ca21  1  0.59201191  0.83096151  0.16672471  1
  Ca2+  Ca22  1  0.57994735  0.83604280  0.49470961  1
  Ca2+  Ca23  1  0.58119283  0.83869703  0.82603308  1
  Ca2+  Ca24  1  0.32882064  0.42021713  0.17454045  1
  Ca2+  Ca25  1  0.32635240  0.42333518  0.50478616  1
  Ca2+  Ca26  1  0.33507166  0.41513959  0.83277121  1
  Ca2+  Ca27  1  0.32561499  0.93054066  0.17446270  1
  Ca2+  Ca28  1  0.32556979  0.92284213  0.50855610  1
  Ca2+  Ca29  1  0.33816310  0.92737803  0.83444130  1
  Ca2+  Ca30  1  0.82801161  0.42107327  0.16936169  1
  Ca2+  Ca31  1  0.83587754  0.42451483  0.50064110  1
  Ca2+  Ca32  1  0.82382373  0.41538684  0.83908817  1
  Ca2+  Ca33  1  0.82725526  0.92392536  0.17087525  1
  Ca2+  Ca34  1  0.82428774  0.92543254  0.50331385  1
  Ca2+  Ca35  1  0.82341662  0.92493765  0.83687284  1
  Ca2+  Ca36  1  0.40957956  0.17135703  0.15903183  1
  Ca2+  Ca37  1  0.40366189  0.16957442  0.49858353  1
  Ca2+  Ca38  1  0.40867610  0.17417548  0.82788391  1
  Ca2+  Ca39  1  0.41955207  0.66672981  0.16674168  1
  Ca2+  Ca40  1  0.41507627  0.67081450  0.49526262  1
  Ca2+  Ca41  1  0.41747979  0.67513354  0.82188374  1
  Ca2+  Ca42  1  0.92712572  0.15435815  0.16373205  1
  Ca2+  Ca43  1  0.92099576  0.16126182  0.49186394  1
  Ca2+  Ca44  1  0.91955181  0.15550788  0.83180726  1
  Ca2+  Ca45  1  0.92198697  0.66626484  0.16107920  1
  Ca2+  Ca46  1  0.91685938  0.66954605  0.49109654  1
  Ca2+  Ca47  1  0.92586000  0.66628279  0.83070943  1
  Al0+  Al48  1  0.00027302  -0.00318926  -0.00433057  1
  Al0+  Al49  1  -0.00058144  0.00012638  0.33291592  1
  Al0+  Al50  1  0.00036981  -0.00185921  0.67189858  1
  Al0+  Al51  1  0.00130767  0.49903051  -0.00649242  1
  Al0+  Al52  1  -0.00268311  0.49902069  0.33855558  1
  Al0+  Al53  1  0.00089840  0.49856764  0.66938684  1
  Al0+  Al54  1  0.49937091  0.00034693  0.00956084  1
  Al0+  Al55  1  0.49929824  0.00200278  0.33774310  1
  Al0+  Al56  1  0.50059479  0.00029540  0.66797054  1
  Al0+  Al57  1  0.49962005  0.50074392  -0.00048058  1
  Al0+  Al58  1  0.49998480  0.50114067  0.33203354  1
  Al0+  Al59  1  0.50080112  0.49967580  0.66296182  1
  Al0+  Al60  1  0.24803067  0.25148958  -0.00585881  1
  Al0+  Al61  1  0.24771459  0.25098881  0.33403683  1
  Al0+  Al62  1  0.24785776  0.25054635  0.66719398  1
  Al0+  Al63  1  0.25215953  0.74919991  -0.00474193  1
  Al0+  Al64  1  0.25054502  0.75050592  0.33597091  1
  Al0+  Al65  1  0.25160661  0.74725513  0.66701240  1
  Al0+  Al66  1  0.75009411  0.25013565  0.00923679  1
  Al0+  Al67  1  0.74851160  0.25153023  0.33460190  1
  Al0+  Al68  1  0.75173818  0.25211016  0.66794369  1
  Al0+  Al69  1  0.75163600  0.74899035  -0.00038018  1
  Al0+  Al70  1  0.74910338  0.74893481  0.33422238  1
  Al0+  Al71  1  0.75307684  0.75014622  0.67038916  1
  Al0+  Al72  1  0.67886650  0.92779966  0.34950365  1
  Al0+  Al73  1  0.82388518  0.07075609  0.01712658  1
  Al0+  Al74  1  0.32070335  0.07130107  0.68214843  1
  Al0+  Al75  1  0.17823254  0.92822292  0.34510338  1
  Al0+  Al76  1  0.06941770  0.17776662  0.98413925  1
  Al0+  Al77  1  0.17842491  0.42880178  0.68481888  1
  Al0+  Al78  1  0.42983471  0.82222456  0.65279762  1
  Al0+  Al79  1  0.42822445  0.32021725  0.64998425  1
  Al0+  Al80  1  0.56969613  0.68115885  0.31862237  1
  Al0+  Al81  1  0.82121973  0.07335255  0.68231830  1
  Al0+  Al82  1  0.17796233  0.42937044  0.34605168  1
  Al0+  Al83  1  0.67693191  0.43008640  0.01336069  1
  Al0+  Al84  1  0.42958789  0.32137801  0.98636795  1
  Al0+  Al85  1  0.06847939  0.18038050  0.32043919  1
  Al0+  Al86  1  0.81967885  0.57007831  0.34499951  1
  Al0+  Al87  1  0.67761109  0.92717465  0.01717729  1
  Al0+  Al88  1  0.17876652  0.92701219  0.68259553  1
  Al0+  Al89  1  0.32341430  0.57162600  0.34711530  1
  Al0+  Al90  1  0.32079163  0.07326552  0.34766442  1
  Al0+  Al91  1  0.32347914  0.56947485  0.68302623  1
  Al0+  Al92  1  0.67883582  0.92840756  0.68200135  1
  Al0+  Al93  1  0.31768479  0.07319617  0.01395552  1
  Al0+  Al94  1  0.82121013  0.07233785  0.34826400  1
  Al0+  Al95  1  0.07272602  0.67788271  0.98566583  1
  Si0+  Si96  1  0.06815181  0.17865925  0.65087184  1
  Si0+  Si97  1  0.82242766  0.57164030  0.68261819  1
  Si0+  Si98  1  0.57324213  0.17832226  0.31784805  1
  Si0+  Si99  1  0.92750506  0.81993012  0.98057044  1
  Si0+  Si100  1  0.82357477  0.57001106  0.01453203  1
  Si0+  Si101  1  0.07090965  0.67690552  0.64918183  1
  Si0+  Si102  1  0.07115283  0.67711560  0.32066909  1
  Si0+  Si103  1  0.92726638  0.32291406  0.65077620  1
  Si0+  Si104  1  0.57414255  0.17960779  0.65079971  1
  Si0+  Si105  1  0.57486618  0.67790401  0.65039605  1
  Si0+  Si106  1  0.17863835  0.43026632  0.01423927  1
  Si0+  Si107  1  0.93059732  0.81923524  0.65043977  1
  Si0+  Si108  1  0.18015134  0.92518609  0.01461372  1
  Si0+  Si109  1  0.67613077  0.42805798  0.35112970  1
  Si0+  Si110  1  0.67991545  0.42985798  0.67988535  1
  Si0+  Si111  1  0.92481864  0.32465225  0.31594058  1
  Si0+  Si112  1  0.57242413  0.17743009  0.98626757  1
  Si0+  Si113  1  0.43078754  0.82154336  0.98651784  1
  Si0+  Si114  1  0.42987672  0.31932798  0.31817499  1
  Si0+  Si115  1  0.92926376  0.81957691  0.31828436  1
  Si0+  Si116  1  0.92665247  0.32227141  0.98332296  1
  Si0+  Si117  1  0.32102113  0.57249167  0.01477050  1
  Si0+  Si118  1  0.42617169  0.82470852  0.31529014  1
  Si0+  Si119  1  0.57187920  0.67901024  0.98530395  1
  O2-  O120  1  0.24164374  -0.00066343  0.05970836  1
  O2-  O121  1  0.25313118  -0.00358487  0.39523860  1
  O2-  O122  1  0.25234949  -0.00360636  0.73332747  1
  O2-  O123  1  0.24948946  0.50165254  0.05619289  1
  O2-  O124  1  0.24871447  0.50229172  0.39547250  1
  O2-  O125  1  0.25272711  0.49786210  0.73571803  1
  O2-  O126  1  0.74985305  -0.00017667  0.06506180  1
  O2-  O127  1  0.74717144  0.00336677  0.39838676  1
  O2-  O128  1  0.74668489  0.00414087  0.73158512  1
  O2-  O129  1  0.75314436  0.50387633  0.05903849  1
  O2-  O130  1  0.74637439  0.49552110  0.39462407  1
  O2-  O131  1  0.74964762  0.50200287  0.72309220  1
  O2-  O132  1  -0.00840557  0.25378801  0.27290813  1
  O2-  O133  1  -0.00407762  0.24965766  0.60967413  1
  O2-  O134  1  -0.00995398  0.24911020  0.93832487  1
  O2-  O135  1  0.00276337  0.74994941  0.27672185  1
  O2-  O136  1  0.00297669  0.75039378  0.60608339  1
  O2-  O137  1  -0.00135453  0.75256846  0.93739761  1
  O2-  O138  1  0.49935444  0.24706893  0.27546272  1
  O2-  O139  1  0.50089925  0.24278758  0.60416343  1
  O2-  O140  1  0.50427367  0.24584228  0.94010626  1
  O2-  O141  1  0.49613220  0.75659626  0.27027932  1
  O2-  O142  1  0.50698059  0.74787025  0.60813880  1
  O2-  O143  1  0.50575657  0.75413320  0.94403719  1
  O2-  O144  1  0.07129457  0.18137375  0.09723414  1
  O2-  O145  1  0.06794714  0.18148140  0.43354390  1
  O2-  O146  1  0.06697427  0.18024182  0.75620804  1
  O2-  O147  1  0.07134183  0.67754789  0.09928408  1
  O2-  O148  1  0.06769867  0.67634646  0.42550457  1
  O2-  O149  1  0.06688850  0.67571106  0.75455357  1
  O2-  O150  1  0.56988072  0.18039068  0.09204886  1
  O2-  O151  1  0.57709570  0.18257197  0.42264892  1
  O2-  O152  1  0.57762580  0.18538067  0.75632808  1
  O2-  O153  1  0.57031594  0.67619610  0.09012277  1
  O2-  O154  1  0.57037800  0.68140814  0.43147012  1
  O2-  O155  1  0.57542803  0.67599643  0.75658986  1
  O2-  O156  1  0.17951526  0.43014309  0.23165005  1
  O2-  O157  1  0.17628494  0.43151980  0.57153159  1
  O2-  O158  1  0.17851123  0.43129380  0.90957097  1
  O2-  O159  1  0.17800300  0.92698769  0.23110778  1
  O2-  O160  1  0.17628666  0.93076800  0.56928712  1
  O2-  O161  1  0.18552524  0.92233505  0.90950112  1
  O2-  O162  1  0.67534661  0.42974452  0.24547000  1
  O2-  O163  1  0.68221346  0.42932031  0.57498123  1
  O2-  O164  1  0.67695478  0.43358345  0.89973168  1
  O2-  O165  1  0.68374690  0.92693161  0.23603727  1
  O2-  O166  1  0.68278067  0.92592910  0.56890494  1
  O2-  O167  1  0.67773602  0.92722607  0.90375603  1
  O2-  O168  1  0.42956835  0.32315477  0.09987605  1
  O2-  O169  1  0.43155974  0.31965246  0.42319703  1
  O2-  O170  1  0.43245551  0.32164378  0.76321728  1
  O2-  O171  1  0.42685110  0.81741032  0.09122480  1
  O2-  O172  1  0.42606261  0.82251734  0.42054231  1
  O2-  O173  1  0.43188404  0.82008776  0.76678503  1
  O2-  O174  1  0.93106070  0.32985602  0.08824310  1
  O2-  O175  1  0.92489300  0.32681620  0.42166227  1
  O2-  O176  1  0.92564630  0.32653093  0.75567301  1
  O2-  O177  1  0.92677676  0.81744159  0.08638861  1
  O2-  O178  1  0.92886590  0.81774252  0.42361669  1
  O2-  O179  1  0.92951945  0.81457483  0.75534507  1
  O2-  O180  1  0.31733519  0.07526907  0.23366287  1
  O2-  O181  1  0.31593859  0.07170869  0.56895600  1
  O2-  O182  1  0.31910169  0.07205497  0.90138819  1
  O2-  O183  1  0.32221399  0.56923395  0.23246288  1
  O2-  O184  1  0.32155926  0.56874776  0.56977887  1
  O2-  O185  1  0.32185125  0.57353121  0.91019144  1
  O2-  O186  1  0.82186162  0.06863031  0.23505550  1
  O2-  O187  1  0.82095874  0.07239231  0.56892118  1
  O2-  O188  1  0.82091601  0.06901870  0.90363946  1
  O2-  O189  1  0.82049984  0.56841216  0.23188425  1
  O2-  O190  1  0.82344239  0.57214580  0.57768742  1
  O2-  O191  1  0.82254764  0.56871080  0.90849414  1
  O2-  O192  1  0.03952967  0.08318669  0.26514745  1
  O2-  O193  1  0.04043886  0.08569170  0.60584485  1
  O2-  O194  1  0.04401462  0.07929779  0.93052858  1
  O2-  O195  1  0.03953501  0.58610172  0.27303441  1
  O2-  O196  1  0.03782770  0.58589628  0.60298515  1
  O2-  O197  1  0.04009080  0.58311086  0.92813464  1
  O2-  O198  1  0.54894151  0.08500320  0.27200011  1
  O2-  O199  1  0.55468659  0.08388729  0.60781898  1
  O2-  O200  1  0.54697605  0.08261736  0.94290265  1
  O2-  O201  1  0.53952029  0.58355704  0.26354086  1
  O2-  O202  1  0.55082464  0.58465529  0.60303592  1
  O2-  O203  1  0.53989785  0.58941820  0.93569259  1
  O2-  O204  1  0.16399746  0.21505400  0.26468426  1
  O2-  O205  1  0.15914071  0.20835968  0.60380364  1
  O2-  O206  1  0.16271280  0.21472981  0.92786232  1
  O2-  O207  1  0.16401054  0.70156041  0.27314304  1
  O2-  O208  1  0.16450444  0.69913373  0.60430235  1
  O2-  O209  1  0.16897843  0.70818643  0.93008328  1
  O2-  O210  1  0.66348759  0.20936102  0.26806294  1
  O2-  O211  1  0.66564251  0.21222715  0.60275129  1
  O2-  O212  1  0.66731702  0.20297587  0.94287529  1
  O2-  O213  1  0.66756633  0.70900658  0.26378076  1
  O2-  O214  1  0.67042814  0.70204358  0.60672892  1
  O2-  O215  1  0.66623843  0.69950342  0.93868767  1
  O2-  O216  1  0.08629434  0.45827169  0.06006154  1
  O2-  O217  1  0.07947883  0.45369871  0.39960411  1
  O2-  O218  1  0.08021690  0.45902323  0.73819854  1
  O2-  O219  1  0.08278559  0.94206533  0.05461140  1
  O2-  O220  1  0.08085327  0.95733806  0.39844105  1
  O2-  O221  1  0.08131207  0.95484796  0.73740094  1
  O2-  O222  1  0.58213017  0.46447029  0.06883822  1
  O2-  O223  1  0.58418536  0.45675663  0.39764716  1
  O2-  O224  1  0.58860128  0.45771931  0.72735397  1
  O2-  O225  1  0.58011026  0.95294577  0.07258880  1
  O2-  O226  1  0.57914273  0.95273909  0.39961388  1
  O2-  O227  1  0.57997791  0.95331941  0.73408294  1
  O2-  O228  1  0.20761087  0.33890271  0.06059563  1
  O2-  O229  1  0.20911537  0.33361343  0.40042871  1
  O2-  O230  1  0.20458518  0.33001960  0.73605475  1
  O2-  O231  1  0.21085416  0.83313786  0.06191638  1
  O2-  O232  1  0.20053760  0.82890305  0.39853366  1
  O2-  O233  1  0.20211275  0.82605044  0.73132618  1
  O2-  O234  1  0.70425169  0.33469262  0.07040172  1
  O2-  O235  1  0.69973245  0.33479805  0.39769630  1
  O2-  O236  1  0.70944562  0.34033377  0.73001232  1
  O2-  O237  1  0.70791942  0.82719490  0.06681808  1
  O2-  O238  1  0.71010257  0.83063760  0.40164147  1
  O2-  O239  1  0.71142498  0.83084998  0.73603116  1
  O2-  O240  1  0.45928068  0.41086645  0.27062399  1
  O2-  O241  1  0.46378184  0.41554670  0.59549944  1
  O2-  O242  1  0.46244297  0.41779227  0.93188408  1
  O2-  O243  1  0.44979634  0.91998183  0.27118016  1
  O2-  O244  1  0.45753224  0.91971901  0.59865794  1
  O2-  O245  1  0.45649730  0.91530022  0.94192426  1
  O2-  O246  1  0.95174367  0.41813434  0.26920982  1
  O2-  O247  1  0.95692981  0.41473716  0.60298559  1
  O2-  O248  1  0.95551818  0.41324893  0.93221293  1
  O2-  O249  1  0.95618226  0.91078573  0.26979944  1
  O2-  O250  1  0.95697851  0.91220621  0.60475382  1
  O2-  O251  1  0.95110109  0.91287528  0.93317501  1
  O2-  O252  1  0.33739464  0.29321225  0.27120138  1
  O2-  O253  1  0.32994131  0.29160561  0.59803172  1
  O2-  O254  1  0.33351723  0.29251881  0.93112324  1
  O2-  O255  1  0.33300930  0.79690171  0.26789660  1
  O2-  O256  1  0.33353381  0.78856114  0.59894026  1
  O2-  O257  1  0.34176580  0.79006983  0.93575912  1
  O2-  O258  1  0.82930987  0.30364928  0.27107887  1
  O2-  O259  1  0.83467697  0.29977989  0.60207132  1
  O2-  O260  1  0.82966043  0.30163228  0.94150407  1
  O2-  O261  1  0.83959616  0.78718595  0.26987511  1
  O2-  O262  1  0.83964961  0.78779183  0.60272555  1
  O2-  O263  1  0.83527941  0.79065243  0.93248205  1
  O2-  O264  1  0.41348242  0.04361755  0.06955956  1
  O2-  O265  1  0.42110128  0.05430243  0.39913946  1
  O2-  O266  1  0.42108788  0.04873156  0.73321405  1
  O2-  O267  1  0.41247841  0.54408234  0.06194825  1
  O2-  O268  1  0.42041752  0.54136278  0.40014884  1
  O2-  O269  1  0.42374260  0.54306372  0.73363465  1
  O2-  O270  1  0.92262520  0.03742424  0.06710607  1
  O2-  O271  1  0.91793907  0.04021056  0.40078153  1
  O2-  O272  1  0.91717435  0.03956358  0.73551554  1
  O2-  O273  1  0.91706592  0.54215350  0.05946625  1
  O2-  O274  1  0.91406190  0.54071792  0.40396591  1
  O2-  O275  1  0.91248062  0.54105002  0.73109622  1
  O2-  O276  1  0.28602428  0.17091325  0.06529710  1
  O2-  O277  1  0.28725646  0.16921045  0.40066894  1
  O2-  O278  1  0.28798713  0.16849671  0.73436047  1
  O2-  O279  1  0.29292447  0.66405923  0.06234373  1
  O2-  O280  1  0.29820369  0.67041044  0.39843769  1
  O2-  O281  1  0.29334054  0.66689642  0.73622669  1
  O2-  O282  1  0.80161963  0.17043405  0.06964426  1
  O2-  O283  1  0.79695655  0.17305192  0.39826921  1
  O2-  O284  1  0.79838240  0.17404943  0.73355794  1
  O2-  O285  1  0.80146006  0.66439345  0.05915773  1
  O2-  O286  1  0.78840481  0.66476307  0.40150126  1
  O2-  O287  1  0.79701119  0.66242792  0.73254008  1
