# generated using pymatgen
data_Ca2Al2SiO7
_symmetry_space_group_name_H-M   'P 1'
_cell_length_a   15.45809266
_cell_length_b   15.45772808
_cell_length_c   15.28391685
_cell_angle_alpha   90.00375350
_cell_angle_beta   89.99521186
_cell_angle_gamma   90.01109994
_symmetry_Int_Tables_number   1
_chemical_formula_structural   Ca2Al2SiO7
_chemical_formula_sum   'Ca48 Al48 Si24 O168'
_cell_volume   3652.04588358
_cell_formula_units_Z   24
loop_
 _symmetry_equiv_pos_site_id
 _symmetry_equiv_pos_as_xyz
  1  'x, y, z'
loop_
 _atom_type_symbol
 _atom_type_oxidation_number
  Ca2+  2.0
  Al0+  0.0
  Si0+  0.0
  O2-  -2.0
loop_
 _atom_site_type_symbol
 _atom_site_label
 _atom_site_symmetry_multiplicity
 _atom_site_fract_x
 _atom_site_fract_y
 _atom_site_fract_z
 _atom_site_occupancy
  Ca2+  Ca0  1  0.17585128  0.08157771  0.17158704  1
  Ca2+  Ca1  1  0.17163553  0.07556165  0.50713912  1
  Ca2+  Ca2  1  0.17136954  0.08729223  0.83448711  1
  Ca2+  Ca3  1  0.16784912  0.58060779  0.17317877  1
  Ca2+  Ca4  1  0.16826029  0.58128448  0.49967899  1
  Ca2+  Ca5  1  0.16278559  0.56745574  0.83798463  1
  Ca2+  Ca6  1  0.67278655  0.07867662  0.17787695  1
  Ca2+  Ca7  1  0.67904495  0.07957220  0.49784345  1
  Ca2+  Ca8  1  0.67526877  0.08634489  0.83398151  1
  Ca2+  Ca9  1  0.66839416  0.57434666  0.17103249  1
  Ca2+  Ca10  1  0.65892172  0.57884522  0.49832376  1
  Ca2+  Ca11  1  0.67437718  0.57685132  0.84308479  1
  Ca2+  Ca12  1  0.07219584  0.32984991  0.15667509  1
  Ca2+  Ca13  1  0.08212470  0.32603747  0.49619154  1
  Ca2+  Ca14  1  0.08931652  0.32442110  0.82977274  1
  Ca2+  Ca15  1  0.09431325  0.82670450  0.16943709  1
  Ca2+  Ca16  1  0.08505320  0.83651916  0.49433521  1
  Ca2+  Ca17  1  0.07880215  0.83336914  0.82442017  1
  Ca2+  Ca18  1  0.58455503  0.33701946  0.16472726  1
  Ca2+  Ca19  1  0.57828996  0.33338030  0.49432396  1
  Ca2+  Ca20  1  0.57753027  0.33486185  0.82912900  1
  Ca2+  Ca21  1  0.57236653  0.83873255  0.16543428  1
  Ca2+  Ca22  1  0.57748342  0.82843257  0.48653799  1
  Ca2+  Ca23  1  0.57641774  0.83429305  0.83154224  1
  Ca2+  Ca24  1  0.32300118  0.42113769  0.17230553  1
  Ca2+  Ca25  1  0.33212003  0.42380817  0.50717376  1
  Ca2+  Ca26  1  0.32132139  0.40549194  0.83321682  1
  Ca2+  Ca27  1  0.33445228  0.92343436  0.17629714  1
  Ca2+  Ca28  1  0.32563022  0.92199135  0.50178481  1
  Ca2+  Ca29  1  0.32922072  0.92562649  0.83872116  1
  Ca2+  Ca30  1  0.82759209  0.41146225  0.17121192  1
  Ca2+  Ca31  1  0.83064385  0.41237191  0.49754832  1
  Ca2+  Ca32  1  0.83084766  0.42204835  0.84666835  1
  Ca2+  Ca33  1  0.82578561  0.92451682  0.17765304  1
  Ca2+  Ca34  1  0.83623189  0.92405879  0.50506992  1
  Ca2+  Ca35  1  0.84049032  0.92177510  0.83061046  1
  Ca2+  Ca36  1  0.41707251  0.15915453  0.16131303  1
  Ca2+  Ca37  1  0.40688576  0.16988701  0.49896821  1
  Ca2+  Ca38  1  0.41225101  0.16832051  0.82675611  1
  Ca2+  Ca39  1  0.41537710  0.67695293  0.16910879  1
  Ca2+  Ca40  1  0.41812901  0.67281982  0.48417653  1
  Ca2+  Ca41  1  0.41545256  0.67290596  0.83283905  1
  Ca2+  Ca42  1  0.91870724  0.17435556  0.16115953  1
  Ca2+  Ca43  1  0.91999519  0.16466355  0.49469771  1
  Ca2+  Ca44  1  0.92851597  0.16984051  0.82698806  1
  Ca2+  Ca45  1  0.91905314  0.66493309  0.16542600  1
  Ca2+  Ca46  1  0.92553219  0.67458609  0.49413848  1
  Ca2+  Ca47  1  0.91375081  0.67078536  0.82906693  1
  Al0+  Al48  1  0.00174768  -0.00115432  -0.00196058  1
  Al0+  Al49  1  0.00157738  0.00092074  0.33619136  1
  Al0+  Al50  1  -0.00043078  0.00028960  0.66641558  1
  Al0+  Al51  1  -0.00085889  0.50116045  0.00379225  1
  Al0+  Al52  1  -0.00248532  0.49968649  0.32613304  1
  Al0+  Al53  1  -0.00093098  0.50025356  0.67020866  1
  Al0+  Al54  1  0.49918839  0.00052193  -0.00448879  1
  Al0+  Al55  1  0.50140112  0.00237404  0.33890582  1
  Al0+  Al56  1  0.50242861  -0.00041704  0.66759340  1
  Al0+  Al57  1  0.50041855  0.50162361  0.00122135  1
  Al0+  Al58  1  0.49942554  0.50004849  0.33570561  1
  Al0+  Al59  1  0.50008714  0.49967088  0.66560304  1
  Al0+  Al60  1  0.25046281  0.24923811  0.00708722  1
  Al0+  Al61  1  0.24829017  0.25058877  0.33421828  1
  Al0+  Al62  1  0.25018342  0.25115985  0.66237553  1
  Al0+  Al63  1  0.24962659  0.75024202  -0.00842730  1
  Al0+  Al64  1  0.25034169  0.74924494  0.33235897  1
  Al0+  Al65  1  0.25080973  0.74932745  0.67047629  1
  Al0+  Al66  1  0.74969003  0.25009590  -0.00160327  1
  Al0+  Al67  1  0.74813227  0.25135250  0.33801076  1
  Al0+  Al68  1  0.74891852  0.24941597  0.67118278  1
  Al0+  Al69  1  0.74940663  0.74939704  0.00324775  1
  Al0+  Al70  1  0.75041771  0.74670444  0.33176217  1
  Al0+  Al71  1  0.75021998  0.75000561  0.66210491  1
  Al0+  Al72  1  0.82141191  0.07147461  0.34670932  1
  Al0+  Al73  1  0.42889885  0.82240478  0.98390123  1
  Al0+  Al74  1  0.32248386  0.07393775  0.34952098  1
  Al0+  Al75  1  0.82118895  0.07132482  0.68241883  1
  Al0+  Al76  1  0.92803711  0.31824075  0.32030245  1
  Al0+  Al77  1  0.18047028  0.92802583  0.34695896  1
  Al0+  Al78  1  0.93046726  0.82013365  0.65264487  1
  Al0+  Al79  1  0.07064397  0.68033830  0.31983117  1
  Al0+  Al80  1  0.43033246  0.31932318  0.65257517  1
  Al0+  Al81  1  0.32047841  0.06922227  0.01368206  1
  Al0+  Al82  1  0.67934751  0.43082965  0.34929361  1
  Al0+  Al83  1  0.57279150  0.67574467  0.31623428  1
  Al0+  Al84  1  0.82151805  0.57304320  0.01689490  1
  Al0+  Al85  1  0.17842821  0.92759282  0.68385212  1
  Al0+  Al86  1  0.17911780  0.43061121  0.67804547  1
  Al0+  Al87  1  0.43048288  0.82308534  0.31935736  1
  Al0+  Al88  1  0.07052873  0.18059740  0.65110745  1
  Al0+  Al89  1  0.67894233  0.92591378  0.34732965  1
  Al0+  Al90  1  0.31897354  0.56871354  0.34492489  1
  Al0+  Al91  1  0.18019122  0.42844939  0.01518569  1
  Al0+  Al92  1  0.32157240  0.07079611  0.68259590  1
  Al0+  Al93  1  0.67818473  0.42743607  0.01525665  1
  Al0+  Al94  1  0.07245663  0.17902995  0.98477083  1
  Al0+  Al95  1  0.92774863  0.32154811  0.98336184  1
  Si0+  Si96  1  0.92566141  0.32391304  0.65112090  1
  Si0+  Si97  1  0.92670968  0.82058950  0.98598985  1
  Si0+  Si98  1  0.67752161  0.42953113  0.68219756  1
  Si0+  Si99  1  0.07254344  0.67543009  0.65157884  1
  Si0+  Si100  1  0.57205264  0.67884275  0.98243036  1
  Si0+  Si101  1  0.67847125  0.93042861  0.01273810  1
  Si0+  Si102  1  0.56955324  0.18183222  0.31968815  1
  Si0+  Si103  1  0.42959806  0.32214631  0.98801626  1
  Si0+  Si104  1  0.32103712  0.57516661  0.01582877  1
  Si0+  Si105  1  0.82475782  0.57152329  0.35232022  1
  Si0+  Si106  1  0.07327343  0.17670298  0.31546498  1
  Si0+  Si107  1  0.57041895  0.67968634  0.65220994  1
  Si0+  Si108  1  0.67987835  0.92555307  0.68451370  1
  Si0+  Si109  1  0.92808669  0.82431317  0.31613573  1
  Si0+  Si110  1  0.42884937  0.82131285  0.65124849  1
  Si0+  Si111  1  0.57508137  0.17709723  0.64843134  1
  Si0+  Si112  1  0.17441260  0.42863338  0.34933918  1
  Si0+  Si113  1  0.42689007  0.32186049  0.31785768  1
  Si0+  Si114  1  0.57111570  0.17814696  0.98490804  1
  Si0+  Si115  1  0.32495858  0.57191193  0.68477464  1
  Si0+  Si116  1  0.17697743  0.92551589  0.01603946  1
  Si0+  Si117  1  0.07106384  0.67891481  0.98331298  1
  Si0+  Si118  1  0.82242401  0.06986341  0.01331706  1
  Si0+  Si119  1  0.81942170  0.57133641  0.67982315  1
  O2-  O120  1  0.24609096  -0.00595843  0.05885614  1
  O2-  O121  1  0.25011719  0.00174589  0.39730580  1
  O2-  O122  1  0.25075035  -0.00111417  0.73464152  1
  O2-  O123  1  0.25366339  0.50539164  0.05996678  1
  O2-  O124  1  0.24526376  0.49449138  0.39400272  1
  O2-  O125  1  0.25379479  0.50507134  0.72730910  1
  O2-  O126  1  0.75085385  -0.00050633  0.05514158  1
  O2-  O127  1  0.75637174  -0.00753433  0.39660967  1
  O2-  O128  1  0.74651511  -0.00412782  0.72969437  1
  O2-  O129  1  0.75284176  0.49671311  0.06479622  1
  O2-  O130  1  0.75225238  0.50694578  0.39727430  1
  O2-  O131  1  0.75168383  0.49750454  0.72292901  1
  O2-  O132  1  0.00310981  0.24456913  0.27272890  1
  O2-  O133  1  -0.00651222  0.25498057  0.60678664  1
  O2-  O134  1  0.00130687  0.25163439  0.93293027  1
  O2-  O135  1  -0.00273249  0.75631080  0.27140888  1
  O2-  O136  1  0.00932216  0.74906371  0.60763551  1
  O2-  O137  1  -0.00189398  0.74951071  0.94362452  1
  O2-  O138  1  0.49414903  0.24735054  0.27557092  1
  O2-  O139  1  0.50315801  0.24294005  0.60510474  1
  O2-  O140  1  0.50234264  0.25269570  0.94537675  1
  O2-  O141  1  0.50539471  0.75349826  0.26842143  1
  O2-  O142  1  0.49801364  0.74841368  0.60980806  1
  O2-  O143  1  0.50302909  0.74646819  0.93670030  1
  O2-  O144  1  0.06987797  0.17820835  0.09828331  1
  O2-  O145  1  0.07424100  0.17860231  0.42110855  1
  O2-  O146  1  0.07136103  0.18279481  0.76423815  1
  O2-  O147  1  0.07483458  0.68091716  0.08819977  1
  O2-  O148  1  0.06844940  0.67865313  0.43306848  1
  O2-  O149  1  0.06780881  0.67224962  0.75732044  1
  O2-  O150  1  0.57102649  0.17400226  0.08993767  1
  O2-  O151  1  0.57213372  0.18543138  0.42454757  1
  O2-  O152  1  0.57767858  0.18016674  0.75452568  1
  O2-  O153  1  0.57220236  0.67934130  0.08712529  1
  O2-  O154  1  0.56680316  0.67499567  0.43079473  1
  O2-  O155  1  0.57117101  0.68041644  0.75754525  1
  O2-  O156  1  0.17661285  0.42966303  0.24361183  1
  O2-  O157  1  0.17915570  0.43424052  0.56512676  1
  O2-  O158  1  0.18321640  0.42804993  0.90168221  1
  O2-  O159  1  0.18208818  0.92878077  0.23283691  1
  O2-  O160  1  0.18123261  0.92569228  0.57079244  1
  O2-  O161  1  0.17648356  0.92447640  0.91063892  1
  O2-  O162  1  0.68003230  0.42860830  0.23670257  1
  O2-  O163  1  0.67543723  0.43086378  0.57732308  1
  O2-  O164  1  0.67582781  0.43072147  0.90092866  1
  O2-  O165  1  0.67829735  0.93219729  0.23280480  1
  O2-  O166  1  0.68102985  0.92307343  0.57955086  1
  O2-  O167  1  0.67876778  0.93135927  0.90741703  1
  O2-  O168  1  0.43069102  0.32187634  0.09313006  1
  O2-  O169  1  0.42888701  0.32281937  0.42299855  1
  O2-  O170  1  0.43328305  0.32086633  0.76635140  1
  O2-  O171  1  0.43046329  0.82410226  0.09632228  1
  O2-  O172  1  0.43001584  0.81993962  0.43333298  1
  O2-  O173  1  0.43153791  0.82016821  0.75668966  1
  O2-  O174  1  0.92582251  0.31644763  0.09688652  1
  O2-  O175  1  0.92994961  0.31798138  0.43387781  1
  O2-  O176  1  0.92526464  0.32489725  0.75645925  1
  O2-  O177  1  0.92499732  0.82196432  0.09068270  1
  O2-  O178  1  0.92867210  0.82247040  0.42177582  1
  O2-  O179  1  0.92753137  0.81506788  0.76645126  1
  O2-  O180  1  0.32229468  0.07371834  0.23557363  1
  O2-  O181  1  0.32036713  0.06887181  0.56965023  1
  O2-  O182  1  0.32251247  0.06973373  0.90094541  1
  O2-  O183  1  0.31746303  0.56675013  0.23161931  1
  O2-  O184  1  0.32763784  0.57133998  0.57929888  1
  O2-  O185  1  0.31947054  0.57585594  0.90988509  1
  O2-  O186  1  0.81765325  0.07184670  0.23226080  1
  O2-  O187  1  0.81863960  0.07136557  0.56985403  1
  O2-  O188  1  0.82125863  0.06812593  0.90820186  1
  O2-  O189  1  0.82652982  0.56867802  0.24714117  1
  O2-  O190  1  0.81895972  0.57183909  0.57512707  1
  O2-  O191  1  0.81713296  0.57595369  0.90217889  1
  O2-  O192  1  0.04985413  0.08236992  0.27007568  1
  O2-  O193  1  0.03916079  0.08392832  0.59892614  1
  O2-  O194  1  0.04444722  0.07957650  0.93238008  1
  O2-  O195  1  0.03855220  0.58525159  0.26336355  1
  O2-  O196  1  0.04098922  0.58439728  0.60342614  1
  O2-  O197  1  0.04307164  0.58698092  0.93643648  1
  O2-  O198  1  0.54682847  0.08861171  0.27260364  1
  O2-  O199  1  0.55513325  0.08107818  0.60549081  1
  O2-  O200  1  0.54181683  0.08896625  0.93313468  1
  O2-  O201  1  0.53816892  0.57895935  0.26379979  1
  O2-  O202  1  0.54472639  0.58684194  0.60587173  1
  O2-  O203  1  0.54629222  0.58515783  0.93485864  1
  O2-  O204  1  0.16642272  0.20445614  0.26885304  1
  O2-  O205  1  0.16512539  0.21372944  0.59547374  1
  O2-  O206  1  0.17203349  0.20989602  0.93464604  1
  O2-  O207  1  0.16634841  0.70978860  0.26327842  1
  O2-  O208  1  0.16949018  0.69466124  0.60995139  1
  O2-  O209  1  0.16105273  0.70587060  0.93163266  1
  O2-  O210  1  0.65912601  0.21419451  0.27045383  1
  O2-  O211  1  0.66692921  0.20786276  0.60159441  1
  O2-  O212  1  0.66274782  0.20431404  0.93583425  1
  O2-  O213  1  0.67474648  0.69396823  0.26665616  1
  O2-  O214  1  0.66112309  0.70740833  0.60307381  1
  O2-  O215  1  0.66532932  0.70686553  0.93556943  1
  O2-  O216  1  0.08340082  0.45883272  0.06745045  1
  O2-  O217  1  0.08143868  0.45704026  0.39383995  1
  O2-  O218  1  0.08291084  0.46036705  0.73499861  1
  O2-  O219  1  0.08283372  0.94880317  0.06217663  1
  O2-  O220  1  0.08108704  0.95296641  0.39930010  1
  O2-  O221  1  0.07904839  0.95451962  0.73455665  1
  O2-  O222  1  0.57981552  0.45775227  0.06783027  1
  O2-  O223  1  0.58279293  0.46068453  0.40413208  1
  O2-  O224  1  0.58735953  0.46127474  0.73111279  1
  O2-  O225  1  0.58768239  0.96147700  0.05918526  1
  O2-  O226  1  0.58451510  0.95988495  0.40371810  1
  O2-  O227  1  0.58605945  0.95065743  0.73076377  1
  O2-  O228  1  0.21316679  0.33491964  0.07262773  1
  O2-  O229  1  0.19804490  0.33426949  0.39370248  1
  O2-  O230  1  0.21358042  0.33545799  0.73199549  1
  O2-  O231  1  0.20390365  0.83091717  0.05906382  1
  O2-  O232  1  0.20788721  0.82993756  0.40019490  1
  O2-  O233  1  0.20467541  0.82750249  0.73680841  1
  O2-  O234  1  0.70238163  0.32692043  0.06643938  1
  O2-  O235  1  0.71108481  0.33602069  0.40592430  1
  O2-  O236  1  0.70012167  0.33664443  0.72923386  1
  O2-  O237  1  0.70354914  0.83841941  0.05978437  1
  O2-  O238  1  0.69964438  0.82420564  0.39636231  1
  O2-  O239  1  0.70772040  0.83244192  0.73159302  1
  O2-  O240  1  0.45901315  0.41150127  0.26990108  1
  O2-  O241  1  0.46352242  0.41617801  0.59887920  1
  O2-  O242  1  0.45455629  0.41452617  0.93937132  1
  O2-  O243  1  0.45925582  0.92304675  0.26844026  1
  O2-  O244  1  0.45831811  0.91286858  0.60523915  1
  O2-  O245  1  0.46419472  0.91658059  0.92700334  1
  O2-  O246  1  0.95604840  0.41445298  0.26458855  1
  O2-  O247  1  0.95048847  0.41835356  0.60591513  1
  O2-  O248  1  0.95200886  0.42346939  0.93571184  1
  O2-  O249  1  0.95144938  0.91886253  0.27066543  1
  O2-  O250  1  0.95633898  0.91748410  0.59963414  1
  O2-  O251  1  0.95516886  0.91171596  0.93701645  1
  O2-  O252  1  0.33299404  0.29907188  0.27162600  1
  O2-  O253  1  0.33442421  0.29320561  0.59612938  1
  O2-  O254  1  0.33873116  0.29089053  0.94135159  1
  O2-  O255  1  0.33402232  0.79001545  0.26561021  1
  O2-  O256  1  0.33588403  0.79434074  0.60643575  1
  O2-  O257  1  0.33354178  0.79101847  0.92701998  1
  O2-  O258  1  0.83057014  0.28690257  0.26796000  1
  O2-  O259  1  0.83058340  0.29879957  0.60742114  1
  O2-  O260  1  0.82871227  0.29316805  0.93028597  1
  O2-  O261  1  0.83456332  0.79780114  0.27011031  1
  O2-  O262  1  0.83520996  0.78614671  0.59719898  1
  O2-  O263  1  0.83491219  0.79282440  0.93744946  1
  O2-  O264  1  0.41859407  0.03822788  0.06540761  1
  O2-  O265  1  0.42130850  0.05042798  0.40242178  1
  O2-  O266  1  0.42294520  0.04548058  0.73281188  1
  O2-  O267  1  0.41582383  0.55213362  0.05924913  1
  O2-  O268  1  0.41396463  0.53743700  0.40134751  1
  O2-  O269  1  0.41772524  0.54411392  0.73221485  1
  O2-  O270  1  0.91370453  0.04110414  0.06051929  1
  O2-  O271  1  0.92122744  0.04977990  0.39831543  1
  O2-  O272  1  0.91617369  0.03864610  0.73716186  1
  O2-  O273  1  0.92150330  0.55202342  0.06811556  1
  O2-  O274  1  0.91652489  0.54062466  0.39940091  1
  O2-  O275  1  0.91135818  0.54751935  0.72916669  1
  O2-  O276  1  0.29314206  0.16498109  0.07022158  1
  O2-  O277  1  0.29347917  0.17322336  0.40109127  1
  O2-  O278  1  0.29348031  0.17101993  0.73166001  1
  O2-  O279  1  0.29253681  0.66856444  0.06026433  1
  O2-  O280  1  0.28845365  0.66427191  0.40003583  1
  O2-  O281  1  0.30211655  0.66587969  0.73090203  1
  O2-  O282  1  0.79330612  0.16153089  0.05901028  1
  O2-  O283  1  0.78442278  0.16533706  0.40237422  1
  O2-  O284  1  0.78835189  0.16707278  0.73842976  1
  O2-  O285  1  0.79053618  0.67025638  0.07135310  1
  O2-  O286  1  0.80471307  0.66712334  0.39625414  1
  O2-  O287  1  0.78760668  0.66191300  0.72791664  1
