# generated using pymatgen
data_Ca2Al2SiO7
_symmetry_space_group_name_H-M   'P 1'
_cell_length_a   15.46498879
_cell_length_b   15.46404696
_cell_length_c   15.28848185
_cell_angle_alpha   90.01034675
_cell_angle_beta   90.00347229
_cell_angle_gamma   89.98995626
_symmetry_Int_Tables_number   1
_chemical_formula_structural   Ca2Al2SiO7
_chemical_formula_sum   'Ca48 Al48 Si24 O168'
_cell_volume   3656.26038385
_cell_formula_units_Z   24
loop_
 _symmetry_equiv_pos_site_id
 _symmetry_equiv_pos_as_xyz
  1  'x, y, z'
loop_
 _atom_type_symbol
 _atom_type_oxidation_number
  Ca2+  2.0
  Al0+  0.0
  Si0+  0.0
  O2-  -2.0
loop_
 _atom_site_type_symbol
 _atom_site_label
 _atom_site_symmetry_multiplicity
 _atom_site_fract_x
 _atom_site_fract_y
 _atom_site_fract_z
 _atom_site_occupancy
  Ca2+  Ca0  1  0.17447022  0.09580542  0.16931059  1
  Ca2+  Ca1  1  0.17859365  0.09013826  0.50216886  1
  Ca2+  Ca2  1  0.17788572  0.08499633  0.84018080  1
  Ca2+  Ca3  1  0.16684513  0.58301300  0.17059712  1
  Ca2+  Ca4  1  0.17206875  0.57310455  0.50701683  1
  Ca2+  Ca5  1  0.16344380  0.57733549  0.83889028  1
  Ca2+  Ca6  1  0.65754425  0.07322613  0.17162698  1
  Ca2+  Ca7  1  0.66184367  0.07446338  0.50418315  1
  Ca2+  Ca8  1  0.66744566  0.07145007  0.83484013  1
  Ca2+  Ca9  1  0.67769248  0.58513403  0.17505836  1
  Ca2+  Ca10  1  0.66423547  0.58198329  0.50250806  1
  Ca2+  Ca11  1  0.66493555  0.58012560  0.83691236  1
  Ca2+  Ca12  1  0.07515573  0.32267848  0.16525306  1
  Ca2+  Ca13  1  0.07814081  0.32867887  0.49202737  1
  Ca2+  Ca14  1  0.07792225  0.33021627  0.83454252  1
  Ca2+  Ca15  1  0.08094101  0.82538923  0.15925771  1
  Ca2+  Ca16  1  0.07904841  0.83331582  0.49679017  1
  Ca2+  Ca17  1  0.08561963  0.82505603  0.83091214  1
  Ca2+  Ca18  1  0.57320072  0.32738851  0.16472198  1
  Ca2+  Ca19  1  0.58091011  0.32559307  0.49062298  1
  Ca2+  Ca20  1  0.57804720  0.33697364  0.82786392  1
  Ca2+  Ca21  1  0.57858302  0.83795555  0.16577925  1
  Ca2+  Ca22  1  0.58067576  0.83385949  0.49399799  1
  Ca2+  Ca23  1  0.57926559  0.83595106  0.82713506  1
  Ca2+  Ca24  1  0.33593562  0.41113854  0.17150915  1
  Ca2+  Ca25  1  0.32777331  0.41123374  0.50675059  1
  Ca2+  Ca26  1  0.32646786  0.41333977  0.83962919  1
  Ca2+  Ca27  1  0.33958803  0.92568990  0.17163336  1
  Ca2+  Ca28  1  0.34449160  0.92646711  0.50148729  1
  Ca2+  Ca29  1  0.34473356  0.92613106  0.83841103  1
  Ca2+  Ca30  1  0.84684956  0.42472581  0.16926264  1
  Ca2+  Ca31  1  0.82757314  0.41831435  0.50258022  1
  Ca2+  Ca32  1  0.82597753  0.41887384  0.83958069  1
  Ca2+  Ca33  1  0.81843615  0.91389094  0.17261657  1
  Ca2+  Ca34  1  0.81969271  0.92469917  0.50598367  1
  Ca2+  Ca35  1  0.82067940  0.91664305  0.83676314  1
  Ca2+  Ca36  1  0.41538940  0.16919260  0.16669203  1
  Ca2+  Ca37  1  0.41891877  0.16776793  0.49060148  1
  Ca2+  Ca38  1  0.41154921  0.16642719  0.83449843  1
  Ca2+  Ca39  1  0.42321188  0.68022900  0.16230838  1
  Ca2+  Ca40  1  0.43214621  0.67780826  0.49391204  1
  Ca2+  Ca41  1  0.42294630  0.68294054  0.82263518  1
  Ca2+  Ca42  1  0.92585414  0.17417440  0.15686279  1
  Ca2+  Ca43  1  0.91905938  0.17163479  0.48887009  1
  Ca2+  Ca44  1  0.91986511  0.16293986  0.82834095  1
  Ca2+  Ca45  1  0.91751605  0.66153842  0.16016411  1
  Ca2+  Ca46  1  0.91460551  0.66492792  0.49454705  1
  Ca2+  Ca47  1  0.91843573  0.65954433  0.83796704  1
  Al0+  Al48  1  0.00014180  -0.00163221  -0.00464122  1
  Al0+  Al49  1  0.00121313  -0.00235182  0.32847082  1
  Al0+  Al50  1  0.00395324  -0.00052188  0.66765951  1
  Al0+  Al51  1  0.00005179  0.49835065  -0.00393322  1
  Al0+  Al52  1  0.00139942  0.50014247  0.33701061  1
  Al0+  Al53  1  0.00062587  0.49737784  0.66967133  1
  Al0+  Al54  1  0.49893928  0.00104935  0.00472347  1
  Al0+  Al55  1  0.49840069  0.00079574  0.33571765  1
  Al0+  Al56  1  0.50031657  0.00308413  0.67171569  1
  Al0+  Al57  1  0.49860546  0.49935099  -0.00254580  1
  Al0+  Al58  1  0.50156433  0.50274902  0.32671620  1
  Al0+  Al59  1  0.49848117  0.50253466  0.66668622  1
  Al0+  Al60  1  0.24902389  0.25025182  -0.00252560  1
  Al0+  Al61  1  0.24783257  0.25035590  0.33250523  1
  Al0+  Al62  1  0.24777784  0.24989997  0.67581333  1
  Al0+  Al63  1  0.25055296  0.74980577  -0.00925640  1
  Al0+  Al64  1  0.25010026  0.75005852  0.33298306  1
  Al0+  Al65  1  0.25037291  0.75061561  0.65877429  1
  Al0+  Al66  1  0.74806194  0.24911019  -0.00244006  1
  Al0+  Al67  1  0.74959115  0.25259324  0.32229921  1
  Al0+  Al68  1  0.75039985  0.25302457  0.67395920  1
  Al0+  Al69  1  0.74996411  0.74791743  0.00821140  1
  Al0+  Al70  1  0.75112811  0.74979299  0.34037211  1
  Al0+  Al71  1  0.75304886  0.74928190  0.66740400  1
  Al0+  Al72  1  0.32007765  0.06975269  0.68138999  1
  Al0+  Al73  1  0.43122684  0.82200325  0.98546272  1
  Al0+  Al74  1  0.07078169  0.67935574  0.98655875  1
  Al0+  Al75  1  0.57395905  0.67797880  0.65188609  1
  Al0+  Al76  1  0.82175081  0.56881684  0.34875322  1
  Al0+  Al77  1  0.17938567  0.42955239  0.68273729  1
  Al0+  Al78  1  0.57501460  0.68011209  0.31617738  1
  Al0+  Al79  1  0.43002132  0.32117935  0.98429257  1
  Al0+  Al80  1  0.42742568  0.32220498  0.32182405  1
  Al0+  Al81  1  0.67997932  0.92852535  0.68179084  1
  Al0+  Al82  1  0.67935960  0.93183891  0.34838248  1
  Al0+  Al83  1  0.68024479  0.93045340  0.01547020  1
  Al0+  Al84  1  0.42897478  0.82147637  0.31747508  1
  Al0+  Al85  1  0.92825402  0.32301724  0.31988974  1
  Al0+  Al86  1  0.92747534  0.32052454  0.98192554  1
  Al0+  Al87  1  0.67705812  0.43089784  0.67872835  1
  Al0+  Al88  1  0.07031647  0.17741014  0.98141219  1
  Al0+  Al89  1  0.43082194  0.82543158  0.64931558  1
  Al0+  Al90  1  0.31737669  0.07026453  0.01685729  1
  Al0+  Al91  1  0.07017156  0.17684370  0.32001149  1
  Al0+  Al92  1  0.57157237  0.17751063  0.31945669  1
  Al0+  Al93  1  0.31694664  0.07054479  0.34715272  1
  Al0+  Al94  1  0.81896664  0.56594939  0.01392620  1
  Al0+  Al95  1  0.82392718  0.07275148  0.67920760  1
  Si0+  Si96  1  0.92842963  0.32033720  0.65115842  1
  Si0+  Si97  1  0.18012319  0.43083408  0.01744325  1
  Si0+  Si98  1  0.67542323  0.42722580  0.34764760  1
  Si0+  Si99  1  0.67364820  0.42541859  0.01867959  1
  Si0+  Si100  1  0.82380789  0.57147526  0.68405216  1
  Si0+  Si101  1  0.32046860  0.57331997  0.68319155  1
  Si0+  Si102  1  0.82439458  0.07261604  0.01680244  1
  Si0+  Si103  1  0.57212356  0.18268688  0.65450008  1
  Si0+  Si104  1  0.17760612  0.92523008  0.68318630  1
  Si0+  Si105  1  0.92524270  0.82025997  0.98392183  1
  Si0+  Si106  1  0.32110055  0.57259143  0.01429265  1
  Si0+  Si107  1  0.93095213  0.82191957  0.65158755  1
  Si0+  Si108  1  0.57055701  0.17680582  0.98118020  1
  Si0+  Si109  1  0.42643882  0.32035438  0.65458705  1
  Si0+  Si110  1  0.57340658  0.67855880  0.98428873  1
  Si0+  Si111  1  0.82454217  0.07383232  0.34433778  1
  Si0+  Si112  1  0.92890427  0.81998316  0.31959024  1
  Si0+  Si113  1  0.06998593  0.67606528  0.64981546  1
  Si0+  Si114  1  0.07071986  0.67884060  0.32101204  1
  Si0+  Si115  1  0.17651211  0.92459239  0.01524084  1
  Si0+  Si116  1  0.07183641  0.17927524  0.65156803  1
  Si0+  Si117  1  0.32333346  0.57430617  0.34765442  1
  Si0+  Si118  1  0.17563532  0.92355528  0.35007478  1
  Si0+  Si119  1  0.18182861  0.43149400  0.34794952  1
  O2-  O120  1  0.24087181  -0.00442538  0.06141671  1
  O2-  O121  1  0.24270823  -0.00578533  0.39321227  1
  O2-  O122  1  0.24992290  -0.01032156  0.72661675  1
  O2-  O123  1  0.25222459  0.50080086  0.05985800  1
  O2-  O124  1  0.25711295  0.49824763  0.39032502  1
  O2-  O125  1  0.25270407  0.50526797  0.73014582  1
  O2-  O126  1  0.75591540  0.00483173  0.06207062  1
  O2-  O127  1  0.75216182  0.01098453  0.39139305  1
  O2-  O128  1  0.75372884  -0.00020356  0.73055896  1
  O2-  O129  1  0.74567855  0.49081646  0.06233691  1
  O2-  O130  1  0.74584150  0.49436742  0.39265688  1
  O2-  O131  1  0.74896167  0.50865944  0.72564206  1
  O2-  O132  1  -0.00776570  0.24313810  0.27157873  1
  O2-  O133  1  -0.00365986  0.24579153  0.60949690  1
  O2-  O134  1  -0.00660364  0.24367852  0.93025010  1
  O2-  O135  1  0.00115565  0.74989633  0.27790262  1
  O2-  O136  1  -0.00014030  0.74809233  0.60833299  1
  O2-  O137  1  -0.00237217  0.75530842  0.93910498  1
  O2-  O138  1  0.49959819  0.25099019  0.27153889  1
  O2-  O139  1  0.50024581  0.25326482  0.61209269  1
  O2-  O140  1  0.50684279  0.24997692  0.93598369  1
  O2-  O141  1  0.50244457  0.75147527  0.26675945  1
  O2-  O142  1  0.50599679  0.75451914  0.60256940  1
  O2-  O143  1  0.50586033  0.74719162  0.93913399  1
  O2-  O144  1  0.07090068  0.18135163  0.09486225  1
  O2-  O145  1  0.07122421  0.18110818  0.43431070  1
  O2-  O146  1  0.07210698  0.18121551  0.75615953  1
  O2-  O147  1  0.07069032  0.67929932  0.10003991  1
  O2-  O148  1  0.06968484  0.67850238  0.42639065  1
  O2-  O149  1  0.06962574  0.67546956  0.75472825  1
  O2-  O150  1  0.56787814  0.17652955  0.08663840  1
  O2-  O151  1  0.57106545  0.17890046  0.43398019  1
  O2-  O152  1  0.57160456  0.18369772  0.75943993  1
  O2-  O153  1  0.57227304  0.67903910  0.08957892  1
  O2-  O154  1  0.57349141  0.67990262  0.42970365  1
  O2-  O155  1  0.57012236  0.67672992  0.76571864  1
  O2-  O156  1  0.17967767  0.43475366  0.24298823  1
  O2-  O157  1  0.18007495  0.42950236  0.56905122  1
  O2-  O158  1  0.18067376  0.43282963  0.91210082  1
  O2-  O159  1  0.17481179  0.91674206  0.24510469  1
  O2-  O160  1  0.17195201  0.92741643  0.57777910  1
  O2-  O161  1  0.17842755  0.92309848  0.90962593  1
  O2-  O162  1  0.67268849  0.42943350  0.24258771  1
  O2-  O163  1  0.68010727  0.42642521  0.56579666  1
  O2-  O164  1  0.67226756  0.42961642  0.91265326  1
  O2-  O165  1  0.68143065  0.93031390  0.23529126  1
  O2-  O166  1  0.68049489  0.93124659  0.56829238  1
  O2-  O167  1  0.68180248  0.92995199  0.90239257  1
  O2-  O168  1  0.42984969  0.32154630  0.09697835  1
  O2-  O169  1  0.42642315  0.32046451  0.43615863  1
  O2-  O170  1  0.42641918  0.31852341  0.75957183  1
  O2-  O171  1  0.42993454  0.82052841  0.09813256  1
  O2-  O172  1  0.42936481  0.82018824  0.43083611  1
  O2-  O173  1  0.43062055  0.82356218  0.76317750  1
  O2-  O174  1  0.93433333  0.32235793  0.09526591  1
  O2-  O175  1  0.93164308  0.32442134  0.43423676  1
  O2-  O176  1  0.93018765  0.32251188  0.75566981  1
  O2-  O177  1  0.92614088  0.81769665  0.08976170  1
  O2-  O178  1  0.93137393  0.82010883  0.42500345  1
  O2-  O179  1  0.93306218  0.82158320  0.75646072  1
  O2-  O180  1  0.31479151  0.07204539  0.23444863  1
  O2-  O181  1  0.31777025  0.07486542  0.56846280  1
  O2-  O182  1  0.31771036  0.06891783  0.90352505  1
  O2-  O183  1  0.31755881  0.57713530  0.24254239  1
  O2-  O184  1  0.31721745  0.57006867  0.57732490  1
  O2-  O185  1  0.31825632  0.57084845  0.90926981  1
  O2-  O186  1  0.82721980  0.06688903  0.23925953  1
  O2-  O187  1  0.82388957  0.07241719  0.56524505  1
  O2-  O188  1  0.82361216  0.06973568  0.91114748  1
  O2-  O189  1  0.82608320  0.56785688  0.23591961  1
  O2-  O190  1  0.82935202  0.56776123  0.57863952  1
  O2-  O191  1  0.81744810  0.56656019  0.90070622  1
  O2-  O192  1  0.05264411  0.07616798  0.26721875  1
  O2-  O193  1  0.05227345  0.08487100  0.60571619  1
  O2-  O194  1  0.04953471  0.07597408  0.92998205  1
  O2-  O195  1  0.04263091  0.58776924  0.27330250  1
  O2-  O196  1  0.04055501  0.58414994  0.60284285  1
  O2-  O197  1  0.03750213  0.58469102  0.93062395  1
  O2-  O198  1  0.53912719  0.08127727  0.26620207  1
  O2-  O199  1  0.54374925  0.09089576  0.60833664  1
  O2-  O200  1  0.53823500  0.08567152  0.93482959  1
  O2-  O201  1  0.54837468  0.58223855  0.26205415  1
  O2-  O202  1  0.54026875  0.58090048  0.59693423  1
  O2-  O203  1  0.54755662  0.58459611  0.93906195  1
  O2-  O204  1  0.16389137  0.21518967  0.26538219  1
  O2-  O205  1  0.16198551  0.21473999  0.60539481  1
  O2-  O206  1  0.16624490  0.21333643  0.92870435  1
  O2-  O207  1  0.16229704  0.70448809  0.27265497  1
  O2-  O208  1  0.16157270  0.70170480  0.60061360  1
  O2-  O209  1  0.16546974  0.70765635  0.92726107  1
  O2-  O210  1  0.66896192  0.20143815  0.26223033  1
  O2-  O211  1  0.66387478  0.21150043  0.60775484  1
  O2-  O212  1  0.66645200  0.19516044  0.93703575  1
  O2-  O213  1  0.67483729  0.70887025  0.26707017  1
  O2-  O214  1  0.67639129  0.69750086  0.60332465  1
  O2-  O215  1  0.66809500  0.70296277  0.94045424  1
  O2-  O216  1  0.08922869  0.46214716  0.06338230  1
  O2-  O217  1  0.09317173  0.46451486  0.39892815  1
  O2-  O218  1  0.08355710  0.46156949  0.73739004  1
  O2-  O219  1  0.07979601  0.94379153  0.05843889  1
  O2-  O220  1  0.08073297  0.94753934  0.39568720  1
  O2-  O221  1  0.08605809  0.95212617  0.73268464  1
  O2-  O222  1  0.58028638  0.45348549  0.06400697  1
  O2-  O223  1  0.58221175  0.45426797  0.39495484  1
  O2-  O224  1  0.57941016  0.45871555  0.73351698  1
  O2-  O225  1  0.58499843  0.96393372  0.06962878  1
  O2-  O226  1  0.58302793  0.96156388  0.40260710  1
  O2-  O227  1  0.58374559  0.96090436  0.73596724  1
  O2-  O228  1  0.20827508  0.33896887  0.06312254  1
  O2-  O229  1  0.20577786  0.33939127  0.39627268  1
  O2-  O230  1  0.21081613  0.33570768  0.74024049  1
  O2-  O231  1  0.20367319  0.83028757  0.05980434  1
  O2-  O232  1  0.20112290  0.83060852  0.39924361  1
  O2-  O233  1  0.19818695  0.82845495  0.72506979  1
  O2-  O234  1  0.69370911  0.32895366  0.06034069  1
  O2-  O235  1  0.70008568  0.33206859  0.39210823  1
  O2-  O236  1  0.70966111  0.33766197  0.73802615  1
  O2-  O237  1  0.71126090  0.83438706  0.07046585  1
  O2-  O238  1  0.71547748  0.83767637  0.40348912  1
  O2-  O239  1  0.70952889  0.82974381  0.73400267  1
  O2-  O240  1  0.45154593  0.42083382  0.26758066  1
  O2-  O241  1  0.44761787  0.41462560  0.60977851  1
  O2-  O242  1  0.45618969  0.41926458  0.92910841  1
  O2-  O243  1  0.45619688  0.92030852  0.26705180  1
  O2-  O244  1  0.45852638  0.92564091  0.60000045  1
  O2-  O245  1  0.46373710  0.91882605  0.93381124  1
  O2-  O246  1  0.96920617  0.41793560  0.26746253  1
  O2-  O247  1  0.96110559  0.41114407  0.60394922  1
  O2-  O248  1  0.96309073  0.41596654  0.92746256  1
  O2-  O249  1  0.95447582  0.91034068  0.26879250  1
  O2-  O250  1  0.96262045  0.91198317  0.60241127  1
  O2-  O251  1  0.94535137  0.91463264  0.93787883  1
  O2-  O252  1  0.32958417  0.29422069  0.26824246  1
  O2-  O253  1  0.33457386  0.28928483  0.60897272  1
  O2-  O254  1  0.33352871  0.28941951  0.93119820  1
  O2-  O255  1  0.33006564  0.79091649  0.26585874  1
  O2-  O256  1  0.33143682  0.79728344  0.59686128  1
  O2-  O257  1  0.33563216  0.79151136  0.92934435  1
  O2-  O258  1  0.82846526  0.30956783  0.26573958  1
  O2-  O259  1  0.83513221  0.29600073  0.60519406  1
  O2-  O260  1  0.82494030  0.30115650  0.93365051  1
  O2-  O261  1  0.83861454  0.78929828  0.27291197  1
  O2-  O262  1  0.83923439  0.79603462  0.60349270  1
  O2-  O263  1  0.83383724  0.78768013  0.93774247  1
  O2-  O264  1  0.41367639  0.03932213  0.07005722  1
  O2-  O265  1  0.41357130  0.04143589  0.40191324  1
  O2-  O266  1  0.41705921  0.04507611  0.73719900  1
  O2-  O267  1  0.41358564  0.54621191  0.06088586  1
  O2-  O268  1  0.41730214  0.55132986  0.39199416  1
  O2-  O269  1  0.41395583  0.55016720  0.72911370  1
  O2-  O270  1  0.91933871  0.04774524  0.06074178  1
  O2-  O271  1  0.91711880  0.04427254  0.39200104  1
  O2-  O272  1  0.92326782  0.04450620  0.73091306  1
  O2-  O273  1  0.91780904  0.53616702  0.06559980  1
  O2-  O274  1  0.91856113  0.53860179  0.40456570  1
  O2-  O275  1  0.91464840  0.53935087  0.73226153  1
  O2-  O276  1  0.28589801  0.16839281  0.06783864  1
  O2-  O277  1  0.28428274  0.16716515  0.40201192  1
  O2-  O278  1  0.28391854  0.16316447  0.73827695  1
  O2-  O279  1  0.29011659  0.66421427  0.06013941  1
  O2-  O280  1  0.28901710  0.66242620  0.39844377  1
  O2-  O281  1  0.29323832  0.66785059  0.72621422  1
  O2-  O282  1  0.80044892  0.16783871  0.06016055  1
  O2-  O283  1  0.80535428  0.17153496  0.38428868  1
  O2-  O284  1  0.79636264  0.16988509  0.73449880  1
  O2-  O285  1  0.79202976  0.66249937  0.07024713  1
  O2-  O286  1  0.79402442  0.66528745  0.40464170  1
  O2-  O287  1  0.80773765  0.66750779  0.72819095  1
