# generated using pymatgen
data_Ca2Al2SiO7
_symmetry_space_group_name_H-M   'P 1'
_cell_length_a   15.45947870
_cell_length_b   15.45921993
_cell_length_c   15.28501714
_cell_angle_alpha   90.00884502
_cell_angle_beta   89.99320760
_cell_angle_gamma   89.99747283
_symmetry_Int_Tables_number   1
_chemical_formula_structural   Ca2Al2SiO7
_chemical_formula_sum   'Ca48 Al48 Si24 O168'
_cell_volume   3652.98881423
_cell_formula_units_Z   24
loop_
 _symmetry_equiv_pos_site_id
 _symmetry_equiv_pos_as_xyz
  1  'x, y, z'
loop_
 _atom_type_symbol
 _atom_type_oxidation_number
  Ca2+  2.0
  Al0+  0.0
  Si0+  0.0
  O2-  -2.0
loop_
 _atom_site_type_symbol
 _atom_site_label
 _atom_site_symmetry_multiplicity
 _atom_site_fract_x
 _atom_site_fract_y
 _atom_site_fract_z
 _atom_site_occupancy
  Ca2+  Ca0  1  0.16647345  0.08536096  0.17111800  1
  Ca2+  Ca1  1  0.16692970  0.08777585  0.50245706  1
  Ca2+  Ca2  1  0.17159841  0.08213668  0.83789749  1
  Ca2+  Ca3  1  0.17862017  0.58841183  0.17262152  1
  Ca2+  Ca4  1  0.16987932  0.57745974  0.50207887  1
  Ca2+  Ca5  1  0.17491393  0.57587424  0.83590352  1
  Ca2+  Ca6  1  0.66423832  0.07397313  0.16973195  1
  Ca2+  Ca7  1  0.65922482  0.07925898  0.50457679  1
  Ca2+  Ca8  1  0.66973266  0.08040029  0.83617016  1
  Ca2+  Ca9  1  0.66981745  0.56879708  0.17416057  1
  Ca2+  Ca10  1  0.67803137  0.57551744  0.49911983  1
  Ca2+  Ca11  1  0.66867805  0.57810214  0.83630882  1
  Ca2+  Ca12  1  0.06940528  0.33161082  0.16634716  1
  Ca2+  Ca13  1  0.07926627  0.33138217  0.49110697  1
  Ca2+  Ca14  1  0.07891213  0.33634402  0.83077839  1
  Ca2+  Ca15  1  0.07545090  0.82551079  0.16184737  1
  Ca2+  Ca16  1  0.07755779  0.82336209  0.49105158  1
  Ca2+  Ca17  1  0.07372263  0.83284235  0.83340715  1
  Ca2+  Ca18  1  0.58130523  0.33912814  0.16142059  1
  Ca2+  Ca19  1  0.58200018  0.32425051  0.49043418  1
  Ca2+  Ca20  1  0.57556693  0.33377056  0.82767820  1
  Ca2+  Ca21  1  0.58393015  0.83301903  0.16095388  1
  Ca2+  Ca22  1  0.58384730  0.83853763  0.49875807  1
  Ca2+  Ca23  1  0.57711406  0.84246661  0.82904596  1
  Ca2+  Ca24  1  0.34187927  0.42635612  0.17305045  1
  Ca2+  Ca25  1  0.33198302  0.41336225  0.50274491  1
  Ca2+  Ca26  1  0.33187610  0.41353150  0.84055029  1
  Ca2+  Ca27  1  0.33491734  0.91671881  0.17015329  1
  Ca2+  Ca28  1  0.33236478  0.91751435  0.50529738  1
  Ca2+  Ca29  1  0.33708851  0.91270172  0.83829133  1
  Ca2+  Ca30  1  0.82607642  0.41202368  0.17269025  1
  Ca2+  Ca31  1  0.83753381  0.42168547  0.50104490  1
  Ca2+  Ca32  1  0.82756741  0.41968785  0.84078021  1
  Ca2+  Ca33  1  0.82611434  0.91745841  0.16932739  1
  Ca2+  Ca34  1  0.81981534  0.92581470  0.50926399  1
  Ca2+  Ca35  1  0.82278209  0.92732015  0.84245594  1
  Ca2+  Ca36  1  0.42473453  0.18124594  0.16594858  1
  Ca2+  Ca37  1  0.42723649  0.17794445  0.49594183  1
  Ca2+  Ca38  1  0.42665454  0.17615953  0.82420858  1
  Ca2+  Ca39  1  0.41605421  0.66740310  0.15867618  1
  Ca2+  Ca40  1  0.41494463  0.67148874  0.49669085  1
  Ca2+  Ca41  1  0.41623833  0.67425497  0.83344964  1
  Ca2+  Ca42  1  0.91191893  0.17461255  0.16336677  1
  Ca2+  Ca43  1  0.92115667  0.16986659  0.49173600  1
  Ca2+  Ca44  1  0.90581570  0.16896942  0.83389243  1
  Ca2+  Ca45  1  0.91839110  0.66570343  0.16421897  1
  Ca2+  Ca46  1  0.91927868  0.65885778  0.49112903  1
  Ca2+  Ca47  1  0.90810962  0.67293707  0.82951333  1
  Al0+  Al48  1  0.00115019  -0.00189092  -0.00006406  1
  Al0+  Al49  1  0.00018049  -0.00261946  0.33109639  1
  Al0+  Al50  1  -0.00088467  -0.00051781  0.66920486  1
  Al0+  Al51  1  0.00293924  0.49749250  -0.00516304  1
  Al0+  Al52  1  0.00394348  0.50021649  0.32488896  1
  Al0+  Al53  1  0.00258903  0.50083341  0.67682327  1
  Al0+  Al54  1  0.49894026  0.00046207  0.00063614  1
  Al0+  Al55  1  0.49734265  0.00211215  0.33393219  1
  Al0+  Al56  1  0.49690463  0.00115065  0.66203102  1
  Al0+  Al57  1  0.49963423  0.50139467  0.00132485  1
  Al0+  Al58  1  0.50140511  0.50376561  0.34221153  1
  Al0+  Al59  1  0.49914667  0.50497046  0.66210634  1
  Al0+  Al60  1  0.24887721  0.24958181  -0.00131168  1
  Al0+  Al61  1  0.25192615  0.25024631  0.32514166  1
  Al0+  Al62  1  0.24809417  0.25006727  0.66889935  1
  Al0+  Al63  1  0.25038385  0.74889875  -0.00143433  1
  Al0+  Al64  1  0.24840480  0.75054749  0.33459153  1
  Al0+  Al65  1  0.24865602  0.74887454  0.66329353  1
  Al0+  Al66  1  0.75097779  0.24924460  0.00231079  1
  Al0+  Al67  1  0.74961134  0.24585468  0.32993064  1
  Al0+  Al68  1  0.75026493  0.25079813  0.66445192  1
  Al0+  Al69  1  0.75089926  0.74945110  -0.00163519  1
  Al0+  Al70  1  0.74774870  0.75084891  0.34195965  1
  Al0+  Al71  1  0.74774355  0.75120478  0.67281380  1
  Al0+  Al72  1  0.43229156  0.32490541  0.31776277  1
  Al0+  Al73  1  0.67687467  0.92820308  0.01614064  1
  Al0+  Al74  1  0.43000560  0.82102374  0.98838450  1
  Al0+  Al75  1  0.82355084  0.56910030  0.34494524  1
  Al0+  Al76  1  0.07158908  0.67870719  0.31933905  1
  Al0+  Al77  1  0.67960339  0.42473556  0.34933555  1
  Al0+  Al78  1  0.92821308  0.81965251  0.98581554  1
  Al0+  Al79  1  0.42608991  0.32423610  0.65194383  1
  Al0+  Al80  1  0.07243615  0.17605041  0.31839790  1
  Al0+  Al81  1  0.42994683  0.32299092  0.98626325  1
  Al0+  Al82  1  0.67547334  0.93144569  0.68331325  1
  Al0+  Al83  1  0.67724574  0.93050910  0.34878051  1
  Al0+  Al84  1  0.82326254  0.07304409  0.68159208  1
  Al0+  Al85  1  0.31852434  0.56924424  0.01273682  1
  Al0+  Al86  1  0.57195979  0.18153880  0.65161161  1
  Al0+  Al87  1  0.82222086  0.07031585  0.01816016  1
  Al0+  Al88  1  0.18176093  0.42842158  0.68042283  1
  Al0+  Al89  1  0.42852101  0.81946767  0.65170973  1
  Al0+  Al90  1  0.32191062  0.57357880  0.34914182  1
  Al0+  Al91  1  0.57151621  0.17667536  0.31586218  1
  Al0+  Al92  1  0.67999847  0.43080172  0.01101972  1
  Al0+  Al93  1  0.92826240  0.31954890  0.98351487  1
  Al0+  Al94  1  0.92871587  0.32087488  0.31928097  1
  Al0+  Al95  1  0.82203825  0.56964709  0.68145387  1
  Si0+  Si96  1  0.42829327  0.82057512  0.31910141  1
  Si0+  Si97  1  0.57109407  0.17805914  0.98338082  1
  Si0+  Si98  1  0.32217579  0.57468701  0.68348679  1
  Si0+  Si99  1  0.67710581  0.42838044  0.68159149  1
  Si0+  Si100  1  0.18029933  0.92843173  0.01505968  1
  Si0+  Si101  1  0.31770812  0.06979102  0.68109782  1
  Si0+  Si102  1  0.07201303  0.17674483  0.98119121  1
  Si0+  Si103  1  0.93128351  0.32270258  0.65451369  1
  Si0+  Si104  1  0.82455408  0.07006552  0.35001074  1
  Si0+  Si105  1  0.31846898  0.07167402  0.34842167  1
  Si0+  Si106  1  0.07336383  0.67815430  0.98048376  1
  Si0+  Si107  1  0.92568747  0.81987765  0.31883268  1
  Si0+  Si108  1  0.06837266  0.67927027  0.65205623  1
  Si0+  Si109  1  0.57197558  0.68143525  0.32011680  1
  Si0+  Si110  1  0.32057772  0.07237495  0.01520502  1
  Si0+  Si111  1  0.57519335  0.67855967  0.64686923  1
  Si0+  Si112  1  0.82516341  0.57213910  0.01515584  1
  Si0+  Si113  1  0.57242280  0.67764126  0.98441739  1
  Si0+  Si114  1  0.17728392  0.42513247  0.01991116  1
  Si0+  Si115  1  0.07080913  0.17737703  0.65397343  1
  Si0+  Si116  1  0.92781275  0.82137012  0.65192641  1
  Si0+  Si117  1  0.17833222  0.92611591  0.68157475  1
  Si0+  Si118  1  0.18125190  0.42777160  0.34691378  1
  Si0+  Si119  1  0.17822238  0.92868787  0.34850221  1
  O2-  O120  1  0.25044792  -0.00010914  0.05751901  1
  O2-  O121  1  0.24427017  0.00361249  0.39154266  1
  O2-  O122  1  0.24918836  -0.00348402  0.72479200  1
  O2-  O123  1  0.24683594  0.49340867  0.06246105  1
  O2-  O124  1  0.25074199  0.49442151  0.39356199  1
  O2-  O125  1  0.26247273  0.49758270  0.72651521  1
  O2-  O126  1  0.75020641  -0.00215825  0.06726707  1
  O2-  O127  1  0.75166712  0.00603917  0.39437578  1
  O2-  O128  1  0.74896760  0.00296644  0.73081569  1
  O2-  O129  1  0.75768596  0.50263955  0.05825969  1
  O2-  O130  1  0.75734692  0.49281571  0.39704575  1
  O2-  O131  1  0.74592100  0.49635027  0.72731062  1
  O2-  O132  1  -0.00243822  0.24469582  0.26952506  1
  O2-  O133  1  -0.00201181  0.24684728  0.61324600  1
  O2-  O134  1  0.00250559  0.24380988  0.93614204  1
  O2-  O135  1  -0.00778273  0.74908107  0.27422207  1
  O2-  O136  1  -0.00500573  0.74718778  0.60837542  1
  O2-  O137  1  -0.00114159  0.74099679  0.93681264  1
  O2-  O138  1  0.50878545  0.25777417  0.26698835  1
  O2-  O139  1  0.50379529  0.25840862  0.60290070  1
  O2-  O140  1  0.50410934  0.24859969  0.93906016  1
  O2-  O141  1  0.49929102  0.75060916  0.27669034  1
  O2-  O142  1  0.50491031  0.74749508  0.60434982  1
  O2-  O143  1  0.50858814  0.75162224  0.94061529  1
  O2-  O144  1  0.07426792  0.17749369  0.08630988  1
  O2-  O145  1  0.07227559  0.17704245  0.43283296  1
  O2-  O146  1  0.07446410  0.17630154  0.75871233  1
  O2-  O147  1  0.07626663  0.68226961  0.08593317  1
  O2-  O148  1  0.07263938  0.68130016  0.43302221  1
  O2-  O149  1  0.07039721  0.68253611  0.75702417  1
  O2-  O150  1  0.56713764  0.17639636  0.08866145  1
  O2-  O151  1  0.56475551  0.17359199  0.42921698  1
  O2-  O152  1  0.56910309  0.18098757  0.76559071  1
  O2-  O153  1  0.56980382  0.67625010  0.09017366  1
  O2-  O154  1  0.57205870  0.68421836  0.42508704  1
  O2-  O155  1  0.57460707  0.67579102  0.75251123  1
  O2-  O156  1  0.18204882  0.42977083  0.24160065  1
  O2-  O157  1  0.17739395  0.43045138  0.56736578  1
  O2-  O158  1  0.17830918  0.42593608  0.91377939  1
  O2-  O159  1  0.18127199  0.92587119  0.24345806  1
  O2-  O160  1  0.17794543  0.92634343  0.57640738  1
  O2-  O161  1  0.18109633  0.92888199  0.90946821  1
  O2-  O162  1  0.67778767  0.43065275  0.23566347  1
  O2-  O163  1  0.68033774  0.42878897  0.57646091  1
  O2-  O164  1  0.67911024  0.43362122  0.89743850  1
  O2-  O165  1  0.67740724  0.92770387  0.23603890  1
  O2-  O166  1  0.67764036  0.93266126  0.56951997  1
  O2-  O167  1  0.67474689  0.93196953  0.90298133  1
  O2-  O168  1  0.43127579  0.32364965  0.09886666  1
  O2-  O169  1  0.42792281  0.31968981  0.43112411  1
  O2-  O170  1  0.42588077  0.31951508  0.76588330  1
  O2-  O171  1  0.42655436  0.81875848  0.10151980  1
  O2-  O172  1  0.42669489  0.82007612  0.42425137  1
  O2-  O173  1  0.42536847  0.81718552  0.76477540  1
  O2-  O174  1  0.93018887  0.32052363  0.09599523  1
  O2-  O175  1  0.93419114  0.32252321  0.43380089  1
  O2-  O176  1  0.93338024  0.32303080  0.75951160  1
  O2-  O177  1  0.93162864  0.81831898  0.09903807  1
  O2-  O178  1  0.92999895  0.82128597  0.42472498  1
  O2-  O179  1  0.93261941  0.82122964  0.75692845  1
  O2-  O180  1  0.31832497  0.06778911  0.24316040  1
  O2-  O181  1  0.31328964  0.06933459  0.57595313  1
  O2-  O182  1  0.31824258  0.07203413  0.90982786  1
  O2-  O183  1  0.31942173  0.57819258  0.23604637  1
  O2-  O184  1  0.31546051  0.58037579  0.57840759  1
  O2-  O185  1  0.31633074  0.57080475  0.89955564  1
  O2-  O186  1  0.82861538  0.06481225  0.24493467  1
  O2-  O187  1  0.83192679  0.06872572  0.56845963  1
  O2-  O188  1  0.82064851  0.06941218  0.90453410  1
  O2-  O189  1  0.81940569  0.57257959  0.23162420  1
  O2-  O190  1  0.82668887  0.56638241  0.56868533  1
  O2-  O191  1  0.82247028  0.57151631  0.90919374  1
  O2-  O192  1  0.05034508  0.07491972  0.26730454  1
  O2-  O193  1  0.04665032  0.08428226  0.60619171  1
  O2-  O194  1  0.05133350  0.08132309  0.93653739  1
  O2-  O195  1  0.04904960  0.58335590  0.26065940  1
  O2-  O196  1  0.04208758  0.58592589  0.60739312  1
  O2-  O197  1  0.05560093  0.58209260  0.93678082  1
  O2-  O198  1  0.53058779  0.08228375  0.26163749  1
  O2-  O199  1  0.53579402  0.08567004  0.59807926  1
  O2-  O200  1  0.54086524  0.08602871  0.93643955  1
  O2-  O201  1  0.54499618  0.58921089  0.27420057  1
  O2-  O202  1  0.55016948  0.58598138  0.59826561  1
  O2-  O203  1  0.53942096  0.58817107  0.93446385  1
  O2-  O204  1  0.16928378  0.20462381  0.26290292  1
  O2-  O205  1  0.16121844  0.20682929  0.60491179  1
  O2-  O206  1  0.16517979  0.20406157  0.93363010  1
  O2-  O207  1  0.16509228  0.71855256  0.26439259  1
  O2-  O208  1  0.15850454  0.70978973  0.60288006  1
  O2-  O209  1  0.16324020  0.71212442  0.93169833  1
  O2-  O210  1  0.67369414  0.18998153  0.26708545  1
  O2-  O211  1  0.67181962  0.20392627  0.59785440  1
  O2-  O212  1  0.66571612  0.20121887  0.93994712  1
  O2-  O213  1  0.66286276  0.71131146  0.27234070  1
  O2-  O214  1  0.66852090  0.70631137  0.60121869  1
  O2-  O215  1  0.66770397  0.69597529  0.93913864  1
  O2-  O216  1  0.08330214  0.45251076  0.06358616  1
  O2-  O217  1  0.08819950  0.45591241  0.39253553  1
  O2-  O218  1  0.08999010  0.46551953  0.74045790  1
  O2-  O219  1  0.08924638  0.95485272  0.06377868  1
  O2-  O220  1  0.08497055  0.95077436  0.39636955  1
  O2-  O221  1  0.08745496  0.95459958  0.73026446  1
  O2-  O222  1  0.58559765  0.46548476  0.06646586  1
  O2-  O223  1  0.58510856  0.46068688  0.40552643  1
  O2-  O224  1  0.58248713  0.45626973  0.72543335  1
  O2-  O225  1  0.57766524  0.95669459  0.06886390  1
  O2-  O226  1  0.57915922  0.96112134  0.40096672  1
  O2-  O227  1  0.57515723  0.95954241  0.73259700  1
  O2-  O228  1  0.19994345  0.33029922  0.06366431  1
  O2-  O229  1  0.20498945  0.33274385  0.39183337  1
  O2-  O230  1  0.20568012  0.33074126  0.73668707  1
  O2-  O231  1  0.20962993  0.83729926  0.06237340  1
  O2-  O232  1  0.21062460  0.83990325  0.39937188  1
  O2-  O233  1  0.20650241  0.83463775  0.72928979  1
  O2-  O234  1  0.70728705  0.33383392  0.06445589  1
  O2-  O235  1  0.70187572  0.32329819  0.39822832  1
  O2-  O236  1  0.70156673  0.33485968  0.72749825  1
  O2-  O237  1  0.70400389  0.82739615  0.06546286  1
  O2-  O238  1  0.70734454  0.83535880  0.40610733  1
  O2-  O239  1  0.70130700  0.83234095  0.73542406  1
  O2-  O240  1  0.45593184  0.42732671  0.27125038  1
  O2-  O241  1  0.44270441  0.42716380  0.60448788  1
  O2-  O242  1  0.45983099  0.41966209  0.93195940  1
  O2-  O243  1  0.45386748  0.91300823  0.27271898  1
  O2-  O244  1  0.45324562  0.91727388  0.59732798  1
  O2-  O245  1  0.45428696  0.91946213  0.93407173  1
  O2-  O246  1  0.96106997  0.41619035  0.26243481  1
  O2-  O247  1  0.96640846  0.41320694  0.60926454  1
  O2-  O248  1  0.96087340  0.41591546  0.92821326  1
  O2-  O249  1  0.95543854  0.91103800  0.27077010  1
  O2-  O250  1  0.96076061  0.91138619  0.60399213  1
  O2-  O251  1  0.96624237  0.91387241  0.93105903  1
  O2-  O252  1  0.33603830  0.29183430  0.26263859  1
  O2-  O253  1  0.32884656  0.28841996  0.60034590  1
  O2-  O254  1  0.33188336  0.29134352  0.93499964  1
  O2-  O255  1  0.33617079  0.79318066  0.27238737  1
  O2-  O256  1  0.33145412  0.78795740  0.59673383  1
  O2-  O257  1  0.33440905  0.78746897  0.93265129  1
  O2-  O258  1  0.83007682  0.29487719  0.26663971  1
  O2-  O259  1  0.83831475  0.30176644  0.60737428  1
  O2-  O260  1  0.83116721  0.28963787  0.92956209  1
  O2-  O261  1  0.83110406  0.79579493  0.27530417  1
  O2-  O262  1  0.83367343  0.79778315  0.60856549  1
  O2-  O263  1  0.83147712  0.79238689  0.92968171  1
  O2-  O264  1  0.41115917  0.04435047  0.06347681  1
  O2-  O265  1  0.40711310  0.03893023  0.39814805  1
  O2-  O266  1  0.40928405  0.04299527  0.72792301  1
  O2-  O267  1  0.41567833  0.54253127  0.06682956  1
  O2-  O268  1  0.41845542  0.55034535  0.40565580  1
  O2-  O269  1  0.41987044  0.56165892  0.72475404  1
  O2-  O270  1  0.92244216  0.04177281  0.06759363  1
  O2-  O271  1  0.91744348  0.04059179  0.39749318  1
  O2-  O272  1  0.92108512  0.04272390  0.73680432  1
  O2-  O273  1  0.92122122  0.54862774  0.05661939  1
  O2-  O274  1  0.92554255  0.54557599  0.39398596  1
  O2-  O275  1  0.91711250  0.54084782  0.73937962  1
  O2-  O276  1  0.28989614  0.16279511  0.06364223  1
  O2-  O277  1  0.29177273  0.16420774  0.39464178  1
  O2-  O278  1  0.28676715  0.15931811  0.73098073  1
  O2-  O279  1  0.28523710  0.66569187  0.06693028  1
  O2-  O280  1  0.28452948  0.66840841  0.40380596  1
  O2-  O281  1  0.28559720  0.66439589  0.73195019  1
  O2-  O282  1  0.79467162  0.16893828  0.06951843  1
  O2-  O283  1  0.80539610  0.16578328  0.39303207  1
  O2-  O284  1  0.79706967  0.17325009  0.73213172  1
  O2-  O285  1  0.80178043  0.66626654  0.05996536  1
  O2-  O286  1  0.79170087  0.66535533  0.40172806  1
  O2-  O287  1  0.79120311  0.66661944  0.73476463  1
