# generated using pymatgen
data_Ca2Al2SiO7
_symmetry_space_group_name_H-M   'P 1'
_cell_length_a   15.46902392
_cell_length_b   15.47086953
_cell_length_c   15.29097127
_cell_angle_alpha   90.02380177
_cell_angle_beta   90.02562437
_cell_angle_gamma   90.00771247
_symmetry_Int_Tables_number   1
_chemical_formula_structural   Ca2Al2SiO7
_chemical_formula_sum   'Ca48 Al48 Si24 O168'
_cell_volume   3659.42307367
_cell_formula_units_Z   24
loop_
 _symmetry_equiv_pos_site_id
 _symmetry_equiv_pos_as_xyz
  1  'x, y, z'
loop_
 _atom_type_symbol
 _atom_type_oxidation_number
  Ca2+  2.0
  Al0+  0.0
  Si0+  0.0
  O2-  -2.0
loop_
 _atom_site_type_symbol
 _atom_site_label
 _atom_site_symmetry_multiplicity
 _atom_site_fract_x
 _atom_site_fract_y
 _atom_site_fract_z
 _atom_site_occupancy
  Ca2+  Ca0  1  0.16322360  0.08067857  0.17227678  1
  Ca2+  Ca1  1  0.17096312  0.06953893  0.51223069  1
  Ca2+  Ca2  1  0.17181596  0.08602589  0.83694109  1
  Ca2+  Ca3  1  0.16604597  0.57612098  0.17179589  1
  Ca2+  Ca4  1  0.16563688  0.57970836  0.50121941  1
  Ca2+  Ca5  1  0.16394417  0.57696200  0.83482136  1
  Ca2+  Ca6  1  0.66203094  0.08239876  0.16324941  1
  Ca2+  Ca7  1  0.66488355  0.08100154  0.51114088  1
  Ca2+  Ca8  1  0.65188870  0.07670184  0.83578778  1
  Ca2+  Ca9  1  0.67432874  0.56962092  0.17386795  1
  Ca2+  Ca10  1  0.67311019  0.57366715  0.50303456  1
  Ca2+  Ca11  1  0.66641330  0.56822847  0.83764008  1
  Ca2+  Ca12  1  0.08050165  0.33586676  0.15425170  1
  Ca2+  Ca13  1  0.08046805  0.34353063  0.49958920  1
  Ca2+  Ca14  1  0.07452738  0.34099967  0.82865948  1
  Ca2+  Ca15  1  0.08782304  0.82091364  0.16366170  1
  Ca2+  Ca16  1  0.09590929  0.82304446  0.49598054  1
  Ca2+  Ca17  1  0.09120616  0.82020290  0.82620283  1
  Ca2+  Ca18  1  0.57849912  0.33449605  0.15422987  1
  Ca2+  Ca19  1  0.58221892  0.33683844  0.50004965  1
  Ca2+  Ca20  1  0.57849366  0.32887600  0.82198071  1
  Ca2+  Ca21  1  0.58290925  0.83052937  0.15878040  1
  Ca2+  Ca22  1  0.57637613  0.83898559  0.50099038  1
  Ca2+  Ca23  1  0.58231346  0.83547507  0.82392849  1
  Ca2+  Ca24  1  0.32256219  0.41787627  0.17140276  1
  Ca2+  Ca25  1  0.32249982  0.41865925  0.50692605  1
  Ca2+  Ca26  1  0.32358783  0.40273445  0.83620145  1
  Ca2+  Ca27  1  0.32464847  0.92177515  0.17278103  1
  Ca2+  Ca28  1  0.32689507  0.91999926  0.51068638  1
  Ca2+  Ca29  1  0.33607382  0.92241098  0.82782923  1
  Ca2+  Ca30  1  0.82527944  0.41361855  0.17026504  1
  Ca2+  Ca31  1  0.82760127  0.41862703  0.50500774  1
  Ca2+  Ca32  1  0.82548248  0.40407312  0.83500448  1
  Ca2+  Ca33  1  0.82948339  0.91789214  0.16689031  1
  Ca2+  Ca34  1  0.82735709  0.91965359  0.50828379  1
  Ca2+  Ca35  1  0.82237216  0.91865023  0.83818790  1
  Ca2+  Ca36  1  0.42191908  0.17796503  0.15695111  1
  Ca2+  Ca37  1  0.41656935  0.16829064  0.50720108  1
  Ca2+  Ca38  1  0.42267712  0.17678777  0.82861982  1
  Ca2+  Ca39  1  0.41163880  0.66598942  0.16680181  1
  Ca2+  Ca40  1  0.40987494  0.67124451  0.49688936  1
  Ca2+  Ca41  1  0.41775977  0.67473660  0.82570518  1
  Ca2+  Ca42  1  0.92654613  0.17541615  0.15718418  1
  Ca2+  Ca43  1  0.91501762  0.17445953  0.50119612  1
  Ca2+  Ca44  1  0.92214833  0.17664293  0.83332515  1
  Ca2+  Ca45  1  0.92652908  0.65833915  0.16452733  1
  Ca2+  Ca46  1  0.92776975  0.66312781  0.49460027  1
  Ca2+  Ca47  1  0.92957657  0.66271086  0.82816558  1
  Al0+  Al48  1  -0.00155372  -0.00130171  -0.00232699  1
  Al0+  Al49  1  -0.00264194  -0.00079657  0.33752002  1
  Al0+  Al50  1  -0.00117778  -0.00246654  0.67264247  1
  Al0+  Al51  1  0.00053915  0.50146641  -0.00538875  1
  Al0+  Al52  1  -0.00182861  0.50076283  0.33320117  1
  Al0+  Al53  1  0.00149635  0.50124800  0.66039561  1
  Al0+  Al54  1  0.49736200  0.00053349  0.00447010  1
  Al0+  Al55  1  0.49859234  0.00031398  0.33020591  1
  Al0+  Al56  1  0.49894532  -0.00039862  0.66537795  1
  Al0+  Al57  1  0.49825449  0.50372331  -0.00027551  1
  Al0+  Al58  1  0.49916562  0.50129786  0.33763151  1
  Al0+  Al59  1  0.50102500  0.50055211  0.66587127  1
  Al0+  Al60  1  0.25186942  0.24840236  0.00066384  1
  Al0+  Al61  1  0.25190042  0.24877040  0.33665529  1
  Al0+  Al62  1  0.25053111  0.24887480  0.66979332  1
  Al0+  Al63  1  0.25006512  0.75122378  -0.00360214  1
  Al0+  Al64  1  0.24906426  0.75094036  0.33216218  1
  Al0+  Al65  1  0.25224255  0.74932455  0.66233031  1
  Al0+  Al66  1  0.75122004  0.24511246  -0.00087557  1
  Al0+  Al67  1  0.74963250  0.24669084  0.33433546  1
  Al0+  Al68  1  0.75237001  0.24971331  0.66200426  1
  Al0+  Al69  1  0.74899487  0.75049364  0.00474011  1
  Al0+  Al70  1  0.74886489  0.75050042  0.33570472  1
  Al0+  Al71  1  0.75299888  0.74964046  0.67013722  1
  Al0+  Al72  1  0.32041632  0.57201904  0.34762664  1
  Al0+  Al73  1  0.42992217  0.32552101  0.98635561  1
  Al0+  Al74  1  0.07080995  0.68106658  0.65030567  1
  Al0+  Al75  1  0.67760813  0.92992777  0.01507027  1
  Al0+  Al76  1  0.57021406  0.18026334  0.65083096  1
  Al0+  Al77  1  0.68025931  0.42915598  0.68073620  1
  Al0+  Al78  1  0.17881049  0.92577426  0.68400083  1
  Al0+  Al79  1  0.18020454  0.43004352  0.01154110  1
  Al0+  Al80  1  0.43254087  0.81922184  0.65228202  1
  Al0+  Al81  1  0.93117686  0.31976289  0.65050444  1
  Al0+  Al82  1  0.67880747  0.42579044  0.34803970  1
  Al0+  Al83  1  0.07084649  0.68068608  0.98505145  1
  Al0+  Al84  1  0.42685942  0.32337412  0.64897481  1
  Al0+  Al85  1  0.68033419  0.93013796  0.67910367  1
  Al0+  Al86  1  0.06984374  0.68004422  0.31708259  1
  Al0+  Al87  1  0.17806948  0.93132751  0.34551932  1
  Al0+  Al88  1  0.82097260  0.57203479  0.34811604  1
  Al0+  Al89  1  0.92956718  0.32209228  0.98573334  1
  Al0+  Al90  1  0.17937053  0.43073642  0.68108332  1
  Al0+  Al91  1  0.17818927  0.42686268  0.34745832  1
  Al0+  Al92  1  0.07325832  0.17675194  0.98649006  1
  Al0+  Al93  1  0.67861008  0.42656987  0.01100197  1
  Al0+  Al94  1  0.57059670  0.17891474  0.98643548  1
  Al0+  Al95  1  0.32062212  0.07090440  0.68405869  1
  Si0+  Si96  1  0.31964774  0.07011710  0.01792909  1
  Si0+  Si97  1  0.92933159  0.31934211  0.31874356  1
  Si0+  Si98  1  0.57213393  0.67925152  0.31764653  1
  Si0+  Si99  1  0.32104701  0.57746745  0.01544244  1
  Si0+  Si100  1  0.92643888  0.82276208  0.65019462  1
  Si0+  Si101  1  0.42953256  0.82117388  0.98592623  1
  Si0+  Si102  1  0.57605122  0.67710079  0.64935974  1
  Si0+  Si103  1  0.92542992  0.82150965  0.98331434  1
  Si0+  Si104  1  0.42979007  0.82126996  0.31576065  1
  Si0+  Si105  1  0.07097238  0.17681525  0.32257656  1
  Si0+  Si106  1  0.32323706  0.57210255  0.68342507  1
  Si0+  Si107  1  0.82359943  0.57127070  0.68393527  1
  Si0+  Si108  1  0.57090716  0.17791824  0.31720684  1
  Si0+  Si109  1  0.82008957  0.06956155  0.34905151  1
  Si0+  Si110  1  0.92467606  0.82390812  0.31614283  1
  Si0+  Si111  1  0.82472894  0.07015652  0.01942836  1
  Si0+  Si112  1  0.57252660  0.68046953  0.98574649  1
  Si0+  Si113  1  0.67683280  0.92967082  0.34797493  1
  Si0+  Si114  1  0.82117349  0.57219194  0.01513680  1
  Si0+  Si115  1  0.32369695  0.07142532  0.35070635  1
  Si0+  Si116  1  0.82322254  0.07353187  0.68580749  1
  Si0+  Si117  1  0.17790277  0.92801584  0.01511911  1
  Si0+  Si118  1  0.07236500  0.17506636  0.65058229  1
  Si0+  Si119  1  0.42899153  0.32233566  0.31847918  1
  O2-  O120  1  0.24382983  0.00297418  0.05906888  1
  O2-  O121  1  0.25065265  0.00702983  0.39283931  1
  O2-  O122  1  0.24524137  0.00215030  0.73494813  1
  O2-  O123  1  0.25621005  0.50413496  0.05727452  1
  O2-  O124  1  0.25010520  0.49897829  0.39740191  1
  O2-  O125  1  0.25928388  0.49991817  0.72823416  1
  O2-  O126  1  0.75256074  0.00361873  0.06300814  1
  O2-  O127  1  0.74784176  -0.00045298  0.39041588  1
  O2-  O128  1  0.75268673  0.00551689  0.72804499  1
  O2-  O129  1  0.75539482  0.49962502  0.05813498  1
  O2-  O130  1  0.75132584  0.49763771  0.39730832  1
  O2-  O131  1  0.75427375  0.50392842  0.72861819  1
  O2-  O132  1  0.00642046  0.25324516  0.27875034  1
  O2-  O133  1  0.00661630  0.24513769  0.60372608  1
  O2-  O134  1  0.00605532  0.25338014  0.93727896  1
  O2-  O135  1  -0.00700608  0.75483198  0.27193983  1
  O2-  O136  1  -0.00134132  0.75928662  0.60472730  1
  O2-  O137  1  -0.00519071  0.75444846  0.93886912  1
  O2-  O138  1  0.50316911  0.25301256  0.27706548  1
  O2-  O139  1  0.50155265  0.25394373  0.59825314  1
  O2-  O140  1  0.50951799  0.26065652  0.93814777  1
  O2-  O141  1  0.50035465  0.74973580  0.27370013  1
  O2-  O142  1  0.50743747  0.74543324  0.60396342  1
  O2-  O143  1  0.50119403  0.75116173  0.94404857  1
  O2-  O144  1  0.07002327  0.17575466  0.10126836  1
  O2-  O145  1  0.06661409  0.17282342  0.42703515  1
  O2-  O146  1  0.06946779  0.17494916  0.75588694  1
  O2-  O147  1  0.07158981  0.68207113  0.09833315  1
  O2-  O148  1  0.07050951  0.68304651  0.42966299  1
  O2-  O149  1  0.06888440  0.68090925  0.76363061  1
  O2-  O150  1  0.56525991  0.17734021  0.10093176  1
  O2-  O151  1  0.57079264  0.17253921  0.42147750  1
  O2-  O152  1  0.56864785  0.17978550  0.76406190  1
  O2-  O153  1  0.57265213  0.68159927  0.09111498  1
  O2-  O154  1  0.57357109  0.68326105  0.42222700  1
  O2-  O155  1  0.57502839  0.67909813  0.75540815  1
  O2-  O156  1  0.17921295  0.42550368  0.23342943  1
  O2-  O157  1  0.17829037  0.43430351  0.56801343  1
  O2-  O158  1  0.18001253  0.43231866  0.89888250  1
  O2-  O159  1  0.18013707  0.93317483  0.23165235  1
  O2-  O160  1  0.18186769  0.92683672  0.57003094  1
  O2-  O161  1  0.18140972  0.92547379  0.91087528  1
  O2-  O162  1  0.67992983  0.42537347  0.23381947  1
  O2-  O163  1  0.68231109  0.43115973  0.56775308  1
  O2-  O164  1  0.67845343  0.42970433  0.89826896  1
  O2-  O165  1  0.67602708  0.93072086  0.24283305  1
  O2-  O166  1  0.68211202  0.93124983  0.56524876  1
  O2-  O167  1  0.67760945  0.92922852  0.90248836  1
  O2-  O168  1  0.42869430  0.32219677  0.10104492  1
  O2-  O169  1  0.42735557  0.32055871  0.42286869  1
  O2-  O170  1  0.42904213  0.32226531  0.76233388  1
  O2-  O171  1  0.42897513  0.81994260  0.09156890  1
  O2-  O172  1  0.43234479  0.82464914  0.42028754  1
  O2-  O173  1  0.43411471  0.81777660  0.76591489  1
  O2-  O174  1  0.92980337  0.32050047  0.10031757  1
  O2-  O175  1  0.92667719  0.31605353  0.42359029  1
  O2-  O176  1  0.93089254  0.31885812  0.76319585  1
  O2-  O177  1  0.92552289  0.82144352  0.08919341  1
  O2-  O178  1  0.92249827  0.82620706  0.42122699  1
  O2-  O179  1  0.92226689  0.81929481  0.75555803  1
  O2-  O180  1  0.32551890  0.06973394  0.24471343  1
  O2-  O181  1  0.31959442  0.06727163  0.56979474  1
  O2-  O182  1  0.32313523  0.06685163  0.91375810  1
  O2-  O183  1  0.32022088  0.57040948  0.23358081  1
  O2-  O184  1  0.32061052  0.57400550  0.57792657  1
  O2-  O185  1  0.31951878  0.58689007  0.91080576  1
  O2-  O186  1  0.82108104  0.06950031  0.24423920  1
  O2-  O187  1  0.82381633  0.07108874  0.57937385  1
  O2-  O188  1  0.82984797  0.06712433  0.91476146  1
  O2-  O189  1  0.81932503  0.57025167  0.23407659  1
  O2-  O190  1  0.82170952  0.57134637  0.57832866  1
  O2-  O191  1  0.81739120  0.57732330  0.90997108  1
  O2-  O192  1  0.03720890  0.08717028  0.27304305  1
  O2-  O193  1  0.04361285  0.08076539  0.60596841  1
  O2-  O194  1  0.04206732  0.07924821  0.93313497  1
  O2-  O195  1  0.03842910  0.58274009  0.26346817  1
  O2-  O196  1  0.03693224  0.58706368  0.59418868  1
  O2-  O197  1  0.04085770  0.58561321  0.92909209  1
  O2-  O198  1  0.53936436  0.08734744  0.26766884  1
  O2-  O199  1  0.53896572  0.08238082  0.59738241  1
  O2-  O200  1  0.53192232  0.08248154  0.93585692  1
  O2-  O201  1  0.54490407  0.58693376  0.27050441  1
  O2-  O202  1  0.55115672  0.58415887  0.60294347  1
  O2-  O203  1  0.54489586  0.58989535  0.93654733  1
  O2-  O204  1  0.16636646  0.19638068  0.27790577  1
  O2-  O205  1  0.16726423  0.19647841  0.60682663  1
  O2-  O206  1  0.17382928  0.19718721  0.93755540  1
  O2-  O207  1  0.16591130  0.71406600  0.26265111  1
  O2-  O208  1  0.16771455  0.71039646  0.59687431  1
  O2-  O209  1  0.16616513  0.71495460  0.93088644  1
  O2-  O210  1  0.66480251  0.20002111  0.27066641  1
  O2-  O211  1  0.67025672  0.20348724  0.59851552  1
  O2-  O212  1  0.67365385  0.18883906  0.93937384  1
  O2-  O213  1  0.66278822  0.70969052  0.26860885  1
  O2-  O214  1  0.67012292  0.70350366  0.60496095  1
  O2-  O215  1  0.66358089  0.70978869  0.93854982  1
  O2-  O216  1  0.08268358  0.46201922  0.06404140  1
  O2-  O217  1  0.07904814  0.45467858  0.39718473  1
  O2-  O218  1  0.08324622  0.46692795  0.73241131  1
  O2-  O219  1  0.08380838  0.95021234  0.06057920  1
  O2-  O220  1  0.08088729  0.95750747  0.40007990  1
  O2-  O221  1  0.07714853  0.94483451  0.73380506  1
  O2-  O222  1  0.58219003  0.46160445  0.06458123  1
  O2-  O223  1  0.58115803  0.45567518  0.39980367  1
  O2-  O224  1  0.58321455  0.46023484  0.73369198  1
  O2-  O225  1  0.58145056  0.96070907  0.07124656  1
  O2-  O226  1  0.58465958  0.95898036  0.39368838  1
  O2-  O227  1  0.58339770  0.95884848  0.73193584  1
  O2-  O228  1  0.20905001  0.33230613  0.06553954  1
  O2-  O229  1  0.20518851  0.32793487  0.40070402  1
  O2-  O230  1  0.20352786  0.33172540  0.73252029  1
  O2-  O231  1  0.21284755  0.83861292  0.06384222  1
  O2-  O232  1  0.21295043  0.83629844  0.39738057  1
  O2-  O233  1  0.21537127  0.82913718  0.73500935  1
  O2-  O234  1  0.70620201  0.32836989  0.06402366  1
  O2-  O235  1  0.70647569  0.32666542  0.39937067  1
  O2-  O236  1  0.71334024  0.33181124  0.73099082  1
  O2-  O237  1  0.70838795  0.83364362  0.07129596  1
  O2-  O238  1  0.70188976  0.83789609  0.39524958  1
  O2-  O239  1  0.71049027  0.83327821  0.73360481  1
  O2-  O240  1  0.45402848  0.41541698  0.27228790  1
  O2-  O241  1  0.45348820  0.42337658  0.59796926  1
  O2-  O242  1  0.44502357  0.42763418  0.93639483  1
  O2-  O243  1  0.45883729  0.91254708  0.26632043  1
  O2-  O244  1  0.46344663  0.91430092  0.59594853  1
  O2-  O245  1  0.45767164  0.91284876  0.94044090  1
  O2-  O246  1  0.95039574  0.41265366  0.27238247  1
  O2-  O247  1  0.96192798  0.41570459  0.59555833  1
  O2-  O248  1  0.95267186  0.42061359  0.93167752  1
  O2-  O249  1  0.95103387  0.91783099  0.26977511  1
  O2-  O250  1  0.94553221  0.91915584  0.60687753  1
  O2-  O251  1  0.94828109  0.91519300  0.93766376  1
  O2-  O252  1  0.33778624  0.29084801  0.27014473  1
  O2-  O253  1  0.32857540  0.29074417  0.59726520  1
  O2-  O254  1  0.33508570  0.28674990  0.93449640  1
  O2-  O255  1  0.33847447  0.79358743  0.26734818  1
  O2-  O256  1  0.33741668  0.78775287  0.59618055  1
  O2-  O257  1  0.33904097  0.79340093  0.93707114  1
  O2-  O258  1  0.83923987  0.28457659  0.27099945  1
  O2-  O259  1  0.83661928  0.28701879  0.59351057  1
  O2-  O260  1  0.83306232  0.28753045  0.93306413  1
  O2-  O261  1  0.83007671  0.79979901  0.27003787  1
  O2-  O262  1  0.83426915  0.79408342  0.60150722  1
  O2-  O263  1  0.83117440  0.79536364  0.93861537  1
  O2-  O264  1  0.40761134  0.03587179  0.06965800  1
  O2-  O265  1  0.41538524  0.03936162  0.39664207  1
  O2-  O266  1  0.41680702  0.03518611  0.73608598  1
  O2-  O267  1  0.41651853  0.55795481  0.06073433  1
  O2-  O268  1  0.42011796  0.55090136  0.40027251  1
  O2-  O269  1  0.41947197  0.55469398  0.72720120  1
  O2-  O270  1  0.91625254  0.03962591  0.06921683  1
  O2-  O271  1  0.90987450  0.04153281  0.39988129  1
  O2-  O272  1  0.91505778  0.04645841  0.73402214  1
  O2-  O273  1  0.91628523  0.54911127  0.05853553  1
  O2-  O274  1  0.91899312  0.54524751  0.40066451  1
  O2-  O275  1  0.91704566  0.54388706  0.72776153  1
  O2-  O276  1  0.29566239  0.16179697  0.06772302  1
  O2-  O277  1  0.30382191  0.16582343  0.39577941  1
  O2-  O278  1  0.29631141  0.16953832  0.73742615  1
  O2-  O279  1  0.29081997  0.66890848  0.06545573  1
  O2-  O280  1  0.29231090  0.67097144  0.39885474  1
  O2-  O281  1  0.29364026  0.66442401  0.72966655  1
  O2-  O282  1  0.80076036  0.16329490  0.06716482  1
  O2-  O283  1  0.79208772  0.16026545  0.39790747  1
  O2-  O284  1  0.79933952  0.16759316  0.72922815  1
  O2-  O285  1  0.79283969  0.66363175  0.06490339  1
  O2-  O286  1  0.79141935  0.67025351  0.40133783  1
  O2-  O287  1  0.80089186  0.66519544  0.73069532  1
