# generated using pymatgen
data_Ca2Al2SiO7
_symmetry_space_group_name_H-M   'P 1'
_cell_length_a   15.45678774
_cell_length_b   15.45695168
_cell_length_c   15.28296604
_cell_angle_alpha   89.99681577
_cell_angle_beta   89.99115087
_cell_angle_gamma   90.00552677
_symmetry_Int_Tables_number   1
_chemical_formula_structural   Ca2Al2SiO7
_chemical_formula_sum   'Ca48 Al48 Si24 O168'
_cell_volume   3651.32703231
_cell_formula_units_Z   24
loop_
 _symmetry_equiv_pos_site_id
 _symmetry_equiv_pos_as_xyz
  1  'x, y, z'
loop_
 _atom_type_symbol
 _atom_type_oxidation_number
  Ca2+  2.0
  Al0+  0.0
  Si0+  0.0
  O2-  -2.0
loop_
 _atom_site_type_symbol
 _atom_site_label
 _atom_site_symmetry_multiplicity
 _atom_site_fract_x
 _atom_site_fract_y
 _atom_site_fract_z
 _atom_site_occupancy
  Ca2+  Ca0  1  0.17126137  0.08092157  0.17308773  1
  Ca2+  Ca1  1  0.16534147  0.08106723  0.50343218  1
  Ca2+  Ca2  1  0.18005877  0.09335049  0.83418474  1
  Ca2+  Ca3  1  0.17611209  0.57864773  0.16966966  1
  Ca2+  Ca4  1  0.17797308  0.58479171  0.50435506  1
  Ca2+  Ca5  1  0.17638371  0.57528066  0.83857850  1
  Ca2+  Ca6  1  0.67310516  0.08627541  0.17660447  1
  Ca2+  Ca7  1  0.67499060  0.09529242  0.50454188  1
  Ca2+  Ca8  1  0.67074527  0.08966327  0.82956377  1
  Ca2+  Ca9  1  0.66023705  0.57145871  0.17359098  1
  Ca2+  Ca10  1  0.66672966  0.57172375  0.50525489  1
  Ca2+  Ca11  1  0.66857637  0.56976964  0.83476722  1
  Ca2+  Ca12  1  0.08198667  0.33287105  0.16412500  1
  Ca2+  Ca13  1  0.07167853  0.32259657  0.49416861  1
  Ca2+  Ca14  1  0.08131092  0.33137469  0.82329931  1
  Ca2+  Ca15  1  0.08075614  0.83692650  0.16493974  1
  Ca2+  Ca16  1  0.08587009  0.83434063  0.49406411  1
  Ca2+  Ca17  1  0.07895149  0.83233744  0.83255269  1
  Ca2+  Ca18  1  0.58199032  0.33339045  0.16542617  1
  Ca2+  Ca19  1  0.59184920  0.32717174  0.49666266  1
  Ca2+  Ca20  1  0.58141450  0.33384925  0.83088985  1
  Ca2+  Ca21  1  0.57931712  0.82463582  0.16696414  1
  Ca2+  Ca22  1  0.57007991  0.82577103  0.49229395  1
  Ca2+  Ca23  1  0.57580222  0.82822882  0.82391702  1
  Ca2+  Ca24  1  0.33548747  0.42279678  0.16661512  1
  Ca2+  Ca25  1  0.33879952  0.43010999  0.50423282  1
  Ca2+  Ca26  1  0.33257588  0.42398019  0.84521240  1
  Ca2+  Ca27  1  0.33016783  0.92070756  0.17455256  1
  Ca2+  Ca28  1  0.33221378  0.91632371  0.50476858  1
  Ca2+  Ca29  1  0.33982550  0.92935310  0.83239490  1
  Ca2+  Ca30  1  0.82236138  0.40971214  0.17397737  1
  Ca2+  Ca31  1  0.82629823  0.41154405  0.50639221  1
  Ca2+  Ca32  1  0.82298704  0.40924821  0.83194176  1
  Ca2+  Ca33  1  0.83452702  0.92165081  0.17366316  1
  Ca2+  Ca34  1  0.83228487  0.93240097  0.50457112  1
  Ca2+  Ca35  1  0.83555200  0.92233109  0.83621384  1
  Ca2+  Ca36  1  0.42208573  0.16997639  0.15896787  1
  Ca2+  Ca37  1  0.42936393  0.16210699  0.49684912  1
  Ca2+  Ca38  1  0.41684405  0.17193544  0.82514945  1
  Ca2+  Ca39  1  0.41401340  0.66371691  0.16904435  1
  Ca2+  Ca40  1  0.41375830  0.67273066  0.49132973  1
  Ca2+  Ca41  1  0.40983698  0.66981612  0.82627789  1
  Ca2+  Ca42  1  0.91996976  0.16838746  0.17173258  1
  Ca2+  Ca43  1  0.91639564  0.17335113  0.49367488  1
  Ca2+  Ca44  1  0.92588221  0.17306509  0.81915799  1
  Ca2+  Ca45  1  0.91809808  0.67498127  0.15826606  1
  Ca2+  Ca46  1  0.91470199  0.66491936  0.49727743  1
  Ca2+  Ca47  1  0.91303314  0.66970781  0.82784218  1
  Al0+  Al48  1  0.00042205  0.00076283  -0.00592457  1
  Al0+  Al49  1  0.00090928  0.00123316  0.33819573  1
  Al0+  Al50  1  0.00017316  -0.00188020  0.66897051  1
  Al0+  Al51  1  -0.00029880  0.50055468  0.00149511  1
  Al0+  Al52  1  -0.00077614  0.49997012  0.32766572  1
  Al0+  Al53  1  -0.00019088  0.50217139  0.66491172  1
  Al0+  Al54  1  0.50330110  -0.00165086  0.00386010  1
  Al0+  Al55  1  0.50036915  -0.00111471  0.32379084  1
  Al0+  Al56  1  0.49869760  -0.00083062  0.66201444  1
  Al0+  Al57  1  0.50172957  0.49897433  0.00307567  1
  Al0+  Al58  1  0.50059433  0.49982023  0.34011635  1
  Al0+  Al59  1  0.50128783  0.50098101  0.67594555  1
  Al0+  Al60  1  0.25196854  0.25049766  0.00498191  1
  Al0+  Al61  1  0.24954423  0.24984115  0.33155589  1
  Al0+  Al62  1  0.25002958  0.24993948  0.66240854  1
  Al0+  Al63  1  0.24922939  0.75084393  0.00097147  1
  Al0+  Al64  1  0.24827642  0.75152176  0.33560213  1
  Al0+  Al65  1  0.24785326  0.75102397  0.66880127  1
  Al0+  Al66  1  0.75159595  0.24860564  0.00377627  1
  Al0+  Al67  1  0.75009062  0.25020013  0.33180036  1
  Al0+  Al68  1  0.74954092  0.24961117  0.67069644  1
  Al0+  Al69  1  0.74953606  0.75138247  -0.00592859  1
  Al0+  Al70  1  0.74799101  0.74973035  0.32927902  1
  Al0+  Al71  1  0.74873661  0.74963048  0.66778347  1
  Al0+  Al72  1  0.17689191  0.42759582  0.01516974  1
  Al0+  Al73  1  0.42604226  0.81991463  0.31566241  1
  Al0+  Al74  1  0.56855542  0.18078472  0.65485025  1
  Al0+  Al75  1  0.31796570  0.56832398  0.34827574  1
  Al0+  Al76  1  0.92922343  0.82152639  0.98522087  1
  Al0+  Al77  1  0.32167475  0.57281094  0.01643602  1
  Al0+  Al78  1  0.07406752  0.17697137  0.65099582  1
  Al0+  Al79  1  0.18051855  0.93153000  0.34670380  1
  Al0+  Al80  1  0.57037349  0.67678624  0.31872341  1
  Al0+  Al81  1  0.82292047  0.57304247  0.68139709  1
  Al0+  Al82  1  0.32358295  0.07075102  0.01381246  1
  Al0+  Al83  1  0.92895581  0.32127198  0.31597464  1
  Al0+  Al84  1  0.81825263  0.06870009  0.34682503  1
  Al0+  Al85  1  0.32041110  0.57192609  0.68086159  1
  Al0+  Al86  1  0.67999969  0.42719644  0.68394696  1
  Al0+  Al87  1  0.07186528  0.17718018  0.31662202  1
  Al0+  Al88  1  0.43070277  0.31954470  0.98736130  1
  Al0+  Al89  1  0.68170800  0.42863650  0.01673289  1
  Al0+  Al90  1  0.68061137  0.43007784  0.34799873  1
  Al0+  Al91  1  0.57076264  0.18015603  0.31895501  1
  Al0+  Al92  1  0.42811665  0.81926881  0.65351516  1
  Al0+  Al93  1  0.82142596  0.07040106  0.68155165  1
  Al0+  Al94  1  0.32141847  0.07072729  0.67708230  1
  Al0+  Al95  1  0.92906126  0.32170029  0.65262223  1
  Si0+  Si96  1  0.92673935  0.82124110  0.65013419  1
  Si0+  Si97  1  0.67994832  0.92634258  0.01578652  1
  Si0+  Si98  1  0.07131519  0.17988727  0.98475865  1
  Si0+  Si99  1  0.17728536  0.92727370  0.68616824  1
  Si0+  Si100  1  0.57222083  0.67669618  0.65095875  1
  Si0+  Si101  1  0.32521618  0.07337524  0.34905103  1
  Si0+  Si102  1  0.92920504  0.82131308  0.32123974  1
  Si0+  Si103  1  0.82087329  0.57450984  0.01654629  1
  Si0+  Si104  1  0.17422162  0.42614605  0.35136659  1
  Si0+  Si105  1  0.17881131  0.42875232  0.67958156  1
  Si0+  Si106  1  0.42741311  0.32345779  0.31875738  1
  Si0+  Si107  1  0.57398282  0.17596590  0.98300192  1
  Si0+  Si108  1  0.67767598  0.92833591  0.68205670  1
  Si0+  Si109  1  0.57021097  0.67867375  0.98318846  1
  Si0+  Si110  1  0.07218959  0.67737353  0.98234958  1
  Si0+  Si111  1  0.82394967  0.57499920  0.34659510  1
  Si0+  Si112  1  0.06997121  0.68085123  0.65127984  1
  Si0+  Si113  1  0.67584723  0.92520657  0.34935422  1
  Si0+  Si114  1  0.17738396  0.93046694  0.01496593  1
  Si0+  Si115  1  0.82189444  0.06873630  0.01507205  1
  Si0+  Si116  1  0.42720727  0.32546089  0.65120839  1
  Si0+  Si117  1  0.07111815  0.67914728  0.31820914  1
  Si0+  Si118  1  0.92783667  0.32079608  0.98500935  1
  Si0+  Si119  1  0.42848185  0.82197837  0.98422047  1
  O2-  O120  1  0.24884230  -0.00467799  0.05944999  1
  O2-  O121  1  0.25568523  0.00556374  0.39300317  1
  O2-  O122  1  0.24365400  -0.00019593  0.72700850  1
  O2-  O123  1  0.24903955  0.50021820  0.06440750  1
  O2-  O124  1  0.24456662  0.49266185  0.39623512  1
  O2-  O125  1  0.25107827  0.49216495  0.72639814  1
  O2-  O126  1  0.75034205  -0.00175100  0.05721137  1
  O2-  O127  1  0.74125462  -0.00387133  0.39414689  1
  O2-  O128  1  0.74729284  -0.00507615  0.72899938  1
  O2-  O129  1  0.75678270  0.50372863  0.06303472  1
  O2-  O130  1  0.75667685  0.50573431  0.39060227  1
  O2-  O131  1  0.75373506  0.49938220  0.73223399  1
  O2-  O132  1  0.00455075  0.25291143  0.26516180  1
  O2-  O133  1  -0.00109034  0.24691801  0.60339299  1
  O2-  O134  1  0.00349858  0.25457458  0.94338775  1
  O2-  O135  1  -0.00446965  0.74658722  0.27759424  1
  O2-  O136  1  -0.00329213  0.74951233  0.60798357  1
  O2-  O137  1  0.00153550  0.74462934  0.93803276  1
  O2-  O138  1  0.49171940  0.25061929  0.27379409  1
  O2-  O139  1  0.49517979  0.25633010  0.60706418  1
  O2-  O140  1  0.50306837  0.24240014  0.93989686  1
  O2-  O141  1  0.49856156  0.74793377  0.26606510  1
  O2-  O142  1  0.49972216  0.74150680  0.60758713  1
  O2-  O143  1  0.49611478  0.74763191  0.94172924  1
  O2-  O144  1  0.06749929  0.17507375  0.08940965  1
  O2-  O145  1  0.06830449  0.17566831  0.42962317  1
  O2-  O146  1  0.07474071  0.18044581  0.76564839  1
  O2-  O147  1  0.07150249  0.67958036  0.08807890  1
  O2-  O148  1  0.07148395  0.68027192  0.42354627  1
  O2-  O149  1  0.07114865  0.68345840  0.75632852  1
  O2-  O150  1  0.57523992  0.17598151  0.08857701  1
  O2-  O151  1  0.57184795  0.18121257  0.43205170  1
  O2-  O152  1  0.56664401  0.17974576  0.76828808  1
  O2-  O153  1  0.57285419  0.68137105  0.08799256  1
  O2-  O154  1  0.57039229  0.67872316  0.43220252  1
  O2-  O155  1  0.57310936  0.67990125  0.75707938  1
  O2-  O156  1  0.17402009  0.42962873  0.24583234  1
  O2-  O157  1  0.17867503  0.43337919  0.57422000  1
  O2-  O158  1  0.17678121  0.42878643  0.90109509  1
  O2-  O159  1  0.17920506  0.93166447  0.23316086  1
  O2-  O160  1  0.17744274  0.92332324  0.58074970  1
  O2-  O161  1  0.17591389  0.93129508  0.90956667  1
  O2-  O162  1  0.68069830  0.43053878  0.23456319  1
  O2-  O163  1  0.67966956  0.42805590  0.57058939  1
  O2-  O164  1  0.68295833  0.42755806  0.90409220  1
  O2-  O165  1  0.68079236  0.92372314  0.24328461  1
  O2-  O166  1  0.68053401  0.92709447  0.57682487  1
  O2-  O167  1  0.67867285  0.92512504  0.91072945  1
  O2-  O168  1  0.43347182  0.31864011  0.10052840  1
  O2-  O169  1  0.42860326  0.32401476  0.42443389  1
  O2-  O170  1  0.42622404  0.32412431  0.75704063  1
  O2-  O171  1  0.43002371  0.82333303  0.08880772  1
  O2-  O172  1  0.42594765  0.81821430  0.42939057  1
  O2-  O173  1  0.43079807  0.81957443  0.76745408  1
  O2-  O174  1  0.92540403  0.31701036  0.08974005  1
  O2-  O175  1  0.92829749  0.32043021  0.42921021  1
  O2-  O176  1  0.93218550  0.32009454  0.76721540  1
  O2-  O177  1  0.93091665  0.82207181  0.09882344  1
  O2-  O178  1  0.93029694  0.82013889  0.42632306  1
  O2-  O179  1  0.92850271  0.82138760  0.75542415  1
  O2-  O180  1  0.32422605  0.07133582  0.24307095  1
  O2-  O181  1  0.32353135  0.06639868  0.56458202  1
  O2-  O182  1  0.32348817  0.07034680  0.90036789  1
  O2-  O183  1  0.31631667  0.56788642  0.23541383  1
  O2-  O184  1  0.31803956  0.57395170  0.56777183  1
  O2-  O185  1  0.31901687  0.57337322  0.90262997  1
  O2-  O186  1  0.81902209  0.06475843  0.23294009  1
  O2-  O187  1  0.82060306  0.06944808  0.56871410  1
  O2-  O188  1  0.82140065  0.06829078  0.91006179  1
  O2-  O189  1  0.82414537  0.57785788  0.24097157  1
  O2-  O190  1  0.82009555  0.57659429  0.56785464  1
  O2-  O191  1  0.81836334  0.57582138  0.91128008  1
  O2-  O192  1  0.03773391  0.07962251  0.26384294  1
  O2-  O193  1  0.04847168  0.07546784  0.60387853  1
  O2-  O194  1  0.04069573  0.09022549  0.93434434  1
  O2-  O195  1  0.04787481  0.58736784  0.26870919  1
  O2-  O196  1  0.04611378  0.58932595  0.60184945  1
  O2-  O197  1  0.04816154  0.58334011  0.93630208  1
  O2-  O198  1  0.54698713  0.08239722  0.26291507  1
  O2-  O199  1  0.53907731  0.08478987  0.59903179  1
  O2-  O200  1  0.55278846  0.07994207  0.93950771  1
  O2-  O201  1  0.54006001  0.57841697  0.26709775  1
  O2-  O202  1  0.55003905  0.58108334  0.60891062  1
  O2-  O203  1  0.54540387  0.58591936  0.93727710  1
  O2-  O204  1  0.17249281  0.20068256  0.26495767  1
  O2-  O205  1  0.17135924  0.20452303  0.59539416  1
  O2-  O206  1  0.16484675  0.20560599  0.94044627  1
  O2-  O207  1  0.15942127  0.71322827  0.26901545  1
  O2-  O208  1  0.15982440  0.71322296  0.60252701  1
  O2-  O209  1  0.16478288  0.70639684  0.93525682  1
  O2-  O210  1  0.66547552  0.21321910  0.26313184  1
  O2-  O211  1  0.66603127  0.21060466  0.60300337  1
  O2-  O212  1  0.66787197  0.20447347  0.93827432  1
  O2-  O213  1  0.66841040  0.70558953  0.26252823  1
  O2-  O214  1  0.66440359  0.70571144  0.60391228  1
  O2-  O215  1  0.66009460  0.71062264  0.93390553  1
  O2-  O216  1  0.07808048  0.45621572  0.06880982  1
  O2-  O217  1  0.08060823  0.45492444  0.39558622  1
  O2-  O218  1  0.08710199  0.45908198  0.72701578  1
  O2-  O219  1  0.08422254  0.95941082  0.06105738  1
  O2-  O220  1  0.08488455  0.96045191  0.40382985  1
  O2-  O221  1  0.08252638  0.94783749  0.73201907  1
  O2-  O222  1  0.58587975  0.46080955  0.07001915  1
  O2-  O223  1  0.58538550  0.45949514  0.40466698  1
  O2-  O224  1  0.58324609  0.45753235  0.74027730  1
  O2-  O225  1  0.58894215  0.95189764  0.06554232  1
  O2-  O226  1  0.57983406  0.94760990  0.39050302  1
  O2-  O227  1  0.58483812  0.95592777  0.72838974  1
  O2-  O228  1  0.20495908  0.33053624  0.06998853  1
  O2-  O229  1  0.19659863  0.33073960  0.39467246  1
  O2-  O230  1  0.19868495  0.33316903  0.72349614  1
  O2-  O231  1  0.19807267  0.83519521  0.05977047  1
  O2-  O232  1  0.20837606  0.83491931  0.40252542  1
  O2-  O233  1  0.20610869  0.83592719  0.73533291  1
  O2-  O234  1  0.71303669  0.33140735  0.06999855  1
  O2-  O235  1  0.71345661  0.33393237  0.40037910  1
  O2-  O236  1  0.70854556  0.33042968  0.74022564  1
  O2-  O237  1  0.71013789  0.83526657  0.06347312  1
  O2-  O238  1  0.70319066  0.83218588  0.39585500  1
  O2-  O239  1  0.70204743  0.83479195  0.72971568  1
  O2-  O240  1  0.45850731  0.41511793  0.27275614  1
  O2-  O241  1  0.45446211  0.42010704  0.60808634  1
  O2-  O242  1  0.46275713  0.41649194  0.93388416  1
  O2-  O243  1  0.45438408  0.91727620  0.26059184  1
  O2-  O244  1  0.46115244  0.91331086  0.59723262  1
  O2-  O245  1  0.46197322  0.91269114  0.93699812  1
  O2-  O246  1  0.95223885  0.42128316  0.26205013  1
  O2-  O247  1  0.95598037  0.42081026  0.60012215  1
  O2-  O248  1  0.94875477  0.41582637  0.94111749  1
  O2-  O249  1  0.96210894  0.91080804  0.27310625  1
  O2-  O250  1  0.95617100  0.91240131  0.60310728  1
  O2-  O251  1  0.96269096  0.91635775  0.92815939  1
  O2-  O252  1  0.33195107  0.30435429  0.27342473  1
  O2-  O253  1  0.33374618  0.30321107  0.60396671  1
  O2-  O254  1  0.33245404  0.29149066  0.93440846  1
  O2-  O255  1  0.32725363  0.79074020  0.26370214  1
  O2-  O256  1  0.32972908  0.79124995  0.60207115  1
  O2-  O257  1  0.33453773  0.79893821  0.93838179  1
  O2-  O258  1  0.83343293  0.28570532  0.26183122  1
  O2-  O259  1  0.83015021  0.29237750  0.60297698  1
  O2-  O260  1  0.83802913  0.28664979  0.93712300  1
  O2-  O261  1  0.83651566  0.79893511  0.27220222  1
  O2-  O262  1  0.83416343  0.79552338  0.60345289  1
  O2-  O263  1  0.83239298  0.79391183  0.92933306  1
  O2-  O264  1  0.42042591  0.04016278  0.06763189  1
  O2-  O265  1  0.41975347  0.04584031  0.39194551  1
  O2-  O266  1  0.41621545  0.03568276  0.73309831  1
  O2-  O267  1  0.42000024  0.54401392  0.06790521  1
  O2-  O268  1  0.41415438  0.53957226  0.40372067  1
  O2-  O269  1  0.41778166  0.54847429  0.73581703  1
  O2-  O270  1  0.91375407  0.03836102  0.06081805  1
  O2-  O271  1  0.91274435  0.03479553  0.40190796  1
  O2-  O272  1  0.91740796  0.03755800  0.73662134  1
  O2-  O273  1  0.91703675  0.55522728  0.05964668  1
  O2-  O274  1  0.91909188  0.55226354  0.39127262  1
  O2-  O275  1  0.92369421  0.55113982  0.73309427  1
  O2-  O276  1  0.29305655  0.16572145  0.06938364  1
  O2-  O277  1  0.30314224  0.16846237  0.39324016  1
  O2-  O278  1  0.29330254  0.16911725  0.73081175  1
  O2-  O279  1  0.29231489  0.67189864  0.06836595  1
  O2-  O280  1  0.28331441  0.66455138  0.40060698  1
  O2-  O281  1  0.28335598  0.66641178  0.73552239  1
  O2-  O282  1  0.79459945  0.15970675  0.06378126  1
  O2-  O283  1  0.78726199  0.16523307  0.39897821  1
  O2-  O284  1  0.78979397  0.16482042  0.73815160  1
  O2-  O285  1  0.79345712  0.66887231  0.06100800  1
  O2-  O286  1  0.79899952  0.66914387  0.39279384  1
  O2-  O287  1  0.79321320  0.67156371  0.73557334  1
