# generated using pymatgen
data_Ca2Al2SiO7
_symmetry_space_group_name_H-M   'P 1'
_cell_length_a   15.45812709
_cell_length_b   15.45820667
_cell_length_c   15.28415108
_cell_angle_alpha   90.00070576
_cell_angle_beta   89.99656207
_cell_angle_gamma   90.00616117
_symmetry_Int_Tables_number   1
_chemical_formula_structural   Ca2Al2SiO7
_chemical_formula_sum   'Ca48 Al48 Si24 O168'
_cell_volume   3652.22312204
_cell_formula_units_Z   24
loop_
 _symmetry_equiv_pos_site_id
 _symmetry_equiv_pos_as_xyz
  1  'x, y, z'
loop_
 _atom_type_symbol
 _atom_type_oxidation_number
  Ca2+  2.0
  Al0+  0.0
  Si0+  0.0
  O2-  -2.0
loop_
 _atom_site_type_symbol
 _atom_site_label
 _atom_site_symmetry_multiplicity
 _atom_site_fract_x
 _atom_site_fract_y
 _atom_site_fract_z
 _atom_site_occupancy
  Ca2+  Ca0  1  0.17049614  0.07126976  0.16999610  1
  Ca2+  Ca1  1  0.17771269  0.07165571  0.50863578  1
  Ca2+  Ca2  1  0.17520402  0.07403698  0.84184813  1
  Ca2+  Ca3  1  0.15899591  0.57765458  0.16966037  1
  Ca2+  Ca4  1  0.15946476  0.58243338  0.50739838  1
  Ca2+  Ca5  1  0.15176284  0.57255766  0.83179232  1
  Ca2+  Ca6  1  0.67701003  0.08453596  0.17171080  1
  Ca2+  Ca7  1  0.66769518  0.08987662  0.50212717  1
  Ca2+  Ca8  1  0.67386483  0.08527419  0.83560073  1
  Ca2+  Ca9  1  0.68137474  0.58759821  0.17099999  1
  Ca2+  Ca10  1  0.67152726  0.58094961  0.51016681  1
  Ca2+  Ca11  1  0.66794363  0.58167766  0.83660146  1
  Ca2+  Ca12  1  0.08426129  0.32372329  0.15724738  1
  Ca2+  Ca13  1  0.07839261  0.33696053  0.50077545  1
  Ca2+  Ca14  1  0.08280207  0.33039860  0.82866979  1
  Ca2+  Ca15  1  0.08493375  0.83214411  0.16039889  1
  Ca2+  Ca16  1  0.08998485  0.82767319  0.49832091  1
  Ca2+  Ca17  1  0.07638493  0.83666814  0.82597941  1
  Ca2+  Ca18  1  0.58112823  0.32650327  0.16609110  1
  Ca2+  Ca19  1  0.58719942  0.32387270  0.49837894  1
  Ca2+  Ca20  1  0.58306473  0.32818072  0.82310463  1
  Ca2+  Ca21  1  0.57468806  0.83771580  0.15950545  1
  Ca2+  Ca22  1  0.57694506  0.83313659  0.50331898  1
  Ca2+  Ca23  1  0.57066239  0.83194681  0.82525185  1
  Ca2+  Ca24  1  0.32548520  0.41523528  0.16578294  1
  Ca2+  Ca25  1  0.32586244  0.42008947  0.50925384  1
  Ca2+  Ca26  1  0.32053480  0.41731791  0.83625104  1
  Ca2+  Ca27  1  0.32565435  0.92101611  0.16998149  1
  Ca2+  Ca28  1  0.32690783  0.92048326  0.50746484  1
  Ca2+  Ca29  1  0.32827097  0.91839859  0.83719874  1
  Ca2+  Ca30  1  0.83780824  0.43116174  0.17044711  1
  Ca2+  Ca31  1  0.83114586  0.42186792  0.50827944  1
  Ca2+  Ca32  1  0.83194339  0.42107874  0.83399871  1
  Ca2+  Ca33  1  0.84277655  0.92784407  0.16637127  1
  Ca2+  Ca34  1  0.83705938  0.92313680  0.50375304  1
  Ca2+  Ca35  1  0.83530065  0.91488542  0.84095749  1
  Ca2+  Ca36  1  0.41842159  0.15465320  0.16453372  1
  Ca2+  Ca37  1  0.42405578  0.15607263  0.49770203  1
  Ca2+  Ca38  1  0.42012697  0.15939208  0.82591208  1
  Ca2+  Ca39  1  0.41905520  0.67558155  0.15848430  1
  Ca2+  Ca40  1  0.41711733  0.67138663  0.50120177  1
  Ca2+  Ca41  1  0.41858232  0.67888402  0.82533071  1
  Ca2+  Ca42  1  0.92211963  0.16104475  0.15787005  1
  Ca2+  Ca43  1  0.91193857  0.17504990  0.49628077  1
  Ca2+  Ca44  1  0.92623736  0.16640830  0.82965625  1
  Ca2+  Ca45  1  0.91771707  0.67063259  0.16145876  1
  Ca2+  Ca46  1  0.92669562  0.67090136  0.49698053  1
  Ca2+  Ca47  1  0.91785170  0.67768508  0.82696360  1
  Al0+  Al48  1  0.00149559  -0.00020797  -0.00187908  1
  Al0+  Al49  1  -0.00105275  0.00068111  0.34352682  1
  Al0+  Al50  1  0.00178270  0.00244657  0.66489561  1
  Al0+  Al51  1  -0.00205076  0.49862332  0.00854581  1
  Al0+  Al52  1  -0.00151274  0.50202503  0.33325709  1
  Al0+  Al53  1  -0.00215986  0.50028586  0.66418730  1
  Al0+  Al54  1  0.50097645  -0.00067949  -0.00291864  1
  Al0+  Al55  1  0.50141547  0.00026211  0.32982153  1
  Al0+  Al56  1  0.50323930  -0.00020645  0.66152771  1
  Al0+  Al57  1  0.49938593  0.49685380  0.00130622  1
  Al0+  Al58  1  0.49875362  0.49879763  0.32997068  1
  Al0+  Al59  1  0.50022534  0.49850236  0.66838397  1
  Al0+  Al60  1  0.25126525  0.24983420  0.00365720  1
  Al0+  Al61  1  0.24946887  0.25050772  0.33745181  1
  Al0+  Al62  1  0.25109714  0.25057529  0.67340200  1
  Al0+  Al63  1  0.25042549  0.74720282  -0.00314167  1
  Al0+  Al64  1  0.24938696  0.74702740  0.32986182  1
  Al0+  Al65  1  0.24954413  0.75046267  0.66343459  1
  Al0+  Al66  1  0.74930580  0.25110778  0.00407006  1
  Al0+  Al67  1  0.74808721  0.25144208  0.32921340  1
  Al0+  Al68  1  0.75016963  0.25263832  0.66411733  1
  Al0+  Al69  1  0.75010775  0.74868716  0.00141067  1
  Al0+  Al70  1  0.75117756  0.75074783  0.33813601  1
  Al0+  Al71  1  0.75114771  0.75258614  0.65955548  1
  Al0+  Al72  1  0.06893656  0.67964935  0.65311322  1
  Al0+  Al73  1  0.17868143  0.42958764  0.01480822  1
  Al0+  Al74  1  0.32427112  0.06924914  0.68259820  1
  Al0+  Al75  1  0.81861864  0.57103331  0.01285187  1
  Al0+  Al76  1  0.42857539  0.82126195  0.64975719  1
  Al0+  Al77  1  0.42866516  0.82079747  0.98590866  1
  Al0+  Al78  1  0.57091192  0.18058553  0.65366126  1
  Al0+  Al79  1  0.56967144  0.17943474  0.31625076  1
  Al0+  Al80  1  0.82145219  0.07101685  0.01054811  1
  Al0+  Al81  1  0.07199777  0.17896812  0.98743818  1
  Al0+  Al82  1  0.67884622  0.42905504  0.67980454  1
  Al0+  Al83  1  0.81998552  0.07262205  0.34791626  1
  Al0+  Al84  1  0.17914110  0.92613906  0.34956678  1
  Al0+  Al85  1  0.82133494  0.57218873  0.35079424  1
  Al0+  Al86  1  0.17692941  0.43051183  0.67978195  1
  Al0+  Al87  1  0.92843993  0.82605136  0.64953622  1
  Al0+  Al88  1  0.17827922  0.92719937  0.68387123  1
  Al0+  Al89  1  0.32210741  0.07110536  0.34941410  1
  Al0+  Al90  1  0.57135899  0.67656108  0.65250353  1
  Al0+  Al91  1  0.17842454  0.92613573  0.01439036  1
  Al0+  Al92  1  0.93021130  0.31948954  0.65442580  1
  Al0+  Al93  1  0.93030911  0.82045911  0.98834209  1
  Al0+  Al94  1  0.07010314  0.67983654  0.31635732  1
  Al0+  Al95  1  0.32349165  0.07004526  0.01557894  1
  Si0+  Si96  1  0.07040980  0.17960101  0.32076891  1
  Si0+  Si97  1  0.92752663  0.32308871  0.98495162  1
  Si0+  Si98  1  0.07496289  0.17945302  0.64912972  1
  Si0+  Si99  1  0.57254434  0.67693216  0.31808987  1
  Si0+  Si100  1  0.17860088  0.42947618  0.34873962  1
  Si0+  Si101  1  0.32291923  0.57235413  0.68315428  1
  Si0+  Si102  1  0.42893305  0.32187155  0.98369616  1
  Si0+  Si103  1  0.67535767  0.42675735  0.01934869  1
  Si0+  Si104  1  0.07104751  0.67450296  0.98407555  1
  Si0+  Si105  1  0.68140158  0.92870011  0.68114441  1
  Si0+  Si106  1  0.42510980  0.32322193  0.31527910  1
  Si0+  Si107  1  0.67863752  0.92828541  0.01450022  1
  Si0+  Si108  1  0.43035477  0.81887864  0.31705138  1
  Si0+  Si109  1  0.57191906  0.18033705  0.98425528  1
  Si0+  Si110  1  0.57223475  0.67621473  0.98554974  1
  Si0+  Si111  1  0.67722778  0.43022480  0.34949098  1
  Si0+  Si112  1  0.42588595  0.32191946  0.65128503  1
  Si0+  Si113  1  0.82061161  0.07358765  0.68052676  1
  Si0+  Si114  1  0.92730275  0.82395270  0.31617359  1
  Si0+  Si115  1  0.67677952  0.92848272  0.35040609  1
  Si0+  Si116  1  0.92882461  0.32136602  0.31672499  1
  Si0+  Si117  1  0.82032885  0.57342217  0.68311388  1
  Si0+  Si118  1  0.32394972  0.57055105  0.01660026  1
  Si0+  Si119  1  0.32222915  0.56988557  0.34684245  1
  O2-  O120  1  0.25133854  -0.00232493  0.06430535  1
  O2-  O121  1  0.25121910  -0.00150652  0.39868559  1
  O2-  O122  1  0.25155360  -0.00139540  0.73265648  1
  O2-  O123  1  0.25191560  0.50579530  0.06212718  1
  O2-  O124  1  0.25099679  0.49950876  0.38940331  1
  O2-  O125  1  0.25098906  0.50619498  0.72648010  1
  O2-  O126  1  0.74876288  -0.00494432  0.05913696  1
  O2-  O127  1  0.74594073  -0.00278947  0.39406488  1
  O2-  O128  1  0.75541065  -0.00287746  0.72283356  1
  O2-  O129  1  0.74343423  0.49685062  0.06163114  1
  O2-  O130  1  0.74339436  0.49989992  0.39513146  1
  O2-  O131  1  0.74806037  0.50816796  0.72726244  1
  O2-  O132  1  -0.00198747  0.24842311  0.27527851  1
  O2-  O133  1  0.00531792  0.24717739  0.60417349  1
  O2-  O134  1  -0.00469447  0.25341495  0.94179092  1
  O2-  O135  1  -0.00273008  0.75696859  0.27101838  1
  O2-  O136  1  0.00227046  0.75535893  0.60078662  1
  O2-  O137  1  0.00656668  0.74742091  0.94147619  1
  O2-  O138  1  0.49100791  0.25143612  0.27091122  1
  O2-  O139  1  0.49313667  0.25229337  0.60671644  1
  O2-  O140  1  0.49931613  0.24971855  0.94245547  1
  O2-  O141  1  0.50334793  0.74894484  0.27478716  1
  O2-  O142  1  0.49847626  0.74612452  0.60010356  1
  O2-  O143  1  0.50271788  0.74354242  0.94186038  1
  O2-  O144  1  0.06946028  0.18002372  0.10142773  1
  O2-  O145  1  0.06953662  0.18492039  0.42561189  1
  O2-  O146  1  0.07293162  0.18053121  0.75483647  1
  O2-  O147  1  0.06833334  0.67302672  0.08993530  1
  O2-  O148  1  0.06951933  0.67622312  0.42874565  1
  O2-  O149  1  0.06277593  0.67488218  0.76652397  1
  O2-  O150  1  0.57293630  0.18189066  0.08936267  1
  O2-  O151  1  0.57180758  0.18321299  0.42898418  1
  O2-  O152  1  0.57370981  0.18259181  0.76707833  1
  O2-  O153  1  0.57155253  0.67760518  0.09179842  1
  O2-  O154  1  0.56945157  0.67432252  0.42259497  1
  O2-  O155  1  0.57043540  0.67925069  0.76651492  1
  O2-  O156  1  0.17914518  0.42863901  0.24359485  1
  O2-  O157  1  0.17900515  0.43159796  0.56611601  1
  O2-  O158  1  0.17809498  0.43114329  0.90193975  1
  O2-  O159  1  0.17983949  0.92627505  0.23576783  1
  O2-  O160  1  0.18021475  0.92852615  0.57019788  1
  O2-  O161  1  0.17801723  0.92778606  0.90152062  1
  O2-  O162  1  0.67799859  0.43195338  0.24355342  1
  O2-  O163  1  0.68289157  0.42757023  0.56665836  1
  O2-  O164  1  0.67421891  0.42501099  0.91399767  1
  O2-  O165  1  0.67524369  0.92831326  0.24453352  1
  O2-  O166  1  0.67993323  0.93007189  0.57596629  1
  O2-  O167  1  0.67822941  0.92955783  0.90888121  1
  O2-  O168  1  0.43132073  0.32578709  0.08887366  1
  O2-  O169  1  0.42613540  0.32948388  0.42026202  1
  O2-  O170  1  0.42732178  0.32263052  0.75703472  1
  O2-  O171  1  0.43183346  0.81947476  0.09985048  1
  O2-  O172  1  0.43112087  0.81722031  0.42172334  1
  O2-  O173  1  0.43188876  0.82126392  0.76338853  1
  O2-  O174  1  0.92890074  0.32349128  0.09106984  1
  O2-  O175  1  0.92940670  0.32190517  0.42191165  1
  O2-  O176  1  0.92990777  0.31764816  0.76759320  1
  O2-  O177  1  0.92879775  0.81939660  0.10151777  1
  O2-  O178  1  0.92618536  0.82190679  0.42135829  1
  O2-  O179  1  0.92514369  0.82302200  0.76343302  1
  O2-  O180  1  0.32048734  0.06883304  0.23589556  1
  O2-  O181  1  0.32348817  0.06849792  0.56897764  1
  O2-  O182  1  0.32548550  0.06935344  0.90259481  1
  O2-  O183  1  0.32384473  0.56830697  0.24176180  1
  O2-  O184  1  0.32517298  0.56841052  0.57694267  1
  O2-  O185  1  0.32937699  0.56656283  0.91174838  1
  O2-  O186  1  0.82066274  0.07180561  0.23453687  1
  O2-  O187  1  0.81628111  0.07539879  0.57527324  1
  O2-  O188  1  0.81814111  0.07332441  0.89753518  1
  O2-  O189  1  0.82029411  0.57088108  0.23723159  1
  O2-  O190  1  0.82040337  0.56980932  0.57744477  1
  O2-  O191  1  0.81669081  0.57004838  0.90007923  1
  O2-  O192  1  0.04260422  0.08627758  0.27668686  1
  O2-  O193  1  0.05013580  0.08651571  0.60264866  1
  O2-  O194  1  0.04003014  0.08461255  0.93106957  1
  O2-  O195  1  0.03596597  0.58301804  0.26286953  1
  O2-  O196  1  0.03679133  0.58293980  0.59745122  1
  O2-  O197  1  0.03868906  0.58170081  0.94008916  1
  O2-  O198  1  0.54400748  0.08148691  0.26141373  1
  O2-  O199  1  0.54587829  0.08404988  0.59730059  1
  O2-  O200  1  0.54769340  0.08764625  0.93736881  1
  O2-  O201  1  0.54382596  0.58599539  0.26854739  1
  O2-  O202  1  0.54521911  0.57689711  0.60015200  1
  O2-  O203  1  0.54832150  0.58095205  0.94209622  1
  O2-  O204  1  0.16188281  0.20972515  0.27358481  1
  O2-  O205  1  0.16831491  0.20793345  0.60461737  1
  O2-  O206  1  0.16832307  0.21231522  0.93506025  1
  O2-  O207  1  0.16878836  0.70375127  0.26172172  1
  O2-  O208  1  0.16967926  0.69937802  0.60100598  1
  O2-  O209  1  0.16735448  0.68996893  0.94067926  1
  O2-  O210  1  0.66477413  0.21495619  0.26017016  1
  O2-  O211  1  0.66491880  0.21640981  0.59765896  1
  O2-  O212  1  0.66357300  0.21084573  0.93741808  1
  O2-  O213  1  0.66568438  0.70479390  0.27289743  1
  O2-  O214  1  0.66814187  0.70669400  0.59788548  1
  O2-  O215  1  0.66535699  0.70117051  0.93949285  1
  O2-  O216  1  0.08284294  0.45731694  0.07214316  1
  O2-  O217  1  0.08698422  0.45923451  0.39458998  1
  O2-  O218  1  0.07997876  0.46094231  0.73375988  1
  O2-  O219  1  0.08101339  0.95711946  0.06790411  1
  O2-  O220  1  0.08113291  0.95297202  0.40293757  1
  O2-  O221  1  0.07880992  0.95813517  0.73400538  1
  O2-  O222  1  0.58160946  0.45059722  0.06647601  1
  O2-  O223  1  0.58167517  0.45242555  0.39303173  1
  O2-  O224  1  0.58087840  0.45333674  0.73488796  1
  O2-  O225  1  0.58706319  0.95764177  0.06246510  1
  O2-  O226  1  0.58412650  0.95560528  0.39676702  1
  O2-  O227  1  0.59103751  0.95973786  0.72899842  1
  O2-  O228  1  0.21339465  0.33527536  0.07102754  1
  O2-  O229  1  0.20448245  0.33836837  0.39793714  1
  O2-  O230  1  0.20822406  0.33547367  0.73604537  1
  O2-  O231  1  0.20488523  0.82541721  0.06462212  1
  O2-  O232  1  0.20962260  0.82643022  0.39867751  1
  O2-  O233  1  0.20330871  0.82669552  0.73359398  1
  O2-  O234  1  0.70221112  0.33445334  0.06759862  1
  O2-  O235  1  0.70511525  0.33676769  0.39345308  1
  O2-  O236  1  0.71520410  0.33489608  0.73568481  1
  O2-  O237  1  0.69944418  0.83378790  0.06077575  1
  O2-  O238  1  0.70029060  0.83479835  0.39700518  1
  O2-  O239  1  0.70635329  0.83605055  0.72850371  1
  O2-  O240  1  0.45417269  0.41493197  0.26478832  1
  O2-  O241  1  0.45172676  0.41510747  0.60457393  1
  O2-  O242  1  0.45789133  0.41287507  0.93467794  1
  O2-  O243  1  0.45911985  0.91018668  0.26924180  1
  O2-  O244  1  0.46459921  0.91611860  0.59474460  1
  O2-  O245  1  0.46403469  0.91519910  0.93083357  1
  O2-  O246  1  0.96008006  0.41229150  0.26957390  1
  O2-  O247  1  0.95918327  0.41534156  0.59812037  1
  O2-  O248  1  0.95487782  0.41636995  0.93968520  1
  O2-  O249  1  0.95126767  0.92021161  0.27442210  1
  O2-  O250  1  0.95251280  0.92628461  0.59810048  1
  O2-  O251  1  0.95664940  0.91709958  0.93316491  1
  O2-  O252  1  0.32983470  0.30034990  0.27062095  1
  O2-  O253  1  0.33146238  0.29930295  0.60540748  1
  O2-  O254  1  0.33625100  0.29676255  0.93803905  1
  O2-  O255  1  0.34032731  0.78721540  0.26868382  1
  O2-  O256  1  0.33103353  0.79335349  0.59592852  1
  O2-  O257  1  0.33308657  0.78911796  0.93104502  1
  O2-  O258  1  0.83619010  0.29767309  0.26933551  1
  O2-  O259  1  0.83579504  0.28717780  0.59692136  1
  O2-  O260  1  0.83192071  0.30032064  0.94175808  1
  O2-  O261  1  0.83281958  0.79737333  0.27134697  1
  O2-  O262  1  0.83082108  0.79865479  0.59463779  1
  O2-  O263  1  0.83257195  0.78905131  0.93521187  1
  O2-  O264  1  0.42288941  0.04047464  0.06719978  1
  O2-  O265  1  0.42267151  0.04331350  0.39746065  1
  O2-  O266  1  0.42478108  0.04148937  0.73189541  1
  O2-  O267  1  0.41587910  0.54135893  0.06626518  1
  O2-  O268  1  0.41391689  0.54166819  0.39478260  1
  O2-  O269  1  0.41466338  0.54394960  0.73139230  1
  O2-  O270  1  0.91711839  0.04046505  0.06574675  1
  O2-  O271  1  0.91509598  0.04589880  0.40596334  1
  O2-  O272  1  0.91543387  0.05332485  0.72425309  1
  O2-  O273  1  0.91245876  0.53850308  0.07154000  1
  O2-  O274  1  0.91645901  0.53631761  0.40360101  1
  O2-  O275  1  0.91125987  0.54160471  0.72969369  1
  O2-  O276  1  0.29883911  0.16962992  0.06766254  1
  O2-  O277  1  0.29630921  0.17105899  0.40097556  1
  O2-  O278  1  0.29923727  0.16921543  0.73408812  1
  O2-  O279  1  0.30180408  0.66512955  0.06151791  1
  O2-  O280  1  0.29535521  0.66134033  0.39396577  1
  O2-  O281  1  0.30098553  0.66712634  0.72650946  1
  O2-  O282  1  0.79032543  0.16694153  0.06687840  1
  O2-  O283  1  0.78700845  0.17040084  0.39883927  1
  O2-  O284  1  0.78670148  0.16254589  0.72891955  1
  O2-  O285  1  0.78750735  0.66635621  0.07073330  1
  O2-  O286  1  0.79315577  0.66925166  0.40397620  1
  O2-  O287  1  0.79724172  0.66905258  0.72563570  1
