# generated using pymatgen
data_Ca2Al2SiO7
_symmetry_space_group_name_H-M   'P 1'
_cell_length_a   15.45598298
_cell_length_b   15.45589879
_cell_length_c   15.28226885
_cell_angle_alpha   89.99103192
_cell_angle_beta   89.99956526
_cell_angle_gamma   90.01252308
_symmetry_Int_Tables_number   1
_chemical_formula_structural   Ca2Al2SiO7
_chemical_formula_sum   'Ca48 Al48 Si24 O168'
_cell_volume   3650.72160547
_cell_formula_units_Z   24
loop_
 _symmetry_equiv_pos_site_id
 _symmetry_equiv_pos_as_xyz
  1  'x, y, z'
loop_
 _atom_type_symbol
 _atom_type_oxidation_number
  Ca2+  2.0
  Al0+  0.0
  Si0+  0.0
  O2-  -2.0
loop_
 _atom_site_type_symbol
 _atom_site_label
 _atom_site_symmetry_multiplicity
 _atom_site_fract_x
 _atom_site_fract_y
 _atom_site_fract_z
 _atom_site_occupancy
  Ca2+  Ca0  1  0.17431017  0.08309286  0.16272030  1
  Ca2+  Ca1  1  0.17676778  0.09234185  0.50598804  1
  Ca2+  Ca2  1  0.17364134  0.08542898  0.84190452  1
  Ca2+  Ca3  1  0.17728573  0.58612047  0.16556220  1
  Ca2+  Ca4  1  0.17515077  0.57653918  0.50600971  1
  Ca2+  Ca5  1  0.16427192  0.57337909  0.84440036  1
  Ca2+  Ca6  1  0.67444177  0.08356659  0.17020910  1
  Ca2+  Ca7  1  0.67611086  0.07844039  0.50446615  1
  Ca2+  Ca8  1  0.68097236  0.09068759  0.84132094  1
  Ca2+  Ca9  1  0.65504037  0.57726823  0.16362501  1
  Ca2+  Ca10  1  0.66448978  0.57626403  0.50999464  1
  Ca2+  Ca11  1  0.65932166  0.57552315  0.83724434  1
  Ca2+  Ca12  1  0.08116472  0.32762103  0.15674536  1
  Ca2+  Ca13  1  0.08331622  0.33062916  0.50350844  1
  Ca2+  Ca14  1  0.08457765  0.32637631  0.82617240  1
  Ca2+  Ca15  1  0.08759578  0.83016079  0.15544369  1
  Ca2+  Ca16  1  0.07597555  0.83835941  0.50081983  1
  Ca2+  Ca17  1  0.08474581  0.83122690  0.83276405  1
  Ca2+  Ca18  1  0.57691955  0.32820338  0.15887599  1
  Ca2+  Ca19  1  0.57777013  0.33242258  0.49552283  1
  Ca2+  Ca20  1  0.58616245  0.33184453  0.83282949  1
  Ca2+  Ca21  1  0.57672944  0.83123077  0.15534384  1
  Ca2+  Ca22  1  0.58805776  0.82824923  0.49680600  1
  Ca2+  Ca23  1  0.57821857  0.82312923  0.83081965  1
  Ca2+  Ca24  1  0.33317580  0.42490318  0.16765836  1
  Ca2+  Ca25  1  0.33149022  0.41764571  0.50407312  1
  Ca2+  Ca26  1  0.31948323  0.42097774  0.84066414  1
  Ca2+  Ca27  1  0.33472396  0.92402350  0.16485804  1
  Ca2+  Ca28  1  0.33355069  0.93135085  0.50435550  1
  Ca2+  Ca29  1  0.33008716  0.92461851  0.84282285  1
  Ca2+  Ca30  1  0.82579717  0.41662311  0.16465595  1
  Ca2+  Ca31  1  0.82785136  0.41488832  0.51094835  1
  Ca2+  Ca32  1  0.82292819  0.40678173  0.83568398  1
  Ca2+  Ca33  1  0.82735015  0.92830897  0.17178859  1
  Ca2+  Ca34  1  0.83213472  0.92424978  0.50465217  1
  Ca2+  Ca35  1  0.84064378  0.92592335  0.83599660  1
  Ca2+  Ca36  1  0.41675476  0.16772728  0.15911281  1
  Ca2+  Ca37  1  0.41040668  0.17251833  0.49238711  1
  Ca2+  Ca38  1  0.42119460  0.15918285  0.83081967  1
  Ca2+  Ca39  1  0.41395608  0.67251771  0.15327978  1
  Ca2+  Ca40  1  0.42261547  0.66210085  0.49586769  1
  Ca2+  Ca41  1  0.41966868  0.66677119  0.83549271  1
  Ca2+  Ca42  1  0.91918970  0.16193017  0.15779903  1
  Ca2+  Ca43  1  0.91674242  0.16515976  0.50273273  1
  Ca2+  Ca44  1  0.92824546  0.16460171  0.82586795  1
  Ca2+  Ca45  1  0.92518736  0.67145621  0.15714705  1
  Ca2+  Ca46  1  0.91532463  0.67410559  0.49956296  1
  Ca2+  Ca47  1  0.92210240  0.67304694  0.82865200  1
  Al0+  Al48  1  0.00107535  0.00209401  0.00480684  1
  Al0+  Al49  1  -0.00067029  0.00013867  0.33508077  1
  Al0+  Al50  1  0.00194207  -0.00101591  0.65998493  1
  Al0+  Al51  1  -0.00344603  0.50039874  0.00021202  1
  Al0+  Al52  1  -0.00053259  0.49904413  0.33195139  1
  Al0+  Al53  1  -0.00027674  0.49984851  0.66503185  1
  Al0+  Al54  1  0.50159219  0.00072549  -0.00676309  1
  Al0+  Al55  1  0.50062994  -0.00186437  0.34154853  1
  Al0+  Al56  1  0.50159971  -0.00172769  0.66868697  1
  Al0+  Al57  1  0.49926656  0.49878606  0.00371653  1
  Al0+  Al58  1  0.49842243  0.49862803  0.33298844  1
  Al0+  Al59  1  0.50042692  0.49993517  0.66655727  1
  Al0+  Al60  1  0.24864344  0.25124338  0.00375029  1
  Al0+  Al61  1  0.24807788  0.25133418  0.32990890  1
  Al0+  Al62  1  0.25164912  0.25140243  0.67131493  1
  Al0+  Al63  1  0.24841590  0.75047735  -0.00455441  1
  Al0+  Al64  1  0.25134568  0.74845002  0.34051139  1
  Al0+  Al65  1  0.25257705  0.75203838  0.66308516  1
  Al0+  Al66  1  0.74790023  0.25146427  0.00725986  1
  Al0+  Al67  1  0.75058005  0.25052655  0.33655887  1
  Al0+  Al68  1  0.75029240  0.24893286  0.66978832  1
  Al0+  Al69  1  0.74999075  0.75007362  -0.00470544  1
  Al0+  Al70  1  0.75118797  0.74877414  0.33293348  1
  Al0+  Al71  1  0.74986089  0.74877696  0.65799992  1
  Al0+  Al72  1  0.82082339  0.07054472  0.01298587  1
  Al0+  Al73  1  0.82219678  0.07234962  0.35108905  1
  Al0+  Al74  1  0.57132212  0.17984962  0.98714344  1
  Al0+  Al75  1  0.82096549  0.06851959  0.68199903  1
  Al0+  Al76  1  0.07061103  0.18021140  0.98743338  1
  Al0+  Al77  1  0.67883049  0.92669620  0.34822631  1
  Al0+  Al78  1  0.42812780  0.32033471  0.31851544  1
  Al0+  Al79  1  0.67878983  0.43052933  0.01533578  1
  Al0+  Al80  1  0.07371324  0.17972740  0.65088204  1
  Al0+  Al81  1  0.57141559  0.67682234  0.98494417  1
  Al0+  Al82  1  0.31919885  0.07177852  0.34603248  1
  Al0+  Al83  1  0.56779854  0.67865454  0.65094681  1
  Al0+  Al84  1  0.93044248  0.82051234  0.65207009  1
  Al0+  Al85  1  0.32111176  0.57052959  0.34872169  1
  Al0+  Al86  1  0.32161289  0.07162805  0.68114750  1
  Al0+  Al87  1  0.17914537  0.92953859  0.01306303  1
  Al0+  Al88  1  0.42730342  0.82265917  0.98417299  1
  Al0+  Al89  1  0.67915121  0.42934823  0.68006439  1
  Al0+  Al90  1  0.32460125  0.07187222  0.01436838  1
  Al0+  Al91  1  0.92761516  0.32047027  0.65237986  1
  Al0+  Al92  1  0.07056906  0.67837533  0.98712942  1
  Al0+  Al93  1  0.17442713  0.42783388  0.01661219  1
  Al0+  Al94  1  0.17868206  0.43113594  0.67989623  1
  Al0+  Al95  1  0.31929992  0.57023854  0.01307862  1
  Si0+  Si96  1  0.92603544  0.32204488  0.98501620  1
  Si0+  Si97  1  0.07148158  0.67933597  0.31956004  1
  Si0+  Si98  1  0.67861333  0.92603591  0.01285082  1
  Si0+  Si99  1  0.92677720  0.32218508  0.31703239  1
  Si0+  Si100  1  0.17818650  0.92626177  0.35122011  1
  Si0+  Si101  1  0.42748375  0.32164253  0.98282591  1
  Si0+  Si102  1  0.82349572  0.56990102  0.34820165  1
  Si0+  Si103  1  0.43077254  0.31939909  0.65336809  1
  Si0+  Si104  1  0.82197260  0.57380517  0.68203757  1
  Si0+  Si105  1  0.67927792  0.43097789  0.34883529  1
  Si0+  Si106  1  0.42893480  0.82073685  0.32015428  1
  Si0+  Si107  1  0.17602917  0.42842757  0.35052333  1
  Si0+  Si108  1  0.92945837  0.82089294  0.31645406  1
  Si0+  Si109  1  0.32244428  0.57324193  0.68313978  1
  Si0+  Si110  1  0.42828342  0.82411096  0.64576287  1
  Si0+  Si111  1  0.17856255  0.92732050  0.68194603  1
  Si0+  Si112  1  0.06988870  0.17934911  0.31697990  1
  Si0+  Si113  1  0.57269512  0.17745962  0.65169198  1
  Si0+  Si114  1  0.57228329  0.17729626  0.31927111  1
  Si0+  Si115  1  0.57128439  0.67831636  0.31794435  1
  Si0+  Si116  1  0.07426014  0.67648060  0.64835423  1
  Si0+  Si117  1  0.82120702  0.57550297  0.01624498  1
  Si0+  Si118  1  0.67912562  0.92480287  0.68523242  1
  Si0+  Si119  1  0.92838121  0.82351107  0.98506632  1
  O2-  O120  1  0.25316667  -0.00107352  0.06402048  1
  O2-  O121  1  0.24431180  -0.00218384  0.39447142  1
  O2-  O122  1  0.24675084  -0.00373239  0.72508320  1
  O2-  O123  1  0.24692170  0.49982300  0.06584187  1
  O2-  O124  1  0.24649572  0.49549065  0.39457882  1
  O2-  O125  1  0.24738938  0.51162982  0.72573644  1
  O2-  O126  1  0.74547912  -0.00432765  0.05830294  1
  O2-  O127  1  0.74966733  -0.00039690  0.39897915  1
  O2-  O128  1  0.74676140  -0.00623784  0.72993993  1
  O2-  O129  1  0.75032851  0.50918193  0.06148140  1
  O2-  O130  1  0.75114878  0.50087938  0.39125278  1
  O2-  O131  1  0.75638373  0.50231319  0.72577057  1
  O2-  O132  1  -0.00483441  0.24814121  0.27639007  1
  O2-  O133  1  -0.00001271  0.25019904  0.59965885  1
  O2-  O134  1  -0.00186905  0.25738127  0.94150892  1
  O2-  O135  1  0.00326204  0.75235962  0.27530248  1
  O2-  O136  1  0.00573468  0.74560906  0.60392515  1
  O2-  O137  1  -0.00417813  0.75343530  0.94130327  1
  O2-  O138  1  0.50090010  0.24254864  0.27410616  1
  O2-  O139  1  0.49932601  0.24622959  0.60931062  1
  O2-  O140  1  0.49311791  0.25007065  0.93830835  1
  O2-  O141  1  0.50153535  0.75106063  0.27752683  1
  O2-  O142  1  0.49485504  0.75334405  0.60096376  1
  O2-  O143  1  0.49940507  0.74898679  0.93588891  1
  O2-  O144  1  0.06706345  0.17942262  0.10128755  1
  O2-  O145  1  0.07249146  0.18175932  0.42191708  1
  O2-  O146  1  0.07388593  0.18016878  0.76410465  1
  O2-  O147  1  0.06877676  0.68026558  0.10112512  1
  O2-  O148  1  0.06812196  0.67904894  0.42468478  1
  O2-  O149  1  0.07342399  0.67637878  0.75355146  1
  O2-  O150  1  0.57324109  0.18220653  0.10070322  1
  O2-  O151  1  0.57344473  0.18156970  0.42523254  1
  O2-  O152  1  0.57326080  0.17949522  0.75656527  1
  O2-  O153  1  0.57071556  0.67988511  0.09936911  1
  O2-  O154  1  0.57071254  0.67703226  0.42321460  1
  O2-  O155  1  0.56572108  0.67776916  0.76322956  1
  O2-  O156  1  0.17295315  0.43084957  0.24558172  1
  O2-  O157  1  0.18313518  0.43131897  0.56610301  1
  O2-  O158  1  0.17519626  0.42901914  0.90285981  1
  O2-  O159  1  0.17890553  0.92282744  0.24612034  1
  O2-  O160  1  0.18106869  0.92612534  0.57577304  1
  O2-  O161  1  0.17703630  0.93158781  0.89957194  1
  O2-  O162  1  0.67977397  0.43192892  0.24392548  1
  O2-  O163  1  0.67765246  0.43137651  0.56612454  1
  O2-  O164  1  0.68087511  0.42922288  0.90246415  1
  O2-  O165  1  0.68037970  0.92530685  0.23456517  1
  O2-  O166  1  0.67991889  0.92665806  0.57925268  1
  O2-  O167  1  0.68219518  0.92432574  0.90754295  1
  O2-  O168  1  0.43094512  0.32207039  0.08885502  1
  O2-  O169  1  0.43063585  0.32109275  0.43245042  1
  O2-  O170  1  0.43218081  0.32077054  0.75789670  1
  O2-  O171  1  0.42964672  0.82288544  0.09889878  1
  O2-  O172  1  0.42898426  0.81863427  0.42527208  1
  O2-  O173  1  0.42812801  0.82440447  0.75060814  1
  O2-  O174  1  0.92566173  0.32046340  0.09154861  1
  O2-  O175  1  0.92648554  0.32640189  0.42164715  1
  O2-  O176  1  0.92640190  0.31806036  0.76548502  1
  O2-  O177  1  0.92765616  0.82097994  0.09114049  1
  O2-  O178  1  0.92929207  0.81852517  0.42158265  1
  O2-  O179  1  0.93172137  0.81881512  0.76501463  1
  O2-  O180  1  0.31976043  0.07026982  0.23377491  1
  O2-  O181  1  0.32059447  0.07263185  0.56721942  1
  O2-  O182  1  0.32274373  0.07084949  0.90092260  1
  O2-  O183  1  0.31997069  0.57407422  0.23651378  1
  O2-  O184  1  0.32354066  0.56959454  0.57688768  1
  O2-  O185  1  0.31860736  0.56730777  0.89940393  1
  O2-  O186  1  0.82206964  0.07133287  0.23740471  1
  O2-  O187  1  0.81774451  0.06783386  0.56888796  1
  O2-  O188  1  0.82242697  0.06995825  0.89999279  1
  O2-  O189  1  0.82600984  0.56890922  0.24340260  1
  O2-  O190  1  0.81924476  0.57377549  0.57553338  1
  O2-  O191  1  0.82315449  0.57627832  0.91112592  1
  O2-  O192  1  0.04441084  0.08559851  0.27212235  1
  O2-  O193  1  0.04878860  0.08113173  0.59649253  1
  O2-  O194  1  0.03806831  0.08384949  0.93446455  1
  O2-  O195  1  0.04120684  0.58816277  0.27219293  1
  O2-  O196  1  0.04799470  0.58396707  0.60016777  1
  O2-  O197  1  0.03656804  0.58276357  0.93273216  1
  O2-  O198  1  0.55076473  0.08098912  0.27781264  1
  O2-  O199  1  0.54847968  0.08375435  0.60595044  1
  O2-  O200  1  0.54874614  0.08332316  0.92989667  1
  O2-  O201  1  0.54199768  0.58657286  0.27190782  1
  O2-  O202  1  0.53575841  0.58213746  0.59515909  1
  O2-  O203  1  0.54257585  0.57762477  0.93429504  1
  O2-  O204  1  0.15967392  0.20972598  0.26759113  1
  O2-  O205  1  0.17157131  0.21434942  0.59837348  1
  O2-  O206  1  0.16842092  0.20855447  0.93502434  1
  O2-  O207  1  0.16509712  0.70597898  0.27543793  1
  O2-  O208  1  0.16852812  0.70208251  0.60211366  1
  O2-  O209  1  0.16471033  0.70738628  0.92934831  1
  O2-  O210  1  0.66532236  0.20689746  0.27330293  1
  O2-  O211  1  0.66256724  0.20844184  0.60292664  1
  O2-  O212  1  0.66668477  0.21746112  0.93417961  1
  O2-  O213  1  0.66506250  0.70165577  0.27208003  1
  O2-  O214  1  0.66478513  0.70638103  0.59490374  1
  O2-  O215  1  0.67038435  0.70299928  0.93122108  1
  O2-  O216  1  0.07475116  0.45482757  0.06809892  1
  O2-  O217  1  0.08291061  0.45647678  0.39749696  1
  O2-  O218  1  0.07987544  0.45629422  0.73173300  1
  O2-  O219  1  0.08296654  0.95891805  0.07082692  1
  O2-  O220  1  0.08333669  0.95046478  0.39527080  1
  O2-  O221  1  0.08378081  0.94949849  0.72503114  1
  O2-  O222  1  0.58287287  0.45903028  0.07187609  1
  O2-  O223  1  0.58804924  0.45999956  0.39636842  1
  O2-  O224  1  0.58349631  0.46251739  0.73393711  1
  O2-  O225  1  0.58457019  0.95081508  0.05722763  1
  O2-  O226  1  0.58124722  0.95089592  0.40529298  1
  O2-  O227  1  0.58454964  0.94793587  0.72917337  1
  O2-  O228  1  0.20351468  0.33088121  0.07111483  1
  O2-  O229  1  0.20153175  0.33460374  0.39527953  1
  O2-  O230  1  0.21479863  0.33777688  0.73525783  1
  O2-  O231  1  0.20452243  0.83003677  0.06505245  1
  O2-  O232  1  0.20470072  0.83443926  0.40087064  1
  O2-  O233  1  0.20378328  0.83264633  0.72689619  1
  O2-  O234  1  0.71293093  0.33761537  0.07460716  1
  O2-  O235  1  0.70562763  0.33888240  0.39601846  1
  O2-  O236  1  0.70796157  0.33289513  0.73445671  1
  O2-  O237  1  0.70418803  0.83280554  0.06073367  1
  O2-  O238  1  0.71008398  0.82797156  0.40105075  1
  O2-  O239  1  0.70554152  0.82992581  0.72699518  1
  O2-  O240  1  0.46297530  0.41581231  0.26441884  1
  O2-  O241  1  0.46057259  0.41023397  0.60407579  1
  O2-  O242  1  0.45750721  0.41361059  0.93685701  1
  O2-  O243  1  0.45548239  0.91369537  0.27450637  1
  O2-  O244  1  0.45782861  0.91697410  0.59890728  1
  O2-  O245  1  0.45705211  0.91900746  0.92837721  1
  O2-  O246  1  0.95635708  0.41323237  0.26783496  1
  O2-  O247  1  0.95252661  0.42070327  0.59886071  1
  O2-  O248  1  0.94377172  0.41765383  0.94058341  1
  O2-  O249  1  0.95408334  0.91426569  0.27098595  1
  O2-  O250  1  0.96232350  0.91433345  0.59284760  1
  O2-  O251  1  0.95702161  0.91611476  0.94004961  1
  O2-  O252  1  0.33039264  0.29427356  0.26497588  1
  O2-  O253  1  0.33920986  0.29281576  0.60489144  1
  O2-  O254  1  0.33207174  0.30053279  0.93969974  1
  O2-  O255  1  0.33648866  0.79109859  0.27495734  1
  O2-  O256  1  0.33369491  0.80201917  0.59891165  1
  O2-  O257  1  0.33011576  0.79455097  0.92940814  1
  O2-  O258  1  0.83339850  0.29746219  0.27043005  1
  O2-  O259  1  0.82902820  0.29062060  0.59855669  1
  O2-  O260  1  0.83295109  0.29298970  0.94119947  1
  O2-  O261  1  0.83897620  0.78928239  0.26850127  1
  O2-  O262  1  0.83558624  0.78852722  0.59405932  1
  O2-  O263  1  0.83552469  0.79959286  0.93693871  1
  O2-  O264  1  0.42456255  0.04460755  0.06526530  1
  O2-  O265  1  0.41540448  0.04286816  0.40220558  1
  O2-  O266  1  0.41940895  0.04080795  0.73242518  1
  O2-  O267  1  0.41669009  0.54185696  0.06827956  1
  O2-  O268  1  0.41751113  0.53752397  0.40275129  1
  O2-  O269  1  0.41331774  0.54101387  0.72898171  1
  O2-  O270  1  0.91488387  0.03854248  0.07036108  1
  O2-  O271  1  0.92058768  0.04225428  0.40327671  1
  O2-  O272  1  0.91999774  0.03700589  0.73022228  1
  O2-  O273  1  0.91246933  0.54672516  0.06596275  1
  O2-  O274  1  0.91434605  0.54137281  0.39740295  1
  O2-  O275  1  0.91756840  0.55390124  0.72514800  1
  O2-  O276  1  0.29528253  0.16962883  0.06742611  1
  O2-  O277  1  0.28671001  0.16911786  0.39885165  1
  O2-  O278  1  0.29397619  0.16795836  0.73537387  1
  O2-  O279  1  0.29050409  0.66917996  0.06440294  1
  O2-  O280  1  0.29055321  0.66541560  0.40711575  1
  O2-  O281  1  0.30482564  0.67069972  0.72338326  1
  O2-  O282  1  0.78847534  0.16533879  0.06948979  1
  O2-  O283  1  0.79480307  0.17166807  0.40310385  1
  O2-  O284  1  0.78888866  0.16438699  0.73535846  1
  O2-  O285  1  0.79898124  0.67006204  0.06294879  1
  O2-  O286  1  0.79724983  0.66243367  0.39472319  1
  O2-  O287  1  0.79381486  0.66688038  0.72676871  1
