# generated using pymatgen
data_Ca2Al2SiO7
_symmetry_space_group_name_H-M   'P 1'
_cell_length_a   15.45777121
_cell_length_b   15.45702079
_cell_length_c   15.28299718
_cell_angle_alpha   89.98544306
_cell_angle_beta   89.99083089
_cell_angle_gamma   90.00805710
_symmetry_Int_Tables_number   1
_chemical_formula_structural   Ca2Al2SiO7
_chemical_formula_sum   'Ca48 Al48 Si24 O168'
_cell_volume   3651.58299028
_cell_formula_units_Z   24
loop_
 _symmetry_equiv_pos_site_id
 _symmetry_equiv_pos_as_xyz
  1  'x, y, z'
loop_
 _atom_type_symbol
 _atom_type_oxidation_number
  Ca2+  2.0
  Al0+  0.0
  Si0+  0.0
  O2-  -2.0
loop_
 _atom_site_type_symbol
 _atom_site_label
 _atom_site_symmetry_multiplicity
 _atom_site_fract_x
 _atom_site_fract_y
 _atom_site_fract_z
 _atom_site_occupancy
  Ca2+  Ca0  1  0.17302708  0.08248650  0.17630675  1
  Ca2+  Ca1  1  0.17540471  0.08863581  0.49936858  1
  Ca2+  Ca2  1  0.17517937  0.08447551  0.83422228  1
  Ca2+  Ca3  1  0.17245981  0.57864053  0.16960013  1
  Ca2+  Ca4  1  0.17897390  0.57939828  0.50286023  1
  Ca2+  Ca5  1  0.17500149  0.57940015  0.84419366  1
  Ca2+  Ca6  1  0.67513648  0.08852097  0.17035141  1
  Ca2+  Ca7  1  0.67299682  0.08339634  0.50672542  1
  Ca2+  Ca8  1  0.67322424  0.08136887  0.83900242  1
  Ca2+  Ca9  1  0.66054157  0.58414649  0.16658551  1
  Ca2+  Ca10  1  0.66332537  0.58395573  0.50128260  1
  Ca2+  Ca11  1  0.66860761  0.57520442  0.84655817  1
  Ca2+  Ca12  1  0.09145881  0.33232572  0.16542776  1
  Ca2+  Ca13  1  0.07789450  0.33025181  0.49373761  1
  Ca2+  Ca14  1  0.07712661  0.33844254  0.82899230  1
  Ca2+  Ca15  1  0.07763487  0.82679687  0.15460173  1
  Ca2+  Ca16  1  0.08196034  0.83422300  0.49790653  1
  Ca2+  Ca17  1  0.07879478  0.82782311  0.83754600  1
  Ca2+  Ca18  1  0.58860211  0.32264246  0.16146107  1
  Ca2+  Ca19  1  0.57431994  0.32652720  0.49581218  1
  Ca2+  Ca20  1  0.58457940  0.32991541  0.83121491  1
  Ca2+  Ca21  1  0.57573950  0.82140255  0.15773463  1
  Ca2+  Ca22  1  0.58164698  0.83199300  0.49803668  1
  Ca2+  Ca23  1  0.57618511  0.82939162  0.83144595  1
  Ca2+  Ca24  1  0.32526458  0.42756147  0.17112232  1
  Ca2+  Ca25  1  0.33504894  0.42432644  0.50553640  1
  Ca2+  Ca26  1  0.33443201  0.42674021  0.84062569  1
  Ca2+  Ca27  1  0.33605669  0.91795752  0.16832922  1
  Ca2+  Ca28  1  0.34021168  0.92855872  0.50599634  1
  Ca2+  Ca29  1  0.34355980  0.91848688  0.83404549  1
  Ca2+  Ca30  1  0.82736289  0.42279873  0.16161358  1
  Ca2+  Ca31  1  0.83227205  0.41411967  0.50443777  1
  Ca2+  Ca32  1  0.82921069  0.41864392  0.84337945  1
  Ca2+  Ca33  1  0.83801527  0.92545320  0.16955607  1
  Ca2+  Ca34  1  0.82477488  0.92899610  0.50832040  1
  Ca2+  Ca35  1  0.82992068  0.92515934  0.83890216  1
  Ca2+  Ca36  1  0.42916350  0.16198175  0.16126897  1
  Ca2+  Ca37  1  0.41463501  0.16857463  0.49321857  1
  Ca2+  Ca38  1  0.42229099  0.17326314  0.82583100  1
  Ca2+  Ca39  1  0.41910197  0.66602533  0.15801837  1
  Ca2+  Ca40  1  0.41707178  0.66904972  0.49584574  1
  Ca2+  Ca41  1  0.41201400  0.67257202  0.82884217  1
  Ca2+  Ca42  1  0.92139905  0.16112985  0.16230789  1
  Ca2+  Ca43  1  0.91725153  0.16681206  0.49470981  1
  Ca2+  Ca44  1  0.91320696  0.16951359  0.82806704  1
  Ca2+  Ca45  1  0.92116790  0.67264629  0.15205017  1
  Ca2+  Ca46  1  0.91861192  0.67036214  0.49436035  1
  Ca2+  Ca47  1  0.92017885  0.66164560  0.83465581  1
  Al0+  Al48  1  0.00198795  0.00029092  -0.00217953  1
  Al0+  Al49  1  -0.00091314  0.00263741  0.33515485  1
  Al0+  Al50  1  0.00117314  -0.00110053  0.66944213  1
  Al0+  Al51  1  -0.00090694  0.49809860  0.00442899  1
  Al0+  Al52  1  -0.00132020  0.50070892  0.33650812  1
  Al0+  Al53  1  0.00087057  0.49890960  0.65883527  1
  Al0+  Al54  1  0.50381530  0.00052770  -0.00784481  1
  Al0+  Al55  1  0.50069184  -0.00095947  0.33213832  1
  Al0+  Al56  1  0.50100432  -0.00220782  0.67073637  1
  Al0+  Al57  1  0.49913320  0.49676380  0.00674964  1
  Al0+  Al58  1  0.50041236  0.50037173  0.33391938  1
  Al0+  Al59  1  0.50053106  0.49899218  0.66634244  1
  Al0+  Al60  1  0.25153199  0.24913210  0.00284211  1
  Al0+  Al61  1  0.24676826  0.25068981  0.33571416  1
  Al0+  Al62  1  0.24887810  0.25005881  0.66704334  1
  Al0+  Al63  1  0.24839503  0.75205795  -0.00426010  1
  Al0+  Al64  1  0.24806759  0.74978731  0.33708189  1
  Al0+  Al65  1  0.25097536  0.75005195  0.66391104  1
  Al0+  Al66  1  0.75209066  0.24869204  0.00418972  1
  Al0+  Al67  1  0.74992529  0.25256361  0.33408328  1
  Al0+  Al68  1  0.75136755  0.25118199  0.66452049  1
  Al0+  Al69  1  0.74807947  0.75272954  -0.00534823  1
  Al0+  Al70  1  0.74862973  0.75069244  0.32969002  1
  Al0+  Al71  1  0.75134382  0.74994738  0.66926651  1
  Al0+  Al72  1  0.57051896  0.17889423  0.32077679  1
  Al0+  Al73  1  0.17775144  0.42705738  0.01442721  1
  Al0+  Al74  1  0.32027858  0.57413040  0.01478109  1
  Al0+  Al75  1  0.56989181  0.67437201  0.98408415  1
  Al0+  Al76  1  0.32262610  0.06899074  0.34425211  1
  Al0+  Al77  1  0.82178802  0.06911533  0.01514413  1
  Al0+  Al78  1  0.17715760  0.42890212  0.35189639  1
  Al0+  Al79  1  0.92732374  0.82379827  0.98396682  1
  Al0+  Al80  1  0.92909366  0.32039688  0.65299365  1
  Al0+  Al81  1  0.06910987  0.67631289  0.98544498  1
  Al0+  Al82  1  0.81960036  0.57404862  0.01358065  1
  Al0+  Al83  1  0.32147198  0.57005645  0.68130268  1
  Al0+  Al84  1  0.57395223  0.18067548  0.98493243  1
  Al0+  Al85  1  0.67835738  0.92689525  0.68398379  1
  Al0+  Al86  1  0.82049622  0.07213727  0.34796918  1
  Al0+  Al87  1  0.32038825  0.07222732  0.68080701  1
  Al0+  Al88  1  0.42950690  0.82081954  0.65006910  1
  Al0+  Al89  1  0.42844859  0.32132029  0.65394188  1
  Al0+  Al90  1  0.82126333  0.07245040  0.68264873  1
  Al0+  Al91  1  0.32254672  0.57162562  0.35063658  1
  Al0+  Al92  1  0.67785002  0.42796396  0.01560297  1
  Al0+  Al93  1  0.42817122  0.82021827  0.98407000  1
  Al0+  Al94  1  0.06921920  0.18076572  0.31913576  1
  Al0+  Al95  1  0.57011140  0.67908530  0.31961068  1
  Si0+  Si96  1  0.07441477  0.17796999  0.98454853  1
  Si0+  Si97  1  0.42653700  0.32195707  0.31649469  1
  Si0+  Si98  1  0.68000034  0.43030236  0.67927184  1
  Si0+  Si99  1  0.17649661  0.92821677  0.34931811  1
  Si0+  Si100  1  0.67945027  0.42923129  0.35039788  1
  Si0+  Si101  1  0.17787892  0.92639046  0.68466629  1
  Si0+  Si102  1  0.17673477  0.42911930  0.68267541  1
  Si0+  Si103  1  0.82369631  0.57047678  0.67885342  1
  Si0+  Si104  1  0.07064341  0.67896259  0.64916061  1
  Si0+  Si105  1  0.17952574  0.93123159  0.01379056  1
  Si0+  Si106  1  0.07019541  0.67919580  0.31941012  1
  Si0+  Si107  1  0.07209752  0.17566357  0.64997795  1
  Si0+  Si108  1  0.92672370  0.32476709  0.31322404  1
  Si0+  Si109  1  0.32336085  0.07045073  0.01360862  1
  Si0+  Si110  1  0.92858689  0.82117981  0.65044314  1
  Si0+  Si111  1  0.42617718  0.82195797  0.31796373  1
  Si0+  Si112  1  0.67952775  0.92665313  0.34843611  1
  Si0+  Si113  1  0.92955756  0.82108319  0.32017991  1
  Si0+  Si114  1  0.42649005  0.31895959  0.98519222  1
  Si0+  Si115  1  0.57356241  0.67728911  0.65029429  1
  Si0+  Si116  1  0.81955656  0.57318272  0.34820730  1
  Si0+  Si117  1  0.93088825  0.31821638  0.98744661  1
  Si0+  Si118  1  0.57143826  0.17839785  0.65068533  1
  Si0+  Si119  1  0.67625886  0.92924517  0.01834347  1
  O2-  O120  1  0.25359880  -0.00138608  0.05613026  1
  O2-  O121  1  0.24843995  -0.00607459  0.39236502  1
  O2-  O122  1  0.24704494  -0.00443188  0.72758044  1
  O2-  O123  1  0.24693361  0.50222898  0.06313472  1
  O2-  O124  1  0.25216177  0.49792286  0.40143415  1
  O2-  O125  1  0.24796147  0.49397638  0.72732461  1
  O2-  O126  1  0.74919786  -0.00678733  0.06341763  1
  O2-  O127  1  0.74327667  -0.00027047  0.39350366  1
  O2-  O128  1  0.74920704  0.00108162  0.73260899  1
  O2-  O129  1  0.74271082  0.50769417  0.06503589  1
  O2-  O130  1  0.74952375  0.50206989  0.39223528  1
  O2-  O131  1  0.75171575  0.50099702  0.72024893  1
  O2-  O132  1  -0.00432240  0.25572247  0.27011687  1
  O2-  O133  1  0.00089924  0.24271254  0.60720750  1
  O2-  O134  1  0.00490311  0.25078143  0.94406949  1
  O2-  O135  1  0.00094055  0.75141104  0.27736833  1
  O2-  O136  1  -0.00052548  0.75054089  0.60658182  1
  O2-  O137  1  -0.00666005  0.74500984  0.93468763  1
  O2-  O138  1  0.49316085  0.25070388  0.27272202  1
  O2-  O139  1  0.49852098  0.24241727  0.60592110  1
  O2-  O140  1  0.49898315  0.25518799  0.93937841  1
  O2-  O141  1  0.49095463  0.74960170  0.27471336  1
  O2-  O142  1  0.50571552  0.74647161  0.60522277  1
  O2-  O143  1  0.49533368  0.74345274  0.93381965  1
  O2-  O144  1  0.07483595  0.17554492  0.08961953  1
  O2-  O145  1  0.06641464  0.17908603  0.43220778  1
  O2-  O146  1  0.07336748  0.17659634  0.75582270  1
  O2-  O147  1  0.06933738  0.68088048  0.09961681  1
  O2-  O148  1  0.06795919  0.68111269  0.42509206  1
  O2-  O149  1  0.06816154  0.67657762  0.75365093  1
  O2-  O150  1  0.57225406  0.17980666  0.09844974  1
  O2-  O151  1  0.57081869  0.18136787  0.43404752  1
  O2-  O152  1  0.57332402  0.18338725  0.75613007  1
  O2-  O153  1  0.56803006  0.67907476  0.09803497  1
  O2-  O154  1  0.57421566  0.68247074  0.43293524  1
  O2-  O155  1  0.57407039  0.67492236  0.75507061  1
  O2-  O156  1  0.17711998  0.43254774  0.23862338  1
  O2-  O157  1  0.17474048  0.43234493  0.57731107  1
  O2-  O158  1  0.17923376  0.42522001  0.90045813  1
  O2-  O159  1  0.17443491  0.92813360  0.24373507  1
  O2-  O160  1  0.17549234  0.92687977  0.57874838  1
  O2-  O161  1  0.17641335  0.93441892  0.90890671  1
  O2-  O162  1  0.68094270  0.42762797  0.24595238  1
  O2-  O163  1  0.68037987  0.43141317  0.57373709  1
  O2-  O164  1  0.68330929  0.42454456  0.90145233  1
  O2-  O165  1  0.68319833  0.92388036  0.24335856  1
  O2-  O166  1  0.68179723  0.92631294  0.56943312  1
  O2-  O167  1  0.67533789  0.93401492  0.91300852  1
  O2-  O168  1  0.42303523  0.31275703  0.09059369  1
  O2-  O169  1  0.43019778  0.32151897  0.42269057  1
  O2-  O170  1  0.43235294  0.32221019  0.76684012  1
  O2-  O171  1  0.42977695  0.82390696  0.09814941  1
  O2-  O172  1  0.42850948  0.82385372  0.42351191  1
  O2-  O173  1  0.42820775  0.81786351  0.76239400  1
  O2-  O174  1  0.92964843  0.31585526  0.09239234  1
  O2-  O175  1  0.92667336  0.32445928  0.41925808  1
  O2-  O176  1  0.93076760  0.32393488  0.76613408  1
  O2-  O177  1  0.93457960  0.82700436  0.09832853  1
  O2-  O178  1  0.92990136  0.81821685  0.42583008  1
  O2-  O179  1  0.92960110  0.82002150  0.75472947  1
  O2-  O180  1  0.32234291  0.06546594  0.23083775  1
  O2-  O181  1  0.31832956  0.07208679  0.56740938  1
  O2-  O182  1  0.31997543  0.07242521  0.90852964  1
  O2-  O183  1  0.31955545  0.57371602  0.23763334  1
  O2-  O184  1  0.32036717  0.56947122  0.56826022  1
  O2-  O185  1  0.31868196  0.57207634  0.90083470  1
  O2-  O186  1  0.82296709  0.06883854  0.23505353  1
  O2-  O187  1  0.82001151  0.07141456  0.56862259  1
  O2-  O188  1  0.82148484  0.07111600  0.90239703  1
  O2-  O189  1  0.82021712  0.57431532  0.24395593  1
  O2-  O190  1  0.82334368  0.57098290  0.57310365  1
  O2-  O191  1  0.82267539  0.56582334  0.89948647  1
  O2-  O192  1  0.03856413  0.08325562  0.26517386  1
  O2-  O193  1  0.04943353  0.08078062  0.60464589  1
  O2-  O194  1  0.04532555  0.08810691  0.93494153  1
  O2-  O195  1  0.04013148  0.58790151  0.27366441  1
  O2-  O196  1  0.04105231  0.58908244  0.59838810  1
  O2-  O197  1  0.04274255  0.57656847  0.93352680  1
  O2-  O198  1  0.54371199  0.08113067  0.26649394  1
  O2-  O199  1  0.55120603  0.08245407  0.60865892  1
  O2-  O200  1  0.54310115  0.08600333  0.92878574  1
  O2-  O201  1  0.54529979  0.58019642  0.26776204  1
  O2-  O202  1  0.54718462  0.58411868  0.60300490  1
  O2-  O203  1  0.54871514  0.57163695  0.93682724  1
  O2-  O204  1  0.16689545  0.20852993  0.26471953  1
  O2-  O205  1  0.16445629  0.20381237  0.60281615  1
  O2-  O206  1  0.16674013  0.20452988  0.93722220  1
  O2-  O207  1  0.16250292  0.70585260  0.27303556  1
  O2-  O208  1  0.16113782  0.70895659  0.60057032  1
  O2-  O209  1  0.16429769  0.71088976  0.93032366  1
  O2-  O210  1  0.66648371  0.21402600  0.26750932  1
  O2-  O211  1  0.66318308  0.20934842  0.60317495  1
  O2-  O212  1  0.67047548  0.21327777  0.93219452  1
  O2-  O213  1  0.66587660  0.71182470  0.26424330  1
  O2-  O214  1  0.66860701  0.70207150  0.60445044  1
  O2-  O215  1  0.66834878  0.70265283  0.93109455  1
  O2-  O216  1  0.07893217  0.44978975  0.06834818  1
  O2-  O217  1  0.07832980  0.45985080  0.40453284  1
  O2-  O218  1  0.08356977  0.45972224  0.72772599  1
  O2-  O219  1  0.09020386  0.96264405  0.06395747  1
  O2-  O220  1  0.08494973  0.95752858  0.39817932  1
  O2-  O221  1  0.08489060  0.95174104  0.73219729  1
  O2-  O222  1  0.57817693  0.44470856  0.07014124  1
  O2-  O223  1  0.58765748  0.45607666  0.39828513  1
  O2-  O224  1  0.58947376  0.45755927  0.72827946  1
  O2-  O225  1  0.58445659  0.96061145  0.06513124  1
  O2-  O226  1  0.58422294  0.94781272  0.39251394  1
  O2-  O227  1  0.58004823  0.95179435  0.73699443  1
  O2-  O228  1  0.20929000  0.32924752  0.06887136  1
  O2-  O229  1  0.19958578  0.32868945  0.40332111  1
  O2-  O230  1  0.19545064  0.33335560  0.72592171  1
  O2-  O231  1  0.20335119  0.83878349  0.06143193  1
  O2-  O232  1  0.19693579  0.83398686  0.39660008  1
  O2-  O233  1  0.20311680  0.83259399  0.72914494  1
  O2-  O234  1  0.71720595  0.33402662  0.07114411  1
  O2-  O235  1  0.70952885  0.33951861  0.40081711  1
  O2-  O236  1  0.70803521  0.33876641  0.72620482  1
  O2-  O237  1  0.69601664  0.83320011  0.06076772  1
  O2-  O238  1  0.71044149  0.83539037  0.39743827  1
  O2-  O239  1  0.70942224  0.82889946  0.73641069  1
  O2-  O240  1  0.45552210  0.41472371  0.27155165  1
  O2-  O241  1  0.46465405  0.41538889  0.59720223  1
  O2-  O242  1  0.44786068  0.41463003  0.94312225  1
  O2-  O243  1  0.45443950  0.91368156  0.26963248  1
  O2-  O244  1  0.46064278  0.91870801  0.59766520  1
  O2-  O245  1  0.46200390  0.91676404  0.92949018  1
  O2-  O246  1  0.95180600  0.41971466  0.26968734  1
  O2-  O247  1  0.96072700  0.41524590  0.59399895  1
  O2-  O248  1  0.95486480  0.41078926  0.93990877  1
  O2-  O249  1  0.95737485  0.91319565  0.27446713  1
  O2-  O250  1  0.95805847  0.91301683  0.60288088  1
  O2-  O251  1  0.96639681  0.91824799  0.92862450  1
  O2-  O252  1  0.33125524  0.30024606  0.27400589  1
  O2-  O253  1  0.33004430  0.29462886  0.60109598  1
  O2-  O254  1  0.33534599  0.28885756  0.93566774  1
  O2-  O255  1  0.32971000  0.80133411  0.27512274  1
  O2-  O256  1  0.33210989  0.79181384  0.59553792  1
  O2-  O257  1  0.32769645  0.80123291  0.93147361  1
  O2-  O258  1  0.83266914  0.29998391  0.26903551  1
  O2-  O259  1  0.83225276  0.29328632  0.59634991  1
  O2-  O260  1  0.84115053  0.28664699  0.93862752  1
  O2-  O261  1  0.83889046  0.79275810  0.27193532  1
  O2-  O262  1  0.83749454  0.79186854  0.60166827  1
  O2-  O263  1  0.82682798  0.80634149  0.93285708  1
  O2-  O264  1  0.41638346  0.04250612  0.05777165  1
  O2-  O265  1  0.41882066  0.03928218  0.40043964  1
  O2-  O266  1  0.41732895  0.04352123  0.73397217  1
  O2-  O267  1  0.41717711  0.54403594  0.06907149  1
  O2-  O268  1  0.42209880  0.54445378  0.40277423  1
  O2-  O269  1  0.41885609  0.53974751  0.73337372  1
  O2-  O270  1  0.92037748  0.03909692  0.06682078  1
  O2-  O271  1  0.91579630  0.03872584  0.40326568  1
  O2-  O272  1  0.92083721  0.04447119  0.73321817  1
  O2-  O273  1  0.91520873  0.53992532  0.06934380  1
  O2-  O274  1  0.91088963  0.54640111  0.39776752  1
  O2-  O275  1  0.91548247  0.54022458  0.72422385  1
  O2-  O276  1  0.29424004  0.16033327  0.06308427  1
  O2-  O277  1  0.29056510  0.16527430  0.39765744  1
  O2-  O278  1  0.28759331  0.16788043  0.73649632  1
  O2-  O279  1  0.29204271  0.67380317  0.06540613  1
  O2-  O280  1  0.29115163  0.67010421  0.40382189  1
  O2-  O281  1  0.28780333  0.66705470  0.73148339  1
  O2-  O282  1  0.79045911  0.16421195  0.07076620  1
  O2-  O283  1  0.79239628  0.17047271  0.39975780  1
  O2-  O284  1  0.79408888  0.17247576  0.73301569  1
  O2-  O285  1  0.80035132  0.67645740  0.06187486  1
  O2-  O286  1  0.79129937  0.66501595  0.39664215  1
  O2-  O287  1  0.80081882  0.66285675  0.72591655  1
