# generated using pymatgen
data_Ca2Al2SiO7
_symmetry_space_group_name_H-M   'P 1'
_cell_length_a   15.45919142
_cell_length_b   15.45983430
_cell_length_c   15.28463537
_cell_angle_alpha   89.99873902
_cell_angle_beta   90.00258770
_cell_angle_gamma   89.97517175
_symmetry_Int_Tables_number   1
_chemical_formula_structural   Ca2Al2SiO7
_chemical_formula_sum   'Ca48 Al48 Si24 O168'
_cell_volume   3652.97458585
_cell_formula_units_Z   24
loop_
 _symmetry_equiv_pos_site_id
 _symmetry_equiv_pos_as_xyz
  1  'x, y, z'
loop_
 _atom_type_symbol
 _atom_type_oxidation_number
  Ca2+  2.0
  Al0+  0.0
  Si0+  0.0
  O2-  -2.0
loop_
 _atom_site_type_symbol
 _atom_site_label
 _atom_site_symmetry_multiplicity
 _atom_site_fract_x
 _atom_site_fract_y
 _atom_site_fract_z
 _atom_site_occupancy
  Ca2+  Ca0  1  0.16475656  0.07699401  0.17817393  1
  Ca2+  Ca1  1  0.16596831  0.08447947  0.50307473  1
  Ca2+  Ca2  1  0.17131573  0.09141263  0.83341991  1
  Ca2+  Ca3  1  0.16606005  0.58240489  0.17284491  1
  Ca2+  Ca4  1  0.16657244  0.57881384  0.50246601  1
  Ca2+  Ca5  1  0.17621031  0.58720794  0.84079306  1
  Ca2+  Ca6  1  0.67699744  0.08935034  0.16849396  1
  Ca2+  Ca7  1  0.66915729  0.08277430  0.50576461  1
  Ca2+  Ca8  1  0.66839610  0.07614864  0.84306520  1
  Ca2+  Ca9  1  0.65922540  0.57741668  0.16501324  1
  Ca2+  Ca10  1  0.66859060  0.57916238  0.50492935  1
  Ca2+  Ca11  1  0.66549092  0.57551656  0.84488971  1
  Ca2+  Ca12  1  0.08711731  0.32970408  0.16843735  1
  Ca2+  Ca13  1  0.08558249  0.32402547  0.49582295  1
  Ca2+  Ca14  1  0.07398036  0.32788387  0.82489258  1
  Ca2+  Ca15  1  0.07653597  0.83048776  0.16227442  1
  Ca2+  Ca16  1  0.07376121  0.83322762  0.48911605  1
  Ca2+  Ca17  1  0.07120190  0.83101543  0.83197511  1
  Ca2+  Ca18  1  0.57649817  0.32703973  0.15919596  1
  Ca2+  Ca19  1  0.57557311  0.31817313  0.49240241  1
  Ca2+  Ca20  1  0.58500454  0.32264819  0.83416771  1
  Ca2+  Ca21  1  0.58470681  0.82813606  0.15810184  1
  Ca2+  Ca22  1  0.58267991  0.83661751  0.49986606  1
  Ca2+  Ca23  1  0.59342013  0.83105906  0.83130742  1
  Ca2+  Ca24  1  0.33442919  0.41781834  0.17051513  1
  Ca2+  Ca25  1  0.32918785  0.41558721  0.50145328  1
  Ca2+  Ca26  1  0.33837047  0.42567320  0.84066909  1
  Ca2+  Ca27  1  0.32518227  0.91704866  0.17253561  1
  Ca2+  Ca28  1  0.32291233  0.92195185  0.50564708  1
  Ca2+  Ca29  1  0.33259550  0.92534230  0.83443516  1
  Ca2+  Ca30  1  0.82451100  0.41460017  0.16901424  1
  Ca2+  Ca31  1  0.83640027  0.41683383  0.50459448  1
  Ca2+  Ca32  1  0.82799355  0.41270660  0.84119289  1
  Ca2+  Ca33  1  0.83550383  0.92217148  0.16827531  1
  Ca2+  Ca34  1  0.83356376  0.91972126  0.50254357  1
  Ca2+  Ca35  1  0.82818648  0.91868529  0.84089078  1
  Ca2+  Ca36  1  0.42626730  0.17734268  0.16067544  1
  Ca2+  Ca37  1  0.42594535  0.16108291  0.49376770  1
  Ca2+  Ca38  1  0.42643807  0.16699239  0.82799209  1
  Ca2+  Ca39  1  0.41829430  0.66696250  0.15745770  1
  Ca2+  Ca40  1  0.41419171  0.66481878  0.50053785  1
  Ca2+  Ca41  1  0.41887540  0.66141298  0.83520982  1
  Ca2+  Ca42  1  0.91991175  0.15474955  0.16632707  1
  Ca2+  Ca43  1  0.92437300  0.16726395  0.49633893  1
  Ca2+  Ca44  1  0.91803043  0.16889322  0.82730934  1
  Ca2+  Ca45  1  0.92765141  0.67774763  0.15972317  1
  Ca2+  Ca46  1  0.92044477  0.68026083  0.49131002  1
  Ca2+  Ca47  1  0.91379421  0.67926339  0.83037035  1
  Al0+  Al48  1  0.00084756  -0.00069663  -0.00281185  1
  Al0+  Al49  1  -0.00210273  0.00097741  0.33538493  1
  Al0+  Al50  1  -0.00102981  -0.00078995  0.66036697  1
  Al0+  Al51  1  0.00269307  0.49898914  -0.00356987  1
  Al0+  Al52  1  0.00077337  0.50042828  0.33528849  1
  Al0+  Al53  1  -0.00048012  0.50193630  0.66616477  1
  Al0+  Al54  1  0.49937075  -0.00013521  0.00262970  1
  Al0+  Al55  1  0.50186734  -0.00171932  0.32704973  1
  Al0+  Al56  1  0.49864558  -0.00256382  0.67028035  1
  Al0+  Al57  1  0.49882976  0.50145741  0.00161085  1
  Al0+  Al58  1  0.49984277  0.49958581  0.33396941  1
  Al0+  Al59  1  0.50062738  0.49929787  0.66931807  1
  Al0+  Al60  1  0.25118123  0.25294496  -0.00359098  1
  Al0+  Al61  1  0.25036808  0.25206927  0.33024896  1
  Al0+  Al62  1  0.24996309  0.25131495  0.66928148  1
  Al0+  Al63  1  0.25070857  0.75026634  -0.00014712  1
  Al0+  Al64  1  0.25046556  0.74993140  0.33644260  1
  Al0+  Al65  1  0.25090396  0.74956443  0.67210904  1
  Al0+  Al66  1  0.75028116  0.24974155  0.00609439  1
  Al0+  Al67  1  0.75030661  0.24982950  0.33706086  1
  Al0+  Al68  1  0.74881809  0.24979449  0.65849764  1
  Al0+  Al69  1  0.75017679  0.74988506  -0.00338277  1
  Al0+  Al70  1  0.74960411  0.75031346  0.33016535  1
  Al0+  Al71  1  0.74984746  0.74854512  0.66401278  1
  Al0+  Al72  1  0.56853121  0.17567788  0.65305501  1
  Al0+  Al73  1  0.92721658  0.32288821  0.65185905  1
  Al0+  Al74  1  0.82213707  0.07046003  0.01417330  1
  Al0+  Al75  1  0.31984916  0.07159532  0.67944165  1
  Al0+  Al76  1  0.06950805  0.18031506  0.31947970  1
  Al0+  Al77  1  0.56980849  0.68089347  0.98701450  1
  Al0+  Al78  1  0.17865386  0.42878291  0.34788841  1
  Al0+  Al79  1  0.67763802  0.92674095  0.01614048  1
  Al0+  Al80  1  0.42905863  0.32185602  0.98244793  1
  Al0+  Al81  1  0.07318302  0.67726185  0.98340355  1
  Al0+  Al82  1  0.67985258  0.92884573  0.67963065  1
  Al0+  Al83  1  0.81963592  0.07126401  0.35049498  1
  Al0+  Al84  1  0.32081796  0.57022391  0.68225837  1
  Al0+  Al85  1  0.57278122  0.17857560  0.98426329  1
  Al0+  Al86  1  0.57349838  0.17651443  0.31638361  1
  Al0+  Al87  1  0.92787091  0.82250838  0.31615943  1
  Al0+  Al88  1  0.92967218  0.82161766  0.98307767  1
  Al0+  Al89  1  0.67990175  0.42996730  0.01406757  1
  Al0+  Al90  1  0.31907613  0.57074665  0.01560529  1
  Al0+  Al91  1  0.07278603  0.17993172  0.65147001  1
  Al0+  Al92  1  0.07237588  0.67808045  0.31943413  1
  Al0+  Al93  1  0.17896330  0.92880773  0.34644117  1
  Al0+  Al94  1  0.42898871  0.32167707  0.31864074  1
  Al0+  Al95  1  0.92741404  0.81933556  0.65053763  1
  Si0+  Si96  1  0.57053903  0.67852812  0.32010996  1
  Si0+  Si97  1  0.17579632  0.92810259  0.68429762  1
  Si0+  Si98  1  0.42986252  0.32361188  0.65062027  1
  Si0+  Si99  1  0.56992329  0.67741710  0.65164736  1
  Si0+  Si100  1  0.82463261  0.57200155  0.01580470  1
  Si0+  Si101  1  0.68049452  0.42854652  0.68065266  1
  Si0+  Si102  1  0.07462265  0.67998293  0.64990910  1
  Si0+  Si103  1  0.42636835  0.82348645  0.98259370  1
  Si0+  Si104  1  0.07189450  0.17835986  0.98647960  1
  Si0+  Si105  1  0.32135089  0.07459022  0.01596006  1
  Si0+  Si106  1  0.17645197  0.42853983  0.68522331  1
  Si0+  Si107  1  0.81982800  0.57115073  0.34756675  1
  Si0+  Si108  1  0.32261614  0.07124088  0.34674904  1
  Si0+  Si109  1  0.92902793  0.32096220  0.98851541  1
  Si0+  Si110  1  0.82065725  0.57122897  0.68086808  1
  Si0+  Si111  1  0.92780242  0.32372404  0.31615000  1
  Si0+  Si112  1  0.42794626  0.82022321  0.65251688  1
  Si0+  Si113  1  0.67707076  0.92543872  0.35038873  1
  Si0+  Si114  1  0.67777695  0.42984255  0.35082097  1
  Si0+  Si115  1  0.18092990  0.93181925  0.01348478  1
  Si0+  Si116  1  0.42835925  0.82037408  0.31992763  1
  Si0+  Si117  1  0.82168502  0.07275432  0.68170717  1
  Si0+  Si118  1  0.17641800  0.42689169  0.01727204  1
  Si0+  Si119  1  0.32344862  0.57213846  0.35139687  1
  O2-  O120  1  0.25014895  0.00375888  0.05768423  1
  O2-  O121  1  0.25322913  0.00433611  0.39287240  1
  O2-  O122  1  0.24093453  0.00102480  0.72770228  1
  O2-  O123  1  0.24325773  0.49742247  0.06109723  1
  O2-  O124  1  0.25355600  0.50420571  0.39423612  1
  O2-  O125  1  0.24533368  0.49683628  0.72948768  1
  O2-  O126  1  0.74881298  -0.00021418  0.06511725  1
  O2-  O127  1  0.74288990  -0.00350094  0.39441039  1
  O2-  O128  1  0.75331522  0.00437290  0.72616897  1
  O2-  O129  1  0.75502657  0.50483184  0.06161526  1
  O2-  O130  1  0.75022558  0.49967430  0.39277762  1
  O2-  O131  1  0.75567425  0.49502189  0.72310130  1
  O2-  O132  1  -0.00529833  0.25414595  0.27081556  1
  O2-  O133  1  0.00055626  0.25237145  0.60223438  1
  O2-  O134  1  -0.00033898  0.24928545  0.94681122  1
  O2-  O135  1  0.00283967  0.75184515  0.26927581  1
  O2-  O136  1  0.00622730  0.74806309  0.60505545  1
  O2-  O137  1  -0.00179218  0.74568445  0.93324500  1
  O2-  O138  1  0.50101683  0.24954186  0.26961514  1
  O2-  O139  1  0.49185543  0.24908291  0.60637533  1
  O2-  O140  1  0.49893979  0.24792434  0.93272230  1
  O2-  O141  1  0.49924935  0.74903757  0.27892351  1
  O2-  O142  1  0.49874289  0.74842512  0.60981895  1
  O2-  O143  1  0.49985373  0.75937746  0.93877560  1
  O2-  O144  1  0.07340648  0.17741612  0.09148528  1
  O2-  O145  1  0.07014741  0.18173712  0.43206151  1
  O2-  O146  1  0.07122599  0.18184003  0.76588809  1
  O2-  O147  1  0.07304231  0.67956777  0.09681103  1
  O2-  O148  1  0.06990658  0.67856746  0.43346271  1
  O2-  O149  1  0.07405055  0.68125565  0.75534058  1
  O2-  O150  1  0.57198778  0.18224585  0.09742950  1
  O2-  O151  1  0.56988131  0.17568593  0.43067716  1
  O2-  O152  1  0.57032818  0.17743387  0.76565911  1
  O2-  O153  1  0.56593941  0.67996445  0.10060544  1
  O2-  O154  1  0.57082028  0.67738334  0.42571855  1
  O2-  O155  1  0.57073296  0.67579580  0.75620549  1
  O2-  O156  1  0.17885300  0.43019892  0.23500859  1
  O2-  O157  1  0.17722196  0.42937655  0.57957607  1
  O2-  O158  1  0.17543391  0.42491019  0.91181636  1
  O2-  O159  1  0.18267812  0.92910087  0.23286330  1
  O2-  O160  1  0.17963903  0.92482211  0.57874312  1
  O2-  O161  1  0.18171519  0.93389870  0.90823646  1
  O2-  O162  1  0.67682110  0.43227200  0.24584172  1
  O2-  O163  1  0.67820526  0.43340513  0.57532095  1
  O2-  O164  1  0.68329410  0.42949717  0.90038158  1
  O2-  O165  1  0.67653661  0.92074054  0.24558569  1
  O2-  O166  1  0.67920973  0.92815882  0.56633670  1
  O2-  O167  1  0.68034660  0.92780112  0.90213372  1
  O2-  O168  1  0.42826070  0.32009189  0.09582803  1
  O2-  O169  1  0.43163069  0.32328678  0.43277253  1
  O2-  O170  1  0.43509098  0.32673995  0.75575782  1
  O2-  O171  1  0.42294673  0.82046587  0.08856217  1
  O2-  O172  1  0.42869520  0.82090777  0.42534311  1
  O2-  O173  1  0.42735629  0.82045834  0.75718264  1
  O2-  O174  1  0.93020025  0.32432514  0.09326119  1
  O2-  O175  1  0.92928285  0.32446669  0.42167355  1
  O2-  O176  1  0.92625668  0.32163318  0.76612610  1
  O2-  O177  1  0.93378003  0.82313758  0.09619680  1
  O2-  O178  1  0.92636363  0.81855854  0.43016516  1
  O2-  O179  1  0.92603272  0.81704020  0.76326307  1
  O2-  O180  1  0.32103732  0.06772928  0.24096966  1
  O2-  O181  1  0.32184257  0.06657601  0.56629040  1
  O2-  O182  1  0.31977817  0.07357861  0.91055802  1
  O2-  O183  1  0.32654524  0.57325071  0.24628001  1
  O2-  O184  1  0.32174169  0.56944869  0.56906817  1
  O2-  O185  1  0.31891725  0.56930186  0.90229483  1
  O2-  O186  1  0.82010454  0.07008567  0.23770624  1
  O2-  O187  1  0.82015974  0.07176915  0.57616470  1
  O2-  O188  1  0.82437385  0.07180356  0.90028056  1
  O2-  O189  1  0.81699697  0.56964353  0.24275903  1
  O2-  O190  1  0.81648313  0.57271768  0.57541265  1
  O2-  O191  1  0.82275368  0.56824295  0.90969464  1
  O2-  O192  1  0.03868342  0.08384493  0.26607335  1
  O2-  O193  1  0.04728875  0.08080847  0.59933637  1
  O2-  O194  1  0.04597496  0.08771030  0.93671269  1
  O2-  O195  1  0.04171377  0.58031254  0.26691621  1
  O2-  O196  1  0.04958878  0.58538352  0.60603097  1
  O2-  O197  1  0.05051102  0.57695286  0.93104064  1
  O2-  O198  1  0.54776960  0.07780415  0.26320249  1
  O2-  O199  1  0.53678867  0.07881859  0.59991981  1
  O2-  O200  1  0.54426826  0.07841432  0.93499702  1
  O2-  O201  1  0.54302983  0.58699582  0.27270081  1
  O2-  O202  1  0.54078762  0.58627853  0.60257771  1
  O2-  O203  1  0.53573257  0.58597993  0.93203869  1
  O2-  O204  1  0.16621916  0.20958033  0.26509761  1
  O2-  O205  1  0.17210745  0.20815566  0.59932742  1
  O2-  O206  1  0.16255126  0.20775933  0.93769019  1
  O2-  O207  1  0.17302573  0.70318646  0.26985469  1
  O2-  O208  1  0.16924583  0.70440991  0.60534882  1
  O2-  O209  1  0.17021367  0.71107957  0.93089645  1
  O2-  O210  1  0.67196369  0.20888295  0.26746657  1
  O2-  O211  1  0.66323102  0.20842772  0.59700515  1
  O2-  O212  1  0.67151304  0.21058476  0.93359486  1
  O2-  O213  1  0.66134739  0.70501681  0.27132053  1
  O2-  O214  1  0.66056216  0.70500433  0.60186744  1
  O2-  O215  1  0.66777837  0.70357552  0.93168973  1
  O2-  O216  1  0.08207478  0.44973751  0.06364973  1
  O2-  O217  1  0.08210129  0.45882668  0.40375161  1
  O2-  O218  1  0.08200185  0.45409800  0.73063515  1
  O2-  O219  1  0.08946788  0.95935262  0.06076921  1
  O2-  O220  1  0.08312590  0.95932447  0.40040251  1
  O2-  O221  1  0.08043697  0.95055828  0.72767559  1
  O2-  O222  1  0.58507633  0.46459803  0.06852585  1
  O2-  O223  1  0.58771486  0.46171487  0.39991242  1
  O2-  O224  1  0.59119484  0.46131627  0.72943485  1
  O2-  O225  1  0.57638241  0.94872126  0.06716540  1
  O2-  O226  1  0.58117796  0.94855525  0.39450622  1
  O2-  O227  1  0.58211425  0.95377448  0.73356205  1
  O2-  O228  1  0.20467439  0.33366166  0.06361597  1
  O2-  O229  1  0.21146087  0.33253796  0.40265831  1
  O2-  O230  1  0.19990484  0.33482690  0.73165277  1
  O2-  O231  1  0.21099626  0.84086443  0.06077734  1
  O2-  O232  1  0.21200164  0.83375418  0.40311735  1
  O2-  O233  1  0.20694568  0.83704204  0.73247210  1
  O2-  O234  1  0.71219863  0.33605202  0.07146003  1
  O2-  O235  1  0.70433415  0.33828378  0.39863629  1
  O2-  O236  1  0.70547750  0.33506763  0.72561278  1
  O2-  O237  1  0.70500534  0.82666521  0.06688037  1
  O2-  O238  1  0.70353154  0.83172831  0.39783448  1
  O2-  O239  1  0.71043983  0.83041836  0.73092837  1
  O2-  O240  1  0.45905487  0.42052043  0.26674799  1
  O2-  O241  1  0.46172136  0.41475617  0.60240660  1
  O2-  O242  1  0.45996437  0.42003244  0.93205956  1
  O2-  O243  1  0.45428461  0.91051687  0.26868916  1
  O2-  O244  1  0.45680693  0.91010055  0.60276215  1
  O2-  O245  1  0.44590963  0.91919974  0.93895691  1
  O2-  O246  1  0.95349247  0.41696824  0.27016086  1
  O2-  O247  1  0.95198589  0.42374565  0.60091427  1
  O2-  O248  1  0.95590912  0.41135688  0.93720349  1
  O2-  O249  1  0.95595840  0.92102705  0.26617553  1
  O2-  O250  1  0.95419188  0.91668171  0.59720297  1
  O2-  O251  1  0.96378653  0.91784283  0.92811263  1
  O2-  O252  1  0.33116652  0.29630613  0.26460578  1
  O2-  O253  1  0.33289925  0.30493359  0.61012406  1
  O2-  O254  1  0.32977943  0.29614870  0.92871792  1
  O2-  O255  1  0.33735939  0.79223284  0.27160820  1
  O2-  O256  1  0.33633259  0.79109251  0.60462352  1
  O2-  O257  1  0.33564481  0.79334765  0.93379201  1
  O2-  O258  1  0.83248892  0.30034524  0.27355515  1
  O2-  O259  1  0.82989632  0.29684129  0.59553610  1
  O2-  O260  1  0.83750966  0.29345047  0.94110881  1
  O2-  O261  1  0.83011659  0.79082751  0.26394711  1
  O2-  O262  1  0.83305455  0.78262765  0.59513570  1
  O2-  O263  1  0.83104614  0.79420014  0.93053810  1
  O2-  O264  1  0.41219767  0.04664052  0.06424359  1
  O2-  O265  1  0.41636080  0.04176160  0.39117806  1
  O2-  O266  1  0.41273211  0.03407931  0.73655855  1
  O2-  O267  1  0.41527105  0.54059620  0.06997400  1
  O2-  O268  1  0.41686287  0.54548589  0.39921149  1
  O2-  O269  1  0.41832253  0.53904744  0.73539163  1
  O2-  O270  1  0.92145800  0.04024290  0.06614858  1
  O2-  O271  1  0.91550607  0.03990095  0.40519101  1
  O2-  O272  1  0.91667056  0.04809257  0.72542874  1
  O2-  O273  1  0.91840135  0.54472591  0.06038135  1
  O2-  O274  1  0.91106748  0.54453622  0.39660575  1
  O2-  O275  1  0.91471325  0.55168126  0.72731972  1
  O2-  O276  1  0.29294447  0.16682189  0.06147159  1
  O2-  O277  1  0.29946113  0.16557762  0.39109846  1
  O2-  O278  1  0.29385446  0.16918155  0.73499776  1
  O2-  O279  1  0.29147847  0.66911726  0.06849536  1
  O2-  O280  1  0.29957973  0.66573142  0.39877913  1
  O2-  O281  1  0.29372291  0.66767519  0.73713282  1
  O2-  O282  1  0.79686442  0.16852392  0.06980791  1
  O2-  O283  1  0.79174131  0.16904004  0.40509207  1
  O2-  O284  1  0.79652984  0.16800227  0.72477375  1
  O2-  O285  1  0.80010893  0.66596719  0.05982764  1
  O2-  O286  1  0.78873127  0.66221386  0.39569556  1
  O2-  O287  1  0.78592292  0.65979479  0.72965009  1
