# generated using pymatgen
data_Ca2Al2SiO7
_symmetry_space_group_name_H-M   'P 1'
_cell_length_a   15.45837987
_cell_length_b   15.45944491
_cell_length_c   15.28396314
_cell_angle_alpha   89.98987858
_cell_angle_beta   90.01370426
_cell_angle_gamma   89.99623864
_symmetry_Int_Tables_number   1
_chemical_formula_structural   Ca2Al2SiO7
_chemical_formula_sum   'Ca48 Al48 Si24 O168'
_cell_volume   3652.53034738
_cell_formula_units_Z   24
loop_
 _symmetry_equiv_pos_site_id
 _symmetry_equiv_pos_as_xyz
  1  'x, y, z'
loop_
 _atom_type_symbol
 _atom_type_oxidation_number
  Ca2+  2.0
  Al0+  0.0
  Si0+  0.0
  O2-  -2.0
loop_
 _atom_site_type_symbol
 _atom_site_label
 _atom_site_symmetry_multiplicity
 _atom_site_fract_x
 _atom_site_fract_y
 _atom_site_fract_z
 _atom_site_occupancy
  Ca2+  Ca0  1  0.16748420  0.07458506  0.17581354  1
  Ca2+  Ca1  1  0.16388309  0.07899943  0.49769615  1
  Ca2+  Ca2  1  0.16545806  0.07418619  0.84455233  1
  Ca2+  Ca3  1  0.17075568  0.59339254  0.16894393  1
  Ca2+  Ca4  1  0.16930657  0.59206906  0.50585318  1
  Ca2+  Ca5  1  0.17590670  0.59349380  0.83920127  1
  Ca2+  Ca6  1  0.67085250  0.07683652  0.18154886  1
  Ca2+  Ca7  1  0.67182596  0.08116944  0.50274059  1
  Ca2+  Ca8  1  0.67173063  0.08767086  0.83266688  1
  Ca2+  Ca9  1  0.66500030  0.57429812  0.17339794  1
  Ca2+  Ca10  1  0.67084544  0.58265256  0.50153428  1
  Ca2+  Ca11  1  0.66047167  0.58183005  0.84254310  1
  Ca2+  Ca12  1  0.08378753  0.31948085  0.16354668  1
  Ca2+  Ca13  1  0.07992713  0.32702466  0.49028729  1
  Ca2+  Ca14  1  0.08510276  0.32542514  0.83407549  1
  Ca2+  Ca15  1  0.08281454  0.83126306  0.16514006  1
  Ca2+  Ca16  1  0.07452761  0.82761813  0.49286382  1
  Ca2+  Ca17  1  0.08373913  0.82565638  0.83087249  1
  Ca2+  Ca18  1  0.58475339  0.33209982  0.16381321  1
  Ca2+  Ca19  1  0.58755408  0.32230781  0.49424755  1
  Ca2+  Ca20  1  0.57931875  0.33474856  0.83247628  1
  Ca2+  Ca21  1  0.57771094  0.83208465  0.15950452  1
  Ca2+  Ca22  1  0.58686962  0.83044914  0.49486059  1
  Ca2+  Ca23  1  0.57709964  0.82188966  0.83017074  1
  Ca2+  Ca24  1  0.33750740  0.42108553  0.16525937  1
  Ca2+  Ca25  1  0.32855678  0.42284653  0.50491016  1
  Ca2+  Ca26  1  0.33824457  0.42793301  0.84000659  1
  Ca2+  Ca27  1  0.32287416  0.91572151  0.17265842  1
  Ca2+  Ca28  1  0.32793228  0.92033189  0.49658401  1
  Ca2+  Ca29  1  0.32729480  0.91328290  0.84285657  1
  Ca2+  Ca30  1  0.82285577  0.42360693  0.17373626  1
  Ca2+  Ca31  1  0.83104000  0.42141690  0.49703275  1
  Ca2+  Ca32  1  0.82389686  0.42055906  0.84119876  1
  Ca2+  Ca33  1  0.82727898  0.91775733  0.17821619  1
  Ca2+  Ca34  1  0.84040872  0.92302129  0.49966749  1
  Ca2+  Ca35  1  0.83834447  0.91866882  0.83085965  1
  Ca2+  Ca36  1  0.41916530  0.16948060  0.16410881  1
  Ca2+  Ca37  1  0.42654276  0.16193441  0.49066080  1
  Ca2+  Ca38  1  0.42246221  0.17539699  0.82867475  1
  Ca2+  Ca39  1  0.42109782  0.67299869  0.15449320  1
  Ca2+  Ca40  1  0.42066220  0.66303155  0.50131839  1
  Ca2+  Ca41  1  0.42046724  0.66373521  0.83374969  1
  Ca2+  Ca42  1  0.92728341  0.15393477  0.16820193  1
  Ca2+  Ca43  1  0.91557099  0.16262876  0.49219851  1
  Ca2+  Ca44  1  0.91985864  0.16363938  0.83080475  1
  Ca2+  Ca45  1  0.92344376  0.66753958  0.16614390  1
  Ca2+  Ca46  1  0.92266730  0.67484429  0.48778132  1
  Ca2+  Ca47  1  0.92950826  0.67267446  0.82278898  1
  Al0+  Al48  1  0.00133587  -0.00055533  -0.00049069  1
  Al0+  Al49  1  -0.00044313  -0.00240448  0.33333627  1
  Al0+  Al50  1  -0.00026714  0.00011413  0.66935818  1
  Al0+  Al51  1  0.00077714  0.49800545  -0.00437608  1
  Al0+  Al52  1  0.00089883  0.49941764  0.33158258  1
  Al0+  Al53  1  0.00016717  0.49700273  0.66586031  1
  Al0+  Al54  1  0.50104267  0.00091642  -0.00568880  1
  Al0+  Al55  1  0.49958082  -0.00008870  0.33539517  1
  Al0+  Al56  1  0.50069556  0.00008926  0.66575682  1
  Al0+  Al57  1  0.49960296  0.49791353  0.00288298  1
  Al0+  Al58  1  0.49872809  0.49849638  0.33892977  1
  Al0+  Al59  1  0.49762590  0.50042421  0.66536678  1
  Al0+  Al60  1  0.25128510  0.25096657  -0.00992472  1
  Al0+  Al61  1  0.25105505  0.25222681  0.33338014  1
  Al0+  Al62  1  0.24996956  0.25030315  0.66727300  1
  Al0+  Al63  1  0.24925559  0.75150462  0.00235700  1
  Al0+  Al64  1  0.25094510  0.75103519  0.33652710  1
  Al0+  Al65  1  0.25117876  0.75083970  0.66769408  1
  Al0+  Al66  1  0.75202835  0.25118118  0.00535022  1
  Al0+  Al67  1  0.74854959  0.25090110  0.33459264  1
  Al0+  Al68  1  0.75046471  0.24945068  0.66880466  1
  Al0+  Al69  1  0.75160214  0.75163183  -0.00340843  1
  Al0+  Al70  1  0.75039871  0.74815630  0.33517013  1
  Al0+  Al71  1  0.74896214  0.75165284  0.66120543  1
  Al0+  Al72  1  0.43043801  0.32002367  0.98629606  1
  Al0+  Al73  1  0.67667397  0.42914508  0.35131838  1
  Al0+  Al74  1  0.56943466  0.67804510  0.65158775  1
  Al0+  Al75  1  0.82259624  0.57038454  0.34792862  1
  Al0+  Al76  1  0.31849495  0.56957776  0.01494059  1
  Al0+  Al77  1  0.57093124  0.18036033  0.65293027  1
  Al0+  Al78  1  0.07235506  0.67820803  0.65173610  1
  Al0+  Al79  1  0.67656934  0.92689882  0.34772346  1
  Al0+  Al80  1  0.57134725  0.67864436  0.98823251  1
  Al0+  Al81  1  0.07009306  0.67828150  0.98624322  1
  Al0+  Al82  1  0.82089758  0.06992170  0.34712531  1
  Al0+  Al83  1  0.06992086  0.17813088  0.98598860  1
  Al0+  Al84  1  0.18026161  0.93009484  0.01458047  1
  Al0+  Al85  1  0.17844725  0.92808818  0.35050489  1
  Al0+  Al86  1  0.57089388  0.17877589  0.31932558  1
  Al0+  Al87  1  0.31879424  0.57001680  0.68183682  1
  Al0+  Al88  1  0.07315027  0.67820172  0.31683872  1
  Al0+  Al89  1  0.92752275  0.82046429  0.31597395  1
  Al0+  Al90  1  0.42788180  0.82260846  0.98598958  1
  Al0+  Al91  1  0.32024359  0.07375151  0.34699662  1
  Al0+  Al92  1  0.92946876  0.82225734  0.65040635  1
  Al0+  Al93  1  0.07085368  0.17923250  0.32133894  1
  Al0+  Al94  1  0.67909275  0.43054523  0.01404949  1
  Al0+  Al95  1  0.82000362  0.07021246  0.68249755  1
  Si0+  Si96  1  0.92693657  0.32122532  0.98277760  1
  Si0+  Si97  1  0.42742347  0.32179492  0.64818255  1
  Si0+  Si98  1  0.92703011  0.32277324  0.31552406  1
  Si0+  Si99  1  0.32023828  0.57164575  0.34867383  1
  Si0+  Si100  1  0.18097836  0.93234804  0.68289379  1
  Si0+  Si101  1  0.42793204  0.32355341  0.31664368  1
  Si0+  Si102  1  0.67825995  0.92881923  0.01234975  1
  Si0+  Si103  1  0.42977469  0.82043761  0.31953375  1
  Si0+  Si104  1  0.32372084  0.07296274  0.68308985  1
  Si0+  Si105  1  0.92737355  0.82298941  0.98221049  1
  Si0+  Si106  1  0.17925109  0.42835032  0.34647146  1
  Si0+  Si107  1  0.82159394  0.57281468  0.68123341  1
  Si0+  Si108  1  0.82056406  0.07026591  0.01522516  1
  Si0+  Si109  1  0.17672871  0.42517261  0.01663119  1
  Si0+  Si110  1  0.17581582  0.42463329  0.68518428  1
  Si0+  Si111  1  0.92806019  0.32019618  0.65192811  1
  Si0+  Si112  1  0.32383964  0.07476685  0.01348931  1
  Si0+  Si113  1  0.82481836  0.57366664  0.01372515  1
  Si0+  Si114  1  0.57564671  0.17777864  0.98368236  1
  Si0+  Si115  1  0.07101445  0.17946245  0.65223437  1
  Si0+  Si116  1  0.68062448  0.43060033  0.68213765  1
  Si0+  Si117  1  0.56974160  0.67670431  0.31980221  1
  Si0+  Si118  1  0.67553751  0.92643229  0.68644923  1
  Si0+  Si119  1  0.42754045  0.82325048  0.64829851  1
  O2-  O120  1  0.25701201  0.00484952  0.05782559  1
  O2-  O121  1  0.24706310  0.00439461  0.39964012  1
  O2-  O122  1  0.25263570  0.00281961  0.72625968  1
  O2-  O123  1  0.24125151  0.49707134  0.06201793  1
  O2-  O124  1  0.24540787  0.50368302  0.38912486  1
  O2-  O125  1  0.24128617  0.49712957  0.72779461  1
  O2-  O126  1  0.74718914  0.00132774  0.05525303  1
  O2-  O127  1  0.74886902  -0.00140945  0.39815021  1
  O2-  O128  1  0.74545244  -0.00483410  0.72995940  1
  O2-  O129  1  0.75219245  0.50858211  0.05726200  1
  O2-  O130  1  0.74914942  0.50089800  0.40062157  1
  O2-  O131  1  0.74779076  0.50509865  0.72537201  1
  O2-  O132  1  -0.00719465  0.25014358  0.27305328  1
  O2-  O133  1  0.00230604  0.25230558  0.61048358  1
  O2-  O134  1  -0.00432845  0.25271533  0.93779068  1
  O2-  O135  1  0.00055860  0.74908113  0.26652763  1
  O2-  O136  1  -0.00353815  0.74510458  0.60157757  1
  O2-  O137  1  -0.00724460  0.75018556  0.93968359  1
  O2-  O138  1  0.49617625  0.25399525  0.27352393  1
  O2-  O139  1  0.49334529  0.25099261  0.60425851  1
  O2-  O140  1  0.50535040  0.24517388  0.93986281  1
  O2-  O141  1  0.50209262  0.75051046  0.27768545  1
  O2-  O142  1  0.49752339  0.75552399  0.60448513  1
  O2-  O143  1  0.49975816  0.75018758  0.93639207  1
  O2-  O144  1  0.06906572  0.17789512  0.09872434  1
  O2-  O145  1  0.07125582  0.18413083  0.43496502  1
  O2-  O146  1  0.07037074  0.17992313  0.75758821  1
  O2-  O147  1  0.06903525  0.67928517  0.09874624  1
  O2-  O148  1  0.07355763  0.67873693  0.43036995  1
  O2-  O149  1  0.07292003  0.68121949  0.76563012  1
  O2-  O150  1  0.57604273  0.17643386  0.08883735  1
  O2-  O151  1  0.56959544  0.18019846  0.43261597  1
  O2-  O152  1  0.57043965  0.18471462  0.76652163  1
  O2-  O153  1  0.57065250  0.68089321  0.10203956  1
  O2-  O154  1  0.56559446  0.67554912  0.42511098  1
  O2-  O155  1  0.56785663  0.67650519  0.76461657  1
  O2-  O156  1  0.18210279  0.42428336  0.24174763  1
  O2-  O157  1  0.17746082  0.41892072  0.57959301  1
  O2-  O158  1  0.17840546  0.42399961  0.91092510  1
  O2-  O159  1  0.18195639  0.92715762  0.23690442  1
  O2-  O160  1  0.18122973  0.93470339  0.57829176  1
  O2-  O161  1  0.17934947  0.93209319  0.90060533  1
  O2-  O162  1  0.67502766  0.43198949  0.23762732  1
  O2-  O163  1  0.68340306  0.42936610  0.57762146  1
  O2-  O164  1  0.68110799  0.42924237  0.90004956  1
  O2-  O165  1  0.67518382  0.92893990  0.23319460  1
  O2-  O166  1  0.67188422  0.92793591  0.58161330  1
  O2-  O167  1  0.67914008  0.92885255  0.90730315  1
  O2-  O168  1  0.43020501  0.31855423  0.09918277  1
  O2-  O169  1  0.42692017  0.32537848  0.42227451  1
  O2-  O170  1  0.42907964  0.32199898  0.75396855  1
  O2-  O171  1  0.43046304  0.82273019  0.09985489  1
  O2-  O172  1  0.42819977  0.81775717  0.42482733  1
  O2-  O173  1  0.42707783  0.82354331  0.75386623  1
  O2-  O174  1  0.92620553  0.32140817  0.08768419  1
  O2-  O175  1  0.93071708  0.32469962  0.42173422  1
  O2-  O176  1  0.92708501  0.31955586  0.75718714  1
  O2-  O177  1  0.92539535  0.82508931  0.08708491  1
  O2-  O178  1  0.92977904  0.82024489  0.42938197  1
  O2-  O179  1  0.93354065  0.82189009  0.76471792  1
  O2-  O180  1  0.31965004  0.07307857  0.23318246  1
  O2-  O181  1  0.32246160  0.07391423  0.57848271  1
  O2-  O182  1  0.32163448  0.07400489  0.90724776  1
  O2-  O183  1  0.32318699  0.57091947  0.24380416  1
  O2-  O184  1  0.31880459  0.56667385  0.56824449  1
  O2-  O185  1  0.31888791  0.56788899  0.90179880  1
  O2-  O186  1  0.81922027  0.06836475  0.23291692  1
  O2-  O187  1  0.82022261  0.07267463  0.57051294  1
  O2-  O188  1  0.82027116  0.07100558  0.90970427  1
  O2-  O189  1  0.82138721  0.56781248  0.23393760  1
  O2-  O190  1  0.82213258  0.56869052  0.57674909  1
  O2-  O191  1  0.82506015  0.57067634  0.90753789  1
  O2-  O192  1  0.04291718  0.08214960  0.26794951  1
  O2-  O193  1  0.04127491  0.08839894  0.60641974  1
  O2-  O194  1  0.03655194  0.08306809  0.92990886  1
  O2-  O195  1  0.04835000  0.57789607  0.26554692  1
  O2-  O196  1  0.05151080  0.57532956  0.60440345  1
  O2-  O197  1  0.04585806  0.57965002  0.93179508  1
  O2-  O198  1  0.53943980  0.08202082  0.26572824  1
  O2-  O199  1  0.54372308  0.08201849  0.60142889  1
  O2-  O200  1  0.55256291  0.08492266  0.93472261  1
  O2-  O201  1  0.53713392  0.58562758  0.27373695  1
  O2-  O202  1  0.53506929  0.58277582  0.59666161  1
  O2-  O203  1  0.54166452  0.58045287  0.93645221  1
  O2-  O204  1  0.16616404  0.21472515  0.26755113  1
  O2-  O205  1  0.16404752  0.20512375  0.60614264  1
  O2-  O206  1  0.16502376  0.20854321  0.92858427  1
  O2-  O207  1  0.17294196  0.70817056  0.26711077  1
  O2-  O208  1  0.17035930  0.71005075  0.60054611  1
  O2-  O209  1  0.16549386  0.71380630  0.93350776  1
  O2-  O210  1  0.66728344  0.20984181  0.26501759  1
  O2-  O211  1  0.66697739  0.21457541  0.60074426  1
  O2-  O212  1  0.66898789  0.20703973  0.93862963  1
  O2-  O213  1  0.66331366  0.69794742  0.27463807  1
  O2-  O214  1  0.66665592  0.70538416  0.59791078  1
  O2-  O215  1  0.67010572  0.70543307  0.93394722  1
  O2-  O216  1  0.08056839  0.44445736  0.05968623  1
  O2-  O217  1  0.08616793  0.45005802  0.39381169  1
  O2-  O218  1  0.08011075  0.44368021  0.73002971  1
  O2-  O219  1  0.08391027  0.96307506  0.06752018  1
  O2-  O220  1  0.08025709  0.95528755  0.40257698  1
  O2-  O221  1  0.09037827  0.96205020  0.73153944  1
  O2-  O222  1  0.58326540  0.45789856  0.06981420  1
  O2-  O223  1  0.57882152  0.45719183  0.40622688  1
  O2-  O224  1  0.58641627  0.45562356  0.72621589  1
  O2-  O225  1  0.58522778  0.95487580  0.05859326  1
  O2-  O226  1  0.57910534  0.95472492  0.40239498  1
  O2-  O227  1  0.58218340  0.95384943  0.73343608  1
  O2-  O228  1  0.20789212  0.33220729  0.06121830  1
  O2-  O229  1  0.21134785  0.34027379  0.39919406  1
  O2-  O230  1  0.20515605  0.33218233  0.73339960  1
  O2-  O231  1  0.21047103  0.83498674  0.07011617  1
  O2-  O232  1  0.21357930  0.83247470  0.40582986  1
  O2-  O233  1  0.20970835  0.84036639  0.72953384  1
  O2-  O234  1  0.71258308  0.33505877  0.06942040  1
  O2-  O235  1  0.70679071  0.33141355  0.40357469  1
  O2-  O236  1  0.71254949  0.34076709  0.73119926  1
  O2-  O237  1  0.70611999  0.83712920  0.06027165  1
  O2-  O238  1  0.70095357  0.82742787  0.39910499  1
  O2-  O239  1  0.70172967  0.83210901  0.73163953  1
  O2-  O240  1  0.45548219  0.41696758  0.27048891  1
  O2-  O241  1  0.45387356  0.41440887  0.60182500  1
  O2-  O242  1  0.46391984  0.41508452  0.93112123  1
  O2-  O243  1  0.45502344  0.91230370  0.27210328  1
  O2-  O244  1  0.45114958  0.91759314  0.60313531  1
  O2-  O245  1  0.45481431  0.92074174  0.93019387  1
  O2-  O246  1  0.95720608  0.41360337  0.26702161  1
  O2-  O247  1  0.95312784  0.41196015  0.60311963  1
  O2-  O248  1  0.95145391  0.41377688  0.93343495  1
  O2-  O249  1  0.95469466  0.91921286  0.26349482  1
  O2-  O250  1  0.96308561  0.92013815  0.59969321  1
  O2-  O251  1  0.95813548  0.91467245  0.93485791  1
  O2-  O252  1  0.33466483  0.29964624  0.26949141  1
  O2-  O253  1  0.33208332  0.29836194  0.60418729  1
  O2-  O254  1  0.33577344  0.29240656  0.92623955  1
  O2-  O255  1  0.33899227  0.79000325  0.27208578  1
  O2-  O256  1  0.33504643  0.79530560  0.60187437  1
  O2-  O257  1  0.33020441  0.79330606  0.93333521  1
  O2-  O258  1  0.83200088  0.30166467  0.27178840  1
  O2-  O259  1  0.83794063  0.28951721  0.60392708  1
  O2-  O260  1  0.83400818  0.29305536  0.93537824  1
  O2-  O261  1  0.82819930  0.79124499  0.26387262  1
  O2-  O262  1  0.82833053  0.80306818  0.60103325  1
  O2-  O263  1  0.83338474  0.80247697  0.93413894  1
  O2-  O264  1  0.41977656  0.05302836  0.05643481  1
  O2-  O265  1  0.41630799  0.04057905  0.40147960  1
  O2-  O266  1  0.41590099  0.04650038  0.73054875  1
  O2-  O267  1  0.41377124  0.53583350  0.06945374  1
  O2-  O268  1  0.40911661  0.53937483  0.39928091  1
  O2-  O269  1  0.41510666  0.53565643  0.73545330  1
  O2-  O270  1  0.91197744  0.03975145  0.06090689  1
  O2-  O271  1  0.91932175  0.04313012  0.40061526  1
  O2-  O272  1  0.91697768  0.03949909  0.73802649  1
  O2-  O273  1  0.91679281  0.54281493  0.06000981  1
  O2-  O274  1  0.92057977  0.53872450  0.40125773  1
  O2-  O275  1  0.91276518  0.54105071  0.72895555  1
  O2-  O276  1  0.29714807  0.16885458  0.05687988  1
  O2-  O277  1  0.29560938  0.17312717  0.40079021  1
  O2-  O278  1  0.29640520  0.16586259  0.72974753  1
  O2-  O279  1  0.28994228  0.66657743  0.06862400  1
  O2-  O280  1  0.29592867  0.66309232  0.39802549  1
  O2-  O281  1  0.29223263  0.66849152  0.73487974  1
  O2-  O282  1  0.79772726  0.16284568  0.06261656  1
  O2-  O283  1  0.79591201  0.16991814  0.39792753  1
  O2-  O284  1  0.78828906  0.16676613  0.73837709  1
  O2-  O285  1  0.80449079  0.66946127  0.05686228  1
  O2-  O286  1  0.79500562  0.66772908  0.40187294  1
  O2-  O287  1  0.79734282  0.66663628  0.72601019  1
