# generated using pymatgen
data_Ca2Al2SiO7
_symmetry_space_group_name_H-M   'P 1'
_cell_length_a   15.45913808
_cell_length_b   15.45996588
_cell_length_c   15.28512475
_cell_angle_alpha   90.00334746
_cell_angle_beta   90.00402341
_cell_angle_gamma   90.00332881
_symmetry_Int_Tables_number   1
_chemical_formula_structural   Ca2Al2SiO7
_chemical_formula_sum   'Ca48 Al48 Si24 O168'
_cell_volume   3653.11036240
_cell_formula_units_Z   24
loop_
 _symmetry_equiv_pos_site_id
 _symmetry_equiv_pos_as_xyz
  1  'x, y, z'
loop_
 _atom_type_symbol
 _atom_type_oxidation_number
  Ca2+  2.0
  Al0+  0.0
  Si0+  0.0
  O2-  -2.0
loop_
 _atom_site_type_symbol
 _atom_site_label
 _atom_site_symmetry_multiplicity
 _atom_site_fract_x
 _atom_site_fract_y
 _atom_site_fract_z
 _atom_site_occupancy
  Ca2+  Ca0  1  0.17591429  0.08030641  0.17774622  1
  Ca2+  Ca1  1  0.16759782  0.07026914  0.50028425  1
  Ca2+  Ca2  1  0.17483574  0.07477387  0.83820122  1
  Ca2+  Ca3  1  0.16784846  0.59250010  0.16639176  1
  Ca2+  Ca4  1  0.16386988  0.58992961  0.50562073  1
  Ca2+  Ca5  1  0.17178246  0.58854592  0.83882763  1
  Ca2+  Ca6  1  0.67843396  0.07701517  0.16771434  1
  Ca2+  Ca7  1  0.67036819  0.08505496  0.50268808  1
  Ca2+  Ca8  1  0.66727714  0.07919330  0.84079919  1
  Ca2+  Ca9  1  0.66211550  0.57004364  0.17143005  1
  Ca2+  Ca10  1  0.66906044  0.57682331  0.51063362  1
  Ca2+  Ca11  1  0.66037760  0.57638660  0.83611881  1
  Ca2+  Ca12  1  0.08351054  0.32424150  0.16464192  1
  Ca2+  Ca13  1  0.08028318  0.32511256  0.49181899  1
  Ca2+  Ca14  1  0.08124368  0.33015985  0.82953182  1
  Ca2+  Ca15  1  0.07669649  0.83258475  0.16526277  1
  Ca2+  Ca16  1  0.08428157  0.82714767  0.49173685  1
  Ca2+  Ca17  1  0.08090180  0.82588332  0.82962643  1
  Ca2+  Ca18  1  0.58194475  0.33379892  0.15960173  1
  Ca2+  Ca19  1  0.58507229  0.33398750  0.50183209  1
  Ca2+  Ca20  1  0.57726862  0.33336470  0.82597124  1
  Ca2+  Ca21  1  0.57887456  0.83918831  0.16305738  1
  Ca2+  Ca22  1  0.57326426  0.83178465  0.49680221  1
  Ca2+  Ca23  1  0.57746790  0.83219944  0.82374619  1
  Ca2+  Ca24  1  0.33684384  0.42353933  0.16575334  1
  Ca2+  Ca25  1  0.33171006  0.41674430  0.50487969  1
  Ca2+  Ca26  1  0.34042924  0.42116322  0.84089670  1
  Ca2+  Ca27  1  0.33007597  0.92746184  0.17792068  1
  Ca2+  Ca28  1  0.32523061  0.90882233  0.50244719  1
  Ca2+  Ca29  1  0.32988430  0.91560633  0.83728391  1
  Ca2+  Ca30  1  0.81977552  0.41475379  0.17256547  1
  Ca2+  Ca31  1  0.82288466  0.42341452  0.50828400  1
  Ca2+  Ca32  1  0.82114175  0.42436051  0.83452308  1
  Ca2+  Ca33  1  0.83832020  0.91875196  0.16904611  1
  Ca2+  Ca34  1  0.84464124  0.92197856  0.49895669  1
  Ca2+  Ca35  1  0.82536601  0.91983117  0.84449437  1
  Ca2+  Ca36  1  0.41148222  0.17094281  0.15820614  1
  Ca2+  Ca37  1  0.42003570  0.16906567  0.49804321  1
  Ca2+  Ca38  1  0.42099039  0.17569007  0.82661883  1
  Ca2+  Ca39  1  0.41278179  0.67377325  0.16400375  1
  Ca2+  Ca40  1  0.41905011  0.67828105  0.50104487  1
  Ca2+  Ca41  1  0.42203907  0.66987010  0.82544394  1
  Ca2+  Ca42  1  0.92054569  0.15443845  0.16641614  1
  Ca2+  Ca43  1  0.92116881  0.16534635  0.49011481  1
  Ca2+  Ca44  1  0.91168437  0.16599413  0.83278892  1
  Ca2+  Ca45  1  0.92707813  0.67723279  0.15868830  1
  Ca2+  Ca46  1  0.92500621  0.66824001  0.49240626  1
  Ca2+  Ca47  1  0.92408623  0.66631246  0.82740080  1
  Al0+  Al48  1  0.00067608  -0.00127682  -0.00379807  1
  Al0+  Al49  1  0.00196985  -0.00013735  0.33357198  1
  Al0+  Al50  1  0.00247573  -0.00095433  0.67471866  1
  Al0+  Al51  1  0.00037365  0.49738720  -0.00374624  1
  Al0+  Al52  1  -0.00061883  0.49848318  0.32722719  1
  Al0+  Al53  1  -0.00062973  0.49899548  0.66704389  1
  Al0+  Al54  1  0.50047175  0.00150404  0.00627122  1
  Al0+  Al55  1  0.50241931  0.00304301  0.33248341  1
  Al0+  Al56  1  0.49954557  0.00355813  0.65833900  1
  Al0+  Al57  1  0.49744532  0.50034863  0.00587320  1
  Al0+  Al58  1  0.49805701  0.49887537  0.33932469  1
  Al0+  Al59  1  0.49854007  0.50002745  0.66188183  1
  Al0+  Al60  1  0.24944518  0.25175053  -0.00241600  1
  Al0+  Al61  1  0.25076759  0.25166359  0.33311935  1
  Al0+  Al62  1  0.24961016  0.24880385  0.66323981  1
  Al0+  Al63  1  0.25037661  0.74956416  0.00086938  1
  Al0+  Al64  1  0.25292220  0.75030001  0.32908879  1
  Al0+  Al65  1  0.24732769  0.74959957  0.66580252  1
  Al0+  Al66  1  0.75099402  0.24858631  0.00715976  1
  Al0+  Al67  1  0.74781209  0.24948938  0.34162811  1
  Al0+  Al68  1  0.74980679  0.25186837  0.66753838  1
  Al0+  Al69  1  0.74927168  0.74860388  0.00090373  1
  Al0+  Al70  1  0.74935883  0.74762341  0.32903997  1
  Al0+  Al71  1  0.75262669  0.75265413  0.66597443  1
  Al0+  Al72  1  0.31988869  0.07260679  0.01149070  1
  Al0+  Al73  1  0.06823777  0.67874800  0.65289111  1
  Al0+  Al74  1  0.67764754  0.42965033  0.35052983  1
  Al0+  Al75  1  0.42977969  0.32132625  0.98761628  1
  Al0+  Al76  1  0.07249055  0.67657806  0.31661039  1
  Al0+  Al77  1  0.42761768  0.82207275  0.65339457  1
  Al0+  Al78  1  0.57320642  0.17990214  0.65107291  1
  Al0+  Al79  1  0.57419075  0.67938889  0.65300818  1
  Al0+  Al80  1  0.82288139  0.57409332  0.68142414  1
  Al0+  Al81  1  0.18179961  0.92871506  0.34791961  1
  Al0+  Al82  1  0.92796436  0.82133661  0.31835848  1
  Al0+  Al83  1  0.43182197  0.82216263  0.31794299  1
  Al0+  Al84  1  0.82254634  0.06980509  0.01493483  1
  Al0+  Al85  1  0.67762131  0.92539586  0.01400900  1
  Al0+  Al86  1  0.67923718  0.43086748  0.01377156  1
  Al0+  Al87  1  0.67735846  0.43088055  0.68406192  1
  Al0+  Al88  1  0.31941665  0.57106747  0.01317709  1
  Al0+  Al89  1  0.07091923  0.17997040  0.32052705  1
  Al0+  Al90  1  0.07170550  0.67858094  0.98194634  1
  Al0+  Al91  1  0.92738676  0.82193207  0.98173469  1
  Al0+  Al92  1  0.18060157  0.92768564  0.68314688  1
  Al0+  Al93  1  0.32390620  0.07497479  0.35069299  1
  Al0+  Al94  1  0.42742994  0.32195469  0.65005612  1
  Al0+  Al95  1  0.82061778  0.06725515  0.34832705  1
  Si0+  Si96  1  0.92666498  0.31998771  0.98436150  1
  Si0+  Si97  1  0.42943232  0.32133625  0.31660477  1
  Si0+  Si98  1  0.07029683  0.17727926  0.65259624  1
  Si0+  Si99  1  0.82290269  0.57112542  0.34783108  1
  Si0+  Si100  1  0.17573926  0.42690125  0.01656260  1
  Si0+  Si101  1  0.17806378  0.42550598  0.68044540  1
  Si0+  Si102  1  0.57287662  0.17856624  0.98596745  1
  Si0+  Si103  1  0.57346089  0.18050791  0.31585650  1
  Si0+  Si104  1  0.17982592  0.92798154  0.01714342  1
  Si0+  Si105  1  0.57008937  0.67562117  0.31646100  1
  Si0+  Si106  1  0.92979773  0.31964650  0.65231473  1
  Si0+  Si107  1  0.31925817  0.57078009  0.35026200  1
  Si0+  Si108  1  0.92873922  0.82494806  0.65062668  1
  Si0+  Si109  1  0.17748519  0.42909391  0.34691549  1
  Si0+  Si110  1  0.07175650  0.17933967  0.98350996  1
  Si0+  Si111  1  0.82467676  0.57122995  0.01751279  1
  Si0+  Si112  1  0.67749010  0.92525719  0.35118740  1
  Si0+  Si113  1  0.92578018  0.32018211  0.31678996  1
  Si0+  Si114  1  0.82173224  0.07114167  0.68125373  1
  Si0+  Si115  1  0.56926605  0.67757123  0.98841208  1
  Si0+  Si116  1  0.31818042  0.56943738  0.67994273  1
  Si0+  Si117  1  0.67679325  0.93079101  0.67820869  1
  Si0+  Si118  1  0.32258988  0.07337620  0.68324470  1
  Si0+  Si119  1  0.43081811  0.82332681  0.98675958  1
  O2-  O120  1  0.24709326  -0.00189660  0.06060238  1
  O2-  O121  1  0.25557832  -0.00104447  0.39952442  1
  O2-  O122  1  0.25823362  0.00083377  0.72811956  1
  O2-  O123  1  0.24139251  0.49906425  0.05961001  1
  O2-  O124  1  0.24272322  0.50446621  0.39067233  1
  O2-  O125  1  0.25027100  0.49512094  0.72231945  1
  O2-  O126  1  0.75421546  -0.00653786  0.06312280  1
  O2-  O127  1  0.74976961  -0.01026808  0.39669708  1
  O2-  O128  1  0.74851972  0.00144960  0.72089322  1
  O2-  O129  1  0.75438061  0.50426603  0.06241908  1
  O2-  O130  1  0.75275694  0.50508246  0.39391475  1
  O2-  O131  1  0.74527078  0.50792511  0.73246923  1
  O2-  O132  1  -0.00585482  0.25179168  0.27146832  1
  O2-  O133  1  -0.00083958  0.24750708  0.60959053  1
  O2-  O134  1  -0.00228638  0.24817733  0.94195517  1
  O2-  O135  1  -0.00049051  0.74841123  0.26901221  1
  O2-  O136  1  -0.00752035  0.75173883  0.60663911  1
  O2-  O137  1  -0.00236692  0.74808699  0.93155313  1
  O2-  O138  1  0.49874920  0.24867209  0.27451883  1
  O2-  O139  1  0.50085506  0.25157372  0.60020706  1
  O2-  O140  1  0.50413069  0.24674615  0.94119177  1
  O2-  O141  1  0.50788625  0.74903544  0.27008507  1
  O2-  O142  1  0.50360009  0.75343165  0.60404712  1
  O2-  O143  1  0.50447560  0.75442377  0.94581853  1
  O2-  O144  1  0.07367412  0.18170777  0.08844959  1
  O2-  O145  1  0.06875272  0.18287582  0.43404848  1
  O2-  O146  1  0.06994225  0.17976250  0.75808464  1
  O2-  O147  1  0.07154033  0.68026975  0.09506512  1
  O2-  O148  1  0.07002398  0.67488628  0.43041798  1
  O2-  O149  1  0.07043997  0.67896673  0.76551338  1
  O2-  O150  1  0.57272734  0.18052541  0.09162090  1
  O2-  O151  1  0.57539769  0.18278015  0.42077585  1
  O2-  O152  1  0.57291984  0.17892825  0.76503413  1
  O2-  O153  1  0.56469417  0.67489777  0.09347489  1
  O2-  O154  1  0.56727373  0.67516131  0.42179493  1
  O2-  O155  1  0.56943907  0.68002123  0.76737381  1
  O2-  O156  1  0.18066711  0.42562015  0.24206321  1
  O2-  O157  1  0.17714500  0.42477407  0.57516828  1
  O2-  O158  1  0.17639802  0.42356521  0.91078472  1
  O2-  O159  1  0.18284525  0.93173054  0.23414408  1
  O2-  O160  1  0.17747502  0.92889751  0.57060235  1
  O2-  O161  1  0.18265543  0.92853583  0.91110543  1
  O2-  O162  1  0.67704971  0.42999471  0.23685116  1
  O2-  O163  1  0.68218733  0.42970497  0.57064343  1
  O2-  O164  1  0.67840328  0.43192005  0.90119980  1
  O2-  O165  1  0.67592459  0.92924654  0.24582900  1
  O2-  O166  1  0.67746258  0.93155715  0.57335947  1
  O2-  O167  1  0.67377154  0.92963371  0.89973064  1
  O2-  O168  1  0.43069190  0.32116534  0.10103833  1
  O2-  O169  1  0.42881146  0.32261789  0.42143030  1
  O2-  O170  1  0.42596451  0.32056927  0.76381873  1
  O2-  O171  1  0.43052395  0.82246061  0.09178195  1
  O2-  O172  1  0.43105010  0.81796005  0.43083258  1
  O2-  O173  1  0.42876982  0.82053142  0.76777881  1
  O2-  O174  1  0.92767091  0.32152617  0.08924118  1
  O2-  O175  1  0.92918534  0.32030293  0.42271829  1
  O2-  O176  1  0.93088845  0.31790450  0.75780039  1
  O2-  O177  1  0.93106604  0.82256711  0.09501595  1
  O2-  O178  1  0.92953131  0.81992905  0.43237703  1
  O2-  O179  1  0.93094558  0.82762898  0.75585831  1
  O2-  O180  1  0.32009427  0.07654064  0.23661417  1
  O2-  O181  1  0.31820321  0.07666642  0.57823671  1
  O2-  O182  1  0.31873142  0.07150449  0.89823774  1
  O2-  O183  1  0.32259042  0.56815521  0.24513707  1
  O2-  O184  1  0.31500161  0.56967475  0.57461592  1
  O2-  O185  1  0.32159565  0.56976712  0.89982855  1
  O2-  O186  1  0.81876034  0.06898660  0.23584859  1
  O2-  O187  1  0.82563500  0.07051304  0.57635505  1
  O2-  O188  1  0.81812179  0.07298729  0.90075930  1
  O2-  O189  1  0.82195915  0.56712311  0.24228852  1
  O2-  O190  1  0.82608633  0.56786097  0.56779990  1
  O2-  O191  1  0.82443817  0.56837700  0.91200781  1
  O2-  O192  1  0.04205436  0.08419417  0.26575129  1
  O2-  O193  1  0.04102033  0.08518015  0.60766455  1
  O2-  O194  1  0.04710079  0.08729847  0.93520199  1
  O2-  O195  1  0.04681444  0.57708316  0.26287709  1
  O2-  O196  1  0.04188332  0.57992961  0.60007535  1
  O2-  O197  1  0.04832782  0.57668659  0.93231505  1
  O2-  O198  1  0.55161550  0.08739634  0.26906027  1
  O2-  O199  1  0.54676623  0.08322779  0.59361719  1
  O2-  O200  1  0.54662399  0.08469707  0.94054225  1
  O2-  O201  1  0.53610309  0.58360774  0.27111935  1
  O2-  O202  1  0.54320691  0.58278580  0.59889065  1
  O2-  O203  1  0.53345054  0.58908900  0.93965946  1
  O2-  O204  1  0.16588159  0.21592289  0.26569591  1
  O2-  O205  1  0.16094552  0.20505493  0.60416357  1
  O2-  O206  1  0.16061075  0.21209484  0.93302948  1
  O2-  O207  1  0.17154366  0.70411246  0.26566773  1
  O2-  O208  1  0.16409735  0.71035389  0.59878799  1
  O2-  O209  1  0.17127145  0.70886060  0.93087555  1
  O2-  O210  1  0.66405550  0.21330883  0.26901431  1
  O2-  O211  1  0.67206048  0.20879912  0.59793821  1
  O2-  O212  1  0.66728343  0.20370597  0.94148143  1
  O2-  O213  1  0.66594318  0.69175430  0.27174956  1
  O2-  O214  1  0.67347178  0.70500449  0.60036513  1
  O2-  O215  1  0.66381623  0.69504426  0.94296792  1
  O2-  O216  1  0.08071224  0.44685650  0.06201441  1
  O2-  O217  1  0.08269573  0.44953739  0.39223019  1
  O2-  O218  1  0.08674882  0.45262235  0.72889898  1
  O2-  O219  1  0.08529306  0.95373086  0.05918078  1
  O2-  O220  1  0.08439546  0.95928923  0.40132416  1
  O2-  O221  1  0.08680833  0.96297496  0.74107843  1
  O2-  O222  1  0.58428637  0.46351472  0.07000842  1
  O2-  O223  1  0.58118725  0.46022810  0.40443542  1
  O2-  O224  1  0.57593822  0.45556069  0.73280504  1
  O2-  O225  1  0.58248804  0.95909287  0.07095518  1
  O2-  O226  1  0.58608939  0.95689257  0.39807098  1
  O2-  O227  1  0.58451875  0.95907825  0.72512031  1
  O2-  O228  1  0.20560950  0.33533762  0.06443104  1
  O2-  O229  1  0.21011501  0.34029000  0.39756474  1
  O2-  O230  1  0.20326519  0.33292680  0.72840906  1
  O2-  O231  1  0.20613057  0.83523720  0.06269706  1
  O2-  O232  1  0.21122656  0.82927271  0.39926875  1
  O2-  O233  1  0.21128066  0.83118515  0.73745297  1
  O2-  O234  1  0.71026277  0.33484722  0.06880009  1
  O2-  O235  1  0.70938311  0.33448724  0.40565070  1
  O2-  O236  1  0.71188265  0.33347581  0.73640030  1
  O2-  O237  1  0.69732237  0.82478822  0.06650933  1
  O2-  O238  1  0.69599047  0.82820521  0.39272690  1
  O2-  O239  1  0.70274448  0.83904312  0.72661505  1
  O2-  O240  1  0.45922128  0.41364259  0.27086678  1
  O2-  O241  1  0.45150763  0.42046139  0.59595769  1
  O2-  O242  1  0.46132094  0.41846041  0.93527247  1
  O2-  O243  1  0.46091058  0.92037938  0.26564750  1
  O2-  O244  1  0.45030509  0.92085489  0.59985212  1
  O2-  O245  1  0.45660541  0.91591194  0.93979238  1
  O2-  O246  1  0.95097396  0.41238972  0.26813755  1
  O2-  O247  1  0.95998979  0.40966814  0.60365347  1
  O2-  O248  1  0.95499719  0.41017274  0.93398723  1
  O2-  O249  1  0.95821860  0.91939476  0.26633783  1
  O2-  O250  1  0.96112265  0.91759123  0.60557342  1
  O2-  O251  1  0.95599831  0.92059667  0.92794549  1
  O2-  O252  1  0.33693318  0.29666705  0.26917457  1
  O2-  O253  1  0.32862735  0.29274999  0.59647938  1
  O2-  O254  1  0.33225196  0.29425473  0.93316866  1
  O2-  O255  1  0.33730258  0.78880486  0.26221331  1
  O2-  O256  1  0.33219020  0.78589346  0.59989418  1
  O2-  O257  1  0.33957933  0.79302856  0.94005663  1
  O2-  O258  1  0.83121300  0.29360233  0.27409647  1
  O2-  O259  1  0.83839303  0.29303527  0.60455664  1
  O2-  O260  1  0.83546800  0.28960771  0.93690695  1
  O2-  O261  1  0.82822901  0.79610451  0.26522115  1
  O2-  O262  1  0.83343696  0.80834710  0.60532436  1
  O2-  O263  1  0.82587660  0.79671772  0.93254396  1
  O2-  O264  1  0.41621226  0.04594453  0.06703186  1
  O2-  O265  1  0.42552047  0.05259436  0.39851818  1
  O2-  O266  1  0.41896553  0.05323135  0.72543443  1
  O2-  O267  1  0.41199333  0.53671619  0.07255774  1
  O2-  O268  1  0.40763631  0.53696481  0.40016336  1
  O2-  O269  1  0.41123972  0.54484746  0.72586406  1
  O2-  O270  1  0.92356972  0.04528325  0.06426205  1
  O2-  O271  1  0.91833352  0.04072467  0.40265642  1
  O2-  O272  1  0.91227979  0.04358678  0.73162485  1
  O2-  O273  1  0.91788746  0.54228272  0.06230866  1
  O2-  O274  1  0.91652105  0.54268689  0.39311283  1
  O2-  O275  1  0.91829292  0.53621719  0.73637414  1
  O2-  O276  1  0.28744583  0.16923857  0.06472283  1
  O2-  O277  1  0.29209424  0.17302562  0.40246304  1
  O2-  O278  1  0.29097210  0.16538347  0.73058468  1
  O2-  O279  1  0.29112189  0.66776107  0.06891404  1
  O2-  O280  1  0.29595939  0.66378637  0.39634267  1
  O2-  O281  1  0.28764378  0.65949203  0.72865344  1
  O2-  O282  1  0.79418382  0.16649395  0.07145631  1
  O2-  O283  1  0.78825956  0.16315671  0.40362077  1
  O2-  O284  1  0.79565159  0.16369815  0.72796907  1
  O2-  O285  1  0.80118615  0.66544181  0.06202943  1
  O2-  O286  1  0.80051268  0.66599950  0.39236140  1
  O2-  O287  1  0.80427237  0.67594053  0.73127945  1
