# generated using pymatgen
data_Ca2Al2SiO7
_symmetry_space_group_name_H-M   'P 1'
_cell_length_a   15.45641262
_cell_length_b   15.45616428
_cell_length_c   15.28230306
_cell_angle_alpha   89.99205931
_cell_angle_beta   89.98613894
_cell_angle_gamma   89.99555575
_symmetry_Int_Tables_number   1
_chemical_formula_structural   Ca2Al2SiO7
_chemical_formula_sum   'Ca48 Al48 Si24 O168'
_cell_volume   3650.89394940
_cell_formula_units_Z   24
loop_
 _symmetry_equiv_pos_site_id
 _symmetry_equiv_pos_as_xyz
  1  'x, y, z'
loop_
 _atom_type_symbol
 _atom_type_oxidation_number
  Ca2+  2.0
  Al0+  0.0
  Si0+  0.0
  O2-  -2.0
loop_
 _atom_site_type_symbol
 _atom_site_label
 _atom_site_symmetry_multiplicity
 _atom_site_fract_x
 _atom_site_fract_y
 _atom_site_fract_z
 _atom_site_occupancy
  Ca2+  Ca0  1  0.17320954  0.08376524  0.16759527  1
  Ca2+  Ca1  1  0.17102858  0.08221235  0.51132174  1
  Ca2+  Ca2  1  0.17582318  0.08584563  0.83735381  1
  Ca2+  Ca3  1  0.17439360  0.59687098  0.16779805  1
  Ca2+  Ca4  1  0.17453396  0.58984750  0.50100443  1
  Ca2+  Ca5  1  0.17644804  0.58953322  0.83831217  1
  Ca2+  Ca6  1  0.66511855  0.08154736  0.17170830  1
  Ca2+  Ca7  1  0.66227793  0.08048336  0.50760366  1
  Ca2+  Ca8  1  0.65534392  0.07589170  0.83130155  1
  Ca2+  Ca9  1  0.67959689  0.57583749  0.17474049  1
  Ca2+  Ca10  1  0.67522345  0.57432138  0.51016159  1
  Ca2+  Ca11  1  0.67351016  0.58496797  0.83360448  1
  Ca2+  Ca12  1  0.07084518  0.34138832  0.16351777  1
  Ca2+  Ca13  1  0.07934833  0.32895733  0.49779451  1
  Ca2+  Ca14  1  0.07794854  0.33264209  0.83043112  1
  Ca2+  Ca15  1  0.07211687  0.82185197  0.16249933  1
  Ca2+  Ca16  1  0.07480593  0.82637313  0.49024401  1
  Ca2+  Ca17  1  0.07887708  0.82892703  0.83494608  1
  Ca2+  Ca18  1  0.58306815  0.33167131  0.16563633  1
  Ca2+  Ca19  1  0.59557215  0.32645821  0.49704628  1
  Ca2+  Ca20  1  0.57873557  0.33139808  0.82693059  1
  Ca2+  Ca21  1  0.57731790  0.82707259  0.16016194  1
  Ca2+  Ca22  1  0.58235652  0.82809732  0.50590828  1
  Ca2+  Ca23  1  0.57560126  0.82729628  0.82427606  1
  Ca2+  Ca24  1  0.33459003  0.42645355  0.16882630  1
  Ca2+  Ca25  1  0.33430158  0.42967995  0.50439066  1
  Ca2+  Ca26  1  0.33718896  0.42740431  0.84005995  1
  Ca2+  Ca27  1  0.33596463  0.91927668  0.16568256  1
  Ca2+  Ca28  1  0.33418289  0.92146930  0.50987564  1
  Ca2+  Ca29  1  0.34506150  0.92627279  0.83750635  1
  Ca2+  Ca30  1  0.83592833  0.42268173  0.17477516  1
  Ca2+  Ca31  1  0.82887307  0.42296464  0.50304120  1
  Ca2+  Ca32  1  0.82919163  0.42380818  0.83727910  1
  Ca2+  Ca33  1  0.83930640  0.91429945  0.16967971  1
  Ca2+  Ca34  1  0.82724768  0.91422055  0.50699376  1
  Ca2+  Ca35  1  0.82537663  0.91167429  0.83714752  1
  Ca2+  Ca36  1  0.42161745  0.17353197  0.15900423  1
  Ca2+  Ca37  1  0.42746327  0.16482400  0.49948802  1
  Ca2+  Ca38  1  0.41333994  0.17200830  0.82648330  1
  Ca2+  Ca39  1  0.41466935  0.66749906  0.15770220  1
  Ca2+  Ca40  1  0.41750599  0.66416859  0.50005611  1
  Ca2+  Ca41  1  0.41565522  0.67442688  0.82388664  1
  Ca2+  Ca42  1  0.91434311  0.18211058  0.16170511  1
  Ca2+  Ca43  1  0.92078527  0.17185161  0.49463745  1
  Ca2+  Ca44  1  0.92253519  0.17332902  0.82766733  1
  Ca2+  Ca45  1  0.92236228  0.66465682  0.15794318  1
  Ca2+  Ca46  1  0.91762469  0.66565018  0.49038836  1
  Ca2+  Ca47  1  0.91559194  0.66229259  0.83317636  1
  Al0+  Al48  1  -0.00069375  -0.00134905  -0.00206035  1
  Al0+  Al49  1  0.00183042  -0.00060577  0.33033745  1
  Al0+  Al50  1  0.00047079  0.00035338  0.66310410  1
  Al0+  Al51  1  0.00055881  0.49928421  -0.00712921  1
  Al0+  Al52  1  0.00380241  0.49932465  0.33040315  1
  Al0+  Al53  1  0.00009036  0.50074480  0.66828708  1
  Al0+  Al54  1  0.50048658  -0.00163697  0.00466131  1
  Al0+  Al55  1  0.50107517  0.00116797  0.32909743  1
  Al0+  Al56  1  0.49891218  0.00111311  0.66685002  1
  Al0+  Al57  1  0.50128884  0.49729739  0.00114514  1
  Al0+  Al58  1  0.49994206  0.49895691  0.34116653  1
  Al0+  Al59  1  0.50039050  0.50118486  0.67093246  1
  Al0+  Al60  1  0.25189398  0.25044941  0.00331625  1
  Al0+  Al61  1  0.25288715  0.25077300  0.33472658  1
  Al0+  Al62  1  0.24861043  0.25031893  0.66449400  1
  Al0+  Al63  1  0.24884886  0.75320245  -0.00370628  1
  Al0+  Al64  1  0.24914961  0.75321352  0.33455096  1
  Al0+  Al65  1  0.24696466  0.75229121  0.66619889  1
  Al0+  Al66  1  0.75021081  0.24715526  -0.00592376  1
  Al0+  Al67  1  0.75087409  0.24682073  0.32786620  1
  Al0+  Al68  1  0.74998735  0.25135912  0.66726277  1
  Al0+  Al69  1  0.74965799  0.74894361  0.00319226  1
  Al0+  Al70  1  0.74679066  0.75155010  0.33330662  1
  Al0+  Al71  1  0.74809262  0.75103142  0.67103060  1
  Al0+  Al72  1  0.07116682  0.17909648  0.65361907  1
  Al0+  Al73  1  0.67946546  0.93135387  0.68028602  1
  Al0+  Al74  1  0.92637673  0.82116009  0.98259026  1
  Al0+  Al75  1  0.92512734  0.82076341  0.31952857  1
  Al0+  Al76  1  0.82205949  0.57173697  0.68267633  1
  Al0+  Al77  1  0.92798019  0.32134138  0.98393495  1
  Al0+  Al78  1  0.07178239  0.67891168  0.31835420  1
  Al0+  Al79  1  0.32104436  0.57241321  0.01227810  1
  Al0+  Al80  1  0.82060109  0.56878730  0.01515684  1
  Al0+  Al81  1  0.32157779  0.07140106  0.01586786  1
  Al0+  Al82  1  0.31958277  0.07017756  0.67945205  1
  Al0+  Al83  1  0.93149627  0.31878387  0.32106097  1
  Al0+  Al84  1  0.42757730  0.82109083  0.65085492  1
  Al0+  Al85  1  0.57166429  0.67776987  0.65132323  1
  Al0+  Al86  1  0.56958175  0.18103299  0.65412930  1
  Al0+  Al87  1  0.07082695  0.67876420  0.98180456  1
  Al0+  Al88  1  0.42925891  0.32110873  0.98700592  1
  Al0+  Al89  1  0.67855108  0.42636470  0.68393818  1
  Al0+  Al90  1  0.42975717  0.82029110  0.98722698  1
  Al0+  Al91  1  0.57015381  0.17908588  0.31836109  1
  Al0+  Al92  1  0.82323928  0.57216185  0.34702157  1
  Al0+  Al93  1  0.31934179  0.57231174  0.68109799  1
  Al0+  Al94  1  0.68043710  0.42640955  0.34813067  1
  Al0+  Al95  1  0.31975687  0.57281900  0.34709455  1
  Si0+  Si96  1  0.32272010  0.07131720  0.34898929  1
  Si0+  Si97  1  0.82430946  0.07242359  0.68242432  1
  Si0+  Si98  1  0.82244344  0.07089141  0.01458664  1
  Si0+  Si99  1  0.17874077  0.42776236  0.01620244  1
  Si0+  Si100  1  0.92855394  0.32276065  0.64896128  1
  Si0+  Si101  1  0.17560583  0.92925957  0.01862345  1
  Si0+  Si102  1  0.92789222  0.82083494  0.65230890  1
  Si0+  Si103  1  0.42725326  0.32375834  0.31723557  1
  Si0+  Si104  1  0.17486408  0.92851010  0.68433380  1
  Si0+  Si105  1  0.57167103  0.67642410  0.98573849  1
  Si0+  Si106  1  0.07238730  0.17775571  0.98518268  1
  Si0+  Si107  1  0.67969121  0.92934238  0.01720302  1
  Si0+  Si108  1  0.82169316  0.06921388  0.34615366  1
  Si0+  Si109  1  0.17802988  0.42786021  0.68333035  1
  Si0+  Si110  1  0.42661783  0.32414856  0.64933169  1
  Si0+  Si111  1  0.42973534  0.82118155  0.31830476  1
  Si0+  Si112  1  0.07580699  0.17675017  0.31586945  1
  Si0+  Si113  1  0.67640219  0.92963318  0.34827833  1
  Si0+  Si114  1  0.17986824  0.93204928  0.34876318  1
  Si0+  Si115  1  0.17834367  0.42528697  0.35063157  1
  Si0+  Si116  1  0.67876581  0.42387967  0.01731743  1
  Si0+  Si117  1  0.57099145  0.17676088  0.98254779  1
  Si0+  Si118  1  0.56950315  0.67674335  0.31926259  1
  Si0+  Si119  1  0.07020496  0.67871675  0.65059372  1
  O2-  O120  1  0.24566735  -0.00243628  0.06281995  1
  O2-  O121  1  0.24862811  0.00462705  0.39200412  1
  O2-  O122  1  0.24525112  -0.00421769  0.72764630  1
  O2-  O123  1  0.24573812  0.49856615  0.06033679  1
  O2-  O124  1  0.24517211  0.49695053  0.39292273  1
  O2-  O125  1  0.24686000  0.49563611  0.72799313  1
  O2-  O126  1  0.75273675  -0.00093089  0.05847859  1
  O2-  O127  1  0.75418756  -0.00514181  0.38813560  1
  O2-  O128  1  0.75415591  0.00613332  0.72796110  1
  O2-  O129  1  0.74851782  0.49128307  0.06157610  1
  O2-  O130  1  0.75109039  0.50033662  0.39709941  1
  O2-  O131  1  0.74958806  0.49983825  0.73249931  1
  O2-  O132  1  0.00848142  0.24623895  0.27206262  1
  O2-  O133  1  -0.00430660  0.25173009  0.60549251  1
  O2-  O134  1  0.00408402  0.24613344  0.94028071  1
  O2-  O135  1  -0.00872336  0.74305057  0.27014915  1
  O2-  O136  1  -0.00334136  0.74799999  0.60967216  1
  O2-  O137  1  -0.00422571  0.74793817  0.93149626  1
  O2-  O138  1  0.49710584  0.25572781  0.27347460  1
  O2-  O139  1  0.49846939  0.25826366  0.60516353  1
  O2-  O140  1  0.50273421  0.24571997  0.93966737  1
  O2-  O141  1  0.49691992  0.74652862  0.27622099  1
  O2-  O142  1  0.49585992  0.74609732  0.59990420  1
  O2-  O143  1  0.49851329  0.74041301  0.94171086  1
  O2-  O144  1  0.07046990  0.17762092  0.09106752  1
  O2-  O145  1  0.07473953  0.17529831  0.42149356  1
  O2-  O146  1  0.07028023  0.18044288  0.76674295  1
  O2-  O147  1  0.07149701  0.68130325  0.09534522  1
  O2-  O148  1  0.07447671  0.68443385  0.43234021  1
  O2-  O149  1  0.07200459  0.67998117  0.75514608  1
  O2-  O150  1  0.57141394  0.17680629  0.08856391  1
  O2-  O151  1  0.56820525  0.17476923  0.43112402  1
  O2-  O152  1  0.56522827  0.17927357  0.76704462  1
  O2-  O153  1  0.57147158  0.67956858  0.09218016  1
  O2-  O154  1  0.56988487  0.67927194  0.42380557  1
  O2-  O155  1  0.57206313  0.68179609  0.76506522  1
  O2-  O156  1  0.18058930  0.41921669  0.24551802  1
  O2-  O157  1  0.17734117  0.42856785  0.57748424  1
  O2-  O158  1  0.18158438  0.42475743  0.91063474  1
  O2-  O159  1  0.18152366  0.93319804  0.24390318  1
  O2-  O160  1  0.17338063  0.93054518  0.57819344  1
  O2-  O161  1  0.17272374  0.93218597  0.91330150  1
  O2-  O162  1  0.68035030  0.42794774  0.23416960  1
  O2-  O163  1  0.68418791  0.42381332  0.57036317  1
  O2-  O164  1  0.67862719  0.42345877  0.91217291  1
  O2-  O165  1  0.67186398  0.93215034  0.24303227  1
  O2-  O166  1  0.68184062  0.93215205  0.56666558  1
  O2-  O167  1  0.67749082  0.93139516  0.91243119  1
  O2-  O168  1  0.43121221  0.32082788  0.10044310  1
  O2-  O169  1  0.42281062  0.32119232  0.42243858  1
  O2-  O170  1  0.42448630  0.32087262  0.75505141  1
  O2-  O171  1  0.43328465  0.82104498  0.10128946  1
  O2-  O172  1  0.43068860  0.82482848  0.42286574  1
  O2-  O173  1  0.43035935  0.82191192  0.76436252  1
  O2-  O174  1  0.92795210  0.31940532  0.09737279  1
  O2-  O175  1  0.93276106  0.31396662  0.43402842  1
  O2-  O176  1  0.93076472  0.32158762  0.75458636  1
  O2-  O177  1  0.92842274  0.82220093  0.09594307  1
  O2-  O178  1  0.92900195  0.82517115  0.43345489  1
  O2-  O179  1  0.93002218  0.82345559  0.75692956  1
  O2-  O180  1  0.32253706  0.06945438  0.24385704  1
  O2-  O181  1  0.31829839  0.06851357  0.56567401  1
  O2-  O182  1  0.32119656  0.07123909  0.90301655  1
  O2-  O183  1  0.32023874  0.57342973  0.23385852  1
  O2-  O184  1  0.31582126  0.57215024  0.56762174  1
  O2-  O185  1  0.32039321  0.57136479  0.89953674  1
  O2-  O186  1  0.82000116  0.06976891  0.24077581  1
  O2-  O187  1  0.82579403  0.06925066  0.57635102  1
  O2-  O188  1  0.82232920  0.07150095  0.90984359  1
  O2-  O189  1  0.82150163  0.57020122  0.23321502  1
  O2-  O190  1  0.82490027  0.57071916  0.56900012  1
  O2-  O191  1  0.81701311  0.56926790  0.90251715  1
  O2-  O192  1  0.05018137  0.08376123  0.26896105  1
  O2-  O193  1  0.04196575  0.08256070  0.59702679  1
  O2-  O194  1  0.04688289  0.08469704  0.93865983  1
  O2-  O195  1  0.05770537  0.57711681  0.26790605  1
  O2-  O196  1  0.04576808  0.58560339  0.60388677  1
  O2-  O197  1  0.04787029  0.57978985  0.92850653  1
  O2-  O198  1  0.53621084  0.08432663  0.26102400  1
  O2-  O199  1  0.53611466  0.08588210  0.59863329  1
  O2-  O200  1  0.54378827  0.08255893  0.93980940  1
  O2-  O201  1  0.54278234  0.58407288  0.27338431  1
  O2-  O202  1  0.54672186  0.57773756  0.60027569  1
  O2-  O203  1  0.55330744  0.58089803  0.94242157  1
  O2-  O204  1  0.17091456  0.20086309  0.27192749  1
  O2-  O205  1  0.16625226  0.21043604  0.59613565  1
  O2-  O206  1  0.16647811  0.20369059  0.94112116  1
  O2-  O207  1  0.16714245  0.71880026  0.26492141  1
  O2-  O208  1  0.16007883  0.71012402  0.60144467  1
  O2-  O209  1  0.16719410  0.71332233  0.92818871  1
  O2-  O210  1  0.66685247  0.20505816  0.26233291  1
  O2-  O211  1  0.66905965  0.20578453  0.60113742  1
  O2-  O212  1  0.66480167  0.19810737  0.93562548  1
  O2-  O213  1  0.65960451  0.70747858  0.26970660  1
  O2-  O214  1  0.66863053  0.71305952  0.59839624  1
  O2-  O215  1  0.66271110  0.70874454  0.93982976  1
  O2-  O216  1  0.08378267  0.45217143  0.05930818  1
  O2-  O217  1  0.08464519  0.44801850  0.39715665  1
  O2-  O218  1  0.08473665  0.45328067  0.72969068  1
  O2-  O219  1  0.08260793  0.95653493  0.06636179  1
  O2-  O220  1  0.08737637  0.95823325  0.39678340  1
  O2-  O221  1  0.08213642  0.95673481  0.73089267  1
  O2-  O222  1  0.58561298  0.44980090  0.06450152  1
  O2-  O223  1  0.58131088  0.45003611  0.40143063  1
  O2-  O224  1  0.57913196  0.45167408  0.73565462  1
  O2-  O225  1  0.59019504  0.95995379  0.06843003  1
  O2-  O226  1  0.58729774  0.96489073  0.39650673  1
  O2-  O227  1  0.58397860  0.96408869  0.73486333  1
  O2-  O228  1  0.20470882  0.33554722  0.06549802  1
  O2-  O229  1  0.20625003  0.33255992  0.39974770  1
  O2-  O230  1  0.20174878  0.33371732  0.72880157  1
  O2-  O231  1  0.20319128  0.83643496  0.06449496  1
  O2-  O232  1  0.20944075  0.84207206  0.39826842  1
  O2-  O233  1  0.19718241  0.83452511  0.72951568  1
  O2-  O234  1  0.70316393  0.32817591  0.06053624  1
  O2-  O235  1  0.71130016  0.32663589  0.39749085  1
  O2-  O236  1  0.70705632  0.32794680  0.73813057  1
  O2-  O237  1  0.70499137  0.83744609  0.06585303  1
  O2-  O238  1  0.69727252  0.83655964  0.39571879  1
  O2-  O239  1  0.71002291  0.83671172  0.73708919  1
  O2-  O240  1  0.45276252  0.41800237  0.27245875  1
  O2-  O241  1  0.44881493  0.41917090  0.60601364  1
  O2-  O242  1  0.46020954  0.41696433  0.93174534  1
  O2-  O243  1  0.46187413  0.91105189  0.26889171  1
  O2-  O244  1  0.46005188  0.91835917  0.59781957  1
  O2-  O245  1  0.46661723  0.91590125  0.93531418  1
  O2-  O246  1  0.96166914  0.41477958  0.26568260  1
  O2-  O247  1  0.95807889  0.41534230  0.60296884  1
  O2-  O248  1  0.95981668  0.41503957  0.92696092  1
  O2-  O249  1  0.96021322  0.91786377  0.26555653  1
  O2-  O250  1  0.95671744  0.91205260  0.60327678  1
  O2-  O251  1  0.95491820  0.92027412  0.93008133  1
  O2-  O252  1  0.33466259  0.29611979  0.26916130  1
  O2-  O253  1  0.33415745  0.29608522  0.60204456  1
  O2-  O254  1  0.33230788  0.29054407  0.93381633  1
  O2-  O255  1  0.33660182  0.79760062  0.27202486  1
  O2-  O256  1  0.32663525  0.79775682  0.59961261  1
  O2-  O257  1  0.33130798  0.80049409  0.93420312  1
  O2-  O258  1  0.83785172  0.28361475  0.26405601  1
  O2-  O259  1  0.83506628  0.29743256  0.60385551  1
  O2-  O260  1  0.83325768  0.28694883  0.92868629  1
  O2-  O261  1  0.82287703  0.80490455  0.26933669  1
  O2-  O262  1  0.83497228  0.79625243  0.60661325  1
  O2-  O263  1  0.82595061  0.79488850  0.93324626  1
  O2-  O264  1  0.41705071  0.03766959  0.07164679  1
  O2-  O265  1  0.41363859  0.03845033  0.39488072  1
  O2-  O266  1  0.41506136  0.03992704  0.73454775  1
  O2-  O267  1  0.41821210  0.54095747  0.06625417  1
  O2-  O268  1  0.41497590  0.54166705  0.40344044  1
  O2-  O269  1  0.41664830  0.54583934  0.73438860  1
  O2-  O270  1  0.91456130  0.04533482  0.06299234  1
  O2-  O271  1  0.91583783  0.04628660  0.39226106  1
  O2-  O272  1  0.91744371  0.04514712  0.72882209  1
  O2-  O273  1  0.92000924  0.53893734  0.06361594  1
  O2-  O274  1  0.92369376  0.54515609  0.39665645  1
  O2-  O275  1  0.92080058  0.54276757  0.73547657  1
  O2-  O276  1  0.29117761  0.16748579  0.07212125  1
  O2-  O277  1  0.29998930  0.16476873  0.39526225  1
  O2-  O278  1  0.28774353  0.16748231  0.73174823  1
  O2-  O279  1  0.29097090  0.67076071  0.06442488  1
  O2-  O280  1  0.28855600  0.66986666  0.40078035  1
  O2-  O281  1  0.28554723  0.66917143  0.73291311  1
  O2-  O282  1  0.79182503  0.16222501  0.06248743  1
  O2-  O283  1  0.79085134  0.15884940  0.39495447  1
  O2-  O284  1  0.80220965  0.16702094  0.72662363  1
  O2-  O285  1  0.78884224  0.66553921  0.06946397  1
  O2-  O286  1  0.79437863  0.67207029  0.39740243  1
  O2-  O287  1  0.79379443  0.67002438  0.73545716  1
