# generated using pymatgen
data_Ca2Al2SiO7
_symmetry_space_group_name_H-M   'P 1'
_cell_length_a   15.45512487
_cell_length_b   15.45470617
_cell_length_c   15.28156614
_cell_angle_alpha   89.99298037
_cell_angle_beta   89.99020066
_cell_angle_gamma   90.00351578
_symmetry_Int_Tables_number   1
_chemical_formula_structural   Ca2Al2SiO7
_chemical_formula_sum   'Ca48 Al48 Si24 O168'
_cell_volume   3650.06943002
_cell_formula_units_Z   24
loop_
 _symmetry_equiv_pos_site_id
 _symmetry_equiv_pos_as_xyz
  1  'x, y, z'
loop_
 _atom_type_symbol
 _atom_type_oxidation_number
  Ca2+  2.0
  Al0+  0.0
  Si0+  0.0
  O2-  -2.0
loop_
 _atom_site_type_symbol
 _atom_site_label
 _atom_site_symmetry_multiplicity
 _atom_site_fract_x
 _atom_site_fract_y
 _atom_site_fract_z
 _atom_site_occupancy
  Ca2+  Ca0  1  0.17384487  0.08932272  0.17303820  1
  Ca2+  Ca1  1  0.16944241  0.09090199  0.50159079  1
  Ca2+  Ca2  1  0.17128054  0.08627190  0.83522103  1
  Ca2+  Ca3  1  0.17242055  0.58205766  0.17688335  1
  Ca2+  Ca4  1  0.17601826  0.58272943  0.50794257  1
  Ca2+  Ca5  1  0.17147620  0.57844202  0.83213581  1
  Ca2+  Ca6  1  0.67614395  0.07367264  0.18025241  1
  Ca2+  Ca7  1  0.67608336  0.07617240  0.50938331  1
  Ca2+  Ca8  1  0.66455031  0.08136999  0.83020076  1
  Ca2+  Ca9  1  0.67015962  0.58511685  0.17074494  1
  Ca2+  Ca10  1  0.66623285  0.58218590  0.50890423  1
  Ca2+  Ca11  1  0.67273088  0.58427772  0.82979089  1
  Ca2+  Ca12  1  0.07873467  0.32701917  0.16446197  1
  Ca2+  Ca13  1  0.08752549  0.32611617  0.49935987  1
  Ca2+  Ca14  1  0.07957371  0.33108914  0.82675331  1
  Ca2+  Ca15  1  0.07287902  0.83015421  0.16719495  1
  Ca2+  Ca16  1  0.07514292  0.82592283  0.48972918  1
  Ca2+  Ca17  1  0.07555135  0.83395678  0.82991672  1
  Ca2+  Ca18  1  0.56919415  0.33302785  0.16308940  1
  Ca2+  Ca19  1  0.58412888  0.33078750  0.49726737  1
  Ca2+  Ca20  1  0.58007157  0.33029816  0.82539741  1
  Ca2+  Ca21  1  0.59026134  0.82890254  0.16966646  1
  Ca2+  Ca22  1  0.58765097  0.82655036  0.50011576  1
  Ca2+  Ca23  1  0.57778849  0.83021185  0.82016777  1
  Ca2+  Ca24  1  0.33553423  0.41680489  0.17596205  1
  Ca2+  Ca25  1  0.33261525  0.42566013  0.50398375  1
  Ca2+  Ca26  1  0.33134452  0.41610607  0.83265575  1
  Ca2+  Ca27  1  0.33292920  0.93202405  0.17401328  1
  Ca2+  Ca28  1  0.33535946  0.91944941  0.50382900  1
  Ca2+  Ca29  1  0.33526335  0.92121223  0.83737129  1
  Ca2+  Ca30  1  0.83664193  0.41958572  0.16576382  1
  Ca2+  Ca31  1  0.82670192  0.42588831  0.51241473  1
  Ca2+  Ca32  1  0.83057688  0.42460446  0.83675873  1
  Ca2+  Ca33  1  0.83326977  0.91618817  0.17662931  1
  Ca2+  Ca34  1  0.82643837  0.91984738  0.50213362  1
  Ca2+  Ca35  1  0.82834728  0.91841342  0.83336561  1
  Ca2+  Ca36  1  0.40804415  0.17519697  0.16309387  1
  Ca2+  Ca37  1  0.42343562  0.17152846  0.49420068  1
  Ca2+  Ca38  1  0.42051361  0.16930993  0.82778697  1
  Ca2+  Ca39  1  0.42277620  0.66264997  0.16821811  1
  Ca2+  Ca40  1  0.42414468  0.66345214  0.49558506  1
  Ca2+  Ca41  1  0.42192380  0.67317243  0.81878876  1
  Ca2+  Ca42  1  0.92002524  0.16740896  0.16418325  1
  Ca2+  Ca43  1  0.92459134  0.15701545  0.49613849  1
  Ca2+  Ca44  1  0.91887624  0.17181452  0.82291544  1
  Ca2+  Ca45  1  0.91411480  0.67748684  0.16212784  1
  Ca2+  Ca46  1  0.91854580  0.66970703  0.49097100  1
  Ca2+  Ca47  1  0.90749595  0.66843520  0.83092387  1
  Al0+  Al48  1  -0.00010983  -0.00304704  -0.00451051  1
  Al0+  Al49  1  0.00172754  0.00010407  0.32664377  1
  Al0+  Al50  1  0.00092968  0.00094549  0.66630719  1
  Al0+  Al51  1  0.00088921  0.49930021  0.00169971  1
  Al0+  Al52  1  0.00108015  0.49798822  0.33052833  1
  Al0+  Al53  1  0.00128442  0.50024424  0.67378313  1
  Al0+  Al54  1  0.50004389  -0.00090613  0.00726662  1
  Al0+  Al55  1  0.50068595  -0.00128200  0.34124314  1
  Al0+  Al56  1  0.50012951  0.00187106  0.66189711  1
  Al0+  Al57  1  0.50024311  0.49834980  -0.00564236  1
  Al0+  Al58  1  0.49949151  0.50009126  0.32815946  1
  Al0+  Al59  1  0.49984904  0.50157938  0.67184820  1
  Al0+  Al60  1  0.25054255  0.25121419  -0.00117294  1
  Al0+  Al61  1  0.24883820  0.25055488  0.33042663  1
  Al0+  Al62  1  0.24857529  0.25057196  0.66683560  1
  Al0+  Al63  1  0.24945057  0.74970317  0.00214066  1
  Al0+  Al64  1  0.25222134  0.75066490  0.33182024  1
  Al0+  Al65  1  0.24837722  0.75268544  0.66838245  1
  Al0+  Al66  1  0.74943066  0.24978950  -0.00172090  1
  Al0+  Al67  1  0.75021267  0.24949806  0.33570213  1
  Al0+  Al68  1  0.75020646  0.25136672  0.66934305  1
  Al0+  Al69  1  0.75087550  0.74899261  -0.00086949  1
  Al0+  Al70  1  0.74889695  0.74888933  0.32925545  1
  Al0+  Al71  1  0.74778860  0.75232207  0.66976682  1
  Al0+  Al72  1  0.07013177  0.17958861  0.65276421  1
  Al0+  Al73  1  0.43154838  0.31854942  0.32169911  1
  Al0+  Al74  1  0.18047318  0.42756747  0.68247039  1
  Al0+  Al75  1  0.92925555  0.81857545  0.31917392  1
  Al0+  Al76  1  0.67723580  0.42758855  0.68164355  1
  Al0+  Al77  1  0.67975937  0.92583769  0.35018964  1
  Al0+  Al78  1  0.06971591  0.18033242  0.31885016  1
  Al0+  Al79  1  0.42597376  0.82298578  0.65118440  1
  Al0+  Al80  1  0.31970945  0.07349708  0.34927009  1
  Al0+  Al81  1  0.07435980  0.67594746  0.31932254  1
  Al0+  Al82  1  0.82369788  0.07047377  0.68294149  1
  Al0+  Al83  1  0.42834491  0.32045035  0.98359878  1
  Al0+  Al84  1  0.57041788  0.67928148  0.65180971  1
  Al0+  Al85  1  0.82174084  0.57288684  0.68022220  1
  Al0+  Al86  1  0.56926886  0.67915764  0.31831562  1
  Al0+  Al87  1  0.82372091  0.07218099  0.34770703  1
  Al0+  Al88  1  0.67782012  0.93096457  0.68325276  1
  Al0+  Al89  1  0.32124760  0.57343266  0.68228010  1
  Al0+  Al90  1  0.92884661  0.81944496  0.98268177  1
  Al0+  Al91  1  0.31937129  0.07028090  0.01303449  1
  Al0+  Al92  1  0.32144839  0.57092130  0.34565784  1
  Al0+  Al93  1  0.57273852  0.18041760  0.65234195  1
  Al0+  Al94  1  0.92834304  0.32117985  0.98539854  1
  Al0+  Al95  1  0.81970818  0.56995278  0.01638542  1
  Si0+  Si96  1  0.07402506  0.67755513  0.98189684  1
  Si0+  Si97  1  0.17683576  0.42797151  0.34923929  1
  Si0+  Si98  1  0.32248981  0.57142984  0.01547604  1
  Si0+  Si99  1  0.82223318  0.07165426  0.01391404  1
  Si0+  Si100  1  0.67664175  0.42664148  0.01854309  1
  Si0+  Si101  1  0.42754010  0.32191589  0.65011411  1
  Si0+  Si102  1  0.07121923  0.17844889  0.98260491  1
  Si0+  Si103  1  0.57020855  0.67966423  0.98407701  1
  Si0+  Si104  1  0.92862276  0.32413482  0.65062404  1
  Si0+  Si105  1  0.57119494  0.17563830  0.98567262  1
  Si0+  Si106  1  0.92918341  0.82070824  0.65224729  1
  Si0+  Si107  1  0.82134917  0.56914918  0.34510997  1
  Si0+  Si108  1  0.17917905  0.92855577  0.34940270  1
  Si0+  Si109  1  0.68000403  0.92901743  0.01578079  1
  Si0+  Si110  1  0.17582777  0.92637221  0.01796820  1
  Si0+  Si111  1  0.67788638  0.42984021  0.34500019  1
  Si0+  Si112  1  0.57357764  0.17567825  0.31758297  1
  Si0+  Si113  1  0.42737462  0.82472667  0.31473003  1
  Si0+  Si114  1  0.92408076  0.32325250  0.31732260  1
  Si0+  Si115  1  0.42894518  0.82184684  0.98829321  1
  Si0+  Si116  1  0.18016790  0.42960389  0.01716756  1
  Si0+  Si117  1  0.17767375  0.92896977  0.68135495  1
  Si0+  Si118  1  0.32045795  0.07102123  0.68011791  1
  Si0+  Si119  1  0.07059555  0.67821429  0.65381462  1
  O2-  O120  1  0.24363802  -0.00326560  0.06065866  1
  O2-  O121  1  0.24724212  -0.00339203  0.39597198  1
  O2-  O122  1  0.25121207  -0.00177814  0.72263263  1
  O2-  O123  1  0.25186999  0.50049586  0.05868707  1
  O2-  O124  1  0.24122387  0.50171375  0.39125251  1
  O2-  O125  1  0.25218416  0.49922418  0.73390560  1
  O2-  O126  1  0.75147919  0.00046463  0.05637207  1
  O2-  O127  1  0.74984801  0.00167823  0.39663259  1
  O2-  O128  1  0.74934113  0.00235252  0.73547413  1
  O2-  O129  1  0.74597914  0.49424820  0.06399713  1
  O2-  O130  1  0.75357378  0.49569958  0.38677249  1
  O2-  O131  1  0.75039691  0.49967927  0.73009619  1
  O2-  O132  1  -0.00874051  0.25207576  0.27414142  1
  O2-  O133  1  -0.00582553  0.25286705  0.60573620  1
  O2-  O134  1  -0.00067477  0.24324118  0.93828632  1
  O2-  O135  1  0.00014017  0.74505242  0.26846205  1
  O2-  O136  1  -0.00376443  0.74533053  0.61136974  1
  O2-  O137  1  0.00434321  0.74483622  0.93657555  1
  O2-  O138  1  0.50269810  0.24127168  0.27180363  1
  O2-  O139  1  0.50034679  0.25785794  0.60596350  1
  O2-  O140  1  0.50329274  0.24480043  0.94054216  1
  O2-  O141  1  0.49628576  0.75570773  0.27053157  1
  O2-  O142  1  0.49551274  0.74841140  0.60184730  1
  O2-  O143  1  0.49618285  0.74867915  0.94443357  1
  O2-  O144  1  0.07166499  0.18036847  0.08832786  1
  O2-  O145  1  0.07139674  0.18325571  0.43166535  1
  O2-  O146  1  0.07116422  0.18005481  0.76613621  1
  O2-  O147  1  0.07579029  0.67990569  0.08724583  1
  O2-  O148  1  0.07159449  0.67686871  0.43334740  1
  O2-  O149  1  0.07233011  0.68145242  0.75908937  1
  O2-  O150  1  0.57085573  0.17578998  0.09131281  1
  O2-  O151  1  0.57415316  0.18027242  0.42280102  1
  O2-  O152  1  0.56656003  0.17848138  0.76608721  1
  O2-  O153  1  0.57008878  0.67976466  0.08951977  1
  O2-  O154  1  0.56962639  0.67574132  0.43034318  1
  O2-  O155  1  0.57010605  0.68288546  0.76619612  1
  O2-  O156  1  0.17811355  0.42670263  0.24309251  1
  O2-  O157  1  0.18135713  0.42828326  0.56887462  1
  O2-  O158  1  0.18087608  0.42948995  0.91238462  1
  O2-  O159  1  0.18134548  0.93011949  0.24349420  1
  O2-  O160  1  0.17513720  0.92827301  0.57666413  1
  O2-  O161  1  0.17701461  0.92512623  0.91208078  1
  O2-  O162  1  0.67729167  0.43119981  0.23960517  1
  O2-  O163  1  0.67938015  0.42879544  0.56715387  1
  O2-  O164  1  0.67588464  0.42734627  0.91362761  1
  O2-  O165  1  0.68243350  0.92717275  0.23520281  1
  O2-  O166  1  0.68151159  0.92927958  0.57049259  1
  O2-  O167  1  0.67716876  0.92988025  0.91112987  1
  O2-  O168  1  0.42824760  0.32122350  0.09696971  1
  O2-  O169  1  0.43442137  0.32009678  0.43437683  1
  O2-  O170  1  0.42596853  0.31676586  0.75607485  1
  O2-  O171  1  0.43056426  0.82238370  0.09310594  1
  O2-  O172  1  0.42454296  0.82360920  0.41962347  1
  O2-  O173  1  0.42654880  0.82312513  0.76622478  1
  O2-  O174  1  0.93113947  0.31906967  0.09887024  1
  O2-  O175  1  0.92333339  0.32863596  0.42222819  1
  O2-  O176  1  0.93165783  0.32369977  0.75648487  1
  O2-  O177  1  0.92874952  0.81976658  0.09537231  1
  O2-  O178  1  0.92991721  0.81618936  0.43306372  1
  O2-  O179  1  0.93207852  0.82141929  0.75774325  1
  O2-  O180  1  0.31690678  0.07392622  0.23564900  1
  O2-  O181  1  0.31776674  0.07251712  0.57529043  1
  O2-  O182  1  0.32006605  0.06744943  0.89961165  1
  O2-  O183  1  0.32239889  0.56611307  0.23166168  1
  O2-  O184  1  0.31921679  0.57284374  0.56863385  1
  O2-  O185  1  0.32061007  0.57341259  0.91091765  1
  O2-  O186  1  0.82172142  0.07269356  0.23297519  1
  O2-  O187  1  0.82676976  0.06511645  0.56987013  1
  O2-  O188  1  0.82174459  0.07150106  0.90927765  1
  O2-  O189  1  0.81990677  0.56859819  0.23979080  1
  O2-  O190  1  0.82417546  0.57159451  0.56602933  1
  O2-  O191  1  0.81592668  0.57071265  0.90389000  1
  O2-  O192  1  0.04503182  0.08387075  0.26149599  1
  O2-  O193  1  0.04217736  0.08218895  0.59840453  1
  O2-  O194  1  0.05152595  0.08253705  0.93908139  1
  O2-  O195  1  0.05025074  0.57616892  0.26639320  1
  O2-  O196  1  0.04770244  0.58451370  0.60845765  1
  O2-  O197  1  0.05021466  0.58281044  0.93856624  1
  O2-  O198  1  0.55105831  0.07994096  0.27506947  1
  O2-  O199  1  0.53936978  0.08632025  0.59633125  1
  O2-  O200  1  0.54321053  0.08187735  0.94051758  1
  O2-  O201  1  0.53589826  0.58504753  0.25986335  1
  O2-  O202  1  0.54530263  0.57865075  0.60161322  1
  O2-  O203  1  0.54511399  0.58727008  0.93739973  1
  O2-  O204  1  0.16364778  0.21601642  0.26182506  1
  O2-  O205  1  0.16634080  0.21218490  0.59844612  1
  O2-  O206  1  0.16348059  0.20844481  0.93666236  1
  O2-  O207  1  0.17198206  0.70617338  0.26493395  1
  O2-  O208  1  0.16046385  0.71031639  0.60576293  1
  O2-  O209  1  0.16765676  0.70509838  0.93528193  1
  O2-  O210  1  0.66674832  0.20296916  0.27054066  1
  O2-  O211  1  0.67062734  0.20841682  0.59931399  1
  O2-  O212  1  0.66485892  0.19955977  0.93932336  1
  O2-  O213  1  0.66503734  0.70943052  0.26152945  1
  O2-  O214  1  0.66889068  0.71004992  0.59961835  1
  O2-  O215  1  0.66089419  0.71058426  0.93771970  1
  O2-  O216  1  0.08884046  0.45663421  0.06580586  1
  O2-  O217  1  0.08140824  0.44687289  0.39455998  1
  O2-  O218  1  0.08351012  0.45644803  0.73822032  1
  O2-  O219  1  0.08143851  0.95115030  0.06281037  1
  O2-  O220  1  0.08500619  0.95361274  0.39333735  1
  O2-  O221  1  0.08851531  0.96046708  0.73207778  1
  O2-  O222  1  0.58263188  0.45561498  0.06345461  1
  O2-  O223  1  0.58851291  0.46253917  0.39273849  1
  O2-  O224  1  0.57966850  0.45417389  0.73688911  1
  O2-  O225  1  0.58899367  0.95514521  0.06619367  1
  O2-  O226  1  0.58017489  0.94794394  0.40175863  1
  O2-  O227  1  0.57846533  0.96123524  0.73476056  1
  O2-  O228  1  0.20839167  0.33759785  0.06417369  1
  O2-  O229  1  0.20819084  0.33684950  0.39568548  1
  O2-  O230  1  0.20932186  0.32974293  0.73774523  1
  O2-  O231  1  0.20218450  0.83317679  0.06473490  1
  O2-  O232  1  0.20406509  0.83465939  0.39521022  1
  O2-  O233  1  0.20235229  0.83831282  0.73290464  1
  O2-  O234  1  0.70078499  0.33209556  0.06423724  1
  O2-  O235  1  0.69993306  0.33650154  0.39174021  1
  O2-  O236  1  0.70406111  0.33009271  0.73701734  1
  O2-  O237  1  0.70948222  0.83721260  0.06203145  1
  O2-  O238  1  0.71134548  0.82759103  0.40120134  1
  O2-  O239  1  0.70655689  0.83369762  0.73813662  1
  O2-  O240  1  0.46510804  0.41239287  0.26325274  1
  O2-  O241  1  0.44810802  0.41827884  0.60929178  1
  O2-  O242  1  0.45868608  0.41662199  0.92852638  1
  O2-  O243  1  0.45442706  0.91904304  0.26957457  1
  O2-  O244  1  0.45406478  0.92061736  0.59803530  1
  O2-  O245  1  0.45900697  0.91329080  0.94104424  1
  O2-  O246  1  0.95310920  0.41465024  0.26749423  1
  O2-  O247  1  0.95790001  0.41737993  0.60513707  1
  O2-  O248  1  0.96228387  0.41733663  0.93293722  1
  O2-  O249  1  0.95967962  0.91538689  0.26352626  1
  O2-  O250  1  0.96303190  0.91009910  0.60495877  1
  O2-  O251  1  0.95976442  0.91576650  0.92727343  1
  O2-  O252  1  0.33462511  0.29012440  0.26646645  1
  O2-  O253  1  0.33569719  0.29176962  0.60380660  1
  O2-  O254  1  0.33194497  0.28943496  0.92973206  1
  O2-  O255  1  0.33450862  0.79999774  0.26639826  1
  O2-  O256  1  0.32504265  0.79978958  0.60070553  1
  O2-  O257  1  0.33492866  0.79827543  0.94254780  1
  O2-  O258  1  0.83041899  0.29946655  0.26934198  1
  O2-  O259  1  0.83343902  0.30366824  0.60715012  1
  O2-  O260  1  0.82992104  0.29475469  0.93294595  1
  O2-  O261  1  0.83249272  0.78882625  0.26348511  1
  O2-  O262  1  0.83602235  0.79683300  0.60743763  1
  O2-  O263  1  0.83229557  0.78714686  0.92932905  1
  O2-  O264  1  0.41470460  0.03893516  0.07017861  1
  O2-  O265  1  0.41730034  0.04624840  0.40191323  1
  O2-  O266  1  0.41224427  0.04492647  0.72749527  1
  O2-  O267  1  0.41552694  0.54272377  0.06016636  1
  O2-  O268  1  0.41644537  0.53396458  0.39840227  1
  O2-  O269  1  0.41915750  0.54847059  0.73667774  1
  O2-  O270  1  0.91531557  0.04338574  0.05893555  1
  O2-  O271  1  0.92336385  0.04283098  0.39648861  1
  O2-  O272  1  0.92139599  0.03956041  0.73709537  1
  O2-  O273  1  0.91795956  0.54067192  0.06847243  1
  O2-  O274  1  0.91459233  0.54452404  0.39132386  1
  O2-  O275  1  0.91941016  0.54663643  0.73607494  1
  O2-  O276  1  0.28801329  0.16752755  0.06593948  1
  O2-  O277  1  0.28546456  0.16924348  0.40211966  1
  O2-  O278  1  0.28962674  0.16114601  0.72905620  1
  O2-  O279  1  0.29606951  0.66383513  0.06340184  1
  O2-  O280  1  0.29790532  0.67004197  0.39710484  1
  O2-  O281  1  0.28855138  0.67106631  0.73608825  1
  O2-  O282  1  0.79545407  0.16379598  0.06159954  1
  O2-  O283  1  0.79857753  0.17175149  0.40060491  1
  O2-  O284  1  0.79863396  0.17059455  0.73288287  1
  O2-  O285  1  0.78601557  0.66654427  0.06971338  1
  O2-  O286  1  0.79159779  0.66010066  0.39145616  1
  O2-  O287  1  0.79158708  0.66997022  0.73467025  1
