# generated using pymatgen
data_Ca2Al2SiO7
_symmetry_space_group_name_H-M   'P 1'
_cell_length_a   15.45866742
_cell_length_b   15.45881546
_cell_length_c   15.28367268
_cell_angle_alpha   90.00293572
_cell_angle_beta   89.99956591
_cell_angle_gamma   89.99393439
_symmetry_Int_Tables_number   1
_chemical_formula_structural   Ca2Al2SiO7
_chemical_formula_sum   'Ca48 Al48 Si24 O168'
_cell_volume   3652.38030202
_cell_formula_units_Z   24
loop_
 _symmetry_equiv_pos_site_id
 _symmetry_equiv_pos_as_xyz
  1  'x, y, z'
loop_
 _atom_type_symbol
 _atom_type_oxidation_number
  Ca2+  2.0
  Al0+  0.0
  Si0+  0.0
  O2-  -2.0
loop_
 _atom_site_type_symbol
 _atom_site_label
 _atom_site_symmetry_multiplicity
 _atom_site_fract_x
 _atom_site_fract_y
 _atom_site_fract_z
 _atom_site_occupancy
  Ca2+  Ca0  1  0.17537648  0.08524231  0.16587651  1
  Ca2+  Ca1  1  0.16147972  0.07780949  0.50989431  1
  Ca2+  Ca2  1  0.16867226  0.08071536  0.83684755  1
  Ca2+  Ca3  1  0.17560093  0.58664000  0.16728165  1
  Ca2+  Ca4  1  0.18134445  0.58656860  0.50605739  1
  Ca2+  Ca5  1  0.17787053  0.58060045  0.84484902  1
  Ca2+  Ca6  1  0.65649923  0.07143053  0.17063257  1
  Ca2+  Ca7  1  0.66382072  0.07779731  0.49847040  1
  Ca2+  Ca8  1  0.66435674  0.07513450  0.84471641  1
  Ca2+  Ca9  1  0.65617305  0.57804642  0.16694516  1
  Ca2+  Ca10  1  0.66865984  0.58204007  0.51081312  1
  Ca2+  Ca11  1  0.66421022  0.57865827  0.83440681  1
  Ca2+  Ca12  1  0.07853469  0.34148109  0.16187243  1
  Ca2+  Ca13  1  0.07811104  0.32897593  0.49709908  1
  Ca2+  Ca14  1  0.09128320  0.32776073  0.82973859  1
  Ca2+  Ca15  1  0.07207634  0.82717678  0.15781852  1
  Ca2+  Ca16  1  0.07324688  0.83597786  0.49774908  1
  Ca2+  Ca17  1  0.07569881  0.83263505  0.82775576  1
  Ca2+  Ca18  1  0.58062145  0.32144633  0.15517068  1
  Ca2+  Ca19  1  0.58024329  0.33443930  0.49828640  1
  Ca2+  Ca20  1  0.57329379  0.34283550  0.83210104  1
  Ca2+  Ca21  1  0.59065710  0.82315223  0.16044259  1
  Ca2+  Ca22  1  0.58774180  0.81953258  0.49388310  1
  Ca2+  Ca23  1  0.58512652  0.82244722  0.83276159  1
  Ca2+  Ca24  1  0.33550926  0.42534960  0.16300356  1
  Ca2+  Ca25  1  0.34040765  0.42635975  0.50598503  1
  Ca2+  Ca26  1  0.33496088  0.42151562  0.84126234  1
  Ca2+  Ca27  1  0.33996856  0.92445862  0.16780466  1
  Ca2+  Ca28  1  0.32386181  0.91881442  0.50786973  1
  Ca2+  Ca29  1  0.32793663  0.92277078  0.83904867  1
  Ca2+  Ca30  1  0.82863169  0.41605570  0.17061234  1
  Ca2+  Ca31  1  0.82689616  0.42323009  0.50994350  1
  Ca2+  Ca32  1  0.81959668  0.42024539  0.83932301  1
  Ca2+  Ca33  1  0.82482721  0.90845640  0.16834914  1
  Ca2+  Ca34  1  0.83097090  0.90944210  0.50238627  1
  Ca2+  Ca35  1  0.83185556  0.91272952  0.83849726  1
  Ca2+  Ca36  1  0.42506385  0.16932524  0.15497626  1
  Ca2+  Ca37  1  0.42232212  0.17605324  0.49602483  1
  Ca2+  Ca38  1  0.41621548  0.17690210  0.83389779  1
  Ca2+  Ca39  1  0.42300236  0.66102741  0.16225621  1
  Ca2+  Ca40  1  0.42588865  0.65847633  0.49777478  1
  Ca2+  Ca41  1  0.42651462  0.65065808  0.83117443  1
  Ca2+  Ca42  1  0.91561493  0.17402126  0.16610786  1
  Ca2+  Ca43  1  0.92080609  0.17304513  0.49704185  1
  Ca2+  Ca44  1  0.92335220  0.16791476  0.82732225  1
  Ca2+  Ca45  1  0.91998980  0.67706049  0.15678582  1
  Ca2+  Ca46  1  0.90931102  0.67606188  0.49753656  1
  Ca2+  Ca47  1  0.91753534  0.67458805  0.83028877  1
  Al0+  Al48  1  -0.00133847  0.00187126  -0.00088045  1
  Al0+  Al49  1  -0.00091705  0.00172387  0.32764708  1
  Al0+  Al50  1  -0.00078407  -0.00061136  0.66263222  1
  Al0+  Al51  1  -0.00041987  0.50150212  -0.00187903  1
  Al0+  Al52  1  0.00059033  0.49981403  0.33160820  1
  Al0+  Al53  1  0.00120285  0.50189401  0.66961987  1
  Al0+  Al54  1  0.50070965  -0.00158821  0.00355442  1
  Al0+  Al55  1  0.50007854  -0.00092821  0.33937130  1
  Al0+  Al56  1  0.49898935  -0.00008926  0.66657827  1
  Al0+  Al57  1  0.50052601  0.49870904  0.00217979  1
  Al0+  Al58  1  0.49945964  0.49897845  0.33392449  1
  Al0+  Al59  1  0.50041892  0.49868474  0.66375712  1
  Al0+  Al60  1  0.24979929  0.25044886  0.00634841  1
  Al0+  Al61  1  0.24962514  0.25111738  0.33481834  1
  Al0+  Al62  1  0.25186109  0.24996560  0.65449016  1
  Al0+  Al63  1  0.24941139  0.75075363  0.00201657  1
  Al0+  Al64  1  0.25102936  0.75133720  0.33892297  1
  Al0+  Al65  1  0.24993105  0.75172966  0.67646577  1
  Al0+  Al66  1  0.75091699  0.24835485  0.00005172  1
  Al0+  Al67  1  0.75071578  0.24790737  0.32713601  1
  Al0+  Al68  1  0.74917375  0.24830975  0.67064450  1
  Al0+  Al69  1  0.74970812  0.75035836  -0.00495767  1
  Al0+  Al70  1  0.74895745  0.74897849  0.32868740  1
  Al0+  Al71  1  0.75010006  0.74988301  0.66322020  1
  Al0+  Al72  1  0.93019831  0.32191097  0.32050446  1
  Al0+  Al73  1  0.17728831  0.93095869  0.68084599  1
  Al0+  Al74  1  0.57235443  0.17574574  0.98395199  1
  Al0+  Al75  1  0.67943053  0.42853970  0.01588885  1
  Al0+  Al76  1  0.56851662  0.67881169  0.98563046  1
  Al0+  Al77  1  0.56946915  0.17802039  0.32001860  1
  Al0+  Al78  1  0.56788139  0.68120422  0.65301743  1
  Al0+  Al79  1  0.32089970  0.56982136  0.34947230  1
  Al0+  Al80  1  0.93068651  0.81873313  0.65090036  1
  Al0+  Al81  1  0.92970119  0.82166092  0.98288540  1
  Al0+  Al82  1  0.06984550  0.18046961  0.65402865  1
  Al0+  Al83  1  0.68051268  0.92754698  0.34884254  1
  Al0+  Al84  1  0.31986428  0.06977445  0.01285350  1
  Al0+  Al85  1  0.42940011  0.31925694  0.98585330  1
  Al0+  Al86  1  0.67947994  0.42768460  0.68128398  1
  Al0+  Al87  1  0.92913745  0.82053765  0.31815563  1
  Al0+  Al88  1  0.17712047  0.42851266  0.01477981  1
  Al0+  Al89  1  0.68118582  0.92863818  0.01265676  1
  Al0+  Al90  1  0.56929455  0.67874463  0.31913047  1
  Al0+  Al91  1  0.43154124  0.31984716  0.65149155  1
  Al0+  Al92  1  0.32205271  0.57254935  0.01640215  1
  Al0+  Al93  1  0.82263958  0.57429060  0.68199565  1
  Al0+  Al94  1  0.07322691  0.67779929  0.98396451  1
  Al0+  Al95  1  0.32053157  0.56993526  0.68105949  1
  Si0+  Si96  1  0.17822480  0.42593353  0.67996922  1
  Si0+  Si97  1  0.82080371  0.57161468  0.01729998  1
  Si0+  Si98  1  0.82167457  0.57013983  0.34599127  1
  Si0+  Si99  1  0.42741931  0.32193427  0.31491595  1
  Si0+  Si100  1  0.42590572  0.82569517  0.65083021  1
  Si0+  Si101  1  0.92562856  0.32353802  0.65291118  1
  Si0+  Si102  1  0.92755972  0.32253668  0.98395118  1
  Si0+  Si103  1  0.07500446  0.67929407  0.31871237  1
  Si0+  Si104  1  0.82288336  0.07275581  0.35078635  1
  Si0+  Si105  1  0.32139227  0.07255621  0.35066583  1
  Si0+  Si106  1  0.07074429  0.18096244  0.98657586  1
  Si0+  Si107  1  0.82099335  0.07042935  0.68003262  1
  Si0+  Si108  1  0.67860220  0.92929531  0.68042985  1
  Si0+  Si109  1  0.17555457  0.42778987  0.35292971  1
  Si0+  Si110  1  0.17538216  0.92895296  0.01802908  1
  Si0+  Si111  1  0.42605709  0.82228077  0.31908692  1
  Si0+  Si112  1  0.68066259  0.42666141  0.34696165  1
  Si0+  Si113  1  0.07330989  0.17834432  0.31455531  1
  Si0+  Si114  1  0.57444825  0.17363471  0.64972712  1
  Si0+  Si115  1  0.42676157  0.82363736  0.98435852  1
  Si0+  Si116  1  0.32204272  0.07393409  0.68189036  1
  Si0+  Si117  1  0.07564904  0.67733094  0.64996910  1
  Si0+  Si118  1  0.17766205  0.93198204  0.34754333  1
  Si0+  Si119  1  0.82478214  0.07313685  0.01796750  1
  O2-  O120  1  0.24767926  -0.00648004  0.06297913  1
  O2-  O121  1  0.24755195  0.00373142  0.39165312  1
  O2-  O122  1  0.25396320  0.00463538  0.72584838  1
  O2-  O123  1  0.24662899  0.50277159  0.06507897  1
  O2-  O124  1  0.24557635  0.49512155  0.39657116  1
  O2-  O125  1  0.24247601  0.49754599  0.72485195  1
  O2-  O126  1  0.75437498  0.00511912  0.05987393  1
  O2-  O127  1  0.75641273  0.00200676  0.39568569  1
  O2-  O128  1  0.74629451  0.00360123  0.72182920  1
  O2-  O129  1  0.75356170  0.50302790  0.06446140  1
  O2-  O130  1  0.75124207  0.49841963  0.38853784  1
  O2-  O131  1  0.75404188  0.49803769  0.73011725  1
  O2-  O132  1  0.00725717  0.25003837  0.27179850  1
  O2-  O133  1  -0.00319648  0.25736596  0.60811467  1
  O2-  O134  1  0.00081421  0.25266180  0.94342078  1
  O2-  O135  1  0.00438161  0.74559538  0.27403188  1
  O2-  O136  1  0.00378908  0.74204438  0.60380712  1
  O2-  O137  1  0.00366228  0.75180022  0.93344698  1
  O2-  O138  1  0.49401616  0.25084194  0.27236073  1
  O2-  O139  1  0.50773779  0.24492017  0.60669900  1
  O2-  O140  1  0.50360533  0.25018887  0.93389188  1
  O2-  O141  1  0.49415242  0.75389635  0.27429665  1
  O2-  O142  1  0.49297941  0.75600958  0.60590983  1
  O2-  O143  1  0.48991696  0.75027653  0.93966244  1
  O2-  O144  1  0.06873138  0.17965753  0.09174501  1
  O2-  O145  1  0.07185067  0.17651036  0.42026080  1
  O2-  O146  1  0.06929272  0.18075951  0.76733391  1
  O2-  O147  1  0.07016093  0.68007861  0.09850171  1
  O2-  O148  1  0.07618798  0.68153432  0.42443636  1
  O2-  O149  1  0.07638615  0.68041828  0.75486151  1
  O2-  O150  1  0.56908433  0.17563323  0.09787164  1
  O2-  O151  1  0.56838741  0.18016592  0.43357835  1
  O2-  O152  1  0.57322545  0.16797152  0.75439225  1
  O2-  O153  1  0.56877391  0.68049839  0.09903323  1
  O2-  O154  1  0.57036734  0.67829080  0.43241446  1
  O2-  O155  1  0.56786128  0.68237594  0.76580423  1
  O2-  O156  1  0.17390003  0.42754096  0.24789200  1
  O2-  O157  1  0.17849853  0.42631045  0.57406883  1
  O2-  O158  1  0.17943165  0.42494864  0.90099866  1
  O2-  O159  1  0.17913446  0.93300453  0.24274575  1
  O2-  O160  1  0.17754419  0.93337424  0.56684740  1
  O2-  O161  1  0.17389290  0.93365239  0.91251514  1
  O2-  O162  1  0.68131437  0.42683924  0.24202008  1
  O2-  O163  1  0.68141577  0.42721757  0.56658970  1
  O2-  O164  1  0.68046134  0.42938965  0.90316637  1
  O2-  O165  1  0.68103310  0.92761136  0.23613997  1
  O2-  O166  1  0.67986615  0.92935076  0.57508925  1
  O2-  O167  1  0.68254461  0.92938959  0.89900610  1
  O2-  O168  1  0.43017776  0.31681910  0.09973557  1
  O2-  O169  1  0.42936294  0.32167288  0.42094172  1
  O2-  O170  1  0.42795230  0.31859029  0.76383880  1
  O2-  O171  1  0.42968698  0.82610192  0.09026737  1
  O2-  O172  1  0.42446055  0.82219109  0.42481403  1
  O2-  O173  1  0.42923068  0.83274977  0.75577410  1
  O2-  O174  1  0.92749091  0.32081101  0.08937137  1
  O2-  O175  1  0.93093768  0.31969692  0.43384694  1
  O2-  O176  1  0.92476507  0.31961232  0.75825606  1
  O2-  O177  1  0.93041223  0.82032903  0.09682305  1
  O2-  O178  1  0.93066344  0.81982928  0.43147937  1
  O2-  O179  1  0.93135725  0.82166889  0.76316500  1
  O2-  O180  1  0.32141937  0.07158657  0.24566993  1
  O2-  O181  1  0.32151708  0.07181515  0.57580828  1
  O2-  O182  1  0.31570524  0.06994905  0.89970042  1
  O2-  O183  1  0.32000479  0.57022859  0.23711034  1
  O2-  O184  1  0.32063195  0.56867370  0.56735135  1
  O2-  O185  1  0.32266360  0.56791336  0.90296915  1
  O2-  O186  1  0.82379708  0.07407811  0.24567757  1
  O2-  O187  1  0.82164078  0.07139301  0.57482815  1
  O2-  O188  1  0.82842717  0.07316266  0.91202455  1
  O2-  O189  1  0.82281025  0.56862209  0.24117096  1
  O2-  O190  1  0.81944707  0.57336371  0.56715368  1
  O2-  O191  1  0.82005798  0.56921812  0.91190354  1
  O2-  O192  1  0.04594364  0.08678814  0.26580322  1
  O2-  O193  1  0.03466117  0.08660138  0.59718273  1
  O2-  O194  1  0.04225754  0.08993315  0.93795760  1
  O2-  O195  1  0.05242930  0.58442153  0.27488959  1
  O2-  O196  1  0.05605588  0.58130828  0.60534139  1
  O2-  O197  1  0.04447545  0.57982679  0.93054750  1
  O2-  O198  1  0.53800538  0.07985429  0.26973947  1
  O2-  O199  1  0.54547764  0.08156783  0.60063918  1
  O2-  O200  1  0.54073346  0.07772007  0.93261342  1
  O2-  O201  1  0.53815077  0.58146753  0.26674984  1
  O2-  O202  1  0.53790785  0.58496245  0.59800317  1
  O2-  O203  1  0.54026215  0.58134661  0.93304342  1
  O2-  O204  1  0.16864784  0.20146776  0.27082201  1
  O2-  O205  1  0.16495329  0.20682208  0.59458547  1
  O2-  O206  1  0.16244939  0.20799801  0.93963229  1
  O2-  O207  1  0.16739469  0.70898957  0.27245622  1
  O2-  O208  1  0.16854462  0.70858290  0.60457824  1
  O2-  O209  1  0.17327633  0.70374168  0.93344566  1
  O2-  O210  1  0.66610811  0.20550083  0.26570910  1
  O2-  O211  1  0.66961361  0.19664579  0.60508354  1
  O2-  O212  1  0.67389184  0.19779320  0.93521583  1
  O2-  O213  1  0.66485892  0.70881179  0.26380137  1
  O2-  O214  1  0.66383628  0.71328608  0.59792925  1
  O2-  O215  1  0.66349648  0.71248319  0.93110006  1
  O2-  O216  1  0.07696459  0.45499486  0.06649506  1
  O2-  O217  1  0.08168815  0.45310251  0.39958829  1
  O2-  O218  1  0.08278342  0.44356293  0.72534886  1
  O2-  O219  1  0.08373413  0.96051410  0.06519004  1
  O2-  O220  1  0.08533333  0.96119754  0.39406439  1
  O2-  O221  1  0.08183180  0.96601363  0.73393483  1
  O2-  O222  1  0.58387549  0.45873263  0.07113752  1
  O2-  O223  1  0.58826601  0.45367412  0.39350149  1
  O2-  O224  1  0.58255222  0.46068761  0.73244253  1
  O2-  O225  1  0.58475508  0.95669432  0.06848264  1
  O2-  O226  1  0.58413266  0.95813206  0.40477693  1
  O2-  O227  1  0.58540288  0.95371502  0.72672172  1
  O2-  O228  1  0.20447879  0.33151030  0.07170113  1
  O2-  O229  1  0.19934146  0.33235329  0.39767527  1
  O2-  O230  1  0.20764013  0.33179552  0.72270497  1
  O2-  O231  1  0.19601286  0.83422066  0.06279918  1
  O2-  O232  1  0.20489587  0.84098829  0.39702845  1
  O2-  O233  1  0.20576901  0.83623939  0.73820794  1
  O2-  O234  1  0.71183698  0.33095894  0.06800552  1
  O2-  O235  1  0.70981365  0.33480885  0.39344246  1
  O2-  O236  1  0.70323801  0.32799186  0.73464115  1
  O2-  O237  1  0.71437055  0.83249380  0.06674230  1
  O2-  O238  1  0.71306814  0.83036062  0.40161106  1
  O2-  O239  1  0.71002616  0.83896998  0.72696682  1
  O2-  O240  1  0.45511283  0.41458083  0.27003205  1
  O2-  O241  1  0.46518084  0.41399749  0.59414748  1
  O2-  O242  1  0.45811725  0.41757509  0.93416712  1
  O2-  O243  1  0.45191881  0.91660634  0.27520245  1
  O2-  O244  1  0.45079715  0.91876845  0.60152902  1
  O2-  O245  1  0.45720324  0.91464145  0.93619314  1
  O2-  O246  1  0.95819663  0.41863148  0.26459496  1
  O2-  O247  1  0.94853179  0.41848243  0.60791250  1
  O2-  O248  1  0.95120570  0.41481469  0.93711203  1
  O2-  O249  1  0.95791552  0.91791191  0.26493764  1
  O2-  O250  1  0.96257399  0.91464373  0.59545572  1
  O2-  O251  1  0.95585238  0.92221193  0.93258259  1
  O2-  O252  1  0.33168335  0.29906093  0.27264279  1
  O2-  O253  1  0.33758613  0.28918492  0.59099987  1
  O2-  O254  1  0.33050355  0.28761858  0.93541982  1
  O2-  O255  1  0.33196000  0.79925732  0.27269895  1
  O2-  O256  1  0.33047017  0.80088982  0.60821436  1
  O2-  O257  1  0.33002616  0.80690883  0.94196943  1
  O2-  O258  1  0.83621220  0.28795311  0.26342308  1
  O2-  O259  1  0.83340577  0.29383410  0.60544752  1
  O2-  O260  1  0.83781241  0.29102871  0.93530514  1
  O2-  O261  1  0.83408421  0.78750496  0.26394493  1
  O2-  O262  1  0.83407253  0.78874397  0.59573767  1
  O2-  O263  1  0.83269339  0.79138085  0.92937331  1
  O2-  O264  1  0.41526577  0.03816613  0.06913953  1
  O2-  O265  1  0.41096243  0.04297195  0.40099227  1
  O2-  O266  1  0.41578829  0.04927098  0.72785101  1
  O2-  O267  1  0.41841436  0.53940481  0.07055679  1
  O2-  O268  1  0.41734182  0.53602950  0.40358869  1
  O2-  O269  1  0.41594913  0.53397869  0.73197210  1
  O2-  O270  1  0.91762514  0.04766909  0.06644611  1
  O2-  O271  1  0.91841465  0.04950000  0.39516960  1
  O2-  O272  1  0.91103196  0.03866926  0.72810393  1
  O2-  O273  1  0.91476131  0.54684189  0.06293410  1
  O2-  O274  1  0.91420400  0.54481216  0.39419778  1
  O2-  O275  1  0.92364732  0.55307016  0.73266832  1
  O2-  O276  1  0.28600440  0.16297453  0.07140348  1
  O2-  O277  1  0.29571014  0.16575358  0.39713569  1
  O2-  O278  1  0.29344127  0.16763678  0.72468038  1
  O2-  O279  1  0.29756490  0.67291824  0.06892343  1
  O2-  O280  1  0.29169459  0.66754211  0.40388284  1
  O2-  O281  1  0.29674367  0.66759267  0.73540002  1
  O2-  O282  1  0.80165468  0.16703171  0.06420284  1
  O2-  O283  1  0.79436107  0.16571655  0.39762338  1
  O2-  O284  1  0.79957485  0.16274594  0.72955294  1
  O2-  O285  1  0.79456441  0.66580536  0.06100201  1
  O2-  O286  1  0.79138742  0.66134829  0.39278434  1
  O2-  O287  1  0.78975597  0.67133031  0.73433773  1
