# generated using pymatgen
data_Ca2Al2SiO7
_symmetry_space_group_name_H-M   'P 1'
_cell_length_a   15.45874326
_cell_length_b   15.45959320
_cell_length_c   15.28449335
_cell_angle_alpha   89.99678912
_cell_angle_beta   90.00360642
_cell_angle_gamma   89.97200203
_symmetry_Int_Tables_number   1
_chemical_formula_structural   Ca2Al2SiO7
_chemical_formula_sum   'Ca48 Al48 Si24 O168'
_cell_volume   3652.77767655
_cell_formula_units_Z   24
loop_
 _symmetry_equiv_pos_site_id
 _symmetry_equiv_pos_as_xyz
  1  'x, y, z'
loop_
 _atom_type_symbol
 _atom_type_oxidation_number
  Ca2+  2.0
  Al0+  0.0
  Si0+  0.0
  O2-  -2.0
loop_
 _atom_site_type_symbol
 _atom_site_label
 _atom_site_symmetry_multiplicity
 _atom_site_fract_x
 _atom_site_fract_y
 _atom_site_fract_z
 _atom_site_occupancy
  Ca2+  Ca0  1  0.17165001  0.08978191  0.16487103  1
  Ca2+  Ca1  1  0.16449706  0.08372103  0.50760379  1
  Ca2+  Ca2  1  0.16934387  0.08710991  0.84226573  1
  Ca2+  Ca3  1  0.16370535  0.58009958  0.16341197  1
  Ca2+  Ca4  1  0.17502124  0.58401730  0.51045362  1
  Ca2+  Ca5  1  0.16826420  0.58403770  0.84125775  1
  Ca2+  Ca6  1  0.66333731  0.07691110  0.17147225  1
  Ca2+  Ca7  1  0.66317159  0.07522164  0.50459856  1
  Ca2+  Ca8  1  0.66008745  0.08432596  0.83962344  1
  Ca2+  Ca9  1  0.66978995  0.58477263  0.17137083  1
  Ca2+  Ca10  1  0.66593362  0.57560893  0.50967313  1
  Ca2+  Ca11  1  0.67390639  0.58448368  0.83394682  1
  Ca2+  Ca12  1  0.07221137  0.33544668  0.15598977  1
  Ca2+  Ca13  1  0.07727138  0.32934386  0.49649795  1
  Ca2+  Ca14  1  0.08431557  0.32995161  0.83515130  1
  Ca2+  Ca15  1  0.07663955  0.82682840  0.16245314  1
  Ca2+  Ca16  1  0.07150811  0.82677392  0.50035758  1
  Ca2+  Ca17  1  0.07901738  0.81990738  0.82617751  1
  Ca2+  Ca18  1  0.57918167  0.33360768  0.16383808  1
  Ca2+  Ca19  1  0.57533616  0.34521573  0.49739732  1
  Ca2+  Ca20  1  0.58232053  0.32464379  0.82342422  1
  Ca2+  Ca21  1  0.58597893  0.82444274  0.16119978  1
  Ca2+  Ca22  1  0.59065422  0.81842533  0.49565273  1
  Ca2+  Ca23  1  0.57888385  0.82143621  0.83400125  1
  Ca2+  Ca24  1  0.32574446  0.41092854  0.16959659  1
  Ca2+  Ca25  1  0.33632157  0.41767126  0.50843223  1
  Ca2+  Ca26  1  0.32931870  0.41786028  0.83327502  1
  Ca2+  Ca27  1  0.33944459  0.92096640  0.16488532  1
  Ca2+  Ca28  1  0.33027211  0.91922487  0.50616246  1
  Ca2+  Ca29  1  0.33669754  0.92339405  0.84461294  1
  Ca2+  Ca30  1  0.83124244  0.41961900  0.17100401  1
  Ca2+  Ca31  1  0.82105010  0.41833121  0.50729988  1
  Ca2+  Ca32  1  0.83386817  0.42645913  0.83937422  1
  Ca2+  Ca33  1  0.82891330  0.91817304  0.17596606  1
  Ca2+  Ca34  1  0.83264266  0.91013307  0.50333924  1
  Ca2+  Ca35  1  0.83530140  0.91621201  0.83434292  1
  Ca2+  Ca36  1  0.42149033  0.16932999  0.15956757  1
  Ca2+  Ca37  1  0.42288632  0.18066021  0.50015466  1
  Ca2+  Ca38  1  0.42374768  0.17011049  0.82958137  1
  Ca2+  Ca39  1  0.43232733  0.67194157  0.15885076  1
  Ca2+  Ca40  1  0.43005107  0.65370150  0.49981102  1
  Ca2+  Ca41  1  0.42463420  0.66259507  0.82778402  1
  Ca2+  Ca42  1  0.91756672  0.18191494  0.15910384  1
  Ca2+  Ca43  1  0.92081321  0.17226125  0.49679247  1
  Ca2+  Ca44  1  0.92622974  0.17390970  0.83025074  1
  Ca2+  Ca45  1  0.91541674  0.67016789  0.15893270  1
  Ca2+  Ca46  1  0.90881704  0.67277470  0.50196593  1
  Ca2+  Ca47  1  0.92327537  0.66145530  0.82806355  1
  Al0+  Al48  1  -0.00026586  0.00170500  0.00140090  1
  Al0+  Al49  1  0.00237698  -0.00139680  0.32949923  1
  Al0+  Al50  1  -0.00059264  -0.00073537  0.66057559  1
  Al0+  Al51  1  -0.00137697  0.50254895  0.00203587  1
  Al0+  Al52  1  0.00209153  0.49939042  0.33300634  1
  Al0+  Al53  1  0.00043559  0.49810323  0.66469760  1
  Al0+  Al54  1  0.49933499  0.00060051  -0.00085539  1
  Al0+  Al55  1  0.49954807  -0.00006650  0.34219948  1
  Al0+  Al56  1  0.49943940  0.00077043  0.66414369  1
  Al0+  Al57  1  0.50015943  0.50002954  -0.00325481  1
  Al0+  Al58  1  0.50009514  0.49996995  0.32440271  1
  Al0+  Al59  1  0.49811257  0.49897559  0.67071809  1
  Al0+  Al60  1  0.24972785  0.25000341  0.00716321  1
  Al0+  Al61  1  0.25195165  0.25020709  0.33268437  1
  Al0+  Al62  1  0.25109634  0.24886929  0.65957995  1
  Al0+  Al63  1  0.24921344  0.75245257  -0.00224060  1
  Al0+  Al64  1  0.25089939  0.75146413  0.33464480  1
  Al0+  Al65  1  0.24865169  0.75050170  0.66818274  1
  Al0+  Al66  1  0.74957294  0.25138240  -0.00672026  1
  Al0+  Al67  1  0.75052719  0.24957326  0.33466141  1
  Al0+  Al68  1  0.75047747  0.24492690  0.66657620  1
  Al0+  Al69  1  0.74872565  0.75024777  0.00016586  1
  Al0+  Al70  1  0.75148872  0.75102221  0.32911872  1
  Al0+  Al71  1  0.74822878  0.75036171  0.66594620  1
  Al0+  Al72  1  0.07069581  0.18002556  0.65332654  1
  Al0+  Al73  1  0.56986580  0.18038983  0.98887163  1
  Al0+  Al74  1  0.81892117  0.57096291  0.01501098  1
  Al0+  Al75  1  0.31949071  0.57137979  0.68058631  1
  Al0+  Al76  1  0.67755105  0.42612769  0.68288824  1
  Al0+  Al77  1  0.06937552  0.68048564  0.98809511  1
  Al0+  Al78  1  0.07181573  0.17981804  0.98691345  1
  Al0+  Al79  1  0.67877591  0.42971300  0.34495103  1
  Al0+  Al80  1  0.32076575  0.07002155  0.01411916  1
  Al0+  Al81  1  0.57052158  0.67977194  0.31962366  1
  Al0+  Al82  1  0.92808442  0.32386123  0.98356898  1
  Al0+  Al83  1  0.07295911  0.67485041  0.65119173  1
  Al0+  Al84  1  0.18086001  0.43131984  0.01357464  1
  Al0+  Al85  1  0.68030908  0.92844187  0.34782404  1
  Al0+  Al86  1  0.93035642  0.81944292  0.31785457  1
  Al0+  Al87  1  0.57272395  0.67688664  0.98254130  1
  Al0+  Al88  1  0.43005987  0.82135777  0.98687856  1
  Al0+  Al89  1  0.43168571  0.32026841  0.65285034  1
  Al0+  Al90  1  0.57412573  0.17615782  0.64954977  1
  Al0+  Al91  1  0.42985081  0.32103633  0.31699533  1
  Al0+  Al92  1  0.92898758  0.81929446  0.65261985  1
  Al0+  Al93  1  0.92830582  0.32089423  0.32052654  1
  Al0+  Al94  1  0.82055219  0.57118649  0.68132399  1
  Al0+  Al95  1  0.56845963  0.68011454  0.65362857  1
  Si0+  Si96  1  0.42584214  0.32234672  0.98418868  1
  Si0+  Si97  1  0.17582273  0.92698823  0.01828559  1
  Si0+  Si98  1  0.42652958  0.82336798  0.65006060  1
  Si0+  Si99  1  0.92664068  0.32212768  0.64952530  1
  Si0+  Si100  1  0.32003263  0.57049575  0.34531783  1
  Si0+  Si101  1  0.17733893  0.93038867  0.68203088  1
  Si0+  Si102  1  0.82391103  0.07156243  0.34975256  1
  Si0+  Si103  1  0.92652050  0.82398416  0.98482244  1
  Si0+  Si104  1  0.07291998  0.17805804  0.31569382  1
  Si0+  Si105  1  0.17894803  0.42804059  0.34953682  1
  Si0+  Si106  1  0.82380762  0.57216051  0.34932684  1
  Si0+  Si107  1  0.68032245  0.93167554  0.01406904  1
  Si0+  Si108  1  0.67807603  0.92957802  0.68354055  1
  Si0+  Si109  1  0.17789072  0.42516707  0.68124331  1
  Si0+  Si110  1  0.32390061  0.57521465  0.01792340  1
  Si0+  Si111  1  0.42651871  0.82462571  0.31878827  1
  Si0+  Si112  1  0.31965037  0.07021836  0.68151703  1
  Si0+  Si113  1  0.17874944  0.92864066  0.35020695  1
  Si0+  Si114  1  0.67689992  0.42573644  0.01630226  1
  Si0+  Si115  1  0.82350319  0.06911255  0.68222854  1
  Si0+  Si116  1  0.07585955  0.67806704  0.31641895  1
  Si0+  Si117  1  0.32046110  0.07225282  0.35209580  1
  Si0+  Si118  1  0.57105207  0.17554894  0.31794821  1
  Si0+  Si119  1  0.82255429  0.07345782  0.01451203  1
  O2-  O120  1  0.24502694  -0.00399036  0.06210033  1
  O2-  O121  1  0.24858264  0.00101638  0.39306143  1
  O2-  O122  1  0.25073414  -0.00182655  0.72500622  1
  O2-  O123  1  0.25699047  0.50471636  0.06262247  1
  O2-  O124  1  0.24897116  0.50048025  0.38994515  1
  O2-  O125  1  0.24048760  0.49969865  0.72490629  1
  O2-  O126  1  0.75218812  0.00178314  0.05693752  1
  O2-  O127  1  0.75581705  0.00263743  0.39512722  1
  O2-  O128  1  0.74826487  0.00216571  0.72501784  1
  O2-  O129  1  0.74261691  0.49716086  0.06097403  1
  O2-  O130  1  0.75541600  0.50258590  0.39204683  1
  O2-  O131  1  0.75167136  0.49642720  0.73219274  1
  O2-  O132  1  0.00340018  0.24630772  0.27338970  1
  O2-  O133  1  -0.00248906  0.25494090  0.60564942  1
  O2-  O134  1  0.00054253  0.25093742  0.93561913  1
  O2-  O135  1  0.00294203  0.74251444  0.27264609  1
  O2-  O136  1  -0.00296790  0.74326564  0.60212424  1
  O2-  O137  1  -0.00379792  0.75649724  0.94173642  1
  O2-  O138  1  0.50508896  0.24587558  0.27247307  1
  O2-  O139  1  0.50888044  0.25453127  0.60064210  1
  O2-  O140  1  0.49904814  0.25800314  0.94163361  1
  O2-  O141  1  0.49753486  0.75815123  0.27601718  1
  O2-  O142  1  0.49215061  0.75269959  0.60478083  1
  O2-  O143  1  0.49414020  0.74376701  0.93538064  1
  O2-  O144  1  0.06905479  0.18100023  0.10070038  1
  O2-  O145  1  0.07304961  0.17817300  0.42174807  1
  O2-  O146  1  0.07126562  0.17939433  0.76583194  1
  O2-  O147  1  0.06768518  0.68223137  0.10172105  1
  O2-  O148  1  0.08046856  0.68053999  0.42154705  1
  O2-  O149  1  0.07450934  0.67906660  0.76462779  1
  O2-  O150  1  0.56851890  0.17801472  0.10227969  1
  O2-  O151  1  0.56773411  0.17315413  0.42305212  1
  O2-  O152  1  0.56744413  0.17221393  0.76302854  1
  O2-  O153  1  0.57457556  0.68099440  0.09654111  1
  O2-  O154  1  0.56863938  0.67813591  0.43282600  1
  O2-  O155  1  0.56885628  0.68331608  0.76607084  1
  O2-  O156  1  0.17838212  0.42722114  0.24461060  1
  O2-  O157  1  0.18099994  0.42323249  0.57510349  1
  O2-  O158  1  0.18306343  0.43065272  0.90048831  1
  O2-  O159  1  0.17921544  0.92730230  0.24549067  1
  O2-  O160  1  0.17862394  0.93259237  0.57629885  1
  O2-  O161  1  0.17445654  0.92754127  0.91283521  1
  O2-  O162  1  0.67888855  0.43089676  0.23185771  1
  O2-  O163  1  0.67807016  0.43010367  0.56856801  1
  O2-  O164  1  0.67878365  0.42327894  0.91122424  1
  O2-  O165  1  0.68012100  0.93130449  0.23430599  1
  O2-  O166  1  0.67888263  0.92916950  0.57823699  1
  O2-  O167  1  0.68106441  0.93260592  0.90885882  1
  O2-  O168  1  0.42627327  0.31991433  0.09023701  1
  O2-  O169  1  0.42748538  0.32138208  0.42962861  1
  O2-  O170  1  0.42640658  0.31520267  0.76613945  1
  O2-  O171  1  0.43519788  0.82257295  0.10096593  1
  O2-  O172  1  0.42291886  0.82407876  0.42426001  1
  O2-  O173  1  0.42922941  0.82643522  0.75533411  1
  O2-  O174  1  0.92761795  0.32150979  0.09767705  1
  O2-  O175  1  0.93141254  0.31839682  0.43365150  1
  O2-  O176  1  0.92738031  0.32077432  0.75474353  1
  O2-  O177  1  0.92700783  0.82393036  0.09075873  1
  O2-  O178  1  0.93146149  0.82006613  0.43052094  1
  O2-  O179  1  0.93284627  0.82413816  0.76596457  1
  O2-  O180  1  0.32146522  0.07176728  0.24710594  1
  O2-  O181  1  0.31749170  0.06837388  0.57600826  1
  O2-  O182  1  0.32054147  0.06882065  0.90090944  1
  O2-  O183  1  0.31703187  0.57082233  0.24044360  1
  O2-  O184  1  0.32035871  0.56912319  0.56652513  1
  O2-  O185  1  0.32194886  0.57505433  0.91249934  1
  O2-  O186  1  0.82263876  0.07056893  0.24390966  1
  O2-  O187  1  0.82606151  0.06672197  0.57700912  1
  O2-  O188  1  0.82413525  0.07090741  0.90945910  1
  O2-  O189  1  0.82371971  0.57194629  0.24358562  1
  O2-  O190  1  0.81728009  0.57151299  0.56718926  1
  O2-  O191  1  0.81963584  0.57203322  0.90239574  1
  O2-  O192  1  0.05145307  0.08354603  0.27051018  1
  O2-  O193  1  0.03831511  0.08507720  0.59659449  1
  O2-  O194  1  0.04513531  0.08027277  0.93530969  1
  O2-  O195  1  0.05484272  0.58232856  0.27350682  1
  O2-  O196  1  0.05278967  0.57436474  0.59914923  1
  O2-  O197  1  0.03853561  0.58538113  0.93397477  1
  O2-  O198  1  0.54111091  0.08217361  0.27284123  1
  O2-  O199  1  0.53814898  0.08034369  0.59479969  1
  O2-  O200  1  0.53659076  0.08555825  0.93364211  1
  O2-  O201  1  0.53650978  0.58715348  0.26102661  1
  O2-  O202  1  0.53682761  0.58307606  0.60178468  1
  O2-  O203  1  0.54953048  0.57685349  0.93147957  1
  O2-  O204  1  0.16681632  0.20459152  0.27168811  1
  O2-  O205  1  0.16606313  0.20834910  0.59554856  1
  O2-  O206  1  0.17120716  0.20792897  0.93666427  1
  O2-  O207  1  0.16726750  0.70949764  0.26851368  1
  O2-  O208  1  0.16977087  0.70979653  0.59756610  1
  O2-  O209  1  0.16636689  0.70890456  0.93441844  1
  O2-  O210  1  0.66673393  0.19622210  0.27501482  1
  O2-  O211  1  0.67655708  0.19065475  0.60054238  1
  O2-  O212  1  0.66638765  0.20478345  0.93247308  1
  O2-  O213  1  0.66662789  0.71051772  0.26549115  1
  O2-  O214  1  0.66331758  0.71370330  0.59875529  1
  O2-  O215  1  0.66800897  0.71437784  0.92974765  1
  O2-  O216  1  0.08531292  0.46476956  0.06897364  1
  O2-  O217  1  0.08712677  0.45391853  0.39814235  1
  O2-  O218  1  0.08190097  0.44208643  0.72461218  1
  O2-  O219  1  0.08256386  0.95365359  0.06612654  1
  O2-  O220  1  0.08679059  0.95666245  0.39780817  1
  O2-  O221  1  0.08637742  0.96152046  0.72805777  1
  O2-  O222  1  0.58071812  0.44765398  0.05991382  1
  O2-  O223  1  0.58102546  0.46320852  0.39599195  1
  O2-  O224  1  0.57966029  0.45391055  0.73574834  1
  O2-  O225  1  0.58977488  0.96167748  0.06230213  1
  O2-  O226  1  0.58386302  0.95688528  0.40441758  1
  O2-  O227  1  0.58550082  0.95802819  0.72932866  1
  O2-  O228  1  0.21007852  0.33579962  0.07166943  1
  O2-  O229  1  0.20812508  0.33604691  0.39652606  1
  O2-  O230  1  0.21096391  0.33342747  0.72735559  1
  O2-  O231  1  0.20182943  0.83409894  0.06650972  1
  O2-  O232  1  0.20826957  0.83777808  0.39941949  1
  O2-  O233  1  0.20142371  0.83770216  0.72884145  1
  O2-  O234  1  0.70458317  0.33237204  0.06303795  1
  O2-  O235  1  0.70588467  0.33168525  0.39892089  1
  O2-  O236  1  0.70196186  0.32391191  0.73044362  1
  O2-  O237  1  0.70749260  0.84008971  0.06215666  1
  O2-  O238  1  0.71323299  0.83187891  0.40095674  1
  O2-  O239  1  0.70711571  0.83905374  0.73194128  1
  O2-  O240  1  0.45857784  0.41574381  0.25938978  1
  O2-  O241  1  0.45512822  0.41982718  0.60009478  1
  O2-  O242  1  0.44409497  0.41786881  0.94019591  1
  O2-  O243  1  0.45074104  0.91989749  0.27576101  1
  O2-  O244  1  0.45327618  0.91590117  0.60234243  1
  O2-  O245  1  0.46383878  0.91680865  0.93154483  1
  O2-  O246  1  0.95991337  0.41776249  0.26724480  1
  O2-  O247  1  0.94975995  0.41525309  0.60199043  1
  O2-  O248  1  0.95907507  0.42116591  0.93267094  1
  O2-  O249  1  0.96272203  0.91584035  0.26332648  1
  O2-  O250  1  0.96178096  0.91485055  0.59565629  1
  O2-  O251  1  0.95014844  0.91845313  0.94046905  1
  O2-  O252  1  0.33311545  0.28789152  0.26401225  1
  O2-  O253  1  0.33628596  0.28638971  0.59562493  1
  O2-  O254  1  0.33409791  0.29121570  0.93958929  1
  O2-  O255  1  0.33368794  0.79838469  0.27116118  1
  O2-  O256  1  0.33107461  0.80243888  0.60635251  1
  O2-  O257  1  0.32824595  0.80478103  0.93730355  1
  O2-  O258  1  0.83206190  0.28954672  0.26573382  1
  O2-  O259  1  0.83477958  0.29156263  0.60304975  1
  O2-  O260  1  0.83153062  0.29436428  0.92924086  1
  O2-  O261  1  0.83413577  0.79232943  0.26204232  1
  O2-  O262  1  0.82956039  0.79464891  0.59985572  1
  O2-  O263  1  0.83330970  0.79902760  0.93928192  1
  O2-  O264  1  0.41620991  0.03595803  0.07028997  1
  O2-  O265  1  0.41075359  0.04440056  0.40225116  1
  O2-  O266  1  0.41234596  0.04316929  0.72767067  1
  O2-  O267  1  0.41911477  0.55117046  0.06199737  1
  O2-  O268  1  0.41198306  0.54018612  0.39043870  1
  O2-  O269  1  0.41302520  0.53749525  0.73761790  1
  O2-  O270  1  0.91359437  0.04706892  0.06497986  1
  O2-  O271  1  0.91909118  0.04593691  0.39330954  1
  O2-  O272  1  0.91364868  0.03608592  0.73040614  1
  O2-  O273  1  0.91486301  0.54136619  0.07092123  1
  O2-  O274  1  0.91891114  0.54940636  0.39415538  1
  O2-  O275  1  0.92186307  0.54525300  0.73084487  1
  O2-  O276  1  0.29080549  0.16486259  0.07245707  1
  O2-  O277  1  0.29113006  0.16391703  0.39947788  1
  O2-  O278  1  0.28994795  0.16193712  0.72686678  1
  O2-  O279  1  0.29641329  0.66880706  0.06377971  1
  O2-  O280  1  0.29485569  0.66296976  0.39357304  1
  O2-  O281  1  0.29331341  0.66983530  0.73406738  1
  O2-  O282  1  0.79299428  0.16543863  0.06059701  1
  O2-  O283  1  0.79929371  0.16460947  0.39707218  1
  O2-  O284  1  0.80192195  0.16182691  0.73002627  1
  O2-  O285  1  0.78849069  0.66883236  0.06904242  1
  O2-  O286  1  0.79729587  0.66636724  0.39280934  1
  O2-  O287  1  0.79068894  0.66989011  0.73354210  1
