# generated using pymatgen
data_Ca2Al2SiO7
_symmetry_space_group_name_H-M   'P 1'
_cell_length_a   15.46597153
_cell_length_b   15.46514347
_cell_length_c   15.28948162
_cell_angle_alpha   89.99576315
_cell_angle_beta   90.00010059
_cell_angle_gamma   90.04199925
_symmetry_Int_Tables_number   1
_chemical_formula_structural   Ca2Al2SiO7
_chemical_formula_sum   'Ca48 Al48 Si24 O168'
_cell_volume   3656.99025306
_cell_formula_units_Z   24
loop_
 _symmetry_equiv_pos_site_id
 _symmetry_equiv_pos_as_xyz
  1  'x, y, z'
loop_
 _atom_type_symbol
 _atom_type_oxidation_number
  Ca2+  2.0
  Al0+  0.0
  Si0+  0.0
  O2-  -2.0
loop_
 _atom_site_type_symbol
 _atom_site_label
 _atom_site_symmetry_multiplicity
 _atom_site_fract_x
 _atom_site_fract_y
 _atom_site_fract_z
 _atom_site_occupancy
  Ca2+  Ca0  1  0.16041092  0.07628059  0.17764620  1
  Ca2+  Ca1  1  0.16150447  0.07396625  0.50389778  1
  Ca2+  Ca2  1  0.16827884  0.07863824  0.83177213  1
  Ca2+  Ca3  1  0.17120233  0.58527737  0.16561209  1
  Ca2+  Ca4  1  0.17549524  0.58493153  0.51107280  1
  Ca2+  Ca5  1  0.16239226  0.57884029  0.83934661  1
  Ca2+  Ca6  1  0.67668632  0.08406483  0.16296020  1
  Ca2+  Ca7  1  0.67433231  0.07608908  0.50502212  1
  Ca2+  Ca8  1  0.67147109  0.07414989  0.84122008  1
  Ca2+  Ca9  1  0.67897999  0.58437579  0.16871851  1
  Ca2+  Ca10  1  0.67984154  0.58029743  0.50710374  1
  Ca2+  Ca11  1  0.68124625  0.57379964  0.83583382  1
  Ca2+  Ca12  1  0.08673142  0.32702308  0.16190836  1
  Ca2+  Ca13  1  0.08172603  0.33102962  0.50110797  1
  Ca2+  Ca14  1  0.08086987  0.33793943  0.82464708  1
  Ca2+  Ca15  1  0.07741679  0.82892795  0.16437326  1
  Ca2+  Ca16  1  0.07762113  0.83362413  0.49844295  1
  Ca2+  Ca17  1  0.07739895  0.82048904  0.82431323  1
  Ca2+  Ca18  1  0.58600888  0.32998748  0.15539952  1
  Ca2+  Ca19  1  0.58274298  0.33807339  0.49809134  1
  Ca2+  Ca20  1  0.59361617  0.33103078  0.82896807  1
  Ca2+  Ca21  1  0.57931369  0.83533841  0.15966684  1
  Ca2+  Ca22  1  0.58287094  0.83443854  0.50028090  1
  Ca2+  Ca23  1  0.58518993  0.83685869  0.82720975  1
  Ca2+  Ca24  1  0.32981649  0.42680587  0.16691594  1
  Ca2+  Ca25  1  0.32554501  0.42502996  0.50779755  1
  Ca2+  Ca26  1  0.31980653  0.42783847  0.83581188  1
  Ca2+  Ca27  1  0.32286758  0.91685687  0.17182606  1
  Ca2+  Ca28  1  0.31604739  0.92109269  0.50761521  1
  Ca2+  Ca29  1  0.32715723  0.91767028  0.82924735  1
  Ca2+  Ca30  1  0.83259113  0.42869652  0.16538971  1
  Ca2+  Ca31  1  0.83495643  0.42650484  0.50922504  1
  Ca2+  Ca32  1  0.83527022  0.42464754  0.83669567  1
  Ca2+  Ca33  1  0.83603005  0.92515715  0.17252575  1
  Ca2+  Ca34  1  0.83867826  0.91861723  0.50523984  1
  Ca2+  Ca35  1  0.82564435  0.91493058  0.83765973  1
  Ca2+  Ca36  1  0.42593971  0.17054125  0.15493416  1
  Ca2+  Ca37  1  0.41531464  0.16447030  0.49803905  1
  Ca2+  Ca38  1  0.42275637  0.16559899  0.82663496  1
  Ca2+  Ca39  1  0.41292754  0.66377792  0.16150291  1
  Ca2+  Ca40  1  0.41683521  0.65884540  0.49618156  1
  Ca2+  Ca41  1  0.41662517  0.65888073  0.82988611  1
  Ca2+  Ca42  1  0.91630502  0.16259513  0.16470238  1
  Ca2+  Ca43  1  0.91747872  0.17407645  0.49346436  1
  Ca2+  Ca44  1  0.91064929  0.17560116  0.82868898  1
  Ca2+  Ca45  1  0.91521231  0.66948994  0.16104149  1
  Ca2+  Ca46  1  0.91670158  0.67395573  0.49914990  1
  Ca2+  Ca47  1  0.92293604  0.66360782  0.82333865  1
  Al0+  Al48  1  0.00023838  -0.00051774  0.00017102  1
  Al0+  Al49  1  -0.00183578  0.00015673  0.33429498  1
  Al0+  Al50  1  0.00102068  0.00051735  0.67039874  1
  Al0+  Al51  1  0.00099528  0.49808473  0.00677040  1
  Al0+  Al52  1  0.00026007  0.49928313  0.33592361  1
  Al0+  Al53  1  0.00173988  0.49986890  0.66128946  1
  Al0+  Al54  1  0.49965019  0.00099033  -0.00191633  1
  Al0+  Al55  1  0.49989048  -0.00029255  0.32950578  1
  Al0+  Al56  1  0.50214547  0.00011712  0.66984066  1
  Al0+  Al57  1  0.49746822  0.50012631  0.00377093  1
  Al0+  Al58  1  0.49927685  0.49976798  0.33354481  1
  Al0+  Al59  1  0.50042805  0.49771011  0.67109669  1
  Al0+  Al60  1  0.25156225  0.25011392  0.00091491  1
  Al0+  Al61  1  0.25169632  0.25074786  0.32662032  1
  Al0+  Al62  1  0.25358351  0.25146053  0.67176351  1
  Al0+  Al63  1  0.24878737  0.75127565  -0.00172528  1
  Al0+  Al64  1  0.24999790  0.75080937  0.34074562  1
  Al0+  Al65  1  0.25258421  0.75333748  0.66967111  1
  Al0+  Al66  1  0.75063903  0.24802738  0.00197790  1
  Al0+  Al67  1  0.74922225  0.24886065  0.33528407  1
  Al0+  Al68  1  0.74994133  0.24801421  0.65990644  1
  Al0+  Al69  1  0.74586540  0.75084003  0.00546115  1
  Al0+  Al70  1  0.74846222  0.74935618  0.33213052  1
  Al0+  Al71  1  0.74875625  0.74967894  0.66925481  1
  Al0+  Al72  1  0.82243325  0.57200742  0.01486678  1
  Al0+  Al73  1  0.06861026  0.67940175  0.98847211  1
  Al0+  Al74  1  0.32187668  0.07139178  0.68047170  1
  Al0+  Al75  1  0.67615028  0.92879176  0.01646043  1
  Al0+  Al76  1  0.06902318  0.18096539  0.32129428  1
  Al0+  Al77  1  0.07353394  0.67879365  0.65099374  1
  Al0+  Al78  1  0.17840387  0.43051500  0.67965025  1
  Al0+  Al79  1  0.92854624  0.32043878  0.65295228  1
  Al0+  Al80  1  0.17805450  0.93050548  0.34631830  1
  Al0+  Al81  1  0.81973557  0.07026219  0.34900183  1
  Al0+  Al82  1  0.17571062  0.92894426  0.68460125  1
  Al0+  Al83  1  0.57120810  0.18115052  0.98366686  1
  Al0+  Al84  1  0.31873218  0.57326362  0.01558988  1
  Al0+  Al85  1  0.31960671  0.56956060  0.34796134  1
  Al0+  Al86  1  0.32220280  0.57316877  0.68121639  1
  Al0+  Al87  1  0.82219878  0.57262487  0.34899175  1
  Al0+  Al88  1  0.82241871  0.06950035  0.01450528  1
  Al0+  Al89  1  0.67939345  0.42802547  0.01372038  1
  Al0+  Al90  1  0.68109337  0.92936436  0.67860560  1
  Al0+  Al91  1  0.92838648  0.81948098  0.31917415  1
  Al0+  Al92  1  0.82239714  0.57080589  0.67975789  1
  Al0+  Al93  1  0.92679533  0.82128897  0.65332979  1
  Al0+  Al94  1  0.67965036  0.42638998  0.67924207  1
  Al0+  Al95  1  0.17735026  0.42672478  0.01732590  1
  Si0+  Si96  1  0.07424455  0.17615832  0.98427538  1
  Si0+  Si97  1  0.92555923  0.32329704  0.31457239  1
  Si0+  Si98  1  0.56859379  0.67747374  0.65232956  1
  Si0+  Si99  1  0.82308017  0.07279554  0.68169230  1
  Si0+  Si100  1  0.17991621  0.93037491  0.01552129  1
  Si0+  Si101  1  0.43087889  0.32194179  0.31616009  1
  Si0+  Si102  1  0.56889832  0.67844856  0.31780843  1
  Si0+  Si103  1  0.43036777  0.32041842  0.65045616  1
  Si0+  Si104  1  0.43092421  0.82402397  0.65069825  1
  Si0+  Si105  1  0.07430478  0.67775347  0.31776747  1
  Si0+  Si106  1  0.42857100  0.82110864  0.98376924  1
  Si0+  Si107  1  0.93163738  0.31826374  0.98738564  1
  Si0+  Si108  1  0.42715981  0.32336550  0.97982324  1
  Si0+  Si109  1  0.42786731  0.82098947  0.31896060  1
  Si0+  Si110  1  0.57129364  0.17775122  0.31668536  1
  Si0+  Si111  1  0.92578906  0.82245574  0.98479456  1
  Si0+  Si112  1  0.32362911  0.07310297  0.34594712  1
  Si0+  Si113  1  0.57077284  0.17704549  0.64828056  1
  Si0+  Si114  1  0.17892497  0.42428975  0.35011906  1
  Si0+  Si115  1  0.67538158  0.92782062  0.34976725  1
  Si0+  Si116  1  0.07531585  0.17907452  0.65231417  1
  Si0+  Si117  1  0.67861909  0.42868509  0.34884079  1
  Si0+  Si118  1  0.57059801  0.67764281  0.98449570  1
  Si0+  Si119  1  0.32105554  0.07082845  0.01501957  1
  O2-  O120  1  0.24706482  0.00460732  0.05923081  1
  O2-  O121  1  0.25252960  0.00775967  0.38971791  1
  O2-  O122  1  0.24815427  0.00254961  0.73218507  1
  O2-  O123  1  0.24785414  0.50081412  0.06616614  1
  O2-  O124  1  0.24206641  0.49823610  0.39352349  1
  O2-  O125  1  0.24286452  0.50930159  0.72973448  1
  O2-  O126  1  0.75304399  -0.00475434  0.06581929  1
  O2-  O127  1  0.74572363  -0.00589964  0.39411312  1
  O2-  O128  1  0.75956618  -0.00059334  0.72489387  1
  O2-  O129  1  0.74708757  0.50276353  0.06507804  1
  O2-  O130  1  0.75019553  0.49359626  0.39276743  1
  O2-  O131  1  0.75493032  0.49409517  0.72869587  1
  O2-  O132  1  -0.00341133  0.25629664  0.27106898  1
  O2-  O133  1  0.00444070  0.24531850  0.60806406  1
  O2-  O134  1  0.00417987  0.24848718  0.94396117  1
  O2-  O135  1  0.00102552  0.74172539  0.27320361  1
  O2-  O136  1  0.00070692  0.75136956  0.60238774  1
  O2-  O137  1  -0.01092855  0.74886842  0.94171635  1
  O2-  O138  1  0.50130686  0.24991668  0.27461726  1
  O2-  O139  1  0.50126148  0.24968283  0.60587057  1
  O2-  O140  1  0.49922644  0.25798085  0.93552078  1
  O2-  O141  1  0.49785910  0.74987365  0.27546105  1
  O2-  O142  1  0.49617735  0.74725960  0.60853665  1
  O2-  O143  1  0.50026943  0.75019553  0.94261323  1
  O2-  O144  1  0.07459328  0.17469001  0.08950426  1
  O2-  O145  1  0.06933886  0.18267532  0.43417859  1
  O2-  O146  1  0.07524818  0.18066771  0.75822804  1
  O2-  O147  1  0.07125910  0.68484775  0.10196315  1
  O2-  O148  1  0.07723627  0.68082938  0.42275635  1
  O2-  O149  1  0.07143407  0.67901571  0.76495604  1
  O2-  O150  1  0.56754495  0.18143360  0.09751672  1
  O2-  O151  1  0.56886906  0.17570344  0.42175153  1
  O2-  O152  1  0.57018318  0.17594944  0.75299571  1
  O2-  O153  1  0.56906055  0.67862998  0.09004365  1
  O2-  O154  1  0.56773231  0.67772427  0.42298721  1
  O2-  O155  1  0.56786305  0.67841468  0.75732868  1
  O2-  O156  1  0.18292088  0.42120729  0.24479488  1
  O2-  O157  1  0.18381819  0.42566893  0.56589849  1
  O2-  O158  1  0.17749382  0.42536931  0.90430947  1
  O2-  O159  1  0.18151723  0.93019172  0.23252956  1
  O2-  O160  1  0.17687065  0.93133737  0.57074048  1
  O2-  O161  1  0.18171778  0.93129153  0.91108021  1
  O2-  O162  1  0.67648070  0.42992912  0.24344662  1
  O2-  O163  1  0.67759924  0.43060914  0.56522766  1
  O2-  O164  1  0.68425212  0.42806823  0.90070453  1
  O2-  O165  1  0.67132483  0.93034688  0.24466364  1
  O2-  O166  1  0.67654907  0.93284427  0.56543297  1
  O2-  O167  1  0.67546559  0.93064109  0.90299006  1
  O2-  O168  1  0.42649901  0.31898091  0.08612627  1
  O2-  O169  1  0.43117509  0.32213471  0.42132617  1
  O2-  O170  1  0.43123946  0.31886819  0.75494054  1
  O2-  O171  1  0.42749840  0.82185682  0.08950041  1
  O2-  O172  1  0.43030473  0.82372777  0.42360784  1
  O2-  O173  1  0.43471320  0.82805801  0.75572632  1
  O2-  O174  1  0.93231459  0.31611863  0.09260603  1
  O2-  O175  1  0.92428982  0.32172039  0.42002131  1
  O2-  O176  1  0.92626127  0.31768666  0.76640420  1
  O2-  O177  1  0.93022156  0.82543519  0.09063836  1
  O2-  O178  1  0.92891001  0.82034993  0.43175032  1
  O2-  O179  1  0.92544010  0.81965410  0.76706963  1
  O2-  O180  1  0.32572005  0.07021637  0.24014212  1
  O2-  O181  1  0.32256735  0.06906210  0.56632645  1
  O2-  O182  1  0.32121300  0.06910349  0.91037268  1
  O2-  O183  1  0.32143983  0.56907806  0.23524692  1
  O2-  O184  1  0.32501137  0.56680199  0.56734785  1
  O2-  O185  1  0.31784262  0.57360574  0.90286918  1
  O2-  O186  1  0.81789645  0.07076503  0.23624274  1
  O2-  O187  1  0.81983962  0.07436132  0.57591210  1
  O2-  O188  1  0.82164979  0.07038377  0.90095892  1
  O2-  O189  1  0.81864134  0.57321659  0.23596525  1
  O2-  O190  1  0.81782657  0.57197818  0.56600186  1
  O2-  O191  1  0.82377627  0.57004509  0.90185006  1
  O2-  O192  1  0.03703307  0.08504619  0.26639647  1
  O2-  O193  1  0.05166222  0.08418720  0.60859164  1
  O2-  O194  1  0.04631445  0.08450963  0.93644820  1
  O2-  O195  1  0.05465770  0.58100395  0.27519658  1
  O2-  O196  1  0.04944979  0.58049086  0.59614510  1
  O2-  O197  1  0.04332361  0.57931220  0.93922847  1
  O2-  O198  1  0.54234585  0.08678994  0.26748246  1
  O2-  O199  1  0.53905556  0.08654825  0.59979670  1
  O2-  O200  1  0.53631584  0.08493929  0.93073604  1
  O2-  O201  1  0.53998436  0.58708339  0.26974601  1
  O2-  O202  1  0.54078420  0.58553567  0.60425866  1
  O2-  O203  1  0.54091519  0.58608889  0.93781677  1
  O2-  O204  1  0.16731387  0.20690178  0.26498527  1
  O2-  O205  1  0.16888570  0.20617295  0.60648730  1
  O2-  O206  1  0.16734523  0.20154636  0.93829102  1
  O2-  O207  1  0.16686369  0.70951954  0.27166933  1
  O2-  O208  1  0.17378803  0.70905593  0.60109736  1
  O2-  O209  1  0.16343608  0.71529628  0.93385546  1
  O2-  O210  1  0.66347918  0.20552052  0.27027949  1
  O2-  O211  1  0.66186134  0.20226194  0.59797997  1
  O2-  O212  1  0.66922577  0.20851694  0.93100778  1
  O2-  O213  1  0.65969009  0.70664363  0.26911758  1
  O2-  O214  1  0.65906038  0.70818905  0.60394565  1
  O2-  O215  1  0.66278535  0.70451676  0.93730224  1
  O2-  O216  1  0.08049636  0.45168166  0.07367366  1
  O2-  O217  1  0.08242670  0.44202965  0.39201213  1
  O2-  O218  1  0.07819837  0.45130625  0.73023874  1
  O2-  O219  1  0.08739526  0.95562258  0.06234090  1
  O2-  O220  1  0.08343334  0.96288788  0.40065940  1
  O2-  O221  1  0.07894032  0.95724489  0.74050316  1
  O2-  O222  1  0.57862015  0.45069059  0.06446365  1
  O2-  O223  1  0.58580042  0.45723109  0.39514727  1
  O2-  O224  1  0.58326181  0.45541461  0.73396287  1
  O2-  O225  1  0.57848159  0.96189949  0.06912864  1
  O2-  O226  1  0.58194467  0.95650065  0.39603218  1
  O2-  O227  1  0.58729503  0.96422854  0.73464422  1
  O2-  O228  1  0.20935169  0.32816377  0.06988477  1
  O2-  O229  1  0.21160508  0.33267215  0.39623678  1
  O2-  O230  1  0.21268718  0.33514082  0.73489805  1
  O2-  O231  1  0.21276045  0.84103435  0.06379226  1
  O2-  O232  1  0.21225732  0.83720819  0.40301657  1
  O2-  O233  1  0.21016718  0.83345632  0.73852978  1
  O2-  O234  1  0.70986997  0.33109543  0.06804450  1
  O2-  O235  1  0.69838161  0.33328167  0.39347805  1
  O2-  O236  1  0.70267196  0.32482295  0.72652153  1
  O2-  O237  1  0.69454668  0.82862342  0.06897393  1
  O2-  O238  1  0.69663077  0.83270044  0.39320283  1
  O2-  O239  1  0.70451973  0.83225854  0.73392859  1
  O2-  O240  1  0.46056507  0.41290215  0.26765622  1
  O2-  O241  1  0.45998814  0.41168243  0.60182670  1
  O2-  O242  1  0.44733367  0.41935358  0.93762348  1
  O2-  O243  1  0.45541556  0.91231132  0.26828949  1
  O2-  O244  1  0.46616203  0.91275208  0.60113666  1
  O2-  O245  1  0.45638658  0.91270536  0.93617986  1
  O2-  O246  1  0.94942274  0.41818202  0.27007518  1
  O2-  O247  1  0.95886041  0.41520300  0.59566113  1
  O2-  O248  1  0.95810510  0.41077873  0.94151731  1
  O2-  O249  1  0.96210091  0.91542266  0.26526735  1
  O2-  O250  1  0.95415104  0.92241135  0.60341796  1
  O2-  O251  1  0.95620853  0.91434805  0.93764442  1
  O2-  O252  1  0.34010123  0.29522645  0.26619644  1
  O2-  O253  1  0.33925347  0.29136856  0.60145148  1
  O2-  O254  1  0.33490192  0.29226331  0.93401859  1
  O2-  O255  1  0.33564944  0.79325195  0.27203380  1
  O2-  O256  1  0.33704630  0.80382837  0.60485485  1
  O2-  O257  1  0.33737905  0.79358560  0.93549393  1
  O2-  O258  1  0.83212673  0.29439216  0.26944470  1
  O2-  O259  1  0.83377992  0.28781028  0.59440494  1
  O2-  O260  1  0.84088445  0.28809345  0.93973061  1
  O2-  O261  1  0.82987246  0.79246747  0.26560501  1
  O2-  O262  1  0.82767449  0.79339859  0.59986859  1
  O2-  O263  1  0.82834068  0.80348754  0.94463942  1
  O2-  O264  1  0.41111693  0.03951290  0.06333038  1
  O2-  O265  1  0.41642338  0.04524297  0.39253738  1
  O2-  O266  1  0.41850021  0.03921531  0.73458689  1
  O2-  O267  1  0.41705530  0.54528589  0.06953470  1
  O2-  O268  1  0.41643779  0.53625498  0.40072473  1
  O2-  O269  1  0.41693457  0.53658504  0.73566116  1
  O2-  O270  1  0.92203995  0.04363392  0.06783353  1
  O2-  O271  1  0.91568639  0.04076486  0.40286441  1
  O2-  O272  1  0.91817856  0.05674385  0.72685908  1
  O2-  O273  1  0.91739002  0.53976213  0.07166852  1
  O2-  O274  1  0.92046736  0.54574670  0.40092933  1
  O2-  O275  1  0.92191166  0.54501074  0.72859374  1
  O2-  O276  1  0.29907688  0.16401206  0.06183791  1
  O2-  O277  1  0.30250263  0.16865507  0.38906417  1
  O2-  O278  1  0.29917420  0.16971260  0.73518147  1
  O2-  O279  1  0.29022884  0.67240910  0.06849182  1
  O2-  O280  1  0.29542277  0.66737316  0.40200472  1
  O2-  O281  1  0.30942184  0.67589936  0.72851080  1
  O2-  O282  1  0.79060422  0.16563646  0.06954893  1
  O2-  O283  1  0.78735400  0.16667280  0.40311336  1
  O2-  O284  1  0.79004394  0.16385359  0.72743509  1
  O2-  O285  1  0.79330925  0.67010476  0.06811844  1
  O2-  O286  1  0.78489544  0.66753864  0.40180538  1
  O2-  O287  1  0.78822302  0.66595616  0.73414104  1
