# generated using pymatgen
data_Ca2Al2SiO7
_symmetry_space_group_name_H-M   'P 1'
_cell_length_a   15.45455315
_cell_length_b   15.45468628
_cell_length_c   15.28142023
_cell_angle_alpha   89.99627189
_cell_angle_beta   90.00188525
_cell_angle_gamma   90.00458493
_symmetry_Int_Tables_number   1
_chemical_formula_structural   Ca2Al2SiO7
_chemical_formula_sum   'Ca48 Al48 Si24 O168'
_cell_volume   3649.89492595
_cell_formula_units_Z   24
loop_
 _symmetry_equiv_pos_site_id
 _symmetry_equiv_pos_as_xyz
  1  'x, y, z'
loop_
 _atom_type_symbol
 _atom_type_oxidation_number
  Ca2+  2.0
  Al0+  0.0
  Si0+  0.0
  O2-  -2.0
loop_
 _atom_site_type_symbol
 _atom_site_label
 _atom_site_symmetry_multiplicity
 _atom_site_fract_x
 _atom_site_fract_y
 _atom_site_fract_z
 _atom_site_occupancy
  Ca2+  Ca0  1  0.17307487  0.08845287  0.17360396  1
  Ca2+  Ca1  1  0.16334308  0.07761989  0.49982029  1
  Ca2+  Ca2  1  0.16637189  0.07609613  0.84140825  1
  Ca2+  Ca3  1  0.17274957  0.58406273  0.16840470  1
  Ca2+  Ca4  1  0.17657963  0.59500769  0.50165347  1
  Ca2+  Ca5  1  0.17675839  0.58004630  0.84341508  1
  Ca2+  Ca6  1  0.66624925  0.07746999  0.16806805  1
  Ca2+  Ca7  1  0.66667549  0.07562607  0.50010582  1
  Ca2+  Ca8  1  0.67304608  0.07752851  0.84748703  1
  Ca2+  Ca9  1  0.66978320  0.57353025  0.17447842  1
  Ca2+  Ca10  1  0.67163442  0.57742376  0.50738008  1
  Ca2+  Ca11  1  0.67358827  0.59206798  0.83221213  1
  Ca2+  Ca12  1  0.08580425  0.32378181  0.16000642  1
  Ca2+  Ca13  1  0.07040460  0.33213393  0.49017490  1
  Ca2+  Ca14  1  0.08639937  0.32765229  0.83356245  1
  Ca2+  Ca15  1  0.09617529  0.82315887  0.16607431  1
  Ca2+  Ca16  1  0.08330394  0.83438616  0.49549717  1
  Ca2+  Ca17  1  0.08214541  0.82881834  0.82675514  1
  Ca2+  Ca18  1  0.57630574  0.32829212  0.15767494  1
  Ca2+  Ca19  1  0.58407759  0.33395533  0.49391255  1
  Ca2+  Ca20  1  0.57809255  0.32841728  0.83555831  1
  Ca2+  Ca21  1  0.58480268  0.83773458  0.16241389  1
  Ca2+  Ca22  1  0.57962151  0.82718958  0.49843669  1
  Ca2+  Ca23  1  0.57615138  0.83057106  0.82439903  1
  Ca2+  Ca24  1  0.33038591  0.42220879  0.16706004  1
  Ca2+  Ca25  1  0.33033519  0.43015967  0.50484688  1
  Ca2+  Ca26  1  0.33166960  0.42639259  0.84406157  1
  Ca2+  Ca27  1  0.32926155  0.93302013  0.17391243  1
  Ca2+  Ca28  1  0.32017493  0.91704039  0.50307254  1
  Ca2+  Ca29  1  0.33016791  0.91741052  0.83546817  1
  Ca2+  Ca30  1  0.82676015  0.41016235  0.17305468  1
  Ca2+  Ca31  1  0.83433100  0.41675021  0.50476731  1
  Ca2+  Ca32  1  0.83909360  0.42027269  0.83141378  1
  Ca2+  Ca33  1  0.82361363  0.92152111  0.16717118  1
  Ca2+  Ca34  1  0.83092257  0.91101347  0.50500202  1
  Ca2+  Ca35  1  0.82804273  0.91876734  0.84196378  1
  Ca2+  Ca36  1  0.41624310  0.16902073  0.15300743  1
  Ca2+  Ca37  1  0.41551187  0.16673163  0.49421180  1
  Ca2+  Ca38  1  0.41530523  0.16750686  0.83850533  1
  Ca2+  Ca39  1  0.41270053  0.66604232  0.16267319  1
  Ca2+  Ca40  1  0.41228713  0.66863016  0.50002829  1
  Ca2+  Ca41  1  0.41930415  0.66804882  0.82417672  1
  Ca2+  Ca42  1  0.92571777  0.16674648  0.16255276  1
  Ca2+  Ca43  1  0.92221886  0.17725476  0.49149016  1
  Ca2+  Ca44  1  0.91945886  0.16818795  0.83013104  1
  Ca2+  Ca45  1  0.93322733  0.66563136  0.16182844  1
  Ca2+  Ca46  1  0.92076949  0.67000657  0.49623778  1
  Ca2+  Ca47  1  0.92201886  0.67109050  0.82564140  1
  Al0+  Al48  1  -0.00250611  -0.00108768  0.00156726  1
  Al0+  Al49  1  -0.00186176  0.00095441  0.33132655  1
  Al0+  Al50  1  -0.00017444  -0.00123613  0.66688218  1
  Al0+  Al51  1  0.00193821  0.50031803  -0.00141244  1
  Al0+  Al52  1  -0.00124575  0.50217363  0.32339289  1
  Al0+  Al53  1  -0.00020574  0.49833163  0.66654976  1
  Al0+  Al54  1  0.49903325  -0.00130156  0.00209485  1
  Al0+  Al55  1  0.50028424  -0.00040198  0.34275554  1
  Al0+  Al56  1  0.49910148  -0.00028115  0.66179567  1
  Al0+  Al57  1  0.50157430  0.50154721  -0.00175068  1
  Al0+  Al58  1  0.50172112  0.50052058  0.34201635  1
  Al0+  Al59  1  0.50116755  0.49734137  0.66783624  1
  Al0+  Al60  1  0.24819876  0.25148339  -0.00425293  1
  Al0+  Al61  1  0.25040189  0.25405640  0.33634915  1
  Al0+  Al62  1  0.25211442  0.24836410  0.66419457  1
  Al0+  Al63  1  0.25136959  0.74910569  -0.00272666  1
  Al0+  Al64  1  0.25171504  0.75283258  0.33560845  1
  Al0+  Al65  1  0.25103976  0.75175674  0.67325615  1
  Al0+  Al66  1  0.75074341  0.24987279  -0.00090375  1
  Al0+  Al67  1  0.74752462  0.24895040  0.33417171  1
  Al0+  Al68  1  0.75015173  0.24917419  0.66314898  1
  Al0+  Al69  1  0.75042251  0.74923339  0.00579544  1
  Al0+  Al70  1  0.74887228  0.74907742  0.33540029  1
  Al0+  Al71  1  0.74980010  0.74787666  0.66293759  1
  Al0+  Al72  1  0.17813696  0.93140935  0.68242486  1
  Al0+  Al73  1  0.93023365  0.32044446  0.65297581  1
  Al0+  Al74  1  0.42834548  0.32264953  0.98503067  1
  Al0+  Al75  1  0.68055223  0.42823563  0.34634376  1
  Al0+  Al76  1  0.31811650  0.06994939  0.01047903  1
  Al0+  Al77  1  0.42723696  0.82189190  0.64936104  1
  Al0+  Al78  1  0.07178752  0.17983800  0.31787992  1
  Al0+  Al79  1  0.07268772  0.68296735  0.32005378  1
  Al0+  Al80  1  0.82111011  0.57038763  0.67979442  1
  Al0+  Al81  1  0.07236814  0.67924133  0.98379789  1
  Al0+  Al82  1  0.82268660  0.07365276  0.01582769  1
  Al0+  Al83  1  0.07045896  0.17727808  0.98526167  1
  Al0+  Al84  1  0.57086867  0.67714675  0.65036472  1
  Al0+  Al85  1  0.32075089  0.07556377  0.34898305  1
  Al0+  Al86  1  0.31985072  0.57070399  0.34793461  1
  Al0+  Al87  1  0.57135218  0.17688854  0.98594867  1
  Al0+  Al88  1  0.92903426  0.82103443  0.65448423  1
  Al0+  Al89  1  0.32074485  0.56959503  0.68166105  1
  Al0+  Al90  1  0.67808799  0.92804707  0.01341362  1
  Al0+  Al91  1  0.17799619  0.42908645  0.01530201  1
  Al0+  Al92  1  0.32335260  0.57214445  0.01555058  1
  Al0+  Al93  1  0.17802716  0.93007286  0.34695171  1
  Al0+  Al94  1  0.92617897  0.32164842  0.31588762  1
  Al0+  Al95  1  0.67940114  0.92762928  0.35067210  1
  Si0+  Si96  1  0.82368690  0.57136466  0.34872378  1
  Si0+  Si97  1  0.56819609  0.17724080  0.31934180  1
  Si0+  Si98  1  0.67882938  0.92892440  0.68032786  1
  Si0+  Si99  1  0.17639097  0.92712867  0.01570885  1
  Si0+  Si100  1  0.92684216  0.32237921  0.98197073  1
  Si0+  Si101  1  0.17554862  0.42972375  0.34989466  1
  Si0+  Si102  1  0.43022543  0.82071594  0.98685980  1
  Si0+  Si103  1  0.43116247  0.82078583  0.31769730  1
  Si0+  Si104  1  0.43090519  0.32364450  0.32079661  1
  Si0+  Si105  1  0.32401267  0.07336610  0.68512339  1
  Si0+  Si106  1  0.82089955  0.07132412  0.35194364  1
  Si0+  Si107  1  0.57081867  0.67804930  0.31772310  1
  Si0+  Si108  1  0.17775216  0.42543876  0.68169671  1
  Si0+  Si109  1  0.82208906  0.57151827  0.01532426  1
  Si0+  Si110  1  0.81933418  0.07132099  0.67990571  1
  Si0+  Si111  1  0.57160872  0.17920359  0.65029809  1
  Si0+  Si112  1  0.57333863  0.67859703  0.98687131  1
  Si0+  Si113  1  0.92621977  0.81907202  0.98456187  1
  Si0+  Si114  1  0.07193660  0.67829597  0.65197618  1
  Si0+  Si115  1  0.42921841  0.32045857  0.65018403  1
  Si0+  Si116  1  0.07296518  0.17675940  0.64997838  1
  Si0+  Si117  1  0.68003221  0.42980722  0.01270585  1
  Si0+  Si118  1  0.67874328  0.42488550  0.68612991  1
  Si0+  Si119  1  0.92407006  0.82280935  0.31457105  1
  O2-  O120  1  0.24014517  0.00032887  0.05920576  1
  O2-  O121  1  0.24543134  0.00631844  0.39750216  1
  O2-  O122  1  0.25341884  0.00626573  0.72801689  1
  O2-  O123  1  0.25075079  0.50080821  0.06493718  1
  O2-  O124  1  0.24122936  0.50054433  0.39564303  1
  O2-  O125  1  0.24546275  0.49490685  0.72619460  1
  O2-  O126  1  0.74733327  0.00309933  0.06296864  1
  O2-  O127  1  0.75703991  -0.00125284  0.39825684  1
  O2-  O128  1  0.74999240  -0.00097187  0.72301507  1
  O2-  O129  1  0.75313394  0.49794738  0.05614942  1
  O2-  O130  1  0.75863864  0.49915451  0.39267086  1
  O2-  O131  1  0.74615597  0.49597495  0.72875267  1
  O2-  O132  1  0.00077396  0.25242453  0.26645288  1
  O2-  O133  1  0.00746937  0.24880829  0.60673286  1
  O2-  O134  1  -0.00565802  0.25152409  0.93911435  1
  O2-  O135  1  -0.00242372  0.75805122  0.27213289  1
  O2-  O136  1  0.00320470  0.74642185  0.60693818  1
  O2-  O137  1  -0.00187938  0.75497921  0.93858394  1
  O2-  O138  1  0.49478745  0.24614419  0.27806999  1
  O2-  O139  1  0.49974874  0.24909168  0.60737641  1
  O2-  O140  1  0.49884546  0.24816602  0.93516554  1
  O2-  O141  1  0.50195055  0.74990917  0.27362659  1
  O2-  O142  1  0.49705241  0.74698280  0.59950310  1
  O2-  O143  1  0.50161953  0.74903875  0.94605784  1
  O2-  O144  1  0.07112711  0.17874783  0.09789131  1
  O2-  O145  1  0.06859638  0.18193169  0.43201941  1
  O2-  O146  1  0.07173671  0.17611889  0.75564775  1
  O2-  O147  1  0.07225968  0.68125322  0.09709077  1
  O2-  O148  1  0.07131683  0.68344969  0.43341596  1
  O2-  O149  1  0.06921014  0.67954764  0.75761886  1
  O2-  O150  1  0.56968145  0.17900788  0.09985905  1
  O2-  O151  1  0.56901359  0.17916475  0.42510516  1
  O2-  O152  1  0.57336249  0.17904898  0.75497077  1
  O2-  O153  1  0.57517469  0.67692104  0.09213971  1
  O2-  O154  1  0.57055687  0.67786224  0.42238262  1
  O2-  O155  1  0.57240943  0.68181648  0.76461789  1
  O2-  O156  1  0.17995116  0.42801425  0.24477411  1
  O2-  O157  1  0.17960108  0.42469470  0.57599728  1
  O2-  O158  1  0.17849334  0.43138614  0.90113340  1
  O2-  O159  1  0.18541884  0.92673871  0.23354382  1
  O2-  O160  1  0.17636621  0.93350885  0.56957118  1
  O2-  O161  1  0.17830449  0.92702432  0.90980552  1
  O2-  O162  1  0.67759988  0.43108589  0.23279720  1
  O2-  O163  1  0.67983427  0.42340160  0.58045126  1
  O2-  O164  1  0.67957606  0.43124211  0.90763685  1
  O2-  O165  1  0.67840443  0.92978514  0.23783480  1
  O2-  O166  1  0.67992672  0.93122919  0.57518001  1
  O2-  O167  1  0.68033747  0.92544988  0.89931753  1
  O2-  O168  1  0.43257018  0.32426044  0.09907984  1
  O2-  O169  1  0.43497428  0.32398843  0.42635094  1
  O2-  O170  1  0.42979152  0.32037455  0.75485862  1
  O2-  O171  1  0.43055728  0.82081554  0.09217989  1
  O2-  O172  1  0.43160966  0.81846076  0.42250332  1
  O2-  O173  1  0.43148608  0.82410089  0.76344253  1
  O2-  O174  1  0.92509990  0.32287546  0.08714885  1
  O2-  O175  1  0.92675257  0.32021510  0.42995154  1
  O2-  O176  1  0.92812759  0.31750822  0.76589178  1
  O2-  O177  1  0.92257950  0.81471718  0.08987760  1
  O2-  O178  1  0.92172117  0.81920957  0.42044383  1
  O2-  O179  1  0.92832233  0.82091673  0.76758989  1
  O2-  O180  1  0.32462728  0.07368460  0.23526012  1
  O2-  O181  1  0.32377196  0.07530731  0.57976550  1
  O2-  O182  1  0.31913745  0.06500881  0.89736657  1
  O2-  O183  1  0.32278338  0.56881574  0.23534211  1
  O2-  O184  1  0.31884313  0.56875723  0.56821349  1
  O2-  O185  1  0.32367395  0.57202132  0.90191878  1
  O2-  O186  1  0.81743498  0.07186812  0.24673622  1
  O2-  O187  1  0.81689876  0.07223995  0.57491767  1
  O2-  O188  1  0.82137059  0.07122703  0.90123989  1
  O2-  O189  1  0.81941767  0.57348545  0.24287676  1
  O2-  O190  1  0.82104067  0.56840599  0.56686491  1
  O2-  O191  1  0.81981602  0.57424232  0.91008678  1
  O2-  O192  1  0.04465868  0.08049481  0.26570807  1
  O2-  O193  1  0.04238906  0.08519945  0.60347288  1
  O2-  O194  1  0.04018875  0.07920068  0.93241022  1
  O2-  O195  1  0.04275740  0.58754229  0.26272646  1
  O2-  O196  1  0.04818701  0.58421741  0.60641746  1
  O2-  O197  1  0.04025307  0.58303559  0.93017278  1
  O2-  O198  1  0.54317764  0.08364316  0.27489866  1
  O2-  O199  1  0.54462296  0.08765092  0.60156046  1
  O2-  O200  1  0.54281200  0.07828215  0.93301795  1
  O2-  O201  1  0.54132505  0.58572110  0.27198262  1
  O2-  O202  1  0.54705040  0.57593432  0.60092121  1
  O2-  O203  1  0.54786837  0.58800445  0.93644983  1
  O2-  O204  1  0.17212362  0.20902005  0.26830110  1
  O2-  O205  1  0.16832110  0.19800718  0.60527763  1
  O2-  O206  1  0.16484266  0.20936755  0.92778769  1
  O2-  O207  1  0.16926950  0.71527306  0.26578972  1
  O2-  O208  1  0.16563712  0.70650345  0.60889333  1
  O2-  O209  1  0.16903412  0.70960738  0.92946451  1
  O2-  O210  1  0.65929832  0.20626754  0.27229251  1
  O2-  O211  1  0.66197223  0.20814764  0.60027444  1
  O2-  O212  1  0.66921377  0.20736630  0.93224733  1
  O2-  O213  1  0.66349846  0.70416673  0.27042908  1
  O2-  O214  1  0.66780228  0.70720507  0.59569070  1
  O2-  O215  1  0.66526341  0.70767155  0.93961209  1
  O2-  O216  1  0.07949103  0.45722237  0.06822446  1
  O2-  O217  1  0.07933250  0.45381432  0.39084394  1
  O2-  O218  1  0.08366814  0.44815210  0.72739807  1
  O2-  O219  1  0.08069146  0.94427303  0.05956123  1
  O2-  O220  1  0.07616649  0.95133741  0.39669839  1
  O2-  O221  1  0.08115271  0.96118128  0.73733305  1
  O2-  O222  1  0.59006417  0.46061965  0.06158537  1
  O2-  O223  1  0.58795071  0.46283557  0.40581829  1
  O2-  O224  1  0.58440178  0.44768936  0.73114163  1
  O2-  O225  1  0.58015766  0.95423654  0.06781425  1
  O2-  O226  1  0.58569981  0.96169280  0.40796649  1
  O2-  O227  1  0.58644926  0.95813627  0.72562753  1
  O2-  O228  1  0.20671125  0.33067754  0.06672324  1
  O2-  O229  1  0.20274550  0.33837774  0.39958432  1
  O2-  O230  1  0.20501543  0.33127973  0.72657361  1
  O2-  O231  1  0.20901506  0.83533972  0.06042159  1
  O2-  O232  1  0.21279420  0.83511266  0.40332254  1
  O2-  O233  1  0.20913650  0.83572190  0.73816166  1
  O2-  O234  1  0.70491623  0.33753524  0.06035661  1
  O2-  O235  1  0.70566634  0.33064172  0.40160185  1
  O2-  O236  1  0.70753719  0.33173008  0.73162763  1
  O2-  O237  1  0.70899941  0.83141969  0.07022135  1
  O2-  O238  1  0.70680007  0.82928672  0.40340097  1
  O2-  O239  1  0.70536614  0.83636706  0.72557042  1
  O2-  O240  1  0.46658173  0.41307268  0.27402866  1
  O2-  O241  1  0.45801977  0.41146649  0.60203699  1
  O2-  O242  1  0.46283349  0.41934632  0.93060087  1
  O2-  O243  1  0.46132407  0.91373317  0.27366749  1
  O2-  O244  1  0.45694738  0.91957533  0.59512988  1
  O2-  O245  1  0.45837778  0.91097276  0.93717774  1
  O2-  O246  1  0.94648052  0.42196424  0.26373668  1
  O2-  O247  1  0.95822806  0.41761771  0.59791554  1
  O2-  O248  1  0.95433169  0.41569546  0.93587580  1
  O2-  O249  1  0.94295230  0.91863509  0.27145704  1
  O2-  O250  1  0.95815049  0.91754103  0.59891059  1
  O2-  O251  1  0.94605325  0.91479765  0.94108783  1
  O2-  O252  1  0.33617971  0.30481416  0.27653265  1
  O2-  O253  1  0.33756537  0.29370013  0.60101586  1
  O2-  O254  1  0.33105911  0.29598708  0.92998084  1
  O2-  O255  1  0.34026587  0.79274201  0.26971255  1
  O2-  O256  1  0.32761633  0.79309985  0.59945458  1
  O2-  O257  1  0.33957017  0.79325287  0.93703139  1
  O2-  O258  1  0.82704772  0.29015325  0.26543287  1
  O2-  O259  1  0.83385773  0.28815062  0.59845994  1
  O2-  O260  1  0.83307454  0.29918524  0.93468396  1
  O2-  O261  1  0.83153984  0.79233561  0.26815948  1
  O2-  O262  1  0.83378040  0.78985383  0.59846684  1
  O2-  O263  1  0.83382637  0.78854560  0.93737941  1
  O2-  O264  1  0.41336699  0.03754332  0.06605984  1
  O2-  O265  1  0.41701738  0.04352953  0.40449968  1
  O2-  O266  1  0.41813820  0.04568703  0.72929783  1
  O2-  O267  1  0.42313182  0.54523483  0.06695856  1
  O2-  O268  1  0.41441731  0.53713752  0.40431215  1
  O2-  O269  1  0.41842291  0.53822046  0.73338784  1
  O2-  O270  1  0.91887145  0.04171162  0.07108642  1
  O2-  O271  1  0.91606749  0.05106719  0.39654922  1
  O2-  O272  1  0.91163389  0.04538139  0.72647586  1
  O2-  O273  1  0.91453692  0.54553070  0.06102863  1
  O2-  O274  1  0.91899407  0.55029226  0.39264751  1
  O2-  O275  1  0.91757936  0.53937310  0.73492616  1
  O2-  O276  1  0.29270808  0.16865691  0.06112663  1
  O2-  O277  1  0.29752633  0.17529602  0.40266978  1
  O2-  O278  1  0.30122200  0.16851223  0.72985156  1
  O2-  O279  1  0.29402663  0.67100946  0.06722871  1
  O2-  O280  1  0.29039273  0.66780331  0.40130053  1
  O2-  O281  1  0.29327449  0.66652858  0.73577259  1
  O2-  O282  1  0.79615863  0.17270347  0.06785453  1
  O2-  O283  1  0.78900958  0.16275532  0.39928268  1
  O2-  O284  1  0.78909815  0.16212807  0.72796689  1
  O2-  O285  1  0.79156574  0.66028801  0.06641710  1
  O2-  O286  1  0.79420014  0.66318678  0.39606592  1
  O2-  O287  1  0.78855564  0.66674741  0.73462918  1
