# generated using pymatgen
data_Ca2Al2SiO7
_symmetry_space_group_name_H-M   'P 1'
_cell_length_a   15.45998818
_cell_length_b   15.45936090
_cell_length_c   15.28463283
_cell_angle_alpha   90.01763325
_cell_angle_beta   89.99069698
_cell_angle_gamma   90.01209469
_symmetry_Int_Tables_number   1
_chemical_formula_structural   Ca2Al2SiO7
_chemical_formula_sum   'Ca48 Al48 Si24 O168'
_cell_volume   3653.05043243
_cell_formula_units_Z   24
loop_
 _symmetry_equiv_pos_site_id
 _symmetry_equiv_pos_as_xyz
  1  'x, y, z'
loop_
 _atom_type_symbol
 _atom_type_oxidation_number
  Ca2+  2.0
  Al0+  0.0
  Si0+  0.0
  O2-  -2.0
loop_
 _atom_site_type_symbol
 _atom_site_label
 _atom_site_symmetry_multiplicity
 _atom_site_fract_x
 _atom_site_fract_y
 _atom_site_fract_z
 _atom_site_occupancy
  Ca2+  Ca0  1  0.16595685  0.08392821  0.16575343  1
  Ca2+  Ca1  1  0.17104385  0.08037884  0.50908882  1
  Ca2+  Ca2  1  0.16955645  0.09256813  0.83262783  1
  Ca2+  Ca3  1  0.17773483  0.58356131  0.16664430  1
  Ca2+  Ca4  1  0.18000560  0.58213052  0.50870680  1
  Ca2+  Ca5  1  0.17723797  0.57162943  0.83916243  1
  Ca2+  Ca6  1  0.67183574  0.07108305  0.17484735  1
  Ca2+  Ca7  1  0.66875495  0.07051165  0.50301968  1
  Ca2+  Ca8  1  0.66162702  0.06963224  0.83673536  1
  Ca2+  Ca9  1  0.66661437  0.57357388  0.16331022  1
  Ca2+  Ca10  1  0.66408264  0.58304459  0.50174382  1
  Ca2+  Ca11  1  0.66883059  0.58215855  0.83978218  1
  Ca2+  Ca12  1  0.08693904  0.32593772  0.15618501  1
  Ca2+  Ca13  1  0.08386889  0.33273401  0.50497173  1
  Ca2+  Ca14  1  0.08776064  0.33031115  0.82477974  1
  Ca2+  Ca15  1  0.06887465  0.83268129  0.16072806  1
  Ca2+  Ca16  1  0.07890569  0.83259567  0.49236624  1
  Ca2+  Ca17  1  0.07511788  0.83109877  0.83271739  1
  Ca2+  Ca18  1  0.58344023  0.33653055  0.16003011  1
  Ca2+  Ca19  1  0.57677151  0.33840021  0.49606754  1
  Ca2+  Ca20  1  0.57182273  0.34246257  0.83052990  1
  Ca2+  Ca21  1  0.57623567  0.83875095  0.16058391  1
  Ca2+  Ca22  1  0.57789066  0.83314735  0.49976816  1
  Ca2+  Ca23  1  0.57891062  0.82848100  0.82574001  1
  Ca2+  Ca24  1  0.33588346  0.42786051  0.16542213  1
  Ca2+  Ca25  1  0.33189613  0.42852865  0.51120933  1
  Ca2+  Ca26  1  0.33341803  0.42309699  0.83961178  1
  Ca2+  Ca27  1  0.33529607  0.91252857  0.17116632  1
  Ca2+  Ca28  1  0.34168301  0.92049404  0.50809432  1
  Ca2+  Ca29  1  0.34234415  0.92179237  0.83544015  1
  Ca2+  Ca30  1  0.82273861  0.41752998  0.17030966  1
  Ca2+  Ca31  1  0.82766236  0.41185476  0.50505274  1
  Ca2+  Ca32  1  0.82981990  0.42153592  0.84151008  1
  Ca2+  Ca33  1  0.82432369  0.91425145  0.17380060  1
  Ca2+  Ca34  1  0.82602491  0.91591324  0.50210811  1
  Ca2+  Ca35  1  0.82034491  0.91148842  0.84105818  1
  Ca2+  Ca36  1  0.42142078  0.17611017  0.15691269  1
  Ca2+  Ca37  1  0.41197915  0.17204930  0.50319041  1
  Ca2+  Ca38  1  0.41252530  0.17954769  0.82693772  1
  Ca2+  Ca39  1  0.41313428  0.67284177  0.16190371  1
  Ca2+  Ca40  1  0.41731070  0.67122078  0.49688536  1
  Ca2+  Ca41  1  0.41695868  0.67241260  0.82569499  1
  Ca2+  Ca42  1  0.92083305  0.16297566  0.16074177  1
  Ca2+  Ca43  1  0.91780344  0.16702364  0.49908201  1
  Ca2+  Ca44  1  0.92910944  0.17531988  0.82582726  1
  Ca2+  Ca45  1  0.90792484  0.67589434  0.16095743  1
  Ca2+  Ca46  1  0.92062815  0.67285321  0.49461280  1
  Ca2+  Ca47  1  0.90952311  0.66856468  0.83236906  1
  Al0+  Al48  1  0.00104464  -0.00063539  -0.01093872  1
  Al0+  Al49  1  0.00080928  0.00013050  0.33254336  1
  Al0+  Al50  1  -0.00076106  0.00156049  0.66377134  1
  Al0+  Al51  1  0.00141051  0.50089092  0.00979801  1
  Al0+  Al52  1  0.00093825  0.49761862  0.33121856  1
  Al0+  Al53  1  -0.00061736  0.50061230  0.66470261  1
  Al0+  Al54  1  0.49953242  0.00117053  0.00177379  1
  Al0+  Al55  1  0.50054955  0.00165067  0.33300193  1
  Al0+  Al56  1  0.49975290  0.00040128  0.67271126  1
  Al0+  Al57  1  0.50062765  0.50134259  0.00393829  1
  Al0+  Al58  1  0.49895623  0.50191418  0.33970216  1
  Al0+  Al59  1  0.50144369  0.50171900  0.66162592  1
  Al0+  Al60  1  0.25181831  0.24977122  -0.00258517  1
  Al0+  Al61  1  0.24945400  0.25064317  0.33159257  1
  Al0+  Al62  1  0.24975744  0.24808364  0.66252860  1
  Al0+  Al63  1  0.24781832  0.75231484  -0.00131132  1
  Al0+  Al64  1  0.25014514  0.74974251  0.33316647  1
  Al0+  Al65  1  0.24850771  0.75178607  0.66779852  1
  Al0+  Al66  1  0.75174311  0.24655243  0.00087674  1
  Al0+  Al67  1  0.75024197  0.24897721  0.34029541  1
  Al0+  Al68  1  0.75065486  0.24844026  0.66559869  1
  Al0+  Al69  1  0.74745479  0.75060454  0.00470436  1
  Al0+  Al70  1  0.74800589  0.74719285  0.33303915  1
  Al0+  Al71  1  0.74796915  0.74927940  0.66530512  1
  Al0+  Al72  1  0.67765330  0.93040614  0.01502228  1
  Al0+  Al73  1  0.07096912  0.18027874  0.98513479  1
  Al0+  Al74  1  0.68127754  0.92915922  0.68192695  1
  Al0+  Al75  1  0.43019100  0.32104620  0.65206579  1
  Al0+  Al76  1  0.17914384  0.43020355  0.68011674  1
  Al0+  Al77  1  0.67676124  0.92642564  0.35017015  1
  Al0+  Al78  1  0.32394954  0.57310062  0.68300294  1
  Al0+  Al79  1  0.42714263  0.82218324  0.98592555  1
  Al0+  Al80  1  0.43285708  0.32192909  0.98781577  1
  Al0+  Al81  1  0.07134606  0.17913109  0.64803000  1
  Al0+  Al82  1  0.42818156  0.82198523  0.65255683  1
  Al0+  Al83  1  0.67939873  0.42612099  0.01236257  1
  Al0+  Al84  1  0.31963159  0.06905441  0.68069927  1
  Al0+  Al85  1  0.32155949  0.57422964  0.01513837  1
  Al0+  Al86  1  0.43070127  0.82167803  0.31920149  1
  Al0+  Al87  1  0.18044023  0.42611566  0.01576433  1
  Al0+  Al88  1  0.92901785  0.81957942  0.32017962  1
  Al0+  Al89  1  0.57230843  0.67887675  0.65047216  1
  Al0+  Al90  1  0.92773432  0.32300450  0.65129390  1
  Al0+  Al91  1  0.82335555  0.06942438  0.34911755  1
  Al0+  Al92  1  0.92696231  0.81824349  0.98545985  1
  Al0+  Al93  1  0.68016606  0.42980762  0.34899945  1
  Al0+  Al94  1  0.31842479  0.57153541  0.34904693  1
  Al0+  Al95  1  0.82215030  0.57200072  0.01502601  1
  Si0+  Si96  1  0.82433795  0.57090856  0.35113283  1
  Si0+  Si97  1  0.07272873  0.67668800  0.31593662  1
  Si0+  Si98  1  0.67912711  0.42703463  0.68036208  1
  Si0+  Si99  1  0.57100599  0.67553225  0.31356724  1
  Si0+  Si100  1  0.82352781  0.07281520  0.68621731  1
  Si0+  Si101  1  0.92774414  0.82037700  0.65191411  1
  Si0+  Si102  1  0.31990016  0.07065468  0.01579410  1
  Si0+  Si103  1  0.07210994  0.67674664  0.98334595  1
  Si0+  Si104  1  0.92719600  0.32388610  0.98653367  1
  Si0+  Si105  1  0.42937093  0.32188615  0.31837537  1
  Si0+  Si106  1  0.57398040  0.17701386  0.98416687  1
  Si0+  Si107  1  0.82494376  0.06886119  0.01385624  1
  Si0+  Si108  1  0.92689724  0.32030523  0.31684831  1
  Si0+  Si109  1  0.57218365  0.17686659  0.65020943  1
  Si0+  Si110  1  0.18012599  0.93052032  0.34558422  1
  Si0+  Si111  1  0.17738785  0.42496277  0.35101681  1
  Si0+  Si112  1  0.17349384  0.92712340  0.68430338  1
  Si0+  Si113  1  0.07032881  0.67956517  0.65263261  1
  Si0+  Si114  1  0.82072195  0.57062625  0.67898721  1
  Si0+  Si115  1  0.17676107  0.92981087  0.01438375  1
  Si0+  Si116  1  0.57157252  0.18043168  0.31925105  1
  Si0+  Si117  1  0.32111040  0.07291207  0.34622733  1
  Si0+  Si118  1  0.57018909  0.67919973  0.98505256  1
  Si0+  Si119  1  0.07129625  0.17984064  0.31670767  1
  O2-  O120  1  0.25045644  -0.00214055  0.05784632  1
  O2-  O121  1  0.25394678  -0.00186820  0.38780407  1
  O2-  O122  1  0.24452116  -0.00594462  0.72722173  1
  O2-  O123  1  0.25020358  0.50070155  0.06513257  1
  O2-  O124  1  0.24300510  0.49653218  0.39390830  1
  O2-  O125  1  0.25436884  0.49779830  0.73107745  1
  O2-  O126  1  0.75451564  0.00369876  0.06023962  1
  O2-  O127  1  0.75273900  -0.00430328  0.39859004  1
  O2-  O128  1  0.75583887  0.00355131  0.73028489  1
  O2-  O129  1  0.75454126  0.49461955  0.06313881  1
  O2-  O130  1  0.75700944  0.50198413  0.39674038  1
  O2-  O131  1  0.75181612  0.49723898  0.72030812  1
  O2-  O132  1  -0.00010350  0.25077322  0.27482872  1
  O2-  O133  1  -0.00163132  0.25060043  0.59878681  1
  O2-  O134  1  -0.00066149  0.25940929  0.94189004  1
  O2-  O135  1  -0.00023080  0.74126104  0.27230027  1
  O2-  O136  1  0.00263054  0.75382715  0.60943455  1
  O2-  O137  1  -0.00194822  0.73986788  0.93839064  1
  O2-  O138  1  0.50163786  0.25221754  0.27594167  1
  O2-  O139  1  0.50716486  0.24841784  0.60430792  1
  O2-  O140  1  0.51145132  0.25123609  0.94064949  1
  O2-  O141  1  0.50649481  0.74901371  0.27064192  1
  O2-  O142  1  0.49685215  0.74792982  0.60129573  1
  O2-  O143  1  0.49954115  0.74546796  0.94062254  1
  O2-  O144  1  0.06911780  0.17781729  0.09918538  1
  O2-  O145  1  0.07420392  0.17970860  0.42097423  1
  O2-  O146  1  0.06931053  0.17964729  0.76148867  1
  O2-  O147  1  0.07483811  0.68284576  0.08894532  1
  O2-  O148  1  0.07281631  0.67954836  0.42200208  1
  O2-  O149  1  0.06701623  0.67912828  0.75744588  1
  O2-  O150  1  0.57037770  0.17498658  0.09019931  1
  O2-  O151  1  0.56877085  0.18002896  0.42418340  1
  O2-  O152  1  0.57099840  0.17783363  0.75588158  1
  O2-  O153  1  0.57033644  0.67965469  0.09075399  1
  O2-  O154  1  0.56903980  0.67370309  0.41895784  1
  O2-  O155  1  0.57786534  0.68054518  0.76392889  1
  O2-  O156  1  0.17955429  0.42088187  0.24575514  1
  O2-  O157  1  0.17911667  0.43556532  0.56601993  1
  O2-  O158  1  0.18207000  0.42557751  0.90255639  1
  O2-  O159  1  0.17848336  0.93298905  0.24034645  1
  O2-  O160  1  0.17047024  0.92778085  0.57818474  1
  O2-  O161  1  0.17463741  0.93026135  0.90967769  1
  O2-  O162  1  0.68110027  0.42874297  0.23609274  1
  O2-  O163  1  0.68033196  0.42703960  0.57509993  1
  O2-  O164  1  0.67947327  0.42837969  0.89862853  1
  O2-  O165  1  0.67579470  0.93106910  0.23647167  1
  O2-  O166  1  0.68351756  0.92932165  0.56898491  1
  O2-  O167  1  0.67793926  0.93036826  0.90193673  1
  O2-  O168  1  0.43302550  0.31866846  0.10171941  1
  O2-  O169  1  0.42826163  0.31917015  0.42339091  1
  O2-  O170  1  0.43162774  0.32117961  0.76516982  1
  O2-  O171  1  0.42887683  0.82297555  0.09943763  1
  O2-  O172  1  0.42954276  0.82260984  0.43167601  1
  O2-  O173  1  0.43161401  0.82223062  0.76609568  1
  O2-  O174  1  0.92509322  0.31847717  0.09239060  1
  O2-  O175  1  0.92743762  0.32088585  0.42154699  1
  O2-  O176  1  0.92633231  0.32341126  0.76489777  1
  O2-  O177  1  0.92966375  0.82046834  0.09865078  1
  O2-  O178  1  0.93384796  0.81874666  0.43380463  1
  O2-  O179  1  0.92665762  0.81753648  0.75698477  1
  O2-  O180  1  0.31859625  0.07582865  0.24099373  1
  O2-  O181  1  0.31898428  0.06777278  0.56666794  1
  O2-  O182  1  0.31976110  0.07136986  0.91107182  1
  O2-  O183  1  0.31793667  0.57158090  0.23605549  1
  O2-  O184  1  0.32054040  0.57333274  0.56898693  1
  O2-  O185  1  0.32117064  0.57397309  0.90216468  1
  O2-  O186  1  0.82287573  0.06936573  0.23505477  1
  O2-  O187  1  0.82337597  0.07093488  0.58058678  1
  O2-  O188  1  0.82382681  0.06731765  0.90853288  1
  O2-  O189  1  0.82435110  0.56917644  0.24594689  1
  O2-  O190  1  0.82126938  0.57223226  0.57385862  1
  O2-  O191  1  0.81925852  0.57193302  0.90076236  1
  O2-  O192  1  0.04446010  0.08780071  0.26884879  1
  O2-  O193  1  0.04287661  0.07963131  0.59508181  1
  O2-  O194  1  0.04035077  0.08583068  0.92762963  1
  O2-  O195  1  0.05308202  0.58068052  0.27203478  1
  O2-  O196  1  0.03906876  0.59077445  0.60170117  1
  O2-  O197  1  0.05233588  0.58011815  0.94177803  1
  O2-  O198  1  0.54227550  0.09003182  0.26965972  1
  O2-  O199  1  0.54142868  0.08502823  0.60414273  1
  O2-  O200  1  0.54037378  0.08681779  0.93645125  1
  O2-  O201  1  0.53934411  0.58322596  0.26770696  1
  O2-  O202  1  0.54867460  0.58047287  0.59557168  1
  O2-  O203  1  0.54870528  0.58451643  0.93975350  1
  O2-  O204  1  0.16299130  0.20833706  0.26758104  1
  O2-  O205  1  0.16903835  0.20548864  0.59296216  1
  O2-  O206  1  0.16850287  0.20810481  0.93249870  1
  O2-  O207  1  0.16359512  0.70830470  0.26847075  1
  O2-  O208  1  0.16179609  0.70647082  0.60396221  1
  O2-  O209  1  0.16183339  0.70959544  0.93411704  1
  O2-  O210  1  0.66424963  0.20745195  0.27314416  1
  O2-  O211  1  0.66726575  0.19748754  0.60523898  1
  O2-  O212  1  0.67027891  0.19289450  0.93993314  1
  O2-  O213  1  0.66717147  0.69400378  0.27008337  1
  O2-  O214  1  0.66939144  0.71010556  0.59443544  1
  O2-  O215  1  0.66292456  0.70735112  0.93897699  1
  O2-  O216  1  0.08160706  0.44975694  0.07079683  1
  O2-  O217  1  0.08136117  0.44641381  0.39397974  1
  O2-  O218  1  0.08072982  0.46112187  0.73214050  1
  O2-  O219  1  0.08594348  0.96245157  0.06179809  1
  O2-  O220  1  0.09056918  0.96126985  0.39549862  1
  O2-  O221  1  0.08014683  0.95450044  0.73061736  1
  O2-  O222  1  0.58370233  0.45801010  0.06892574  1
  O2-  O223  1  0.58426927  0.46155772  0.40313316  1
  O2-  O224  1  0.58809354  0.45724228  0.72651243  1
  O2-  O225  1  0.58248757  0.96509539  0.07012121  1
  O2-  O226  1  0.58027971  0.96263705  0.40290595  1
  O2-  O227  1  0.58584593  0.96154710  0.73650809  1
  O2-  O228  1  0.21226955  0.32832074  0.06938817  1
  O2-  O229  1  0.20583605  0.33216918  0.39781096  1
  O2-  O230  1  0.20235279  0.32866460  0.72642770  1
  O2-  O231  1  0.20080021  0.83812846  0.06333915  1
  O2-  O232  1  0.20279788  0.83762444  0.39274784  1
  O2-  O233  1  0.19461145  0.83286190  0.73012208  1
  O2-  O234  1  0.70357693  0.32568168  0.06526955  1
  O2-  O235  1  0.70863099  0.33335992  0.40392959  1
  O2-  O236  1  0.70365154  0.33431867  0.72724434  1
  O2-  O237  1  0.70687557  0.83466311  0.06973557  1
  O2-  O238  1  0.70124685  0.82576770  0.39940055  1
  O2-  O239  1  0.71441845  0.83260328  0.73478837  1
  O2-  O240  1  0.45732226  0.41458594  0.27395084  1
  O2-  O241  1  0.46104854  0.41659901  0.59645836  1
  O2-  O242  1  0.46104013  0.41942646  0.93458422  1
  O2-  O243  1  0.45724176  0.92074040  0.26601602  1
  O2-  O244  1  0.46022418  0.92077045  0.60175196  1
  O2-  O245  1  0.45914908  0.91978297  0.93489382  1
  O2-  O246  1  0.95176409  0.41328581  0.26961982  1
  O2-  O247  1  0.95532333  0.42131268  0.59618085  1
  O2-  O248  1  0.94736559  0.42073363  0.94578319  1
  O2-  O249  1  0.96474374  0.91494696  0.26636871  1
  O2-  O250  1  0.95170946  0.91350281  0.60593780  1
  O2-  O251  1  0.96203450  0.91159552  0.92808020  1
  O2-  O252  1  0.33813625  0.29150222  0.27087596  1
  O2-  O253  1  0.33581343  0.28682827  0.59634834  1
  O2-  O254  1  0.33889550  0.28530559  0.93377518  1
  O2-  O255  1  0.33230961  0.79143835  0.26688521  1
  O2-  O256  1  0.32624834  0.80124753  0.60225574  1
  O2-  O257  1  0.32821443  0.79838848  0.93371474  1
  O2-  O258  1  0.83516660  0.29015220  0.27061566  1
  O2-  O259  1  0.82916979  0.29283091  0.59775037  1
  O2-  O260  1  0.83498350  0.29553824  0.93815836  1
  O2-  O261  1  0.83079663  0.79103337  0.26799600  1
  O2-  O262  1  0.83890671  0.78734535  0.60292358  1
  O2-  O263  1  0.82940460  0.78823498  0.93309002  1
  O2-  O264  1  0.41167179  0.04513281  0.06463733  1
  O2-  O265  1  0.41352553  0.04936859  0.39322975  1
  O2-  O266  1  0.41516820  0.04126566  0.73794793  1
  O2-  O267  1  0.41906648  0.54562295  0.06953128  1
  O2-  O268  1  0.41392522  0.54026716  0.40343695  1
  O2-  O269  1  0.42434708  0.54644542  0.73160222  1
  O2-  O270  1  0.91859201  0.04084667  0.05859551  1
  O2-  O271  1  0.92256870  0.04240002  0.40175873  1
  O2-  O272  1  0.91803634  0.04790466  0.73021203  1
  O2-  O273  1  0.92175470  0.55390445  0.06976019  1
  O2-  O274  1  0.91975560  0.54732599  0.39548062  1
  O2-  O275  1  0.91242154  0.54578636  0.72741055  1
  O2-  O276  1  0.28986321  0.16081060  0.06508726  1
  O2-  O277  1  0.28932083  0.16327447  0.39460702  1
  O2-  O278  1  0.28762036  0.16556361  0.73370871  1
  O2-  O279  1  0.28882687  0.67238579  0.06786873  1
  O2-  O280  1  0.28612172  0.66807956  0.40281887  1
  O2-  O281  1  0.29219621  0.67149812  0.73360062  1
  O2-  O282  1  0.80403251  0.16355893  0.06019434  1
  O2-  O283  1  0.79404565  0.16659401  0.40343313  1
  O2-  O284  1  0.79798552  0.16680439  0.73158184  1
  O2-  O285  1  0.78687098  0.66697036  0.07062388  1
  O2-  O286  1  0.79816681  0.66426475  0.39728188  1
  O2-  O287  1  0.79068911  0.66113810  0.72755583  1
