# generated using pymatgen
data_Ca2Al2SiO7
_symmetry_space_group_name_H-M   'P 1'
_cell_length_a   15.45802617
_cell_length_b   15.45969182
_cell_length_c   15.28424626
_cell_angle_alpha   89.99664725
_cell_angle_beta   90.00153351
_cell_angle_gamma   90.00827710
_symmetry_Int_Tables_number   1
_chemical_formula_structural   Ca2Al2SiO7
_chemical_formula_sum   'Ca48 Al48 Si24 O168'
_cell_volume   3652.57289014
_cell_formula_units_Z   24
loop_
 _symmetry_equiv_pos_site_id
 _symmetry_equiv_pos_as_xyz
  1  'x, y, z'
loop_
 _atom_type_symbol
 _atom_type_oxidation_number
  Ca2+  2.0
  Al0+  0.0
  Si0+  0.0
  O2-  -2.0
loop_
 _atom_site_type_symbol
 _atom_site_label
 _atom_site_symmetry_multiplicity
 _atom_site_fract_x
 _atom_site_fract_y
 _atom_site_fract_z
 _atom_site_occupancy
  Ca2+  Ca0  1  0.16855710  0.08397867  0.17067190  1
  Ca2+  Ca1  1  0.17183937  0.07260968  0.50680227  1
  Ca2+  Ca2  1  0.17144737  0.08286369  0.83694525  1
  Ca2+  Ca3  1  0.17156676  0.57377078  0.17619739  1
  Ca2+  Ca4  1  0.17481893  0.58531388  0.50007393  1
  Ca2+  Ca5  1  0.17633312  0.57861455  0.84075967  1
  Ca2+  Ca6  1  0.67451726  0.08899555  0.17068211  1
  Ca2+  Ca7  1  0.66363908  0.08713033  0.50467685  1
  Ca2+  Ca8  1  0.67215202  0.08456903  0.83762929  1
  Ca2+  Ca9  1  0.67290507  0.57985716  0.17408621  1
  Ca2+  Ca10  1  0.65658529  0.57206630  0.50379825  1
  Ca2+  Ca11  1  0.67142988  0.57846534  0.83497117  1
  Ca2+  Ca12  1  0.08427037  0.33357661  0.15435158  1
  Ca2+  Ca13  1  0.07831422  0.33864518  0.49598768  1
  Ca2+  Ca14  1  0.07581168  0.33547576  0.83449673  1
  Ca2+  Ca15  1  0.08776376  0.82900646  0.17079510  1
  Ca2+  Ca16  1  0.08002669  0.83606296  0.49196318  1
  Ca2+  Ca17  1  0.07803496  0.83477598  0.82556584  1
  Ca2+  Ca18  1  0.57792393  0.33694494  0.17225164  1
  Ca2+  Ca19  1  0.58045402  0.32873783  0.49168238  1
  Ca2+  Ca20  1  0.58332068  0.32737945  0.82341320  1
  Ca2+  Ca21  1  0.58172467  0.82576338  0.16588611  1
  Ca2+  Ca22  1  0.58026660  0.81769580  0.49451757  1
  Ca2+  Ca23  1  0.58017223  0.82408992  0.82492514  1
  Ca2+  Ca24  1  0.32321306  0.41972538  0.17422823  1
  Ca2+  Ca25  1  0.33484494  0.42261651  0.49838931  1
  Ca2+  Ca26  1  0.33028982  0.42708979  0.83985575  1
  Ca2+  Ca27  1  0.32829189  0.92498206  0.17190177  1
  Ca2+  Ca28  1  0.32147062  0.91767754  0.50738181  1
  Ca2+  Ca29  1  0.33056422  0.92784425  0.83429295  1
  Ca2+  Ca30  1  0.83238803  0.41987640  0.16975547  1
  Ca2+  Ca31  1  0.82130627  0.41407915  0.50635308  1
  Ca2+  Ca32  1  0.82977828  0.41186184  0.83738859  1
  Ca2+  Ca33  1  0.84024347  0.92442253  0.17048264  1
  Ca2+  Ca34  1  0.83748276  0.91432300  0.50345566  1
  Ca2+  Ca35  1  0.83362291  0.92118535  0.83819864  1
  Ca2+  Ca36  1  0.41545592  0.17267745  0.16286116  1
  Ca2+  Ca37  1  0.42588133  0.16811720  0.49300996  1
  Ca2+  Ca38  1  0.41806850  0.16390560  0.82577345  1
  Ca2+  Ca39  1  0.41835822  0.65474064  0.16723509  1
  Ca2+  Ca40  1  0.42221332  0.65404032  0.49513730  1
  Ca2+  Ca41  1  0.41904886  0.66026704  0.82574920  1
  Ca2+  Ca42  1  0.92471660  0.17394964  0.15497195  1
  Ca2+  Ca43  1  0.91684915  0.17438550  0.49914676  1
  Ca2+  Ca44  1  0.91899408  0.17472272  0.83320337  1
  Ca2+  Ca45  1  0.92172690  0.66683234  0.16427580  1
  Ca2+  Ca46  1  0.92525223  0.68024773  0.49097855  1
  Ca2+  Ca47  1  0.91606054  0.67006955  0.82649086  1
  Al0+  Al48  1  -0.00073577  -0.00013408  -0.00009147  1
  Al0+  Al49  1  -0.00039873  0.00321317  0.33432176  1
  Al0+  Al50  1  -0.00089667  0.00111543  0.66705012  1
  Al0+  Al51  1  -0.00213116  0.50137895  0.00067100  1
  Al0+  Al52  1  -0.00061300  0.50325401  0.33470115  1
  Al0+  Al53  1  -0.00132252  0.50146820  0.66036606  1
  Al0+  Al54  1  0.49829014  -0.00272339  0.00346313  1
  Al0+  Al55  1  0.50501973  -0.00079849  0.32897948  1
  Al0+  Al56  1  0.50064085  -0.00248701  0.66548135  1
  Al0+  Al57  1  0.50166854  0.49878448  0.00025637  1
  Al0+  Al58  1  0.50138199  0.49765584  0.33011935  1
  Al0+  Al59  1  0.50072001  0.49679133  0.67315887  1
  Al0+  Al60  1  0.25118571  0.24899962  0.00009822  1
  Al0+  Al61  1  0.25056418  0.25097932  0.33633241  1
  Al0+  Al62  1  0.24885538  0.25079049  0.66899172  1
  Al0+  Al63  1  0.25188913  0.75173681  0.00088957  1
  Al0+  Al64  1  0.24956118  0.75168784  0.33685617  1
  Al0+  Al65  1  0.24952236  0.75005137  0.67682121  1
  Al0+  Al66  1  0.74920827  0.24782962  0.00197356  1
  Al0+  Al67  1  0.75155863  0.25032473  0.33318398  1
  Al0+  Al68  1  0.74933081  0.24970440  0.66359465  1
  Al0+  Al69  1  0.74850708  0.74780475  0.00263873  1
  Al0+  Al70  1  0.74969703  0.75399375  0.32480348  1
  Al0+  Al71  1  0.74954400  0.74930730  0.65777787  1
  Al0+  Al72  1  0.92993835  0.82204174  0.65423314  1
  Al0+  Al73  1  0.32281015  0.07154640  0.67988988  1
  Al0+  Al74  1  0.17643782  0.92951406  0.68388344  1
  Al0+  Al75  1  0.42834660  0.31958148  0.31765983  1
  Al0+  Al76  1  0.32087474  0.56987769  0.34841290  1
  Al0+  Al77  1  0.92916041  0.32124331  0.65176740  1
  Al0+  Al78  1  0.68065890  0.42782508  0.68103060  1
  Al0+  Al79  1  0.32142982  0.07064281  0.01477543  1
  Al0+  Al80  1  0.56915708  0.67782521  0.31804478  1
  Al0+  Al81  1  0.32044208  0.56796700  0.68102553  1
  Al0+  Al82  1  0.57353022  0.17787867  0.31566726  1
  Al0+  Al83  1  0.82004200  0.57207992  0.01287114  1
  Al0+  Al84  1  0.17989081  0.93201437  0.34621380  1
  Al0+  Al85  1  0.82024178  0.06983526  0.01318960  1
  Al0+  Al86  1  0.17551728  0.42660138  0.35019694  1
  Al0+  Al87  1  0.32309033  0.57276885  0.01622179  1
  Al0+  Al88  1  0.07250398  0.67963111  0.31744775  1
  Al0+  Al89  1  0.07328277  0.17762927  0.98426463  1
  Al0+  Al90  1  0.17925553  0.43038962  0.01261446  1
  Al0+  Al91  1  0.92999682  0.82444304  0.31509692  1
  Al0+  Al92  1  0.56873343  0.67682912  0.65373478  1
  Al0+  Al93  1  0.68276392  0.43058692  0.34679546  1
  Al0+  Al94  1  0.56944465  0.17745071  0.65479912  1
  Al0+  Al95  1  0.92737891  0.32287885  0.98566639  1
  Si0+  Si96  1  0.42748728  0.82311275  0.31667279  1
  Si0+  Si97  1  0.07245701  0.17851395  0.64920454  1
  Si0+  Si98  1  0.67868293  0.92791942  0.34968324  1
  Si0+  Si99  1  0.42709595  0.82062247  0.65113583  1
  Si0+  Si100  1  0.43025884  0.32065497  0.98342300  1
  Si0+  Si101  1  0.67869119  0.42578185  0.01728125  1
  Si0+  Si102  1  0.07422386  0.67870305  0.65131528  1
  Si0+  Si103  1  0.92933520  0.32213467  0.31971426  1
  Si0+  Si104  1  0.56974529  0.17652573  0.98502516  1
  Si0+  Si105  1  0.67996854  0.92592194  0.67955319  1
  Si0+  Si106  1  0.42905052  0.82222488  0.98344198  1
  Si0+  Si107  1  0.17283946  0.42799936  0.68403332  1
  Si0+  Si108  1  0.42666035  0.32189665  0.65221624  1
  Si0+  Si109  1  0.32562839  0.07242568  0.34927271  1
  Si0+  Si110  1  0.07015827  0.18115331  0.32147379  1
  Si0+  Si111  1  0.82127907  0.57288661  0.67971856  1
  Si0+  Si112  1  0.57083955  0.67871440  0.98347752  1
  Si0+  Si113  1  0.81944330  0.07133965  0.68112289  1
  Si0+  Si114  1  0.17651070  0.92837979  0.01755692  1
  Si0+  Si115  1  0.92768406  0.81979399  0.98487106  1
  Si0+  Si116  1  0.82184784  0.57680091  0.35110721  1
  Si0+  Si117  1  0.67780080  0.92667272  0.01704762  1
  Si0+  Si118  1  0.81996903  0.07056589  0.35041911  1
  Si0+  Si119  1  0.07203351  0.67990827  0.98475638  1
  O2-  O120  1  0.24288396  -0.00014965  0.06078642  1
  O2-  O121  1  0.25812763  0.00283243  0.39312373  1
  O2-  O122  1  0.24859276  0.00251243  0.73176906  1
  O2-  O123  1  0.24929934  0.50276492  0.06462176  1
  O2-  O124  1  0.24737673  0.49949590  0.39890410  1
  O2-  O125  1  0.24357579  0.49514318  0.72716416  1
  O2-  O126  1  0.74624481  -0.00473340  0.06159979  1
  O2-  O127  1  0.74880344  -0.00034990  0.39253833  1
  O2-  O128  1  0.74951571  -0.00186554  0.72242616  1
  O2-  O129  1  0.74910969  0.49378574  0.05911485  1
  O2-  O130  1  0.75403704  0.50773919  0.39579707  1
  O2-  O131  1  0.75655503  0.50193156  0.72666259  1
  O2-  O132  1  0.00800339  0.25963020  0.27890573  1
  O2-  O133  1  0.00723827  0.25029414  0.60421549  1
  O2-  O134  1  0.00111890  0.25145169  0.93653678  1
  O2-  O135  1  -0.00079549  0.75004194  0.26538302  1
  O2-  O136  1  0.00758006  0.75044533  0.60877124  1
  O2-  O137  1  -0.00023852  0.75038394  0.94211121  1
  O2-  O138  1  0.49773805  0.24517445  0.26561198  1
  O2-  O139  1  0.49050633  0.24777970  0.60958381  1
  O2-  O140  1  0.50034535  0.24800593  0.94137894  1
  O2-  O141  1  0.49210033  0.75064569  0.27127510  1
  O2-  O142  1  0.49055022  0.74765963  0.60645294  1
  O2-  O143  1  0.49657060  0.74684556  0.94182404  1
  O2-  O144  1  0.07066855  0.17693331  0.09854413  1
  O2-  O145  1  0.06522906  0.17803449  0.42656457  1
  O2-  O146  1  0.07012328  0.17698433  0.75447715  1
  O2-  O147  1  0.07233334  0.68177728  0.08940105  1
  O2-  O148  1  0.07164151  0.68241359  0.43129881  1
  O2-  O149  1  0.07104552  0.67722708  0.75741377  1
  O2-  O150  1  0.56942267  0.17672634  0.08966644  1
  O2-  O151  1  0.57333300  0.17853014  0.42939918  1
  O2-  O152  1  0.57191508  0.17876157  0.76850393  1
  O2-  O153  1  0.57236622  0.68058480  0.08837950  1
  O2-  O154  1  0.56868985  0.67880721  0.43126825  1
  O2-  O155  1  0.57071127  0.68053761  0.76738714  1
  O2-  O156  1  0.17505847  0.42515838  0.23679494  1
  O2-  O157  1  0.17164855  0.42922812  0.57875376  1
  O2-  O158  1  0.18073226  0.43314037  0.89858859  1
  O2-  O159  1  0.18024749  0.93606269  0.23295521  1
  O2-  O160  1  0.17668329  0.93102907  0.57020308  1
  O2-  O161  1  0.17742647  0.92717684  0.91212226  1
  O2-  O162  1  0.68641049  0.43074047  0.23348672  1
  O2-  O163  1  0.67994773  0.42767898  0.56817917  1
  O2-  O164  1  0.67739718  0.42586994  0.91142592  1
  O2-  O165  1  0.67853018  0.92783126  0.24454488  1
  O2-  O166  1  0.68089524  0.92558655  0.57467637  1
  O2-  O167  1  0.67892868  0.92595032  0.91092003  1
  O2-  O168  1  0.43173140  0.32134594  0.08811063  1
  O2-  O169  1  0.43055999  0.31830753  0.43160834  1
  O2-  O170  1  0.42998042  0.32272698  0.75830414  1
  O2-  O171  1  0.43176333  0.82610934  0.08823910  1
  O2-  O172  1  0.43159266  0.82671469  0.42208600  1
  O2-  O173  1  0.43229235  0.82238753  0.75705434  1
  O2-  O174  1  0.92657528  0.32021779  0.09961648  1
  O2-  O175  1  0.92625827  0.31716359  0.42497304  1
  O2-  O176  1  0.92793915  0.31873470  0.76454276  1
  O2-  O177  1  0.92740037  0.81967984  0.08941906  1
  O2-  O178  1  0.93159877  0.82492411  0.42886454  1
  O2-  O179  1  0.92749363  0.81983781  0.76802734  1
  O2-  O180  1  0.32317890  0.07174182  0.24335845  1
  O2-  O181  1  0.32339385  0.06792928  0.56632195  1
  O2-  O182  1  0.32621839  0.06691728  0.90212358  1
  O2-  O183  1  0.31955429  0.56723099  0.23508148  1
  O2-  O184  1  0.32182365  0.56681111  0.56852473  1
  O2-  O185  1  0.32303738  0.57085726  0.90227764  1
  O2-  O186  1  0.82044038  0.07043064  0.24529336  1
  O2-  O187  1  0.81897082  0.07169358  0.57580506  1
  O2-  O188  1  0.81744932  0.06831701  0.89970960  1
  O2-  O189  1  0.82081066  0.57404168  0.24508635  1
  O2-  O190  1  0.81918970  0.57290309  0.57456616  1
  O2-  O191  1  0.81544104  0.57854551  0.89979336  1
  O2-  O192  1  0.03431505  0.09373643  0.27115415  1
  O2-  O193  1  0.04145878  0.08678340  0.60220297  1
  O2-  O194  1  0.04167584  0.07936959  0.93163101  1
  O2-  O195  1  0.04315570  0.58083289  0.26457864  1
  O2-  O196  1  0.04762297  0.58713401  0.60221369  1
  O2-  O197  1  0.04363091  0.58892926  0.93674693  1
  O2-  O198  1  0.55401360  0.07683240  0.26388073  1
  O2-  O199  1  0.54466055  0.07906566  0.60034446  1
  O2-  O200  1  0.54275254  0.08327703  0.93950996  1
  O2-  O201  1  0.54228902  0.58167789  0.26224526  1
  O2-  O202  1  0.53904257  0.57860674  0.60329791  1
  O2-  O203  1  0.54703958  0.58522970  0.93706647  1
  O2-  O204  1  0.16532644  0.19881337  0.27720874  1
  O2-  O205  1  0.16775979  0.19942555  0.60438693  1
  O2-  O206  1  0.17230875  0.20385077  0.93126394  1
  O2-  O207  1  0.17050932  0.71091355  0.26493825  1
  O2-  O208  1  0.16935878  0.70299335  0.60871225  1
  O2-  O209  1  0.16408442  0.70887942  0.93737884  1
  O2-  O210  1  0.67134236  0.21130387  0.26354890  1
  O2-  O211  1  0.66450486  0.20981009  0.59950785  1
  O2-  O212  1  0.66233895  0.20323728  0.93845691  1
  O2-  O213  1  0.66377203  0.71326291  0.26233212  1
  O2-  O214  1  0.66244704  0.71066032  0.59677215  1
  O2-  O215  1  0.66134007  0.71080872  0.93522737  1
  O2-  O216  1  0.07959651  0.45559275  0.06354915  1
  O2-  O217  1  0.07629547  0.45539749  0.40224659  1
  O2-  O218  1  0.07938860  0.45653345  0.72934961  1
  O2-  O219  1  0.08190493  0.94995889  0.06251973  1
  O2-  O220  1  0.08452444  0.96754859  0.40032559  1
  O2-  O221  1  0.07763658  0.95874803  0.73642148  1
  O2-  O222  1  0.58643582  0.45503284  0.06322946  1
  O2-  O223  1  0.58510847  0.45878457  0.39884326  1
  O2-  O224  1  0.58606811  0.45805083  0.73867803  1
  O2-  O225  1  0.58464738  0.95145509  0.06345215  1
  O2-  O226  1  0.58676572  0.95400290  0.39798384  1
  O2-  O227  1  0.58814599  0.95142024  0.72813287  1
  O2-  O228  1  0.20757075  0.33159000  0.06371595  1
  O2-  O229  1  0.20330356  0.32813106  0.40454926  1
  O2-  O230  1  0.19475605  0.33291932  0.72832390  1
  O2-  O231  1  0.20672004  0.83634777  0.06392559  1
  O2-  O232  1  0.20669577  0.83559664  0.40177877  1
  O2-  O233  1  0.20293667  0.83196536  0.73941842  1
  O2-  O234  1  0.70132309  0.33208185  0.06353150  1
  O2-  O235  1  0.71601600  0.33422297  0.40065223  1
  O2-  O236  1  0.71303972  0.33132644  0.73496064  1
  O2-  O237  1  0.70336288  0.83365333  0.06362488  1
  O2-  O238  1  0.70750981  0.83614463  0.39667913  1
  O2-  O239  1  0.70981693  0.83486997  0.72797606  1
  O2-  O240  1  0.46182127  0.41492348  0.26202570  1
  O2-  O241  1  0.45970536  0.41243582  0.60575926  1
  O2-  O242  1  0.46074863  0.41193305  0.93523965  1
  O2-  O243  1  0.45901343  0.91397828  0.26708388  1
  O2-  O244  1  0.45725188  0.91130819  0.60237633  1
  O2-  O245  1  0.46216698  0.91169584  0.93353170  1
  O2-  O246  1  0.94664756  0.41766935  0.27651095  1
  O2-  O247  1  0.95398529  0.41899240  0.59666324  1
  O2-  O248  1  0.95166367  0.42248983  0.93214124  1
  O2-  O249  1  0.96137134  0.92319874  0.26377461  1
  O2-  O250  1  0.95580400  0.92022058  0.60052761  1
  O2-  O251  1  0.95370518  0.91215152  0.93754395  1
  O2-  O252  1  0.32855616  0.29295703  0.26546458  1
  O2-  O253  1  0.33045546  0.30426536  0.60837000  1
  O2-  O254  1  0.33872834  0.29403715  0.93581900  1
  O2-  O255  1  0.33232244  0.80342544  0.27260996  1
  O2-  O256  1  0.33033609  0.79998575  0.61066815  1
  O2-  O257  1  0.33582093  0.79971623  0.93620626  1
  O2-  O258  1  0.84179940  0.28599028  0.27020477  1
  O2-  O259  1  0.83511957  0.28426235  0.59651285  1
  O2-  O260  1  0.82902037  0.28950044  0.93356829  1
  O2-  O261  1  0.83045895  0.80189732  0.26209878  1
  O2-  O262  1  0.83526996  0.79078437  0.59666654  1
  O2-  O263  1  0.83490101  0.79144745  0.93865168  1
  O2-  O264  1  0.41601180  0.03537208  0.07080950  1
  O2-  O265  1  0.42129113  0.04716108  0.39084660  1
  O2-  O266  1  0.42064959  0.03909424  0.73382384  1
  O2-  O267  1  0.42248402  0.54297360  0.06554206  1
  O2-  O268  1  0.41951434  0.53776823  0.39887954  1
  O2-  O269  1  0.41520991  0.53489144  0.73805970  1
  O2-  O270  1  0.91636936  0.03877267  0.06800471  1
  O2-  O271  1  0.91085810  0.04269666  0.39934128  1
  O2-  O272  1  0.91102442  0.04497327  0.72880486  1
  O2-  O273  1  0.91689496  0.54599395  0.06755692  1
  O2-  O274  1  0.91579793  0.55375903  0.39654460  1
  O2-  O275  1  0.91676911  0.55170204  0.72409808  1
  O2-  O276  1  0.29500662  0.16803344  0.06799598  1
  O2-  O277  1  0.30016808  0.16509985  0.39581054  1
  O2-  O278  1  0.29807171  0.17148394  0.73232546  1
  O2-  O279  1  0.30058629  0.67394120  0.06517557  1
  O2-  O280  1  0.29733307  0.67016774  0.40014462  1
  O2-  O281  1  0.29488945  0.66539808  0.73689170  1
  O2-  O282  1  0.78856635  0.16504088  0.06949973  1
  O2-  O283  1  0.79163242  0.16196766  0.39819431  1
  O2-  O284  1  0.78804668  0.16109862  0.72943457  1
  O2-  O285  1  0.78559861  0.66601272  0.07045903  1
  O2-  O286  1  0.79604725  0.67237730  0.39203728  1
  O2-  O287  1  0.79160411  0.66584779  0.72581186  1
