# generated using pymatgen
data_Ca2Al2SiO7
_symmetry_space_group_name_H-M   'P 1'
_cell_length_a   15.46503366
_cell_length_b   15.46674163
_cell_length_c   15.28902596
_cell_angle_alpha   90.00952756
_cell_angle_beta   90.00935130
_cell_angle_gamma   89.96903635
_symmetry_Int_Tables_number   1
_chemical_formula_structural   Ca2Al2SiO7
_chemical_formula_sum   'Ca48 Al48 Si24 O168'
_cell_volume   3657.03774893
_cell_formula_units_Z   24
loop_
 _symmetry_equiv_pos_site_id
 _symmetry_equiv_pos_as_xyz
  1  'x, y, z'
loop_
 _atom_type_symbol
 _atom_type_oxidation_number
  Ca2+  2.0
  Al0+  0.0
  Si0+  0.0
  O2-  -2.0
loop_
 _atom_site_type_symbol
 _atom_site_label
 _atom_site_symmetry_multiplicity
 _atom_site_fract_x
 _atom_site_fract_y
 _atom_site_fract_z
 _atom_site_occupancy
  Ca2+  Ca0  1  0.15556096  0.07923769  0.16989682  1
  Ca2+  Ca1  1  0.16388907  0.08507753  0.50275343  1
  Ca2+  Ca2  1  0.16279729  0.07676728  0.84270004  1
  Ca2+  Ca3  1  0.17007052  0.58715083  0.17475282  1
  Ca2+  Ca4  1  0.17666547  0.58449877  0.50603356  1
  Ca2+  Ca5  1  0.16436430  0.58426189  0.83281008  1
  Ca2+  Ca6  1  0.66135935  0.07492216  0.17627843  1
  Ca2+  Ca7  1  0.65851023  0.07889573  0.49814978  1
  Ca2+  Ca8  1  0.67074186  0.07476089  0.84129146  1
  Ca2+  Ca9  1  0.67681859  0.58004301  0.17537120  1
  Ca2+  Ca10  1  0.65884466  0.57407305  0.50406601  1
  Ca2+  Ca11  1  0.67346016  0.58025947  0.83451403  1
  Ca2+  Ca12  1  0.07358428  0.32583019  0.16006352  1
  Ca2+  Ca13  1  0.07383771  0.33835445  0.49412068  1
  Ca2+  Ca14  1  0.07162728  0.33726252  0.82769577  1
  Ca2+  Ca15  1  0.08780360  0.82184976  0.16135376  1
  Ca2+  Ca16  1  0.08020572  0.82235674  0.49743909  1
  Ca2+  Ca17  1  0.08157268  0.82367939  0.82742220  1
  Ca2+  Ca18  1  0.58052393  0.33967769  0.17264955  1
  Ca2+  Ca19  1  0.57615664  0.33827228  0.49053489  1
  Ca2+  Ca20  1  0.57758728  0.33785643  0.82287583  1
  Ca2+  Ca21  1  0.58265510  0.83575975  0.16760672  1
  Ca2+  Ca22  1  0.57975778  0.81867418  0.49024018  1
  Ca2+  Ca23  1  0.58591240  0.82661629  0.82768077  1
  Ca2+  Ca24  1  0.33093512  0.42292785  0.17770324  1
  Ca2+  Ca25  1  0.33329123  0.42411603  0.50881504  1
  Ca2+  Ca26  1  0.32857203  0.42014129  0.82789088  1
  Ca2+  Ca27  1  0.32923090  0.91502781  0.17297582  1
  Ca2+  Ca28  1  0.33755046  0.91679011  0.49946378  1
  Ca2+  Ca29  1  0.32550954  0.91893393  0.84126390  1
  Ca2+  Ca30  1  0.83614309  0.41692537  0.17141922  1
  Ca2+  Ca31  1  0.82381134  0.40802931  0.50352239  1
  Ca2+  Ca32  1  0.83444430  0.41814241  0.83656493  1
  Ca2+  Ca33  1  0.82072941  0.91636092  0.17395311  1
  Ca2+  Ca34  1  0.83207212  0.91555658  0.50345055  1
  Ca2+  Ca35  1  0.83134034  0.91286785  0.83974493  1
  Ca2+  Ca36  1  0.42182304  0.16955512  0.17104401  1
  Ca2+  Ca37  1  0.41970561  0.18331986  0.49281778  1
  Ca2+  Ca38  1  0.41898599  0.17397963  0.82745475  1
  Ca2+  Ca39  1  0.42269329  0.66536788  0.17284902  1
  Ca2+  Ca40  1  0.42314536  0.66137309  0.49244446  1
  Ca2+  Ca41  1  0.42332309  0.66454307  0.82434035  1
  Ca2+  Ca42  1  0.92046002  0.17760675  0.16533918  1
  Ca2+  Ca43  1  0.92152766  0.17850149  0.49315374  1
  Ca2+  Ca44  1  0.91992673  0.17532994  0.83107097  1
  Ca2+  Ca45  1  0.92783031  0.65933457  0.16059675  1
  Ca2+  Ca46  1  0.93028705  0.66290070  0.49893091  1
  Ca2+  Ca47  1  0.92461778  0.66745652  0.82856505  1
  Al0+  Al48  1  -0.00148818  0.00001935  0.00386624  1
  Al0+  Al49  1  -0.00210711  -0.00113968  0.33345044  1
  Al0+  Al50  1  -0.00137795  0.00047635  0.66521092  1
  Al0+  Al51  1  0.00132773  0.49999346  -0.00418072  1
  Al0+  Al52  1  0.00091970  0.50115251  0.32631151  1
  Al0+  Al53  1  -0.00056115  0.49974708  0.66074912  1
  Al0+  Al54  1  0.49821889  0.00060207  0.00176341  1
  Al0+  Al55  1  0.49738525  0.00006371  0.33348709  1
  Al0+  Al56  1  0.50030703  -0.00029227  0.67076148  1
  Al0+  Al57  1  0.50014507  0.50133825  -0.00096380  1
  Al0+  Al58  1  0.50109445  0.50233613  0.33030038  1
  Al0+  Al59  1  0.49947688  0.49974011  0.66907344  1
  Al0+  Al60  1  0.25209840  0.25016896  -0.00287955  1
  Al0+  Al61  1  0.24921310  0.24840650  0.32644786  1
  Al0+  Al62  1  0.25151181  0.25020003  0.66881794  1
  Al0+  Al63  1  0.25186412  0.75154465  -0.00049752  1
  Al0+  Al64  1  0.25041740  0.75064979  0.33177103  1
  Al0+  Al65  1  0.25110800  0.75232085  0.66847094  1
  Al0+  Al66  1  0.74687242  0.24926659  -0.00318129  1
  Al0+  Al67  1  0.75041600  0.24865542  0.32975882  1
  Al0+  Al68  1  0.75081704  0.24626625  0.66935521  1
  Al0+  Al69  1  0.74999614  0.74707034  0.00923578  1
  Al0+  Al70  1  0.75072261  0.74934330  0.33707203  1
  Al0+  Al71  1  0.74880500  0.74954697  0.65959172  1
  Al0+  Al72  1  0.67910981  0.92894176  0.01395230  1
  Al0+  Al73  1  0.92770815  0.32076982  0.65190273  1
  Al0+  Al74  1  0.07176245  0.17657466  0.31935389  1
  Al0+  Al75  1  0.57037331  0.17940132  0.31963561  1
  Al0+  Al76  1  0.67677226  0.92852594  0.35079806  1
  Al0+  Al77  1  0.68250436  0.42981533  0.34568923  1
  Al0+  Al78  1  0.92854171  0.32174595  0.31798968  1
  Al0+  Al79  1  0.07157656  0.17723971  0.98364258  1
  Al0+  Al80  1  0.31939635  0.57058170  0.34578000  1
  Al0+  Al81  1  0.07305556  0.67880884  0.65056909  1
  Al0+  Al82  1  0.17869746  0.92966172  0.01437181  1
  Al0+  Al83  1  0.43005647  0.31967892  0.65406054  1
  Al0+  Al84  1  0.17684747  0.42853421  0.68081587  1
  Al0+  Al85  1  0.42844322  0.32420549  0.31786269  1
  Al0+  Al86  1  0.82223091  0.56757542  0.01243122  1
  Al0+  Al87  1  0.56945781  0.67883922  0.65434817  1
  Al0+  Al88  1  0.07059714  0.68141310  0.31905388  1
  Al0+  Al89  1  0.92835914  0.82292628  0.65255057  1
  Al0+  Al90  1  0.92790768  0.32102723  0.98254765  1
  Al0+  Al91  1  0.07352522  0.68042800  0.98523194  1
  Al0+  Al92  1  0.42945243  0.82085189  0.31847782  1
  Al0+  Al93  1  0.67981460  0.42755972  0.67956501  1
  Al0+  Al94  1  0.57360748  0.67811536  0.31623127  1
  Al0+  Al95  1  0.32085217  0.57308223  0.68258655  1
  Si0+  Si96  1  0.82608646  0.57244377  0.35193679  1
  Si0+  Si97  1  0.56821123  0.17667455  0.98378929  1
  Si0+  Si98  1  0.67561916  0.42715834  0.01624010  1
  Si0+  Si99  1  0.92582855  0.81984173  0.98766809  1
  Si0+  Si100  1  0.17803404  0.92924733  0.34981324  1
  Si0+  Si101  1  0.67933817  0.92808077  0.68168484  1
  Si0+  Si102  1  0.42844267  0.82489983  0.65257234  1
  Si0+  Si103  1  0.43071917  0.82201526  0.98408798  1
  Si0+  Si104  1  0.82143935  0.07026893  0.35226575  1
  Si0+  Si105  1  0.57184556  0.67947494  0.98478985  1
  Si0+  Si106  1  0.31999347  0.07226143  0.34967084  1
  Si0+  Si107  1  0.82164796  0.57293854  0.68111835  1
  Si0+  Si108  1  0.17781856  0.93129672  0.68124563  1
  Si0+  Si109  1  0.32166786  0.07346699  0.01871267  1
  Si0+  Si110  1  0.32270293  0.57157690  0.01572644  1
  Si0+  Si111  1  0.18072815  0.42926848  0.01427225  1
  Si0+  Si112  1  0.07227071  0.17818738  0.65198617  1
  Si0+  Si113  1  0.82062264  0.07403501  0.01849650  1
  Si0+  Si114  1  0.32199289  0.07119493  0.68229806  1
  Si0+  Si115  1  0.82228489  0.06938654  0.68355292  1
  Si0+  Si116  1  0.57249588  0.17550967  0.65221462  1
  Si0+  Si117  1  0.92733099  0.82232907  0.31582432  1
  Si0+  Si118  1  0.17782201  0.42611096  0.34659159  1
  Si0+  Si119  1  0.43037583  0.32391968  0.98294539  1
  O2-  O120  1  0.24878388  0.00880134  0.06192275  1
  O2-  O121  1  0.24605584  0.00358563  0.39202594  1
  O2-  O122  1  0.24962984  0.00150615  0.72425018  1
  O2-  O123  1  0.25088341  0.50111728  0.05697852  1
  O2-  O124  1  0.24832541  0.49217155  0.39139801  1
  O2-  O125  1  0.24546720  0.50403424  0.73255080  1
  O2-  O126  1  0.75266687  0.00400648  0.06167953  1
  O2-  O127  1  0.75181608  0.00286897  0.39804139  1
  O2-  O128  1  0.75186705  -0.00325529  0.72503179  1
  O2-  O129  1  0.75000394  0.48990013  0.05849168  1
  O2-  O130  1  0.75656613  0.50405234  0.39484902  1
  O2-  O131  1  0.75586293  0.50122777  0.72602438  1
  O2-  O132  1  0.00325529  0.25141073  0.27007845  1
  O2-  O133  1  0.00839156  0.25078759  0.60804024  1
  O2-  O134  1  0.00073426  0.24920494  0.93244148  1
  O2-  O135  1  -0.00641054  0.75257922  0.27057762  1
  O2-  O136  1  -0.00064827  0.75042927  0.60244352  1
  O2-  O137  1  -0.00202104  0.75612684  0.94161331  1
  O2-  O138  1  0.50181447  0.25340388  0.26735905  1
  O2-  O139  1  0.50802603  0.24781768  0.60905372  1
  O2-  O140  1  0.50239340  0.25261925  0.94182800  1
  O2-  O141  1  0.50427078  0.75312481  0.26626605  1
  O2-  O142  1  0.49269118  0.75252364  0.60980994  1
  O2-  O143  1  0.50198726  0.75161708  0.94185064  1
  O2-  O144  1  0.07012594  0.17962880  0.09664283  1
  O2-  O145  1  0.07002691  0.17550489  0.43331824  1
  O2-  O146  1  0.06909130  0.17392042  0.75732578  1
  O2-  O147  1  0.07477636  0.68148354  0.09820772  1
  O2-  O148  1  0.07183314  0.68324089  0.43171306  1
  O2-  O149  1  0.07190219  0.68245610  0.76444713  1
  O2-  O150  1  0.56573306  0.17260959  0.08807041  1
  O2-  O151  1  0.56603123  0.17907866  0.43338583  1
  O2-  O152  1  0.56888901  0.17188172  0.75835402  1
  O2-  O153  1  0.56980188  0.67801423  0.08910066  1
  O2-  O154  1  0.56998103  0.67733330  0.42978009  1
  O2-  O155  1  0.57157382  0.68310920  0.76843499  1
  O2-  O156  1  0.17905641  0.42833293  0.24046542  1
  O2-  O157  1  0.18000971  0.42579914  0.56743592  1
  O2-  O158  1  0.18226986  0.42951465  0.90929970  1
  O2-  O159  1  0.17934056  0.92912973  0.24471492  1
  O2-  O160  1  0.17800858  0.93310561  0.57617896  1
  O2-  O161  1  0.18322052  0.92908151  0.90072518  1
  O2-  O162  1  0.68398286  0.43205391  0.23217635  1
  O2-  O163  1  0.67910474  0.42709738  0.56684045  1
  O2-  O164  1  0.67125626  0.43028008  0.91055899  1
  O2-  O165  1  0.67842430  0.93153476  0.23734076  1
  O2-  O166  1  0.67606516  0.93137494  0.57739232  1
  O2-  O167  1  0.68011315  0.92942421  0.90005067  1
  O2-  O168  1  0.43066400  0.32602949  0.08748689  1
  O2-  O169  1  0.42784609  0.32241148  0.43135371  1
  O2-  O170  1  0.43112342  0.31630386  0.76791698  1
  O2-  O171  1  0.43025048  0.82319497  0.08845657  1
  O2-  O172  1  0.42902794  0.82014040  0.43235113  1
  O2-  O173  1  0.43180293  0.82920994  0.75860597  1
  O2-  O174  1  0.92941794  0.32014460  0.09564202  1
  O2-  O175  1  0.92860637  0.31952382  0.43178953  1
  O2-  O176  1  0.92606831  0.31725410  0.76481021  1
  O2-  O177  1  0.92491157  0.81665535  0.09291950  1
  O2-  O178  1  0.93122152  0.82426481  0.42136505  1
  O2-  O179  1  0.92951817  0.82396983  0.76676747  1
  O2-  O180  1  0.32174079  0.07059971  0.24472804  1
  O2-  O181  1  0.32388848  0.07014996  0.57755301  1
  O2-  O182  1  0.32523246  0.07008033  0.91261929  1
  O2-  O183  1  0.31665477  0.57061914  0.23182129  1
  O2-  O184  1  0.32169547  0.57180437  0.56930580  1
  O2-  O185  1  0.32616520  0.57043260  0.91086022  1
  O2-  O186  1  0.82226351  0.06712984  0.24672138  1
  O2-  O187  1  0.82327397  0.06989239  0.57901588  1
  O2-  O188  1  0.81835821  0.07303790  0.91230873  1
  O2-  O189  1  0.82654407  0.57174957  0.24596427  1
  O2-  O190  1  0.82024674  0.57390051  0.57595297  1
  O2-  O191  1  0.81849360  0.57108558  0.89912448  1
  O2-  O192  1  0.03982420  0.07866171  0.26704611  1
  O2-  O193  1  0.04257249  0.08667793  0.60403178  1
  O2-  O194  1  0.04254661  0.07711340  0.93297312  1
  O2-  O195  1  0.04377188  0.58497246  0.26304970  1
  O2-  O196  1  0.04599518  0.58120075  0.59670219  1
  O2-  O197  1  0.04281295  0.58450684  0.93148087  1
  O2-  O198  1  0.53581852  0.08318556  0.26592790  1
  O2-  O199  1  0.54221806  0.08310617  0.60611651  1
  O2-  O200  1  0.53558893  0.08701650  0.93349750  1
  O2-  O201  1  0.54171955  0.58303930  0.25985389  1
  O2-  O202  1  0.53887018  0.58264893  0.60165774  1
  O2-  O203  1  0.54181595  0.58841603  0.93633992  1
  O2-  O204  1  0.17067454  0.19681615  0.26479301  1
  O2-  O205  1  0.16848919  0.19703879  0.60957346  1
  O2-  O206  1  0.17310234  0.20089933  0.93373320  1
  O2-  O207  1  0.16502431  0.71646385  0.26430205  1
  O2-  O208  1  0.17149989  0.71128778  0.59998323  1
  O2-  O209  1  0.17002691  0.71262156  0.93147046  1
  O2-  O210  1  0.66922921  0.20104342  0.26595534  1
  O2-  O211  1  0.66792148  0.19371912  0.60923648  1
  O2-  O212  1  0.66161224  0.19816866  0.93662107  1
  O2-  O213  1  0.67411301  0.70419032  0.26696170  1
  O2-  O214  1  0.66362461  0.70956480  0.59752050  1
  O2-  O215  1  0.66427426  0.70792161  0.93943721  1
  O2-  O216  1  0.08857531  0.45606617  0.06024486  1
  O2-  O217  1  0.08433090  0.45474609  0.39083072  1
  O2-  O218  1  0.07663824  0.45496828  0.73199937  1
  O2-  O219  1  0.08047246  0.95392768  0.06861833  1
  O2-  O220  1  0.08514395  0.95427311  0.39679022  1
  O2-  O221  1  0.08648354  0.96016081  0.72928638  1
  O2-  O222  1  0.58419229  0.45934891  0.06350746  1
  O2-  O223  1  0.58474732  0.46132869  0.39708843  1
  O2-  O224  1  0.58488315  0.46065945  0.73564262  1
  O2-  O225  1  0.58188429  0.96114177  0.06571459  1
  O2-  O226  1  0.57996247  0.96137830  0.40338067  1
  O2-  O227  1  0.58856046  0.95774010  0.73214470  1
  O2-  O228  1  0.21020324  0.33723590  0.06061396  1
  O2-  O229  1  0.19853724  0.33027502  0.38986361  1
  O2-  O230  1  0.20932274  0.33107249  0.73596663  1
  O2-  O231  1  0.21596844  0.83483003  0.06843088  1
  O2-  O232  1  0.21085234  0.83980185  0.39805092  1
  O2-  O233  1  0.20548583  0.84027003  0.72995143  1
  O2-  O234  1  0.69284630  0.33006407  0.05791408  1
  O2-  O235  1  0.70937240  0.33099764  0.39790111  1
  O2-  O236  1  0.70668200  0.32914309  0.73380668  1
  O2-  O237  1  0.70796961  0.83329826  0.06988484  1
  O2-  O238  1  0.70734781  0.83133420  0.40371736  1
  O2-  O239  1  0.70549701  0.83518320  0.72793015  1
  O2-  O240  1  0.45792782  0.42059236  0.26248522  1
  O2-  O241  1  0.45842521  0.41672092  0.60265681  1
  O2-  O242  1  0.45923456  0.41523893  0.93448772  1
  O2-  O243  1  0.45353832  0.92011236  0.26572211  1
  O2-  O244  1  0.45737311  0.91730435  0.60551049  1
  O2-  O245  1  0.45701865  0.91438223  0.93597191  1
  O2-  O246  1  0.95514862  0.41959454  0.26396935  1
  O2-  O247  1  0.95166979  0.41796764  0.59745548  1
  O2-  O248  1  0.95880704  0.41836900  0.92920101  1
  O2-  O249  1  0.95279941  0.91534748  0.26931691  1
  O2-  O250  1  0.95786672  0.92054480  0.59796839  1
  O2-  O251  1  0.94528260  0.91613414  0.94494106  1
  O2-  O252  1  0.33171487  0.29323066  0.26318163  1
  O2-  O253  1  0.33472225  0.28566870  0.60024366  1
  O2-  O254  1  0.33931272  0.29489697  0.93506694  1
  O2-  O255  1  0.33244895  0.79066881  0.26393197  1
  O2-  O256  1  0.33286889  0.80689834  0.60907138  1
  O2-  O257  1  0.33995472  0.79308220  0.93543583  1
  O2-  O258  1  0.83250712  0.28998309  0.26323526  1
  O2-  O259  1  0.83265399  0.28235783  0.59964350  1
  O2-  O260  1  0.82717962  0.29420562  0.93195783  1
  O2-  O261  1  0.83220171  0.79976342  0.27305824  1
  O2-  O262  1  0.82967370  0.79898044  0.59927765  1
  O2-  O263  1  0.83324294  0.79010711  0.94078544  1
  O2-  O264  1  0.41285857  0.04193859  0.06600512  1
  O2-  O265  1  0.40927652  0.04131224  0.39989052  1
  O2-  O266  1  0.41259709  0.04144672  0.73310266  1
  O2-  O267  1  0.41430224  0.54201953  0.06321841  1
  O2-  O268  1  0.41767479  0.54320191  0.39683361  1
  O2-  O269  1  0.41716454  0.53992519  0.73805348  1
  O2-  O270  1  0.91430638  0.05081210  0.06437281  1
  O2-  O271  1  0.91413953  0.04198757  0.40015648  1
  O2-  O272  1  0.91371541  0.04170418  0.73267711  1
  O2-  O273  1  0.92004710  0.53913194  0.06583796  1
  O2-  O274  1  0.92040497  0.54591369  0.39621699  1
  O2-  O275  1  0.91634785  0.54983619  0.72564185  1
  O2-  O276  1  0.30302101  0.16953908  0.06205129  1
  O2-  O277  1  0.29359207  0.16504866  0.39654518  1
  O2-  O278  1  0.29691453  0.16238914  0.73194490  1
  O2-  O279  1  0.29639221  0.66423652  0.06112380  1
  O2-  O280  1  0.28686078  0.66678698  0.39937008  1
  O2-  O281  1  0.29824336  0.67402880  0.73545529  1
  O2-  O282  1  0.79198824  0.16721358  0.06338817  1
  O2-  O283  1  0.79652275  0.16439402  0.39675670  1
  O2-  O284  1  0.79213780  0.15861712  0.73483079  1
  O2-  O285  1  0.78964164  0.66117331  0.07113324  1
  O2-  O286  1  0.80385593  0.66684625  0.39733539  1
  O2-  O287  1  0.79185442  0.66598814  0.72751061  1
