# generated using pymatgen
data_Ca2Al2SiO7
_symmetry_space_group_name_H-M   'P 1'
_cell_length_a   15.45926137
_cell_length_b   15.45937184
_cell_length_c   15.28487637
_cell_angle_alpha   90.00664746
_cell_angle_beta   90.00221870
_cell_angle_gamma   90.00962261
_symmetry_Int_Tables_number   1
_chemical_formula_structural   Ca2Al2SiO7
_chemical_formula_sum   'Ca48 Al48 Si24 O168'
_cell_volume   3652.93970621
_cell_formula_units_Z   24
loop_
 _symmetry_equiv_pos_site_id
 _symmetry_equiv_pos_as_xyz
  1  'x, y, z'
loop_
 _atom_type_symbol
 _atom_type_oxidation_number
  Ca2+  2.0
  Al0+  0.0
  Si0+  0.0
  O2-  -2.0
loop_
 _atom_site_type_symbol
 _atom_site_label
 _atom_site_symmetry_multiplicity
 _atom_site_fract_x
 _atom_site_fract_y
 _atom_site_fract_z
 _atom_site_occupancy
  Ca2+  Ca0  1  0.17881459  0.08180380  0.17714817  1
  Ca2+  Ca1  1  0.16803074  0.08604335  0.49464519  1
  Ca2+  Ca2  1  0.17579748  0.08119469  0.84180744  1
  Ca2+  Ca3  1  0.17649922  0.57478812  0.17559386  1
  Ca2+  Ca4  1  0.17010407  0.57432199  0.49944819  1
  Ca2+  Ca5  1  0.16888326  0.57098454  0.83837813  1
  Ca2+  Ca6  1  0.65850349  0.07063133  0.17433517  1
  Ca2+  Ca7  1  0.65857233  0.08028461  0.50098151  1
  Ca2+  Ca8  1  0.66282300  0.07905026  0.83692674  1
  Ca2+  Ca9  1  0.67053723  0.58478982  0.17549053  1
  Ca2+  Ca10  1  0.66607943  0.57201708  0.49494544  1
  Ca2+  Ca11  1  0.66957692  0.58188988  0.83822357  1
  Ca2+  Ca12  1  0.08639941  0.33790126  0.16747090  1
  Ca2+  Ca13  1  0.08066286  0.33499772  0.48840010  1
  Ca2+  Ca14  1  0.08654155  0.33690088  0.83030438  1
  Ca2+  Ca15  1  0.07983708  0.83735730  0.16855767  1
  Ca2+  Ca16  1  0.07220247  0.83648909  0.48862954  1
  Ca2+  Ca17  1  0.07575631  0.82841594  0.82384487  1
  Ca2+  Ca18  1  0.57883095  0.32966340  0.16410588  1
  Ca2+  Ca19  1  0.58718051  0.32633380  0.49190085  1
  Ca2+  Ca20  1  0.57067318  0.33134401  0.82163031  1
  Ca2+  Ca21  1  0.58571455  0.82490505  0.16143633  1
  Ca2+  Ca22  1  0.58546397  0.82431663  0.48820946  1
  Ca2+  Ca23  1  0.58428221  0.83050572  0.83958477  1
  Ca2+  Ca24  1  0.32715649  0.41540426  0.17311898  1
  Ca2+  Ca25  1  0.32724660  0.41558411  0.50138184  1
  Ca2+  Ca26  1  0.32605165  0.40393907  0.83720164  1
  Ca2+  Ca27  1  0.33629549  0.92559574  0.17515022  1
  Ca2+  Ca28  1  0.33099147  0.92362285  0.49637366  1
  Ca2+  Ca29  1  0.33948415  0.92423376  0.84380799  1
  Ca2+  Ca30  1  0.82894446  0.42851239  0.17762527  1
  Ca2+  Ca31  1  0.82244401  0.41020686  0.49883908  1
  Ca2+  Ca32  1  0.82270345  0.42151837  0.83982486  1
  Ca2+  Ca33  1  0.82187352  0.91373139  0.17446578  1
  Ca2+  Ca34  1  0.83126455  0.91175693  0.49828058  1
  Ca2+  Ca35  1  0.82824077  0.91588744  0.83841738  1
  Ca2+  Ca36  1  0.41519956  0.16618866  0.16415755  1
  Ca2+  Ca37  1  0.42392705  0.17243589  0.49563234  1
  Ca2+  Ca38  1  0.41888639  0.17395811  0.83104718  1
  Ca2+  Ca39  1  0.42771130  0.66616832  0.16191373  1
  Ca2+  Ca40  1  0.42118181  0.66425587  0.48925541  1
  Ca2+  Ca41  1  0.42038302  0.67180064  0.83422581  1
  Ca2+  Ca42  1  0.92304589  0.17369120  0.17210895  1
  Ca2+  Ca43  1  0.92465059  0.17531829  0.48555608  1
  Ca2+  Ca44  1  0.92092308  0.16781986  0.82827545  1
  Ca2+  Ca45  1  0.90778109  0.66790894  0.16606801  1
  Ca2+  Ca46  1  0.91059271  0.67582517  0.49136688  1
  Ca2+  Ca47  1  0.91329031  0.66913623  0.83157165  1
  Al0+  Al48  1  -0.00007799  0.00147572  -0.00197997  1
  Al0+  Al49  1  -0.00084817  0.00107921  0.32553867  1
  Al0+  Al50  1  -0.00116648  -0.00047235  0.66426873  1
  Al0+  Al51  1  -0.00137070  0.50008808  0.00537256  1
  Al0+  Al52  1  -0.00019164  0.50457219  0.33661164  1
  Al0+  Al53  1  0.00134120  0.50116425  0.67079951  1
  Al0+  Al54  1  0.50088176  -0.00032931  0.00422187  1
  Al0+  Al55  1  0.49986707  0.00023962  0.34069754  1
  Al0+  Al56  1  0.49997557  -0.00075425  0.66576733  1
  Al0+  Al57  1  0.49881159  0.49905086  -0.01107427  1
  Al0+  Al58  1  0.50149682  0.49961660  0.33516800  1
  Al0+  Al59  1  0.49844880  0.50180124  0.66786442  1
  Al0+  Al60  1  0.24964818  0.24688361  0.00409318  1
  Al0+  Al61  1  0.25101436  0.24897809  0.33835212  1
  Al0+  Al62  1  0.25145063  0.24862616  0.66738963  1
  Al0+  Al63  1  0.24804713  0.74863925  -0.00607401  1
  Al0+  Al64  1  0.24836216  0.75214641  0.34100430  1
  Al0+  Al65  1  0.24886219  0.74933604  0.66686628  1
  Al0+  Al66  1  0.75245591  0.24972815  -0.00079371  1
  Al0+  Al67  1  0.75109071  0.24844764  0.32412239  1
  Al0+  Al68  1  0.75069311  0.24833956  0.67024929  1
  Al0+  Al69  1  0.75038772  0.75053906  0.00070238  1
  Al0+  Al70  1  0.74888982  0.75057401  0.33354074  1
  Al0+  Al71  1  0.74930150  0.75096361  0.66406333  1
  Al0+  Al72  1  0.42751209  0.32224980  0.64956952  1
  Al0+  Al73  1  0.67990100  0.42550256  0.34507093  1
  Al0+  Al74  1  0.92900201  0.32556341  0.31766262  1
  Al0+  Al75  1  0.07335692  0.18095637  0.31705967  1
  Al0+  Al76  1  0.17624018  0.93008035  0.34791063  1
  Al0+  Al77  1  0.32268822  0.07205982  0.35200318  1
  Al0+  Al78  1  0.57324122  0.67872126  0.98327453  1
  Al0+  Al79  1  0.67842551  0.42681434  0.68127949  1
  Al0+  Al80  1  0.57123433  0.17714779  0.31820286  1
  Al0+  Al81  1  0.31994357  0.06779709  0.01336214  1
  Al0+  Al82  1  0.68202886  0.93232292  0.01343361  1
  Al0+  Al83  1  0.92931313  0.81997646  0.65227895  1
  Al0+  Al84  1  0.92887518  0.82010364  0.31663559  1
  Al0+  Al85  1  0.81790980  0.56938363  0.01319085  1
  Al0+  Al86  1  0.17924360  0.42956850  0.34842622  1
  Al0+  Al87  1  0.82052805  0.57299654  0.34915246  1
  Al0+  Al88  1  0.42804294  0.31885624  0.98744650  1
  Al0+  Al89  1  0.18106935  0.42921453  0.01430790  1
  Al0+  Al90  1  0.18081021  0.42904480  0.68161371  1
  Al0+  Al91  1  0.56922287  0.67834602  0.32068652  1
  Al0+  Al92  1  0.57222753  0.17908819  0.65179073  1
  Al0+  Al93  1  0.67975178  0.92986996  0.34839406  1
  Al0+  Al94  1  0.32348385  0.57207354  0.34635293  1
  Al0+  Al95  1  0.42830751  0.82226654  0.98744437  1
  Si0+  Si96  1  0.07224850  0.67705684  0.64888992  1
  Si0+  Si97  1  0.57045038  0.68066044  0.65043490  1
  Si0+  Si98  1  0.06999708  0.18018375  0.98365636  1
  Si0+  Si99  1  0.67915117  0.92816628  0.68252298  1
  Si0+  Si100  1  0.42728978  0.82159630  0.65115550  1
  Si0+  Si101  1  0.92990429  0.32337093  0.98320269  1
  Si0+  Si102  1  0.07440122  0.67946340  0.31583931  1
  Si0+  Si103  1  0.57367030  0.17749550  0.98433102  1
  Si0+  Si104  1  0.17521801  0.92513306  0.01355521  1
  Si0+  Si105  1  0.32262124  0.57514085  0.68644942  1
  Si0+  Si106  1  0.67445249  0.42642641  0.01448629  1
  Si0+  Si107  1  0.32297415  0.57428572  0.01424718  1
  Si0+  Si108  1  0.32074559  0.06787072  0.68397105  1
  Si0+  Si109  1  0.82628199  0.07478082  0.01815858  1
  Si0+  Si110  1  0.07053733  0.67640845  0.98436139  1
  Si0+  Si111  1  0.93028548  0.82096927  0.98453270  1
  Si0+  Si112  1  0.92996936  0.32168051  0.65507792  1
  Si0+  Si113  1  0.17653589  0.92927153  0.68201799  1
  Si0+  Si114  1  0.42638407  0.82190681  0.32011389  1
  Si0+  Si115  1  0.82181681  0.07131443  0.34835663  1
  Si0+  Si116  1  0.82287307  0.07025702  0.68128337  1
  Si0+  Si117  1  0.07085260  0.17865163  0.65342169  1
  Si0+  Si118  1  0.42923802  0.32145998  0.31743330  1
  Si0+  Si119  1  0.81978886  0.57264113  0.68317966  1
  O2-  O120  1  0.24960677  -0.01272550  0.05632638  1
  O2-  O121  1  0.24747524  0.00152740  0.40015904  1
  O2-  O122  1  0.25008126  -0.00406586  0.72664424  1
  O2-  O123  1  0.25767497  0.50268418  0.05821785  1
  O2-  O124  1  0.25226616  0.50038030  0.39834777  1
  O2-  O125  1  0.25701775  0.50230342  0.72934452  1
  O2-  O126  1  0.75449514  0.00909716  0.06026601  1
  O2-  O127  1  0.75218850  0.00606004  0.39648575  1
  O2-  O128  1  0.74975782  0.00078209  0.72329331  1
  O2-  O129  1  0.74074436  0.49705200  0.05815541  1
  O2-  O130  1  0.75426746  0.49474085  0.39696529  1
  O2-  O131  1  0.75316052  0.50231486  0.72790639  1
  O2-  O132  1  0.00608347  0.25807968  0.26760635  1
  O2-  O133  1  0.00304679  0.25307988  0.61298588  1
  O2-  O134  1  -0.00103228  0.25052306  0.93944292  1
  O2-  O135  1  0.00416119  0.74601346  0.26986293  1
  O2-  O136  1  0.00407408  0.74620979  0.60538918  1
  O2-  O137  1  0.00307933  0.75183168  0.94198143  1
  O2-  O138  1  0.49711782  0.25235071  0.27228765  1
  O2-  O139  1  0.50545603  0.25554878  0.60146322  1
  O2-  O140  1  0.50892509  0.24985340  0.94046652  1
  O2-  O141  1  0.49126941  0.75044524  0.27565594  1
  O2-  O142  1  0.49573520  0.74855897  0.60929971  1
  O2-  O143  1  0.49842598  0.74955353  0.93441577  1
  O2-  O144  1  0.06923037  0.17878583  0.08763485  1
  O2-  O145  1  0.06873285  0.18017494  0.43156339  1
  O2-  O146  1  0.06848701  0.17615359  0.75917364  1
  O2-  O147  1  0.07143480  0.67599440  0.08867757  1
  O2-  O148  1  0.07429660  0.68186273  0.42156792  1
  O2-  O149  1  0.07172732  0.67871193  0.75521553  1
  O2-  O150  1  0.57278949  0.17680574  0.08950164  1
  O2-  O151  1  0.57050759  0.17789442  0.43134379  1
  O2-  O152  1  0.56945480  0.17568790  0.76589089  1
  O2-  O153  1  0.57391117  0.67993921  0.09631964  1
  O2-  O154  1  0.56910514  0.68032703  0.43451342  1
  O2-  O155  1  0.57305073  0.68417007  0.75556511  1
  O2-  O156  1  0.18258658  0.43104418  0.23466223  1
  O2-  O157  1  0.17811696  0.43077565  0.56963886  1
  O2-  O158  1  0.18053091  0.43003082  0.90068205  1
  O2-  O159  1  0.17841302  0.92996452  0.23394789  1
  O2-  O160  1  0.17468853  0.93201845  0.57783071  1
  O2-  O161  1  0.17079253  0.92964842  0.90725396  1
  O2-  O162  1  0.67802382  0.42723367  0.23143369  1
  O2-  O163  1  0.68215945  0.42465324  0.56890490  1
  O2-  O164  1  0.67899621  0.42562651  0.90842640  1
  O2-  O165  1  0.68061967  0.92925898  0.23538302  1
  O2-  O166  1  0.67959902  0.92641406  0.57797501  1
  O2-  O167  1  0.68475908  0.93307783  0.89922603  1
  O2-  O168  1  0.42690804  0.31713926  0.10011001  1
  O2-  O169  1  0.43042892  0.32114018  0.42298904  1
  O2-  O170  1  0.42542903  0.31486953  0.76358614  1
  O2-  O171  1  0.42846911  0.82184416  0.10032100  1
  O2-  O172  1  0.42937295  0.82082228  0.42653467  1
  O2-  O173  1  0.42841309  0.82312237  0.75630591  1
  O2-  O174  1  0.93046900  0.32374304  0.08728997  1
  O2-  O175  1  0.92797378  0.32012104  0.43227864  1
  O2-  O176  1  0.93051643  0.31904945  0.76077039  1
  O2-  O177  1  0.93059101  0.82163447  0.08891882  1
  O2-  O178  1  0.92932905  0.81934629  0.43010014  1
  O2-  O179  1  0.93023411  0.81968374  0.76627795  1
  O2-  O180  1  0.32324121  0.06905124  0.23827341  1
  O2-  O181  1  0.32043759  0.06695617  0.57966221  1
  O2-  O182  1  0.31690096  0.06843508  0.89931911  1
  O2-  O183  1  0.32305547  0.57170815  0.23237135  1
  O2-  O184  1  0.32034807  0.58002829  0.58150540  1
  O2-  O185  1  0.31841394  0.57722258  0.90853856  1
  O2-  O186  1  0.82100909  0.06806673  0.24269884  1
  O2-  O187  1  0.82731524  0.07024441  0.57709730  1
  O2-  O188  1  0.82977141  0.07300285  0.91180412  1
  O2-  O189  1  0.81564762  0.57383668  0.23543764  1
  O2-  O190  1  0.81903155  0.57438122  0.57850704  1
  O2-  O191  1  0.81936272  0.56778430  0.89919392  1
  O2-  O192  1  0.03952004  0.08572720  0.26100682  1
  O2-  O193  1  0.03976554  0.08864688  0.60521226  1
  O2-  O194  1  0.04181515  0.08839252  0.93362512  1
  O2-  O195  1  0.05173660  0.58528370  0.27057913  1
  O2-  O196  1  0.04640273  0.58314797  0.60449759  1
  O2-  O197  1  0.03632405  0.58673482  0.93556151  1
  O2-  O198  1  0.53737736  0.07967842  0.26743656  1
  O2-  O199  1  0.54026468  0.08057910  0.60035041  1
  O2-  O200  1  0.54419398  0.08520613  0.93775080  1
  O2-  O201  1  0.54222885  0.58125276  0.26593743  1
  O2-  O202  1  0.54615883  0.58739475  0.60540321  1
  O2-  O203  1  0.54761305  0.58089673  0.92706351  1
  O2-  O204  1  0.17412757  0.20410896  0.26711175  1
  O2-  O205  1  0.16380180  0.20219101  0.60833927  1
  O2-  O206  1  0.16127951  0.20819954  0.93530269  1
  O2-  O207  1  0.16757728  0.70806603  0.26975226  1
  O2-  O208  1  0.16631220  0.70201700  0.60411453  1
  O2-  O209  1  0.16171448  0.69977831  0.93253931  1
  O2-  O210  1  0.66749976  0.20243489  0.26146890  1
  O2-  O211  1  0.67418831  0.20036784  0.60281747  1
  O2-  O212  1  0.67029471  0.19649241  0.93963611  1
  O2-  O213  1  0.66334964  0.71474940  0.26686234  1
  O2-  O214  1  0.66028258  0.71311887  0.60264635  1
  O2-  O215  1  0.66996159  0.71371478  0.92836616  1
  O2-  O216  1  0.08480427  0.46098656  0.06664976  1
  O2-  O217  1  0.08122080  0.45880805  0.40129268  1
  O2-  O218  1  0.08397784  0.46078651  0.73772188  1
  O2-  O219  1  0.08356394  0.95646436  0.06006519  1
  O2-  O220  1  0.07704700  0.96065094  0.39853278  1
  O2-  O221  1  0.08554804  0.95977842  0.73097238  1
  O2-  O222  1  0.57840893  0.44812607  0.05551871  1
  O2-  O223  1  0.58386228  0.45640997  0.40066450  1
  O2-  O224  1  0.58095926  0.45827536  0.73351608  1
  O2-  O225  1  0.58576818  0.95979287  0.06808580  1
  O2-  O226  1  0.58425789  0.95788672  0.40525103  1
  O2-  O227  1  0.58691217  0.95562660  0.72984484  1
  O2-  O228  1  0.20928922  0.33214859  0.06681731  1
  O2-  O229  1  0.20476274  0.33099697  0.40137389  1
  O2-  O230  1  0.20924625  0.33041613  0.73519002  1
  O2-  O231  1  0.19205149  0.82822107  0.05473678  1
  O2-  O232  1  0.20185870  0.83318327  0.40529611  1
  O2-  O233  1  0.20006527  0.83502815  0.72751633  1
  O2-  O234  1  0.70181863  0.33233165  0.05849837  1
  O2-  O235  1  0.70928504  0.32613038  0.39631990  1
  O2-  O236  1  0.71058679  0.33100971  0.73771007  1
  O2-  O237  1  0.71543002  0.83657921  0.06586896  1
  O2-  O238  1  0.71398295  0.83536702  0.40347117  1
  O2-  O239  1  0.71044785  0.83769187  0.73113082  1
  O2-  O240  1  0.45483458  0.41463320  0.27109694  1
  O2-  O241  1  0.44608629  0.42534107  0.60368642  1
  O2-  O242  1  0.44988700  0.41584204  0.92924478  1
  O2-  O243  1  0.45576461  0.91484749  0.27641988  1
  O2-  O244  1  0.45675785  0.91242483  0.60380350  1
  O2-  O245  1  0.46129549  0.91969430  0.93265079  1
  O2-  O246  1  0.95295488  0.42647388  0.26811877  1
  O2-  O247  1  0.95483287  0.41502557  0.61047861  1
  O2-  O248  1  0.95970940  0.41428573  0.93474511  1
  O2-  O249  1  0.95770212  0.91607289  0.26080714  1
  O2-  O250  1  0.95963602  0.91685385  0.59901975  1
  O2-  O251  1  0.95578577  0.91399398  0.93633666  1
  O2-  O252  1  0.33519945  0.29507669  0.27345064  1
  O2-  O253  1  0.33079761  0.28719425  0.59736811  1
  O2-  O254  1  0.33301915  0.28020929  0.93331058  1
  O2-  O255  1  0.33036680  0.80287959  0.27724875  1
  O2-  O256  1  0.33342219  0.79738382  0.60606616  1
  O2-  O257  1  0.32868482  0.79783004  0.93133755  1
  O2-  O258  1  0.83476761  0.29134411  0.25962881  1
  O2-  O259  1  0.83925679  0.29073853  0.60869955  1
  O2-  O260  1  0.83734241  0.29606444  0.93492170  1
  O2-  O261  1  0.83280548  0.78728726  0.26350560  1
  O2-  O262  1  0.83236290  0.79034475  0.59895029  1
  O2-  O263  1  0.84012928  0.79049775  0.93549225  1
  O2-  O264  1  0.41712096  0.04265750  0.06727037  1
  O2-  O265  1  0.41750554  0.03903880  0.40895284  1
  O2-  O266  1  0.41243563  0.03828846  0.73145377  1
  O2-  O267  1  0.41926826  0.55136811  0.05440327  1
  O2-  O268  1  0.42057785  0.54395621  0.40152216  1
  O2-  O269  1  0.41775948  0.55544903  0.73145030  1
  O2-  O270  1  0.91878117  0.04595962  0.06403332  1
  O2-  O271  1  0.91477101  0.04360646  0.39394481  1
  O2-  O272  1  0.91332183  0.03943792  0.73211567  1
  O2-  O273  1  0.91317927  0.53820880  0.06816711  1
  O2-  O274  1  0.92156178  0.55612835  0.40027204  1
  O2-  O275  1  0.91474456  0.55029288  0.72906490  1
  O2-  O276  1  0.28315630  0.16039186  0.06924858  1
  O2-  O277  1  0.29490029  0.16921646  0.40664468  1
  O2-  O278  1  0.29089884  0.15900115  0.73150457  1
  O2-  O279  1  0.29406911  0.66701553  0.06023300  1
  O2-  O280  1  0.29575662  0.66970944  0.40189513  1
  O2-  O281  1  0.29231567  0.66769855  0.73468304  1
  O2-  O282  1  0.80576615  0.17037514  0.06151584  1
  O2-  O283  1  0.79974474  0.16647474  0.39144692  1
  O2-  O284  1  0.79782665  0.16112984  0.73271849  1
  O2-  O285  1  0.79163030  0.66737625  0.06503764  1
  O2-  O286  1  0.78509128  0.66816512  0.40362660  1
  O2-  O287  1  0.79025367  0.66579116  0.73012037  1
