# generated using pymatgen
data_Ca2Al2SiO7
_symmetry_space_group_name_H-M   'P 1'
_cell_length_a   15.46853224
_cell_length_b   15.46863958
_cell_length_c   15.29218483
_cell_angle_alpha   90.00472177
_cell_angle_beta   89.99132113
_cell_angle_gamma   89.99336558
_symmetry_Int_Tables_number   1
_chemical_formula_structural   Ca2Al2SiO7
_chemical_formula_sum   'Ca48 Al48 Si24 O168'
_cell_volume   3659.07032560
_cell_formula_units_Z   24
loop_
 _symmetry_equiv_pos_site_id
 _symmetry_equiv_pos_as_xyz
  1  'x, y, z'
loop_
 _atom_type_symbol
 _atom_type_oxidation_number
  Ca2+  2.0
  Al0+  0.0
  Si0+  0.0
  O2-  -2.0
loop_
 _atom_site_type_symbol
 _atom_site_label
 _atom_site_symmetry_multiplicity
 _atom_site_fract_x
 _atom_site_fract_y
 _atom_site_fract_z
 _atom_site_occupancy
  Ca2+  Ca0  1  0.16553030  0.07604662  0.17901250  1
  Ca2+  Ca1  1  0.15148031  0.07328029  0.50078135  1
  Ca2+  Ca2  1  0.16137511  0.07904346  0.82924184  1
  Ca2+  Ca3  1  0.17449134  0.57726340  0.17979069  1
  Ca2+  Ca4  1  0.17528298  0.57563552  0.50618333  1
  Ca2+  Ca5  1  0.16258910  0.58129858  0.82785754  1
  Ca2+  Ca6  1  0.67306627  0.07558244  0.18267358  1
  Ca2+  Ca7  1  0.66694760  0.08070622  0.49790580  1
  Ca2+  Ca8  1  0.67016240  0.08079605  0.83841429  1
  Ca2+  Ca9  1  0.67610501  0.59027375  0.17454330  1
  Ca2+  Ca10  1  0.67610197  0.59487300  0.50193939  1
  Ca2+  Ca11  1  0.67571355  0.58731111  0.83198968  1
  Ca2+  Ca12  1  0.08221002  0.33389300  0.17301039  1
  Ca2+  Ca13  1  0.08186356  0.33103539  0.49099833  1
  Ca2+  Ca14  1  0.07908123  0.32929479  0.81814039  1
  Ca2+  Ca15  1  0.07089269  0.83843792  0.16767342  1
  Ca2+  Ca16  1  0.08436443  0.82914194  0.49382227  1
  Ca2+  Ca17  1  0.07708722  0.82730340  0.82498272  1
  Ca2+  Ca18  1  0.58184199  0.33096360  0.17328675  1
  Ca2+  Ca19  1  0.57629113  0.32974746  0.48771860  1
  Ca2+  Ca20  1  0.58249129  0.33377138  0.82780236  1
  Ca2+  Ca21  1  0.57718251  0.83220895  0.17095628  1
  Ca2+  Ca22  1  0.57744203  0.82418867  0.48968413  1
  Ca2+  Ca23  1  0.57557887  0.82627980  0.82785056  1
  Ca2+  Ca24  1  0.32922134  0.42215841  0.18119211  1
  Ca2+  Ca25  1  0.32739354  0.42122583  0.50226221  1
  Ca2+  Ca26  1  0.32846510  0.42328133  0.83107600  1
  Ca2+  Ca27  1  0.32976317  0.91102461  0.17717330  1
  Ca2+  Ca28  1  0.32163198  0.91122617  0.50050814  1
  Ca2+  Ca29  1  0.32567208  0.91064651  0.83412305  1
  Ca2+  Ca30  1  0.83615973  0.42908766  0.17644513  1
  Ca2+  Ca31  1  0.84081307  0.42505266  0.50260293  1
  Ca2+  Ca32  1  0.84437375  0.43119261  0.83174799  1
  Ca2+  Ca33  1  0.83112567  0.91754167  0.18309091  1
  Ca2+  Ca34  1  0.83413573  0.91888969  0.49373712  1
  Ca2+  Ca35  1  0.83350032  0.91537751  0.83841773  1
  Ca2+  Ca36  1  0.41925781  0.16963003  0.17240978  1
  Ca2+  Ca37  1  0.42137694  0.17348262  0.48850954  1
  Ca2+  Ca38  1  0.41864621  0.16829552  0.82954046  1
  Ca2+  Ca39  1  0.41607832  0.67481851  0.16940115  1
  Ca2+  Ca40  1  0.42415442  0.66105760  0.49065569  1
  Ca2+  Ca41  1  0.41983402  0.66817968  0.82408589  1
  Ca2+  Ca42  1  0.91883351  0.16684223  0.17288048  1
  Ca2+  Ca43  1  0.92372700  0.17877425  0.49165700  1
  Ca2+  Ca44  1  0.92361451  0.17656375  0.82057143  1
  Ca2+  Ca45  1  0.90770993  0.67632938  0.16608285  1
  Ca2+  Ca46  1  0.92138761  0.66519990  0.49385739  1
  Ca2+  Ca47  1  0.91562405  0.66907824  0.82704141  1
  Al0+  Al48  1  0.00025247  0.00012556  -0.00497288  1
  Al0+  Al49  1  -0.00083343  0.00002777  0.33420728  1
  Al0+  Al50  1  -0.00230202  0.00172972  0.67042803  1
  Al0+  Al51  1  0.00024677  0.49952771  0.00552490  1
  Al0+  Al52  1  0.00133207  0.49920231  0.33546905  1
  Al0+  Al53  1  -0.00028340  0.50341216  0.66851277  1
  Al0+  Al54  1  0.49903311  0.00040385  -0.00491787  1
  Al0+  Al55  1  0.49961506  -0.00135264  0.33122964  1
  Al0+  Al56  1  0.49950257  -0.00093133  0.66935506  1
  Al0+  Al57  1  0.49995825  0.49828031  -0.00018443  1
  Al0+  Al58  1  0.50310787  0.50004415  0.32572159  1
  Al0+  Al59  1  0.50185403  0.49990825  0.66767871  1
  Al0+  Al60  1  0.25123661  0.24874646  -0.00123405  1
  Al0+  Al61  1  0.24987065  0.24850185  0.32777616  1
  Al0+  Al62  1  0.25129316  0.24696489  0.66762615  1
  Al0+  Al63  1  0.24914887  0.74952541  -0.00333758  1
  Al0+  Al64  1  0.25093977  0.74844951  0.33754944  1
  Al0+  Al65  1  0.24786195  0.75207759  0.67283269  1
  Al0+  Al66  1  0.75059816  0.25008636  -0.00063945  1
  Al0+  Al67  1  0.75223354  0.25126115  0.32869542  1
  Al0+  Al68  1  0.75029241  0.24948180  0.66496896  1
  Al0+  Al69  1  0.74831625  0.75093091  -0.00151239  1
  Al0+  Al70  1  0.74975742  0.75138851  0.33525730  1
  Al0+  Al71  1  0.74661186  0.75185764  0.66867901  1
  Al0+  Al72  1  0.17862046  0.92886112  0.34548686  1
  Al0+  Al73  1  0.57276533  0.17720972  0.31932447  1
  Al0+  Al74  1  0.07036075  0.17793274  0.31709480  1
  Al0+  Al75  1  0.17928772  0.42757576  0.68140984  1
  Al0+  Al76  1  0.82187317  0.07332052  0.34938184  1
  Al0+  Al77  1  0.17989198  0.42695009  0.34795947  1
  Al0+  Al78  1  0.81938793  0.57101485  0.01475167  1
  Al0+  Al79  1  0.07074699  0.68115376  0.65285425  1
  Al0+  Al80  1  0.67692012  0.92902475  0.34957759  1
  Al0+  Al81  1  0.32412143  0.57096860  0.34698278  1
  Al0+  Al82  1  0.57299142  0.67876732  0.31732164  1
  Al0+  Al83  1  0.82048399  0.57248919  0.67983569  1
  Al0+  Al84  1  0.82034517  0.57209287  0.34755984  1
  Al0+  Al85  1  0.07257946  0.17849953  0.65074231  1
  Al0+  Al86  1  0.93133957  0.81891398  0.32306402  1
  Al0+  Al87  1  0.92801596  0.82101944  0.98640101  1
  Al0+  Al88  1  0.56948364  0.67894249  0.65289768  1
  Al0+  Al89  1  0.17688493  0.93009526  0.68198832  1
  Al0+  Al90  1  0.92898486  0.32326242  0.65193711  1
  Al0+  Al91  1  0.92939949  0.32434211  0.31612323  1
  Al0+  Al92  1  0.42783036  0.82091682  0.98417396  1
  Al0+  Al93  1  0.32330567  0.57092616  0.68247950  1
  Al0+  Al94  1  0.42636198  0.81994089  0.32109684  1
  Al0+  Al95  1  0.42865186  0.32144522  0.31853920  1
  Si0+  Si96  1  0.32150927  0.07127475  0.01538551  1
  Si0+  Si97  1  0.07232617  0.17924295  0.98330950  1
  Si0+  Si98  1  0.07119910  0.67666162  0.98424795  1
  Si0+  Si99  1  0.82155667  0.07118969  0.01409941  1
  Si0+  Si100  1  0.32168143  0.57085455  0.01466957  1
  Si0+  Si101  1  0.42835537  0.32070448  0.98273559  1
  Si0+  Si102  1  0.67899910  0.42564069  0.68234430  1
  Si0+  Si103  1  0.32210988  0.07169911  0.34854975  1
  Si0+  Si104  1  0.57088177  0.67714228  0.98168919  1
  Si0+  Si105  1  0.67641092  0.42592515  0.01763326  1
  Si0+  Si106  1  0.18051923  0.42715440  0.01503717  1
  Si0+  Si107  1  0.92556245  0.82303981  0.65019984  1
  Si0+  Si108  1  0.57155094  0.17706526  0.65351514  1
  Si0+  Si109  1  0.67787971  0.93126163  0.01412608  1
  Si0+  Si110  1  0.57120139  0.18002277  0.98395108  1
  Si0+  Si111  1  0.17913729  0.92966579  0.01485110  1
  Si0+  Si112  1  0.67690887  0.93067840  0.68488386  1
  Si0+  Si113  1  0.93002301  0.32132053  0.98467847  1
  Si0+  Si114  1  0.43055361  0.31993973  0.65358500  1
  Si0+  Si115  1  0.81832603  0.07190346  0.68376767  1
  Si0+  Si116  1  0.67921364  0.42791082  0.34846283  1
  Si0+  Si117  1  0.42726456  0.82234542  0.65056791  1
  Si0+  Si118  1  0.07302458  0.67712295  0.31777741  1
  Si0+  Si119  1  0.32526642  0.07038069  0.68480667  1
  O2-  O120  1  0.25162410  -0.00074154  0.05699181  1
  O2-  O121  1  0.25323553  0.00377951  0.39257291  1
  O2-  O122  1  0.25358023  0.00404292  0.72839166  1
  O2-  O123  1  0.25046649  0.49971990  0.05583767  1
  O2-  O124  1  0.25339657  0.49779766  0.39602843  1
  O2-  O125  1  0.24941917  0.50080586  0.73403393  1
  O2-  O126  1  0.75308004  -0.00204904  0.05584215  1
  O2-  O127  1  0.74674815  0.00391590  0.39895159  1
  O2-  O128  1  0.74853887  0.00063516  0.72839349  1
  O2-  O129  1  0.74362437  0.49637969  0.06003688  1
  O2-  O130  1  0.74666827  0.49624088  0.39390684  1
  O2-  O131  1  0.74878772  0.49357859  0.72619733  1
  O2-  O132  1  0.00017210  0.25087969  0.26543377  1
  O2-  O133  1  0.00688399  0.25701922  0.60359566  1
  O2-  O134  1  0.00150797  0.25085533  0.94204303  1
  O2-  O135  1  0.00402371  0.74468471  0.27216655  1
  O2-  O136  1  -0.00501496  0.75517354  0.60731552  1
  O2-  O137  1  0.00056281  0.74423469  0.94058634  1
  O2-  O138  1  0.50066481  0.24877306  0.26824846  1
  O2-  O139  1  0.50156833  0.24849901  0.61261814  1
  O2-  O140  1  0.50211019  0.25222290  0.93994142  1
  O2-  O141  1  0.49853804  0.74926376  0.26898128  1
  O2-  O142  1  0.48960354  0.74823995  0.60784654  1
  O2-  O143  1  0.49996433  0.74377720  0.93741695  1
  O2-  O144  1  0.07345172  0.17685299  0.08755442  1
  O2-  O145  1  0.06822132  0.17739674  0.42993441  1
  O2-  O146  1  0.06790489  0.17825120  0.76579665  1
  O2-  O147  1  0.07415740  0.67781519  0.08939429  1
  O2-  O148  1  0.07241153  0.67917600  0.42320717  1
  O2-  O149  1  0.06768237  0.68270445  0.76688824  1
  O2-  O150  1  0.57070841  0.17892907  0.08781757  1
  O2-  O151  1  0.56959090  0.17933620  0.43347435  1
  O2-  O152  1  0.57095828  0.17782208  0.75955502  1
  O2-  O153  1  0.57184219  0.67811676  0.08651714  1
  O2-  O154  1  0.57265556  0.68069769  0.43086241  1
  O2-  O155  1  0.57030369  0.68272981  0.76680278  1
  O2-  O156  1  0.18133330  0.43019706  0.23305474  1
  O2-  O157  1  0.18328929  0.42588881  0.56910155  1
  O2-  O158  1  0.18100361  0.42540228  0.91006998  1
  O2-  O159  1  0.17888795  0.93013589  0.23150986  1
  O2-  O160  1  0.17707685  0.93109618  0.56959455  1
  O2-  O161  1  0.17872049  0.93233302  0.90980491  1
  O2-  O162  1  0.68074144  0.42864799  0.24240463  1
  O2-  O163  1  0.67646917  0.42161414  0.57778710  1
  O2-  O164  1  0.67496120  0.42332947  0.91189497  1
  O2-  O165  1  0.67940675  0.92907727  0.23499049  1
  O2-  O166  1  0.67327711  0.93291922  0.58099866  1
  O2-  O167  1  0.67794871  0.93497572  0.90839260  1
  O2-  O168  1  0.42653246  0.31927058  0.08673317  1
  O2-  O169  1  0.43056570  0.31947607  0.43251205  1
  O2-  O170  1  0.43266654  0.31810248  0.75969164  1
  O2-  O171  1  0.42747869  0.82186895  0.09628538  1
  O2-  O172  1  0.42595903  0.81996117  0.43435975  1
  O2-  O173  1  0.43193768  0.82440242  0.75695508  1
  O2-  O174  1  0.92990177  0.32073496  0.08893005  1
  O2-  O175  1  0.93063671  0.32528811  0.42919363  1
  O2-  O176  1  0.92793152  0.31888346  0.76708537  1
  O2-  O177  1  0.92919874  0.82479966  0.09886483  1
  O2-  O178  1  0.93301581  0.81861375  0.43583939  1
  O2-  O179  1  0.92595367  0.82196584  0.75681026  1
  O2-  O180  1  0.32110956  0.07039195  0.24218022  1
  O2-  O181  1  0.33549199  0.06856796  0.58073291  1
  O2-  O182  1  0.32087981  0.07383572  0.91024542  1
  O2-  O183  1  0.32003699  0.57135290  0.23217397  1
  O2-  O184  1  0.32635411  0.56662298  0.57004456  1
  O2-  O185  1  0.32309163  0.56910348  0.90972371  1
  O2-  O186  1  0.82167667  0.06841391  0.23462522  1
  O2-  O187  1  0.81592701  0.07290246  0.57984857  1
  O2-  O188  1  0.81829626  0.07254796  0.90854838  1
  O2-  O189  1  0.81847577  0.57231402  0.23391849  1
  O2-  O190  1  0.81771066  0.57532592  0.56774115  1
  O2-  O191  1  0.81928689  0.56954323  0.90144281  1
  O2-  O192  1  0.03838036  0.08083487  0.26248957  1
  O2-  O193  1  0.03574415  0.08170524  0.60147222  1
  O2-  O194  1  0.04369759  0.08815687  0.93437713  1
  O2-  O195  1  0.04883435  0.58381262  0.27158584  1
  O2-  O196  1  0.04267200  0.58426613  0.60034475  1
  O2-  O197  1  0.04607405  0.58184762  0.93967489  1
  O2-  O198  1  0.54375052  0.08007258  0.26446367  1
  O2-  O199  1  0.54286683  0.08523540  0.60816594  1
  O2-  O200  1  0.54100873  0.09006617  0.93326235  1
  O2-  O201  1  0.55040340  0.58076153  0.26140137  1
  O2-  O202  1  0.54646550  0.57976413  0.60159423  1
  O2-  O203  1  0.54755099  0.58167976  0.93735637  1
  O2-  O204  1  0.16897241  0.20244513  0.26207477  1
  O2-  O205  1  0.17570312  0.19343217  0.60389819  1
  O2-  O206  1  0.16478077  0.20645253  0.93601271  1
  O2-  O207  1  0.16626589  0.70343754  0.27199100  1
  O2-  O208  1  0.16824330  0.71246647  0.60189101  1
  O2-  O209  1  0.16348270  0.70369059  0.93587469  1
  O2-  O210  1  0.66979959  0.20554435  0.26402052  1
  O2-  O211  1  0.66328366  0.20205924  0.60687904  1
  O2-  O212  1  0.66371603  0.20649693  0.93536398  1
  O2-  O213  1  0.66907612  0.71328521  0.26345956  1
  O2-  O214  1  0.66403214  0.71643481  0.60044934  1
  O2-  O215  1  0.66301481  0.70656899  0.93428331  1
  O2-  O216  1  0.08856439  0.45269581  0.06261549  1
  O2-  O217  1  0.08262151  0.45560917  0.40041627  1
  O2-  O218  1  0.08116730  0.45730544  0.73560381  1
  O2-  O219  1  0.08689401  0.96012390  0.06018815  1
  O2-  O220  1  0.08352398  0.96014327  0.40038762  1
  O2-  O221  1  0.08098414  0.96293609  0.73866203  1
  O2-  O222  1  0.58132800  0.44825175  0.06250437  1
  O2-  O223  1  0.58447659  0.45105565  0.39222806  1
  O2-  O224  1  0.58709447  0.45340788  0.73201215  1
  O2-  O225  1  0.58691801  0.96395763  0.05959906  1
  O2-  O226  1  0.57783623  0.95560080  0.40183088  1
  O2-  O227  1  0.58648134  0.96057376  0.73568528  1
  O2-  O228  1  0.21073832  0.33538010  0.06119140  1
  O2-  O229  1  0.20679325  0.32690772  0.39672841  1
  O2-  O230  1  0.20954232  0.32858575  0.73538794  1
  O2-  O231  1  0.20464627  0.83631608  0.05940382  1
  O2-  O232  1  0.20902940  0.83340886  0.40086204  1
  O2-  O233  1  0.20673290  0.83547276  0.74093471  1
  O2-  O234  1  0.70358027  0.33214465  0.06285059  1
  O2-  O235  1  0.70210485  0.33350444  0.39331209  1
  O2-  O236  1  0.70246268  0.33147519  0.73082506  1
  O2-  O237  1  0.69979022  0.83728898  0.05790425  1
  O2-  O238  1  0.70999282  0.83358917  0.40398674  1
  O2-  O239  1  0.70516501  0.83989837  0.73421889  1
  O2-  O240  1  0.45925277  0.41686687  0.26083807  1
  O2-  O241  1  0.45956845  0.41072917  0.60733148  1
  O2-  O242  1  0.45495453  0.41291463  0.93490934  1
  O2-  O243  1  0.45269562  0.91822109  0.26640690  1
  O2-  O244  1  0.45947730  0.91426541  0.60593492  1
  O2-  O245  1  0.46007048  0.91733239  0.92891602  1
  O2-  O246  1  0.96182690  0.42147549  0.26132471  1
  O2-  O247  1  0.94840112  0.42483569  0.60546280  1
  O2-  O248  1  0.95890561  0.41374150  0.93871304  1
  O2-  O249  1  0.96205402  0.91446094  0.26686612  1
  O2-  O250  1  0.94980850  0.91803851  0.60870585  1
  O2-  O251  1  0.95973732  0.91708484  0.92977988  1
  O2-  O252  1  0.33269536  0.29127508  0.26167186  1
  O2-  O253  1  0.33953464  0.29135181  0.60737300  1
  O2-  O254  1  0.33836170  0.28841208  0.93339561  1
  O2-  O255  1  0.32897656  0.78970974  0.26537716  1
  O2-  O256  1  0.33008093  0.80553770  0.61177248  1
  O2-  O257  1  0.33045132  0.79179146  0.92995813  1
  O2-  O258  1  0.83137236  0.29808242  0.26144117  1
  O2-  O259  1  0.83185508  0.28949770  0.60044221  1
  O2-  O260  1  0.83768748  0.29319533  0.93773935  1
  O2-  O261  1  0.83498365  0.78955664  0.26826761  1
  O2-  O262  1  0.83100681  0.79919607  0.60741759  1
  O2-  O263  1  0.83008367  0.79409025  0.93195154  1
  O2-  O264  1  0.41489650  0.04534081  0.06003712  1
  O2-  O265  1  0.41586222  0.04817547  0.39418409  1
  O2-  O266  1  0.41677054  0.04193390  0.73692175  1
  O2-  O267  1  0.41382509  0.54274550  0.06088803  1
  O2-  O268  1  0.42442722  0.54318602  0.39465755  1
  O2-  O269  1  0.42073659  0.53835154  0.73799468  1
  O2-  O270  1  0.91550140  0.04631103  0.05760259  1
  O2-  O271  1  0.91722669  0.03935081  0.40322706  1
  O2-  O272  1  0.90914742  0.04459007  0.73388365  1
  O2-  O273  1  0.91615692  0.54064761  0.06849237  1
  O2-  O274  1  0.91768904  0.54251869  0.39926452  1
  O2-  O275  1  0.91649156  0.54520729  0.73754898  1
  O2-  O276  1  0.29334285  0.16313541  0.06265762  1
  O2-  O277  1  0.29872462  0.16591326  0.39287358  1
  O2-  O278  1  0.30142677  0.16396550  0.73269022  1
  O2-  O279  1  0.29316019  0.66336167  0.05990872  1
  O2-  O280  1  0.29595184  0.66750444  0.40193114  1
  O2-  O281  1  0.29645833  0.67008610  0.73520705  1
  O2-  O282  1  0.79216833  0.16276292  0.06064592  1
  O2-  O283  1  0.79669696  0.17348294  0.39890934  1
  O2-  O284  1  0.78842938  0.16282475  0.73377609  1
  O2-  O285  1  0.78856860  0.66924298  0.06591721  1
  O2-  O286  1  0.78923327  0.66740621  0.40212832  1
  O2-  O287  1  0.78469168  0.66788302  0.73575623  1
