# generated using pymatgen
data_Ca2Al2SiO7
_symmetry_space_group_name_H-M   'P 1'
_cell_length_a   15.45265764
_cell_length_b   15.45250041
_cell_length_c   15.27979943
_cell_angle_alpha   90.00034019
_cell_angle_beta   90.00756923
_cell_angle_gamma   90.00361045
_symmetry_Int_Tables_number   1
_chemical_formula_structural   Ca2Al2SiO7
_chemical_formula_sum   'Ca48 Al48 Si24 O168'
_cell_volume   3648.54406021
_cell_formula_units_Z   24
loop_
 _symmetry_equiv_pos_site_id
 _symmetry_equiv_pos_as_xyz
  1  'x, y, z'
loop_
 _atom_type_symbol
 _atom_type_oxidation_number
  Ca2+  2.0
  Al0+  0.0
  Si0+  0.0
  O2-  -2.0
loop_
 _atom_site_type_symbol
 _atom_site_label
 _atom_site_symmetry_multiplicity
 _atom_site_fract_x
 _atom_site_fract_y
 _atom_site_fract_z
 _atom_site_occupancy
  Ca2+  Ca0  1  0.17001899  0.08037960  0.17450383  1
  Ca2+  Ca1  1  0.17321482  0.07883576  0.50640696  1
  Ca2+  Ca2  1  0.16851965  0.08759180  0.83278023  1
  Ca2+  Ca3  1  0.17495177  0.57753279  0.17132287  1
  Ca2+  Ca4  1  0.17419598  0.57823711  0.50441366  1
  Ca2+  Ca5  1  0.16236697  0.56794990  0.83923806  1
  Ca2+  Ca6  1  0.66763982  0.08041282  0.16935895  1
  Ca2+  Ca7  1  0.67708038  0.08612973  0.50097394  1
  Ca2+  Ca8  1  0.66397239  0.07817705  0.84521063  1
  Ca2+  Ca9  1  0.65728754  0.57429158  0.17050910  1
  Ca2+  Ca10  1  0.66547394  0.57510295  0.50568117  1
  Ca2+  Ca11  1  0.66530040  0.57844656  0.83507375  1
  Ca2+  Ca12  1  0.07140663  0.32978042  0.15532253  1
  Ca2+  Ca13  1  0.08021901  0.33099900  0.49579474  1
  Ca2+  Ca14  1  0.08669830  0.32741940  0.82827949  1
  Ca2+  Ca15  1  0.08009720  0.83940128  0.16860771  1
  Ca2+  Ca16  1  0.08253451  0.83935996  0.49404768  1
  Ca2+  Ca17  1  0.08266639  0.83315939  0.82691112  1
  Ca2+  Ca18  1  0.58078012  0.33223780  0.16300338  1
  Ca2+  Ca19  1  0.57925351  0.33951548  0.49108239  1
  Ca2+  Ca20  1  0.59019900  0.33221796  0.83307019  1
  Ca2+  Ca21  1  0.57935089  0.82249171  0.15479059  1
  Ca2+  Ca22  1  0.58515087  0.81678685  0.49336849  1
  Ca2+  Ca23  1  0.58251194  0.82571562  0.83161793  1
  Ca2+  Ca24  1  0.33103462  0.41763769  0.17330815  1
  Ca2+  Ca25  1  0.33376347  0.41927736  0.50122667  1
  Ca2+  Ca26  1  0.32037327  0.41199676  0.83581100  1
  Ca2+  Ca27  1  0.33080201  0.92133598  0.17556275  1
  Ca2+  Ca28  1  0.32483571  0.92734265  0.50540915  1
  Ca2+  Ca29  1  0.33422107  0.91901295  0.83584355  1
  Ca2+  Ca30  1  0.82319609  0.40622661  0.17064538  1
  Ca2+  Ca31  1  0.82212342  0.41749543  0.50503209  1
  Ca2+  Ca32  1  0.82660973  0.42055119  0.83900313  1
  Ca2+  Ca33  1  0.82930107  0.92220314  0.17363303  1
  Ca2+  Ca34  1  0.83972577  0.92135772  0.49786981  1
  Ca2+  Ca35  1  0.82469094  0.91963759  0.84006819  1
  Ca2+  Ca36  1  0.41776733  0.17005050  0.16356586  1
  Ca2+  Ca37  1  0.41236720  0.17057860  0.49568643  1
  Ca2+  Ca38  1  0.42151123  0.16423689  0.83082822  1
  Ca2+  Ca39  1  0.42474409  0.66696682  0.16196943  1
  Ca2+  Ca40  1  0.42719321  0.65781810  0.49235908  1
  Ca2+  Ca41  1  0.42718317  0.66927361  0.83146085  1
  Ca2+  Ca42  1  0.91757983  0.17434890  0.16186409  1
  Ca2+  Ca43  1  0.92248697  0.17021814  0.49135436  1
  Ca2+  Ca44  1  0.92759278  0.17411703  0.83150846  1
  Ca2+  Ca45  1  0.91586960  0.67390824  0.16676024  1
  Ca2+  Ca46  1  0.91536849  0.67135087  0.49517613  1
  Ca2+  Ca47  1  0.91191815  0.66629539  0.82828382  1
  Al0+  Al48  1  0.00098408  0.00105297  -0.00420479  1
  Al0+  Al49  1  -0.00155172  -0.00066587  0.33511526  1
  Al0+  Al50  1  0.00105930  0.00157002  0.66691326  1
  Al0+  Al51  1  -0.00149576  0.50147458  0.00287828  1
  Al0+  Al52  1  -0.00146963  0.50050237  0.32737823  1
  Al0+  Al53  1  -0.00133509  0.50160425  0.67176009  1
  Al0+  Al54  1  0.49903198  -0.00009873  -0.00169152  1
  Al0+  Al55  1  0.50070949  -0.00199072  0.34012871  1
  Al0+  Al56  1  0.49988464  0.00055194  0.66626526  1
  Al0+  Al57  1  0.49978400  0.50082384  -0.00227788  1
  Al0+  Al58  1  0.49888487  0.49729940  0.33148053  1
  Al0+  Al59  1  0.50038496  0.49939828  0.66812453  1
  Al0+  Al60  1  0.24911763  0.24930125  0.00283505  1
  Al0+  Al61  1  0.25042373  0.24965983  0.33162648  1
  Al0+  Al62  1  0.25122683  0.24899823  0.66879119  1
  Al0+  Al63  1  0.24937316  0.75115908  -0.00370581  1
  Al0+  Al64  1  0.25136466  0.74798897  0.34230167  1
  Al0+  Al65  1  0.24995475  0.75193012  0.66885924  1
  Al0+  Al66  1  0.75089922  0.25147888  -0.00519826  1
  Al0+  Al67  1  0.74994538  0.24856053  0.33934433  1
  Al0+  Al68  1  0.75072872  0.24978638  0.67008016  1
  Al0+  Al69  1  0.74965660  0.75032871  0.00063567  1
  Al0+  Al70  1  0.75131079  0.74809533  0.32273103  1
  Al0+  Al71  1  0.74959173  0.75030853  0.66399270  1
  Al0+  Al72  1  0.67972266  0.42944671  0.01546204  1
  Al0+  Al73  1  0.67741919  0.42800378  0.68334228  1
  Al0+  Al74  1  0.81894773  0.06996324  0.34591954  1
  Al0+  Al75  1  0.17992510  0.43055094  0.67787981  1
  Al0+  Al76  1  0.56982922  0.18052060  0.98871554  1
  Al0+  Al77  1  0.92749762  0.32143083  0.32114056  1
  Al0+  Al78  1  0.32347944  0.07335250  0.34841140  1
  Al0+  Al79  1  0.32102688  0.56835787  0.34593501  1
  Al0+  Al80  1  0.56983926  0.67800306  0.31818944  1
  Al0+  Al81  1  0.42885852  0.31886077  0.32006067  1
  Al0+  Al82  1  0.56957080  0.67980473  0.65067352  1
  Al0+  Al83  1  0.67770789  0.92901876  0.01344939  1
  Al0+  Al84  1  0.92807207  0.32356493  0.98265643  1
  Al0+  Al85  1  0.68047772  0.43014751  0.34581070  1
  Al0+  Al86  1  0.32187313  0.07128785  0.68513465  1
  Al0+  Al87  1  0.17790918  0.92956173  0.68491959  1
  Al0+  Al88  1  0.17823251  0.42730424  0.01598779  1
  Al0+  Al89  1  0.17879969  0.92916483  0.34784511  1
  Al0+  Al90  1  0.93121830  0.82137318  0.31913656  1
  Al0+  Al91  1  0.42722035  0.82210021  0.98519110  1
  Al0+  Al92  1  0.07238580  0.17892602  0.98454662  1
  Al0+  Al93  1  0.81973762  0.57301924  0.68031207  1
  Al0+  Al94  1  0.57204275  0.67751796  0.98238759  1
  Al0+  Al95  1  0.07135728  0.18083251  0.64996384  1
  Si0+  Si96  1  0.92956963  0.82158123  0.98432906  1
  Si0+  Si97  1  0.92771853  0.32337550  0.64890869  1
  Si0+  Si98  1  0.57305141  0.17568363  0.31958329  1
  Si0+  Si99  1  0.82253040  0.57397980  0.02017106  1
  Si0+  Si100  1  0.57351952  0.17693106  0.65094306  1
  Si0+  Si101  1  0.82263198  0.07073832  0.01483814  1
  Si0+  Si102  1  0.67867254  0.92398236  0.34968809  1
  Si0+  Si103  1  0.42702507  0.82337551  0.64673639  1
  Si0+  Si104  1  0.32114139  0.06995160  0.01582891  1
  Si0+  Si105  1  0.68067989  0.93007801  0.67930600  1
  Si0+  Si106  1  0.43054194  0.31910614  0.65316401  1
  Si0+  Si107  1  0.07539748  0.67720062  0.31690608  1
  Si0+  Si108  1  0.17759622  0.92769801  0.01526135  1
  Si0+  Si109  1  0.82218207  0.07156638  0.68313859  1
  Si0+  Si110  1  0.32343740  0.57298306  0.68435305  1
  Si0+  Si111  1  0.31975709  0.57251496  0.01485563  1
  Si0+  Si112  1  0.07183245  0.67746644  0.65273073  1
  Si0+  Si113  1  0.07092139  0.68030174  0.98542740  1
  Si0+  Si114  1  0.17497032  0.42816591  0.34812179  1
  Si0+  Si115  1  0.82342562  0.57400705  0.34779395  1
  Si0+  Si116  1  0.92955185  0.82094579  0.65243364  1
  Si0+  Si117  1  0.07101272  0.17865204  0.31752929  1
  Si0+  Si118  1  0.42775546  0.82227225  0.31986365  1
  Si0+  Si119  1  0.42709686  0.32255830  0.98294703  1
  O2-  O120  1  0.24850835  -0.00088853  0.05631320  1
  O2-  O121  1  0.25051362  0.00159898  0.39696330  1
  O2-  O122  1  0.25102105  -0.00113139  0.73667238  1
  O2-  O123  1  0.25457723  0.50119808  0.06068763  1
  O2-  O124  1  0.24399791  0.49593420  0.39300837  1
  O2-  O125  1  0.25153914  0.50729859  0.72759595  1
  O2-  O126  1  0.75242940  0.00390528  0.05969576  1
  O2-  O127  1  0.74512452  -0.00539348  0.39481371  1
  O2-  O128  1  0.74775862  0.00367615  0.72420769  1
  O2-  O129  1  0.75378938  0.50481606  0.06303536  1
  O2-  O130  1  0.75636009  0.50421175  0.39183200  1
  O2-  O131  1  0.74999639  0.50019521  0.73162773  1
  O2-  O132  1  0.00533764  0.25020645  0.27378451  1
  O2-  O133  1  -0.00340344  0.25561340  0.60328374  1
  O2-  O134  1  0.00416631  0.25472672  0.93424994  1
  O2-  O135  1  0.00769298  0.74770568  0.27299786  1
  O2-  O136  1  0.00257658  0.75095680  0.61121529  1
  O2-  O137  1  -0.00099465  0.74979784  0.94159441  1
  O2-  O138  1  0.50051672  0.24013373  0.27542647  1
  O2-  O139  1  0.50499961  0.25101312  0.61069226  1
  O2-  O140  1  0.49807473  0.25641232  0.93846854  1
  O2-  O141  1  0.49774056  0.75645927  0.27358993  1
  O2-  O142  1  0.49224943  0.75144474  0.60242184  1
  O2-  O143  1  0.50036975  0.75136074  0.93459832  1
  O2-  O144  1  0.07033010  0.17600423  0.09832688  1
  O2-  O145  1  0.06973010  0.17959565  0.42329121  1
  O2-  O146  1  0.06932926  0.18166924  0.76283299  1
  O2-  O147  1  0.07246877  0.68306017  0.09049987  1
  O2-  O148  1  0.07380097  0.67440330  0.42255265  1
  O2-  O149  1  0.07030573  0.67747486  0.75808863  1
  O2-  O150  1  0.56750902  0.17927377  0.10181154  1
  O2-  O151  1  0.57504862  0.17831383  0.42549466  1
  O2-  O152  1  0.57326063  0.17419929  0.75602780  1
  O2-  O153  1  0.56892510  0.67750147  0.09604134  1
  O2-  O154  1  0.56994414  0.67805889  0.43169676  1
  O2-  O155  1  0.57030450  0.68304729  0.76331487  1
  O2-  O156  1  0.17570340  0.43049751  0.24259960  1
  O2-  O157  1  0.18100287  0.43252606  0.56461676  1
  O2-  O158  1  0.17983169  0.42868328  0.90247371  1
  O2-  O159  1  0.17934362  0.93059049  0.23341122  1
  O2-  O160  1  0.17711546  0.93091966  0.57167651  1
  O2-  O161  1  0.17602631  0.92621044  0.91062931  1
  O2-  O162  1  0.67994784  0.42890889  0.23285206  1
  O2-  O163  1  0.67719553  0.42804959  0.56945176  1
  O2-  O164  1  0.68131232  0.43043717  0.90265050  1
  O2-  O165  1  0.67919554  0.92581541  0.24417106  1
  O2-  O166  1  0.68395324  0.93026104  0.57411940  1
  O2-  O167  1  0.68147129  0.93022573  0.89952580  1
  O2-  O168  1  0.42670804  0.32067606  0.08861702  1
  O2-  O169  1  0.43068971  0.32111249  0.43358429  1
  O2-  O170  1  0.42969455  0.31753451  0.75833316  1
  O2-  O171  1  0.42556745  0.82063404  0.09911041  1
  O2-  O172  1  0.43017002  0.82082760  0.42536923  1
  O2-  O173  1  0.42984428  0.82393947  0.75230045  1
  O2-  O174  1  0.92731014  0.31857963  0.09662674  1
  O2-  O175  1  0.92865951  0.32039560  0.43447775  1
  O2-  O176  1  0.92805307  0.32133482  0.75420154  1
  O2-  O177  1  0.93181716  0.82315969  0.08928646  1
  O2-  O178  1  0.93083131  0.81954400  0.43260687  1
  O2-  O179  1  0.92826260  0.82016418  0.75789677  1
  O2-  O180  1  0.32302849  0.07166020  0.23430081  1
  O2-  O181  1  0.32123723  0.07131682  0.57182863  1
  O2-  O182  1  0.32187674  0.06999555  0.91098806  1
  O2-  O183  1  0.31942518  0.56827098  0.23270303  1
  O2-  O184  1  0.32387902  0.56971115  0.57846264  1
  O2-  O185  1  0.31573727  0.57271149  0.90919446  1
  O2-  O186  1  0.81779648  0.06931705  0.23282688  1
  O2-  O187  1  0.82202947  0.07069094  0.57781156  1
  O2-  O188  1  0.82287160  0.06630270  0.90878639  1
  O2-  O189  1  0.82347616  0.57514278  0.24249978  1
  O2-  O190  1  0.81971691  0.57448894  0.56661343  1
  O2-  O191  1  0.82304808  0.57568677  0.91453596  1
  O2-  O192  1  0.04167407  0.08602954  0.27222177  1
  O2-  O193  1  0.03803184  0.08382640  0.59773511  1
  O2-  O194  1  0.04172764  0.08154737  0.92918307  1
  O2-  O195  1  0.04815444  0.58559996  0.26703155  1
  O2-  O196  1  0.04248828  0.58682632  0.60379804  1
  O2-  O197  1  0.04314307  0.58828093  0.93879681  1
  O2-  O198  1  0.55263616  0.07904901  0.27684791  1
  O2-  O199  1  0.54515758  0.08599411  0.60175442  1
  O2-  O200  1  0.53769197  0.08522100  0.93256141  1
  O2-  O201  1  0.53320616  0.58363802  0.26468625  1
  O2-  O202  1  0.53961053  0.58127062  0.59923353  1
  O2-  O203  1  0.54100184  0.58028623  0.92834142  1
  O2-  O204  1  0.16567919  0.19979797  0.27204597  1
  O2-  O205  1  0.16889716  0.21184377  0.59823140  1
  O2-  O206  1  0.17188626  0.20575229  0.93298439  1
  O2-  O207  1  0.16981516  0.70236909  0.27227870  1
  O2-  O208  1  0.16522188  0.70244072  0.60634763  1
  O2-  O209  1  0.16089268  0.70833742  0.93504311  1
  O2-  O210  1  0.66507391  0.20468276  0.27309980  1
  O2-  O211  1  0.66729556  0.20202956  0.60524905  1
  O2-  O212  1  0.66635697  0.20674684  0.93222083  1
  O2-  O213  1  0.66639025  0.70448612  0.26259976  1
  O2-  O214  1  0.66534700  0.71462513  0.59638687  1
  O2-  O215  1  0.67126603  0.70736679  0.93169821  1
  O2-  O216  1  0.08207823  0.46102744  0.06873353  1
  O2-  O217  1  0.08130391  0.45492299  0.39371740  1
  O2-  O218  1  0.08398632  0.45988015  0.73385215  1
  O2-  O219  1  0.08514271  0.95629761  0.06174515  1
  O2-  O220  1  0.08021509  0.95664074  0.40031414  1
  O2-  O221  1  0.07865758  0.95800669  0.73682633  1
  O2-  O222  1  0.58024364  0.45811527  0.06610809  1
  O2-  O223  1  0.58449053  0.46260799  0.39928168  1
  O2-  O224  1  0.57898617  0.45569566  0.73609246  1
  O2-  O225  1  0.58132848  0.95988848  0.06711589  1
  O2-  O226  1  0.58504693  0.94460653  0.39766492  1
  O2-  O227  1  0.58789050  0.95501911  0.72536184  1
  O2-  O228  1  0.20814108  0.33099205  0.07057845  1
  O2-  O229  1  0.20002532  0.33399661  0.39224275  1
  O2-  O230  1  0.21471201  0.33618805  0.73300942  1
  O2-  O231  1  0.20449156  0.83552875  0.06256969  1
  O2-  O232  1  0.20362527  0.83054528  0.40229967  1
  O2-  O233  1  0.20277389  0.82886493  0.73631125  1
  O2-  O234  1  0.71062429  0.33109008  0.06689324  1
  O2-  O235  1  0.70925963  0.33422935  0.40221770  1
  O2-  O236  1  0.70516790  0.32853934  0.73510884  1
  O2-  O237  1  0.70986135  0.83314042  0.06745380  1
  O2-  O238  1  0.70986148  0.83080841  0.39339346  1
  O2-  O239  1  0.71243981  0.84021874  0.72756509  1
  O2-  O240  1  0.46245221  0.41262187  0.26313884  1
  O2-  O241  1  0.45528494  0.41214148  0.60624870  1
  O2-  O242  1  0.44780011  0.41697739  0.93724945  1
  O2-  O243  1  0.45043094  0.91759308  0.27514737  1
  O2-  O244  1  0.45606047  0.91653591  0.60118193  1
  O2-  O245  1  0.45581215  0.91956028  0.93096021  1
  O2-  O246  1  0.95242231  0.41864525  0.26509126  1
  O2-  O247  1  0.95262627  0.41842815  0.60554272  1
  O2-  O248  1  0.95248559  0.42485487  0.93412600  1
  O2-  O249  1  0.96075621  0.91782158  0.26341838  1
  O2-  O250  1  0.95654698  0.91316518  0.60541845  1
  O2-  O251  1  0.95762161  0.91225137  0.93478546  1
  O2-  O252  1  0.33133857  0.29266563  0.26418728  1
  O2-  O253  1  0.34031037  0.28914840  0.60423053  1
  O2-  O254  1  0.33445201  0.29259744  0.93757996  1
  O2-  O255  1  0.33344201  0.79535058  0.27607326  1
  O2-  O256  1  0.33096236  0.80159400  0.60400205  1
  O2-  O257  1  0.32936292  0.79338745  0.92961371  1
  O2-  O258  1  0.83205378  0.28439781  0.26872997  1
  O2-  O259  1  0.83359387  0.29486000  0.60447028  1
  O2-  O260  1  0.83241917  0.29185743  0.92684193  1
  O2-  O261  1  0.83689428  0.79044934  0.26043665  1
  O2-  O262  1  0.83917045  0.79275086  0.60261451  1
  O2-  O263  1  0.83757489  0.79452251  0.93706747  1
  O2-  O264  1  0.41187550  0.04138579  0.06412466  1
  O2-  O265  1  0.42183706  0.04690532  0.40369175  1
  O2-  O266  1  0.42218962  0.04326229  0.73595495  1
  O2-  O267  1  0.41461851  0.54970986  0.05877338  1
  O2-  O268  1  0.41458912  0.53196715  0.40173540  1
  O2-  O269  1  0.41487557  0.54373697  0.73167146  1
  O2-  O270  1  0.91546405  0.04173920  0.06090398  1
  O2-  O271  1  0.91404577  0.03779788  0.40204387  1
  O2-  O272  1  0.91186106  0.03982696  0.73113948  1
  O2-  O273  1  0.91688212  0.55197547  0.06648107  1
  O2-  O274  1  0.91874587  0.55160869  0.39253238  1
  O2-  O275  1  0.91828616  0.54851475  0.73555371  1
  O2-  O276  1  0.29420257  0.16166669  0.06381470  1
  O2-  O277  1  0.29490495  0.17226707  0.40076036  1
  O2-  O278  1  0.29321664  0.16910912  0.73834834  1
  O2-  O279  1  0.28975480  0.66513011  0.06123979  1
  O2-  O280  1  0.29426062  0.66345025  0.40495165  1
  O2-  O281  1  0.30181194  0.66826975  0.72760734  1
  O2-  O282  1  0.79789681  0.16522496  0.05762317  1
  O2-  O283  1  0.78758040  0.16330662  0.40619873  1
  O2-  O284  1  0.79747190  0.16366986  0.73058279  1
  O2-  O285  1  0.79801376  0.66849011  0.06525849  1
  O2-  O286  1  0.79719780  0.66818487  0.39256614  1
  O2-  O287  1  0.79103066  0.67178865  0.73386378  1
