# generated using pymatgen
data_Ca2Al2SiO7
_symmetry_space_group_name_H-M   'P 1'
_cell_length_a   15.45641819
_cell_length_b   15.45725172
_cell_length_c   15.28222820
_cell_angle_alpha   89.98659920
_cell_angle_beta   89.99028977
_cell_angle_gamma   89.99392797
_symmetry_Int_Tables_number   1
_chemical_formula_structural   Ca2Al2SiO7
_chemical_formula_sum   'Ca48 Al48 Si24 O168'
_cell_volume   3651.13422288
_cell_formula_units_Z   24
loop_
 _symmetry_equiv_pos_site_id
 _symmetry_equiv_pos_as_xyz
  1  'x, y, z'
loop_
 _atom_type_symbol
 _atom_type_oxidation_number
  Ca2+  2.0
  Al0+  0.0
  Si0+  0.0
  O2-  -2.0
loop_
 _atom_site_type_symbol
 _atom_site_label
 _atom_site_symmetry_multiplicity
 _atom_site_fract_x
 _atom_site_fract_y
 _atom_site_fract_z
 _atom_site_occupancy
  Ca2+  Ca0  1  0.17475309  0.09099205  0.16748512  1
  Ca2+  Ca1  1  0.16978530  0.08545835  0.50321071  1
  Ca2+  Ca2  1  0.16625776  0.08946631  0.83886811  1
  Ca2+  Ca3  1  0.16060400  0.56874475  0.17422378  1
  Ca2+  Ca4  1  0.16664448  0.58035293  0.50707915  1
  Ca2+  Ca5  1  0.17169462  0.58168628  0.83800407  1
  Ca2+  Ca6  1  0.67498012  0.08118179  0.17572977  1
  Ca2+  Ca7  1  0.67936876  0.07796865  0.51028159  1
  Ca2+  Ca8  1  0.67075342  0.07690141  0.83348282  1
  Ca2+  Ca9  1  0.67514054  0.58972042  0.16880471  1
  Ca2+  Ca10  1  0.67415698  0.59206371  0.50539244  1
  Ca2+  Ca11  1  0.67534183  0.59243281  0.83586212  1
  Ca2+  Ca12  1  0.08233073  0.33288653  0.15780326  1
  Ca2+  Ca13  1  0.08500783  0.33038297  0.49817106  1
  Ca2+  Ca14  1  0.08452011  0.32669693  0.83661198  1
  Ca2+  Ca15  1  0.07695124  0.82487324  0.16207067  1
  Ca2+  Ca16  1  0.08033076  0.81897434  0.49915278  1
  Ca2+  Ca17  1  0.07057181  0.82899982  0.82381388  1
  Ca2+  Ca18  1  0.56875624  0.33545444  0.16179694  1
  Ca2+  Ca19  1  0.56957511  0.33920922  0.49614230  1
  Ca2+  Ca20  1  0.56993414  0.33770724  0.82870249  1
  Ca2+  Ca21  1  0.58798852  0.82215943  0.16364738  1
  Ca2+  Ca22  1  0.59210500  0.82493541  0.50099004  1
  Ca2+  Ca23  1  0.58670011  0.82438417  0.82781922  1
  Ca2+  Ca24  1  0.32252471  0.40752128  0.16977309  1
  Ca2+  Ca25  1  0.33099363  0.41819803  0.50385595  1
  Ca2+  Ca26  1  0.33112909  0.41634106  0.83669244  1
  Ca2+  Ca27  1  0.33465137  0.93088306  0.17141802  1
  Ca2+  Ca28  1  0.33422492  0.92223074  0.50355124  1
  Ca2+  Ca29  1  0.32906768  0.92437874  0.84149443  1
  Ca2+  Ca30  1  0.83944528  0.42808979  0.17022789  1
  Ca2+  Ca31  1  0.83226423  0.43036313  0.50545288  1
  Ca2+  Ca32  1  0.83947888  0.42927097  0.83993680  1
  Ca2+  Ca33  1  0.83793328  0.92142058  0.16934282  1
  Ca2+  Ca34  1  0.83218215  0.92256345  0.50951727  1
  Ca2+  Ca35  1  0.83474290  0.91183614  0.83148122  1
  Ca2+  Ca36  1  0.40719717  0.17381214  0.16248070  1
  Ca2+  Ca37  1  0.41307394  0.17772009  0.49376002  1
  Ca2+  Ca38  1  0.40941384  0.17768697  0.83102851  1
  Ca2+  Ca39  1  0.43173386  0.66151167  0.16305297  1
  Ca2+  Ca40  1  0.42806280  0.66013852  0.49687182  1
  Ca2+  Ca41  1  0.42813777  0.65875952  0.82507875  1
  Ca2+  Ca42  1  0.92164059  0.17494562  0.15509727  1
  Ca2+  Ca43  1  0.91927142  0.15933254  0.49783710  1
  Ca2+  Ca44  1  0.92698822  0.16872436  0.82538490  1
  Ca2+  Ca45  1  0.91653771  0.66602134  0.16159932  1
  Ca2+  Ca46  1  0.91946916  0.66495587  0.49767617  1
  Ca2+  Ca47  1  0.91487854  0.67325588  0.82612023  1
  Al0+  Al48  1  0.00022514  -0.00234158  -0.00576016  1
  Al0+  Al49  1  0.00199646  -0.00151388  0.33603886  1
  Al0+  Al50  1  0.00151135  0.00052582  0.66114032  1
  Al0+  Al51  1  0.00110404  0.50011457  0.00430419  1
  Al0+  Al52  1  -0.00000896  0.49865215  0.33981065  1
  Al0+  Al53  1  0.00038008  0.49678151  0.66950984  1
  Al0+  Al54  1  0.50063590  -0.00089094  0.00650167  1
  Al0+  Al55  1  0.50022854  0.00054511  0.33909396  1
  Al0+  Al56  1  0.50104759  0.00133103  0.67180668  1
  Al0+  Al57  1  0.50195689  0.49944865  -0.00802368  1
  Al0+  Al58  1  0.49863306  0.49941038  0.32180864  1
  Al0+  Al59  1  0.49814385  0.50049849  0.66076907  1
  Al0+  Al60  1  0.25021470  0.25081897  -0.00055861  1
  Al0+  Al61  1  0.24858721  0.24990837  0.33876939  1
  Al0+  Al62  1  0.24847309  0.25099443  0.65834132  1
  Al0+  Al63  1  0.25231168  0.75081290  0.00399901  1
  Al0+  Al64  1  0.25022034  0.74952446  0.32610577  1
  Al0+  Al65  1  0.25088272  0.75041318  0.66903019  1
  Al0+  Al66  1  0.74800151  0.25161031  -0.00305671  1
  Al0+  Al67  1  0.74905906  0.25098898  0.33848503  1
  Al0+  Al68  1  0.74926865  0.25043320  0.67176610  1
  Al0+  Al69  1  0.75057818  0.75008743  -0.00183342  1
  Al0+  Al70  1  0.75088422  0.75116345  0.33209847  1
  Al0+  Al71  1  0.74950931  0.75147591  0.66604975  1
  Al0+  Al72  1  0.81900139  0.57076666  0.34762827  1
  Al0+  Al73  1  0.67920725  0.92919739  0.68385915  1
  Al0+  Al74  1  0.42992202  0.31959136  0.65083476  1
  Al0+  Al75  1  0.56938556  0.68100537  0.98428509  1
  Al0+  Al76  1  0.31901811  0.06999744  0.01264550  1
  Al0+  Al77  1  0.92862590  0.81938729  0.64898261  1
  Al0+  Al78  1  0.07114705  0.67584534  0.31880120  1
  Al0+  Al79  1  0.06907637  0.18049687  0.65019957  1
  Al0+  Al80  1  0.82073979  0.56950314  0.68098642  1
  Al0+  Al81  1  0.57146592  0.68124834  0.31826374  1
  Al0+  Al82  1  0.42978773  0.31792276  0.98527057  1
  Al0+  Al83  1  0.31962611  0.07036585  0.34948101  1
  Al0+  Al84  1  0.92640137  0.32440850  0.98593572  1
  Al0+  Al85  1  0.82454115  0.07195711  0.68476617  1
  Al0+  Al86  1  0.81882156  0.57051760  0.01408236  1
  Al0+  Al87  1  0.56922266  0.68135069  0.65217509  1
  Al0+  Al88  1  0.82238707  0.07248405  0.34517035  1
  Al0+  Al89  1  0.06979816  0.18000620  0.98681717  1
  Al0+  Al90  1  0.17941880  0.42975203  0.34935950  1
  Al0+  Al91  1  0.42790140  0.31837013  0.31725568  1
  Al0+  Al92  1  0.18206142  0.43193909  0.01289974  1
  Al0+  Al93  1  0.32081706  0.57114012  0.67873746  1
  Al0+  Al94  1  0.07302360  0.67593470  0.65392512  1
  Al0+  Al95  1  0.93046001  0.81926890  0.98636932  1
  Si0+  Si96  1  0.17892658  0.42612428  0.68490036  1
  Si0+  Si97  1  0.17839853  0.92490629  0.35095945  1
  Si0+  Si98  1  0.57313643  0.17717826  0.31856066  1
  Si0+  Si99  1  0.57382592  0.17395205  0.98388661  1
  Si0+  Si100  1  0.32609948  0.57347608  0.01718602  1
  Si0+  Si101  1  0.42686812  0.82553107  0.31587139  1
  Si0+  Si102  1  0.67541767  0.42844026  0.68281856  1
  Si0+  Si103  1  0.68057705  0.92932464  0.01701470  1
  Si0+  Si104  1  0.82218059  0.07209713  0.01330553  1
  Si0+  Si105  1  0.67884622  0.92832674  0.34974097  1
  Si0+  Si106  1  0.92726912  0.32049336  0.32094934  1
  Si0+  Si107  1  0.67507866  0.42653358  0.01668943  1
  Si0+  Si108  1  0.07448367  0.67661368  0.98541067  1
  Si0+  Si109  1  0.17531694  0.92579764  0.01735353  1
  Si0+  Si110  1  0.93001225  0.82168061  0.31622977  1
  Si0+  Si111  1  0.92477062  0.32223796  0.64911753  1
  Si0+  Si112  1  0.31951816  0.07274239  0.68138490  1
  Si0+  Si113  1  0.42655970  0.82590695  0.65179100  1
  Si0+  Si114  1  0.67451446  0.42881431  0.34846158  1
  Si0+  Si115  1  0.42777797  0.82452086  0.98461920  1
  Si0+  Si116  1  0.32360539  0.57266991  0.34667382  1
  Si0+  Si117  1  0.57306638  0.17652026  0.65042449  1
  Si0+  Si118  1  0.18018965  0.92874800  0.68119350  1
  Si0+  Si119  1  0.06939539  0.17823681  0.31860103  1
  O2-  O120  1  0.24506006  -0.00556468  0.06043636  1
  O2-  O121  1  0.24832326  -0.00762029  0.39589834  1
  O2-  O122  1  0.25126224  -0.00015044  0.72401437  1
  O2-  O123  1  0.25448742  0.50847650  0.06184861  1
  O2-  O124  1  0.25234898  0.50787218  0.39247727  1
  O2-  O125  1  0.24382223  0.49946162  0.72698516  1
  O2-  O126  1  0.74952724  0.00342004  0.05785660  1
  O2-  O127  1  0.74601840  -0.00052204  0.39137945  1
  O2-  O128  1  0.75238582  -0.00001978  0.73469329  1
  O2-  O129  1  0.74722076  0.49192182  0.06080012  1
  O2-  O130  1  0.74157586  0.49832917  0.39363823  1
  O2-  O131  1  0.74689572  0.49359903  0.72777294  1
  O2-  O132  1  -0.00541163  0.24575992  0.27824243  1
  O2-  O133  1  -0.00980091  0.25090018  0.60349061  1
  O2-  O134  1  -0.00604180  0.24785719  0.93671344  1
  O2-  O135  1  -0.00378703  0.75062314  0.27203079  1
  O2-  O136  1  -0.00190524  0.74359380  0.60133103  1
  O2-  O137  1  0.00799417  0.74684843  0.94129463  1
  O2-  O138  1  0.50316652  0.24293885  0.27174727  1
  O2-  O139  1  0.50587628  0.24566766  0.60467642  1
  O2-  O140  1  0.50582444  0.24352754  0.93984833  1
  O2-  O141  1  0.49526109  0.75579556  0.27244821  1
  O2-  O142  1  0.49410217  0.75676308  0.60664291  1
  O2-  O143  1  0.49051551  0.75199004  0.93862979  1
  O2-  O144  1  0.06922113  0.18102950  0.10107412  1
  O2-  O145  1  0.06932812  0.17867698  0.42367248  1
  O2-  O146  1  0.07313076  0.18306154  0.76298115  1
  O2-  O147  1  0.07187364  0.67721576  0.09138132  1
  O2-  O148  1  0.07130554  0.67727362  0.43152915  1
  O2-  O149  1  0.07478900  0.68011813  0.76760848  1
  O2-  O150  1  0.57514379  0.17330166  0.08972447  1
  O2-  O151  1  0.57264120  0.17892798  0.42389263  1
  O2-  O152  1  0.57002858  0.17596853  0.75613297  1
  O2-  O153  1  0.57081079  0.68345298  0.09775438  1
  O2-  O154  1  0.57127328  0.68199335  0.43113301  1
  O2-  O155  1  0.56801399  0.68150290  0.76514709  1
  O2-  O156  1  0.17936424  0.42708170  0.23608515  1
  O2-  O157  1  0.18093890  0.42469278  0.57907954  1
  O2-  O158  1  0.18444916  0.43157726  0.89994810  1
  O2-  O159  1  0.17700967  0.92719397  0.24531950  1
  O2-  O160  1  0.18330812  0.92844196  0.57599298  1
  O2-  O161  1  0.17708256  0.92424793  0.91177705  1
  O2-  O162  1  0.67642705  0.42706756  0.24295006  1
  O2-  O163  1  0.67564983  0.42986413  0.57684150  1
  O2-  O164  1  0.67181466  0.42825849  0.91138156  1
  O2-  O165  1  0.67950177  0.92850991  0.24358177  1
  O2-  O166  1  0.67832020  0.93188832  0.56997752  1
  O2-  O167  1  0.67899694  0.92933612  0.91255591  1
  O2-  O168  1  0.42867068  0.31573908  0.09838993  1
  O2-  O169  1  0.42934226  0.31899521  0.43026728  1
  O2-  O170  1  0.42828161  0.31723374  0.76403685  1
  O2-  O171  1  0.43138783  0.82681876  0.09021083  1
  O2-  O172  1  0.42577501  0.82649706  0.42134972  1
  O2-  O173  1  0.42624800  0.82726023  0.75738819  1
  O2-  O174  1  0.92804933  0.32263108  0.10045965  1
  O2-  O175  1  0.92810884  0.32045457  0.42591194  1
  O2-  O176  1  0.92720194  0.32306541  0.75450073  1
  O2-  O177  1  0.93081302  0.82048777  0.09997614  1
  O2-  O178  1  0.93056577  0.82272100  0.42123615  1
  O2-  O179  1  0.93103215  0.81815267  0.76280756  1
  O2-  O180  1  0.31679520  0.07132303  0.23623304  1
  O2-  O181  1  0.31858807  0.07153431  0.57617535  1
  O2-  O182  1  0.31799061  0.06889455  0.89924855  1
  O2-  O183  1  0.32445006  0.56989066  0.24097320  1
  O2-  O184  1  0.32257814  0.56875884  0.56544421  1
  O2-  O185  1  0.32525722  0.57297273  0.91146256  1
  O2-  O186  1  0.82186124  0.07151541  0.23124243  1
  O2-  O187  1  0.82184119  0.07013315  0.57071299  1
  O2-  O188  1  0.82155178  0.07059666  0.90898920  1
  O2-  O189  1  0.81909239  0.57032325  0.23431400  1
  O2-  O190  1  0.81914572  0.56893474  0.56756195  1
  O2-  O191  1  0.81728594  0.57232500  0.90126972  1
  O2-  O192  1  0.04725241  0.08430810  0.27260463  1
  O2-  O193  1  0.04425770  0.08327258  0.59459347  1
  O2-  O194  1  0.04721083  0.08038525  0.93417217  1
  O2-  O195  1  0.03769582  0.57876147  0.26713031  1
  O2-  O196  1  0.04907279  0.57505126  0.60426303  1
  O2-  O197  1  0.04900614  0.58355829  0.94031769  1
  O2-  O198  1  0.55080583  0.08160884  0.27455542  1
  O2-  O199  1  0.54644291  0.08306724  0.60458677  1
  O2-  O200  1  0.54686707  0.08002351  0.93948413  1
  O2-  O201  1  0.54175032  0.58562864  0.26133422  1
  O2-  O202  1  0.53813317  0.58585801  0.59647700  1
  O2-  O203  1  0.54331391  0.58418567  0.92926938  1
  O2-  O204  1  0.16028752  0.21058977  0.27289864  1
  O2-  O205  1  0.16325953  0.21448833  0.59282823  1
  O2-  O206  1  0.16617470  0.21265829  0.93286259  1
  O2-  O207  1  0.16762224  0.70461769  0.26256061  1
  O2-  O208  1  0.17072065  0.70877997  0.60057782  1
  O2-  O209  1  0.17080719  0.69928194  0.94321322  1
  O2-  O210  1  0.66690908  0.20379933  0.27206095  1
  O2-  O211  1  0.66811020  0.20026716  0.60650643  1
  O2-  O212  1  0.66698003  0.19736977  0.93625419  1
  O2-  O213  1  0.66722167  0.71521266  0.26321197  1
  O2-  O214  1  0.66474998  0.71377899  0.59790901  1
  O2-  O215  1  0.66410211  0.71739475  0.93166981  1
  O2-  O216  1  0.08562903  0.45969391  0.06976841  1
  O2-  O217  1  0.08351836  0.45774174  0.40553346  1
  O2-  O218  1  0.08374247  0.44436908  0.72980039  1
  O2-  O219  1  0.08169861  0.95177352  0.06335089  1
  O2-  O220  1  0.08630946  0.95242118  0.39879107  1
  O2-  O221  1  0.08871805  0.95846590  0.72698429  1
  O2-  O222  1  0.58265708  0.45700955  0.06354485  1
  O2-  O223  1  0.57956520  0.45483215  0.39139889  1
  O2-  O224  1  0.58237231  0.45747371  0.72767359  1
  O2-  O225  1  0.58892276  0.95396718  0.06712189  1
  O2-  O226  1  0.58469414  0.94899443  0.39638723  1
  O2-  O227  1  0.58075671  0.95809593  0.73899107  1
  O2-  O228  1  0.21469604  0.33587394  0.06733100  1
  O2-  O229  1  0.21195232  0.33479554  0.40488620  1
  O2-  O230  1  0.21209567  0.33402274  0.72972433  1
  O2-  O231  1  0.20049726  0.83253357  0.06583054  1
  O2-  O232  1  0.20398207  0.83033417  0.39507321  1
  O2-  O233  1  0.20691472  0.83842529  0.73190606  1
  O2-  O234  1  0.69390940  0.33056459  0.06192794  1
  O2-  O235  1  0.69865548  0.33587576  0.39698626  1
  O2-  O236  1  0.69407235  0.33330872  0.72877301  1
  O2-  O237  1  0.71308504  0.83940305  0.06518886  1
  O2-  O238  1  0.70793010  0.83632105  0.39625953  1
  O2-  O239  1  0.70762148  0.83113594  0.73676859  1
  O2-  O240  1  0.45711641  0.41358417  0.25988584  1
  O2-  O241  1  0.46086113  0.41494136  0.59486731  1
  O2-  O242  1  0.45979295  0.41408981  0.93014318  1
  O2-  O243  1  0.45476633  0.91954629  0.27051196  1
  O2-  O244  1  0.45267212  0.92001007  0.60591042  1
  O2-  O245  1  0.45695790  0.91711193  0.93825121  1
  O2-  O246  1  0.95937185  0.41089936  0.27392155  1
  O2-  O247  1  0.95464283  0.41423750  0.60191204  1
  O2-  O248  1  0.96106354  0.42091848  0.93341225  1
  O2-  O249  1  0.95958066  0.91463697  0.26913289  1
  O2-  O250  1  0.96054860  0.91671579  0.59658597  1
  O2-  O251  1  0.95827517  0.91505126  0.92970282  1
  O2-  O252  1  0.33077459  0.28334349  0.26659825  1
  O2-  O253  1  0.33522832  0.28693304  0.59501472  1
  O2-  O254  1  0.33507584  0.28481822  0.93020237  1
  O2-  O255  1  0.33355529  0.80363979  0.26742732  1
  O2-  O256  1  0.33294524  0.80212857  0.60557008  1
  O2-  O257  1  0.33109365  0.80592202  0.94175880  1
  O2-  O258  1  0.83367339  0.29725372  0.27438700  1
  O2-  O259  1  0.82875740  0.30188225  0.60556749  1
  O2-  O260  1  0.82550585  0.30407089  0.93503577  1
  O2-  O261  1  0.83563903  0.79929341  0.27026394  1
  O2-  O262  1  0.82933918  0.79522797  0.59734885  1
  O2-  O263  1  0.83504357  0.78728225  0.93238217  1
  O2-  O264  1  0.41568469  0.04075680  0.06915181  1
  O2-  O265  1  0.41768817  0.04406012  0.40350163  1
  O2-  O266  1  0.41213053  0.04954985  0.72881474  1
  O2-  O267  1  0.41971187  0.54378423  0.06064340  1
  O2-  O268  1  0.41685766  0.54255250  0.39134227  1
  O2-  O269  1  0.41648919  0.53603873  0.73253484  1
  O2-  O270  1  0.91377027  0.04143810  0.06023107  1
  O2-  O271  1  0.91860712  0.04056099  0.39905699  1
  O2-  O272  1  0.92467991  0.04358223  0.73344431  1
  O2-  O273  1  0.91621153  0.54220311  0.06847261  1
  O2-  O274  1  0.91326219  0.53651347  0.40307783  1
  O2-  O275  1  0.91772229  0.53920406  0.73519727  1
  O2-  O276  1  0.28569703  0.16510797  0.06756113  1
  O2-  O277  1  0.28410031  0.16399997  0.40516836  1
  O2-  O278  1  0.28682980  0.16414037  0.72626214  1
  O2-  O279  1  0.30799822  0.66949190  0.06236514  1
  O2-  O280  1  0.30392093  0.66918363  0.38873075  1
  O2-  O281  1  0.29633304  0.66905011  0.73442960  1
  O2-  O282  1  0.79618079  0.16537985  0.05977729  1
  O2-  O283  1  0.79375409  0.16862782  0.40160284  1
  O2-  O284  1  0.79677712  0.17131488  0.73677525  1
  O2-  O285  1  0.78442894  0.66637027  0.06853298  1
  O2-  O286  1  0.79001506  0.66882459  0.39923327  1
  O2-  O287  1  0.78822736  0.66621761  0.73242420  1
