# generated using pymatgen
data_Ca2Al2SiO7
_symmetry_space_group_name_H-M   'P 1'
_cell_length_a   15.45862464
_cell_length_b   15.45903904
_cell_length_c   15.28374761
_cell_angle_alpha   89.99252181
_cell_angle_beta   90.00386580
_cell_angle_gamma   89.99765442
_symmetry_Int_Tables_number   1
_chemical_formula_structural   Ca2Al2SiO7
_chemical_formula_sum   'Ca48 Al48 Si24 O168'
_cell_volume   3652.44090644
_cell_formula_units_Z   24
loop_
 _symmetry_equiv_pos_site_id
 _symmetry_equiv_pos_as_xyz
  1  'x, y, z'
loop_
 _atom_type_symbol
 _atom_type_oxidation_number
  Ca2+  2.0
  Al0+  0.0
  Si0+  0.0
  O2-  -2.0
loop_
 _atom_site_type_symbol
 _atom_site_label
 _atom_site_symmetry_multiplicity
 _atom_site_fract_x
 _atom_site_fract_y
 _atom_site_fract_z
 _atom_site_occupancy
  Ca2+  Ca0  1  0.16843865  0.08088218  0.17575721  1
  Ca2+  Ca1  1  0.17132762  0.08417588  0.50174202  1
  Ca2+  Ca2  1  0.16313109  0.07019049  0.83810561  1
  Ca2+  Ca3  1  0.17170442  0.57520440  0.16398647  1
  Ca2+  Ca4  1  0.16807140  0.58405066  0.50735990  1
  Ca2+  Ca5  1  0.17116502  0.58128821  0.84221922  1
  Ca2+  Ca6  1  0.67624282  0.09465145  0.16839124  1
  Ca2+  Ca7  1  0.67697535  0.09039434  0.50606115  1
  Ca2+  Ca8  1  0.67483073  0.09524403  0.83642855  1
  Ca2+  Ca9  1  0.65790808  0.57423382  0.17113328  1
  Ca2+  Ca10  1  0.66617512  0.57428617  0.50711052  1
  Ca2+  Ca11  1  0.66325074  0.57360488  0.83753747  1
  Ca2+  Ca12  1  0.07277657  0.32828260  0.16130404  1
  Ca2+  Ca13  1  0.06682221  0.32832300  0.49058395  1
  Ca2+  Ca14  1  0.06934321  0.34224520  0.83017515  1
  Ca2+  Ca15  1  0.08391559  0.83621729  0.16229407  1
  Ca2+  Ca16  1  0.08751524  0.83078678  0.50318026  1
  Ca2+  Ca17  1  0.08681756  0.83143645  0.82677013  1
  Ca2+  Ca18  1  0.58319155  0.33424363  0.16285098  1
  Ca2+  Ca19  1  0.58459670  0.33350727  0.49716340  1
  Ca2+  Ca20  1  0.59376414  0.32758193  0.83132348  1
  Ca2+  Ca21  1  0.58058777  0.82316290  0.16195061  1
  Ca2+  Ca22  1  0.58443815  0.82028501  0.49200919  1
  Ca2+  Ca23  1  0.58608993  0.81830035  0.82754542  1
  Ca2+  Ca24  1  0.33647240  0.41940661  0.17082617  1
  Ca2+  Ca25  1  0.33331360  0.41321752  0.50040848  1
  Ca2+  Ca26  1  0.32410122  0.42416387  0.84441741  1
  Ca2+  Ca27  1  0.33186112  0.92094947  0.17302736  1
  Ca2+  Ca28  1  0.33381729  0.91903399  0.50131180  1
  Ca2+  Ca29  1  0.32188325  0.91215670  0.83712540  1
  Ca2+  Ca30  1  0.82303916  0.40815347  0.16993092  1
  Ca2+  Ca31  1  0.82425781  0.41387918  0.50696898  1
  Ca2+  Ca32  1  0.82702514  0.41609573  0.83404514  1
  Ca2+  Ca33  1  0.83165834  0.93090672  0.17164326  1
  Ca2+  Ca34  1  0.83551341  0.93087528  0.50436662  1
  Ca2+  Ca35  1  0.83447806  0.93179286  0.83789251  1
  Ca2+  Ca36  1  0.41866601  0.17126059  0.16302331  1
  Ca2+  Ca37  1  0.42194496  0.17045093  0.49144076  1
  Ca2+  Ca38  1  0.43096649  0.16694204  0.82832325  1
  Ca2+  Ca39  1  0.42528190  0.66615683  0.16399881  1
  Ca2+  Ca40  1  0.42930570  0.67165871  0.49278286  1
  Ca2+  Ca41  1  0.42606164  0.65870499  0.83222267  1
  Ca2+  Ca42  1  0.91111296  0.17409993  0.16361796  1
  Ca2+  Ca43  1  0.91402060  0.17393674  0.49425550  1
  Ca2+  Ca44  1  0.90799235  0.17742331  0.82953837  1
  Ca2+  Ca45  1  0.91656976  0.67084257  0.16192604  1
  Ca2+  Ca46  1  0.92151807  0.65993826  0.50071599  1
  Ca2+  Ca47  1  0.92362393  0.66433751  0.82257185  1
  Al0+  Al48  1  -0.00063718  0.00128402  0.00861369  1
  Al0+  Al49  1  0.00092487  -0.00225507  0.33647322  1
  Al0+  Al50  1  0.00147437  0.00056770  0.67483434  1
  Al0+  Al51  1  -0.00017625  0.50129041  0.00094486  1
  Al0+  Al52  1  -0.00034234  0.49933478  0.32767635  1
  Al0+  Al53  1  -0.00091928  0.50027842  0.65943805  1
  Al0+  Al54  1  0.49961468  -0.00177191  -0.00680964  1
  Al0+  Al55  1  0.49990792  -0.00209035  0.33411941  1
  Al0+  Al56  1  0.50102470  0.00056274  0.66287098  1
  Al0+  Al57  1  0.49920799  0.50047663  0.00277450  1
  Al0+  Al58  1  0.49939766  0.49880614  0.33242262  1
  Al0+  Al59  1  0.49889718  0.49928570  0.66655290  1
  Al0+  Al60  1  0.24750803  0.24791248  -0.00003198  1
  Al0+  Al61  1  0.24970470  0.24876403  0.33105112  1
  Al0+  Al62  1  0.25037603  0.24960563  0.67053172  1
  Al0+  Al63  1  0.24976044  0.75019022  0.00991238  1
  Al0+  Al64  1  0.25111571  0.74906545  0.33019710  1
  Al0+  Al65  1  0.24986664  0.75029078  0.66596647  1
  Al0+  Al66  1  0.75069139  0.25249949  0.00028961  1
  Al0+  Al67  1  0.74972448  0.25149016  0.33958386  1
  Al0+  Al68  1  0.74903505  0.25104060  0.66500627  1
  Al0+  Al69  1  0.75004278  0.75194111  -0.00601416  1
  Al0+  Al70  1  0.75311806  0.74819793  0.32895043  1
  Al0+  Al71  1  0.75241647  0.75121258  0.66371003  1
  Al0+  Al72  1  0.57047233  0.67805423  0.98407220  1
  Al0+  Al73  1  0.56993819  0.18034960  0.98753292  1
  Al0+  Al74  1  0.67867438  0.43158194  0.34816034  1
  Al0+  Al75  1  0.81976446  0.06989681  0.34844927  1
  Al0+  Al76  1  0.07091793  0.68019672  0.65423441  1
  Al0+  Al77  1  0.93015584  0.31986591  0.65201333  1
  Al0+  Al78  1  0.17978609  0.93062970  0.01607193  1
  Al0+  Al79  1  0.57239210  0.67770109  0.65250297  1
  Al0+  Al80  1  0.17531457  0.42656862  0.01552174  1
  Al0+  Al81  1  0.32195271  0.07160028  0.34680060  1
  Al0+  Al82  1  0.81925003  0.07072719  0.68123456  1
  Al0+  Al83  1  0.42876444  0.82229030  0.31722465  1
  Al0+  Al84  1  0.42881568  0.31961410  0.32023863  1
  Al0+  Al85  1  0.68128625  0.43125065  0.01446160  1
  Al0+  Al86  1  0.92666237  0.32023505  0.31627743  1
  Al0+  Al87  1  0.57272684  0.67827265  0.31742328  1
  Al0+  Al88  1  0.67792463  0.43089193  0.68318093  1
  Al0+  Al89  1  0.57035779  0.17998424  0.65137574  1
  Al0+  Al90  1  0.07055509  0.17706339  0.31947678  1
  Al0+  Al91  1  0.32099452  0.56936030  0.01717472  1
  Al0+  Al92  1  0.81733627  0.07122017  0.01457044  1
  Al0+  Al93  1  0.82303255  0.57250262  0.68019301  1
  Al0+  Al94  1  0.93029377  0.32115976  0.98445645  1
  Al0+  Al95  1  0.18258701  0.93016775  0.67984485  1
  Si0+  Si96  1  0.31942178  0.57062530  0.67962892  1
  Si0+  Si97  1  0.31929651  0.57022315  0.35047817  1
  Si0+  Si98  1  0.67881243  0.92442976  0.34879684  1
  Si0+  Si99  1  0.32494784  0.07405265  0.68483618  1
  Si0+  Si100  1  0.17758473  0.42906310  0.34889240  1
  Si0+  Si101  1  0.82261197  0.57577177  0.01560562  1
  Si0+  Si102  1  0.42514076  0.32241896  0.98333476  1
  Si0+  Si103  1  0.42458983  0.32156784  0.65134129  1
  Si0+  Si104  1  0.67674246  0.92536076  0.01503479  1
  Si0+  Si105  1  0.42762477  0.82078342  0.65088583  1
  Si0+  Si106  1  0.93081603  0.82074722  0.31828843  1
  Si0+  Si107  1  0.07276011  0.67772006  0.31605897  1
  Si0+  Si108  1  0.07371324  0.17587457  0.65252677  1
  Si0+  Si109  1  0.07020478  0.68190054  0.98669743  1
  Si0+  Si110  1  0.17780827  0.42847269  0.67867924  1
  Si0+  Si111  1  0.07204419  0.17544018  0.98246676  1
  Si0+  Si112  1  0.57249170  0.17762220  0.31850398  1
  Si0+  Si113  1  0.67617547  0.92663988  0.68225819  1
  Si0+  Si114  1  0.82507952  0.57413371  0.34905863  1
  Si0+  Si115  1  0.32501663  0.07120550  0.01505321  1
  Si0+  Si116  1  0.92957728  0.82586437  0.65062558  1
  Si0+  Si117  1  0.92965307  0.82408693  0.98489940  1
  Si0+  Si118  1  0.42614385  0.82094729  0.98192240  1
  Si0+  Si119  1  0.17881572  0.92577473  0.35242564  1
  O2-  O120  1  0.25376574  0.00612147  0.06072449  1
  O2-  O121  1  0.24770869  -0.00439337  0.39400496  1
  O2-  O122  1  0.25623001  0.00492920  0.72838197  1
  O2-  O123  1  0.25300163  0.49231676  0.06632881  1
  O2-  O124  1  0.24735354  0.50055867  0.39372900  1
  O2-  O125  1  0.24938127  0.49853811  0.72131005  1
  O2-  O126  1  0.74057602  -0.00222697  0.06054846  1
  O2-  O127  1  0.74329684  -0.00373481  0.39449731  1
  O2-  O128  1  0.74336186  -0.00359460  0.72746675  1
  O2-  O129  1  0.75321774  0.50904301  0.06087259  1
  O2-  O130  1  0.75492295  0.50664344  0.39155353  1
  O2-  O131  1  0.74806046  0.50561370  0.73242922  1
  O2-  O132  1  -0.00275761  0.24613611  0.26733487  1
  O2-  O133  1  0.00590419  0.24459120  0.60793040  1
  O2-  O134  1  0.00792436  0.24822489  0.93791803  1
  O2-  O135  1  0.00144188  0.74915934  0.27537061  1
  O2-  O136  1  -0.00555826  0.75286068  0.60650373  1
  O2-  O137  1  -0.00110535  0.75139395  0.94262839  1
  O2-  O138  1  0.50173934  0.24351839  0.27363083  1
  O2-  O139  1  0.49254122  0.25235411  0.60727188  1
  O2-  O140  1  0.49313167  0.25305353  0.93942327  1
  O2-  O141  1  0.50246627  0.75226904  0.26767291  1
  O2-  O142  1  0.50101234  0.75672503  0.60742727  1
  O2-  O143  1  0.49548773  0.75317406  0.93733893  1
  O2-  O144  1  0.07028004  0.17324391  0.08779540  1
  O2-  O145  1  0.07050809  0.17975557  0.43360148  1
  O2-  O146  1  0.07438009  0.17629652  0.75808405  1
  O2-  O147  1  0.06795516  0.68342313  0.09210095  1
  O2-  O148  1  0.07396852  0.67728600  0.42129335  1
  O2-  O149  1  0.07362713  0.68171884  0.76741960  1
  O2-  O150  1  0.56878899  0.18140649  0.10067169  1
  O2-  O151  1  0.57145820  0.17968501  0.42420250  1
  O2-  O152  1  0.56970128  0.18150049  0.76475008  1
  O2-  O153  1  0.57080663  0.68044193  0.09672937  1
  O2-  O154  1  0.57067850  0.67907852  0.43132317  1
  O2-  O155  1  0.56805038  0.67686335  0.76571015  1
  O2-  O156  1  0.17781486  0.43205156  0.24419994  1
  O2-  O157  1  0.18006954  0.42901077  0.57337348  1
  O2-  O158  1  0.17490371  0.43347209  0.90108052  1
  O2-  O159  1  0.17817008  0.92506630  0.24685156  1
  O2-  O160  1  0.18460417  0.92901488  0.56706091  1
  O2-  O161  1  0.18025774  0.92844532  0.90273005  1
  O2-  O162  1  0.67883418  0.43132967  0.23487587  1
  O2-  O163  1  0.67716157  0.43134974  0.56963319  1
  O2-  O164  1  0.68252900  0.43062662  0.90169424  1
  O2-  O165  1  0.68258241  0.92251236  0.24316215  1
  O2-  O166  1  0.67764742  0.92682035  0.57657357  1
  O2-  O167  1  0.68125748  0.92198328  0.90958040  1
  O2-  O168  1  0.42590044  0.32121248  0.08896431  1
  O2-  O169  1  0.42868404  0.31961242  0.43355024  1
  O2-  O170  1  0.41975764  0.32102500  0.75667594  1
  O2-  O171  1  0.42763069  0.82218654  0.08717558  1
  O2-  O172  1  0.42725669  0.81824471  0.43121809  1
  O2-  O173  1  0.42473324  0.81773987  0.75648376  1
  O2-  O174  1  0.92888618  0.31842127  0.09714701  1
  O2-  O175  1  0.92836407  0.32081056  0.42996853  1
  O2-  O176  1  0.93156142  0.32059579  0.76532423  1
  O2-  O177  1  0.93039988  0.82273213  0.09037425  1
  O2-  O178  1  0.93164885  0.82120475  0.42318650  1
  O2-  O179  1  0.93324495  0.82766428  0.75632184  1
  O2-  O180  1  0.32006839  0.07066298  0.23363838  1
  O2-  O181  1  0.32342595  0.07560137  0.57937662  1
  O2-  O182  1  0.32504229  0.06830277  0.90931850  1
  O2-  O183  1  0.31777605  0.56948815  0.24576647  1
  O2-  O184  1  0.31805318  0.57127971  0.57428123  1
  O2-  O185  1  0.31785986  0.57056557  0.90262602  1
  O2-  O186  1  0.81802643  0.06875587  0.23524972  1
  O2-  O187  1  0.82016177  0.06877538  0.56807397  1
  O2-  O188  1  0.81767763  0.07003207  0.90143208  1
  O2-  O189  1  0.82715518  0.57701404  0.24346044  1
  O2-  O190  1  0.82428946  0.56914218  0.56662618  1
  O2-  O191  1  0.82458966  0.57617913  0.91026205  1
  O2-  O192  1  0.04736171  0.07570665  0.27013246  1
  O2-  O193  1  0.04873596  0.08172604  0.60784420  1
  O2-  O194  1  0.04102859  0.08236197  0.93749958  1
  O2-  O195  1  0.04514330  0.58701741  0.26690605  1
  O2-  O196  1  0.04287887  0.58507538  0.59565483  1
  O2-  O197  1  0.04455154  0.58985599  0.93914044  1
  O2-  O198  1  0.55270503  0.08195320  0.27507284  1
  O2-  O199  1  0.54433573  0.08185043  0.59720071  1
  O2-  O200  1  0.54401966  0.08249671  0.93167762  1
  O2-  O201  1  0.53734560  0.58212659  0.26554503  1
  O2-  O202  1  0.53604301  0.58277688  0.59878864  1
  O2-  O203  1  0.53664905  0.58173256  0.93110827  1
  O2-  O204  1  0.16763673  0.20661283  0.26540983  1
  O2-  O205  1  0.16865884  0.20045525  0.60792616  1
  O2-  O206  1  0.16811790  0.19261503  0.93716334  1
  O2-  O207  1  0.16368752  0.70596831  0.26794320  1
  O2-  O208  1  0.16612602  0.71352286  0.59760440  1
  O2-  O209  1  0.16294813  0.71084122  0.94209762  1
  O2-  O210  1  0.66488851  0.20783043  0.27362341  1
  O2-  O211  1  0.66505233  0.21336400  0.59661016  1
  O2-  O212  1  0.66506577  0.21536763  0.93348817  1
  O2-  O213  1  0.67259596  0.70247305  0.26511960  1
  O2-  O214  1  0.67018985  0.70578159  0.59938605  1
  O2-  O215  1  0.66713211  0.70953154  0.92947801  1
  O2-  O216  1  0.08069077  0.46355131  0.07097887  1
  O2-  O217  1  0.08538840  0.45873160  0.39509485  1
  O2-  O218  1  0.08693780  0.45938891  0.72465638  1
  O2-  O219  1  0.08378326  0.95968781  0.07200331  1
  O2-  O220  1  0.08527614  0.94909645  0.39936308  1
  O2-  O221  1  0.08685143  0.95842317  0.73723482  1
  O2-  O222  1  0.58315531  0.45831046  0.06665301  1
  O2-  O223  1  0.58152969  0.46180638  0.40212850  1
  O2-  O224  1  0.57755976  0.45582966  0.73512850  1
  O2-  O225  1  0.58028029  0.94581671  0.05638944  1
  O2-  O226  1  0.58339790  0.94369450  0.39315109  1
  O2-  O227  1  0.58121120  0.94902966  0.72713353  1
  O2-  O228  1  0.19470523  0.32435942  0.06346989  1
  O2-  O229  1  0.20657271  0.33781981  0.39581869  1
  O2-  O230  1  0.20283133  0.33691300  0.72831462  1
  O2-  O231  1  0.20873033  0.83522277  0.07266972  1
  O2-  O232  1  0.20581643  0.83140807  0.39711316  1
  O2-  O233  1  0.21400980  0.83339084  0.73483293  1
  O2-  O234  1  0.71425925  0.33619366  0.06925150  1
  O2-  O235  1  0.70877589  0.33574366  0.40381754  1
  O2-  O236  1  0.71053571  0.33314496  0.73414733  1
  O2-  O237  1  0.70740290  0.83390143  0.06321418  1
  O2-  O238  1  0.70983833  0.83196960  0.39517631  1
  O2-  O239  1  0.70308488  0.83340764  0.72846085  1
  O2-  O240  1  0.45947543  0.41552660  0.26572049  1
  O2-  O241  1  0.44978908  0.41504120  0.60494375  1
  O2-  O242  1  0.45031647  0.41647506  0.93880513  1
  O2-  O243  1  0.45396627  0.92150304  0.26418229  1
  O2-  O244  1  0.44722085  0.91640768  0.60662566  1
  O2-  O245  1  0.44821083  0.91407845  0.93305410  1
  O2-  O246  1  0.95568285  0.41865964  0.26355240  1
  O2-  O247  1  0.96185757  0.41452623  0.59514258  1
  O2-  O248  1  0.96059653  0.41952485  0.93228423  1
  O2-  O249  1  0.96031502  0.91121297  0.26928333  1
  O2-  O250  1  0.96260622  0.91716425  0.60355934  1
  O2-  O251  1  0.96096163  0.91544615  0.93903649  1
  O2-  O252  1  0.33246031  0.29154270  0.26511817  1
  O2-  O253  1  0.33066978  0.29653591  0.60375477  1
  O2-  O254  1  0.33015048  0.29945689  0.93757637  1
  O2-  O255  1  0.33070379  0.79192391  0.26405630  1
  O2-  O256  1  0.33680566  0.79004419  0.60226566  1
  O2-  O257  1  0.33152250  0.79213398  0.93917596  1
  O2-  O258  1  0.82765075  0.28982609  0.26623777  1
  O2-  O259  1  0.83447620  0.28752109  0.59874210  1
  O2-  O260  1  0.83496083  0.28728198  0.93055426  1
  O2-  O261  1  0.84034358  0.79412980  0.26751203  1
  O2-  O262  1  0.83500361  0.80730504  0.60430806  1
  O2-  O263  1  0.83775895  0.80080074  0.93606043  1
  O2-  O264  1  0.41790380  0.04287648  0.06123132  1
  O2-  O265  1  0.41893944  0.04169151  0.40203523  1
  O2-  O266  1  0.41906083  0.04770541  0.72942437  1
  O2-  O267  1  0.41908825  0.54356733  0.07087845  1
  O2-  O268  1  0.41034137  0.54057818  0.39770812  1
  O2-  O269  1  0.41023288  0.54268364  0.72816901  1
  O2-  O270  1  0.91200710  0.03810372  0.07040301  1
  O2-  O271  1  0.91582414  0.03527531  0.40180108  1
  O2-  O272  1  0.91518340  0.04026166  0.73688322  1
  O2-  O273  1  0.91607410  0.55120557  0.06232483  1
  O2-  O274  1  0.91961702  0.54789064  0.39378192  1
  O2-  O275  1  0.92216256  0.54174837  0.73197559  1
  O2-  O276  1  0.30356509  0.16671249  0.05850284  1
  O2-  O277  1  0.28983099  0.16765527  0.40225111  1
  O2-  O278  1  0.30010425  0.16719012  0.73283240  1
  O2-  O279  1  0.28813511  0.66483534  0.07289189  1
  O2-  O280  1  0.29058191  0.66242485  0.39701349  1
  O2-  O281  1  0.29001890  0.66113995  0.72787309  1
  O2-  O282  1  0.78556840  0.16694163  0.06837051  1
  O2-  O283  1  0.78929939  0.16559694  0.40352623  1
  O2-  O284  1  0.78606944  0.16666344  0.73386241  1
  O2-  O285  1  0.79933692  0.67131125  0.05958935  1
  O2-  O286  1  0.80335803  0.66886487  0.39513290  1
  O2-  O287  1  0.80500765  0.67536180  0.72884419  1
