# generated using pymatgen
data_Ca2Al2SiO7
_symmetry_space_group_name_H-M   'P 1'
_cell_length_a   15.45728348
_cell_length_b   15.45685826
_cell_length_c   15.28267355
_cell_angle_alpha   89.99148469
_cell_angle_beta   90.00516426
_cell_angle_gamma   90.01121804
_symmetry_Int_Tables_number   1
_chemical_formula_structural   Ca2Al2SiO7
_chemical_formula_sum   'Ca48 Al48 Si24 O168'
_cell_volume   3651.35213223
_cell_formula_units_Z   24
loop_
 _symmetry_equiv_pos_site_id
 _symmetry_equiv_pos_as_xyz
  1  'x, y, z'
loop_
 _atom_type_symbol
 _atom_type_oxidation_number
  Ca2+  2.0
  Al0+  0.0
  Si0+  0.0
  O2-  -2.0
loop_
 _atom_site_type_symbol
 _atom_site_label
 _atom_site_symmetry_multiplicity
 _atom_site_fract_x
 _atom_site_fract_y
 _atom_site_fract_z
 _atom_site_occupancy
  Ca2+  Ca0  1  0.17702603  0.08894780  0.17540349  1
  Ca2+  Ca1  1  0.17256282  0.07834552  0.50725437  1
  Ca2+  Ca2  1  0.17543833  0.07846632  0.83509393  1
  Ca2+  Ca3  1  0.16388752  0.57745700  0.17214104  1
  Ca2+  Ca4  1  0.15898601  0.57741982  0.50335692  1
  Ca2+  Ca5  1  0.16178536  0.57737262  0.83869116  1
  Ca2+  Ca6  1  0.66549412  0.07813195  0.17013225  1
  Ca2+  Ca7  1  0.67194281  0.08332966  0.50444769  1
  Ca2+  Ca8  1  0.67384944  0.07891143  0.83742590  1
  Ca2+  Ca9  1  0.67310556  0.57532100  0.17287558  1
  Ca2+  Ca10  1  0.67909076  0.59011934  0.50514161  1
  Ca2+  Ca11  1  0.67381811  0.58223234  0.83762172  1
  Ca2+  Ca12  1  0.08519815  0.33634066  0.16402291  1
  Ca2+  Ca13  1  0.08450910  0.33286254  0.49729452  1
  Ca2+  Ca14  1  0.07494538  0.34227086  0.82874701  1
  Ca2+  Ca15  1  0.08130363  0.82049045  0.16476581  1
  Ca2+  Ca16  1  0.08282671  0.82431528  0.49250295  1
  Ca2+  Ca17  1  0.09055300  0.82121793  0.82709888  1
  Ca2+  Ca18  1  0.58512737  0.32871668  0.16187164  1
  Ca2+  Ca19  1  0.57841604  0.32403744  0.49299674  1
  Ca2+  Ca20  1  0.58057825  0.33729241  0.82982241  1
  Ca2+  Ca21  1  0.57711600  0.83432097  0.16413846  1
  Ca2+  Ca22  1  0.57687472  0.82893851  0.49510576  1
  Ca2+  Ca23  1  0.58354329  0.82912852  0.82862613  1
  Ca2+  Ca24  1  0.32209108  0.43014053  0.17334871  1
  Ca2+  Ca25  1  0.31917270  0.41988899  0.50072263  1
  Ca2+  Ca26  1  0.31775117  0.42228798  0.84150493  1
  Ca2+  Ca27  1  0.33462182  0.92415531  0.17256984  1
  Ca2+  Ca28  1  0.33081609  0.92296935  0.50273509  1
  Ca2+  Ca29  1  0.33007581  0.92390351  0.83326361  1
  Ca2+  Ca30  1  0.83349389  0.41751831  0.16768895  1
  Ca2+  Ca31  1  0.84002245  0.42844477  0.50508412  1
  Ca2+  Ca32  1  0.83453865  0.41845974  0.83606666  1
  Ca2+  Ca33  1  0.82781094  0.90849262  0.17132499  1
  Ca2+  Ca34  1  0.84010495  0.92284078  0.50543297  1
  Ca2+  Ca35  1  0.82927919  0.92241694  0.83627771  1
  Ca2+  Ca36  1  0.41787914  0.16203364  0.16523761  1
  Ca2+  Ca37  1  0.41811813  0.16091246  0.49092777  1
  Ca2+  Ca38  1  0.41277047  0.16303384  0.83066684  1
  Ca2+  Ca39  1  0.40424872  0.66986527  0.16440387  1
  Ca2+  Ca40  1  0.41943546  0.67073181  0.49215955  1
  Ca2+  Ca41  1  0.42445731  0.65957243  0.82712602  1
  Ca2+  Ca42  1  0.92901251  0.17284321  0.16105467  1
  Ca2+  Ca43  1  0.92160736  0.17209743  0.49420715  1
  Ca2+  Ca44  1  0.91285201  0.17968272  0.82629299  1
  Ca2+  Ca45  1  0.92704375  0.66016486  0.16827476  1
  Ca2+  Ca46  1  0.92435277  0.66581553  0.49379005  1
  Ca2+  Ca47  1  0.92791137  0.66178997  0.82641114  1
  Al0+  Al48  1  0.00085767  0.00003060  -0.00167755  1
  Al0+  Al49  1  -0.00103195  0.00118682  0.32309617  1
  Al0+  Al50  1  0.00070543  0.00097756  0.67893215  1
  Al0+  Al51  1  -0.00051534  0.49964303  -0.00431950  1
  Al0+  Al52  1  -0.00285081  0.49932499  0.33701775  1
  Al0+  Al53  1  -0.00210430  0.50063673  0.66621568  1
  Al0+  Al54  1  0.50197961  -0.00078450  0.00439580  1
  Al0+  Al55  1  0.50114414  -0.00147475  0.32984977  1
  Al0+  Al56  1  0.50049849  -0.00006734  0.66940830  1
  Al0+  Al57  1  0.50112658  0.49933112  0.00695751  1
  Al0+  Al58  1  0.49946244  0.49805892  0.33742496  1
  Al0+  Al59  1  0.50070178  0.49845754  0.65695389  1
  Al0+  Al60  1  0.25161420  0.25028733  0.00611719  1
  Al0+  Al61  1  0.25152200  0.25158556  0.33726101  1
  Al0+  Al62  1  0.24903443  0.25189561  0.67488730  1
  Al0+  Al63  1  0.25073348  0.75347188  -0.00498061  1
  Al0+  Al64  1  0.25068478  0.75097995  0.32775570  1
  Al0+  Al65  1  0.25204445  0.74986113  0.66463498  1
  Al0+  Al66  1  0.75089107  0.24911097  -0.00062230  1
  Al0+  Al67  1  0.74855935  0.24783303  0.32862239  1
  Al0+  Al68  1  0.74896356  0.25090843  0.66479775  1
  Al0+  Al69  1  0.74947844  0.75116958  0.00379709  1
  Al0+  Al70  1  0.74739022  0.74934542  0.33470670  1
  Al0+  Al71  1  0.75071020  0.74964986  0.66760786  1
  Al0+  Al72  1  0.32218872  0.07144540  0.68141243  1
  Al0+  Al73  1  0.07293336  0.17981095  0.32183624  1
  Al0+  Al74  1  0.92816321  0.32005340  0.65121363  1
  Al0+  Al75  1  0.82155433  0.07369173  0.67918057  1
  Al0+  Al76  1  0.17833068  0.92566931  0.68081134  1
  Al0+  Al77  1  0.17832993  0.43170235  0.68181768  1
  Al0+  Al78  1  0.17770735  0.43045526  0.35046065  1
  Al0+  Al79  1  0.07014568  0.67725105  0.31844147  1
  Al0+  Al80  1  0.31994396  0.06936831  0.01592125  1
  Al0+  Al81  1  0.17634654  0.43098573  0.01574204  1
  Al0+  Al82  1  0.32134174  0.57511622  0.35050902  1
  Al0+  Al83  1  0.57070609  0.17870668  0.31849715  1
  Al0+  Al84  1  0.81780841  0.56993574  0.34732108  1
  Al0+  Al85  1  0.32222247  0.57324229  0.01251225  1
  Al0+  Al86  1  0.81965118  0.57119166  0.68134071  1
  Al0+  Al87  1  0.93013081  0.31845098  0.98539962  1
  Al0+  Al88  1  0.42970353  0.81941527  0.31906523  1
  Al0+  Al89  1  0.06986792  0.68128806  0.98457164  1
  Al0+  Al90  1  0.07107753  0.68017685  0.65234188  1
  Al0+  Al91  1  0.32139839  0.06930220  0.34669590  1
  Al0+  Al92  1  0.68144795  0.92910446  0.01469604  1
  Al0+  Al93  1  0.67908312  0.42766928  0.01265736  1
  Al0+  Al94  1  0.57273921  0.67803612  0.65298188  1
  Al0+  Al95  1  0.92658686  0.82251116  0.31923273  1
  Si0+  Si96  1  0.82184022  0.07112222  0.34599660  1
  Si0+  Si97  1  0.17541109  0.92926065  0.34655629  1
  Si0+  Si98  1  0.42828341  0.32241247  0.31503938  1
  Si0+  Si99  1  0.56951171  0.17844599  0.65311079  1
  Si0+  Si100  1  0.57148432  0.67607820  0.31576331  1
  Si0+  Si101  1  0.67762747  0.42395157  0.35135812  1
  Si0+  Si102  1  0.67626339  0.42778892  0.68084069  1
  Si0+  Si103  1  0.82156145  0.57161511  0.01626951  1
  Si0+  Si104  1  0.32494376  0.57153425  0.68054603  1
  Si0+  Si105  1  0.43034889  0.32158641  0.98581057  1
  Si0+  Si106  1  0.07268704  0.17753431  0.65312533  1
  Si0+  Si107  1  0.67870267  0.92862019  0.68205641  1
  Si0+  Si108  1  0.57174734  0.67785254  0.98673154  1
  Si0+  Si109  1  0.17686982  0.92754084  0.01823981  1
  Si0+  Si110  1  0.43143025  0.82286414  0.98303830  1
  Si0+  Si111  1  0.07628953  0.17704954  0.98154691  1
  Si0+  Si112  1  0.92757983  0.32124695  0.31689270  1
  Si0+  Si113  1  0.57013495  0.17811200  0.98308811  1
  Si0+  Si114  1  0.92809271  0.82475109  0.65366724  1
  Si0+  Si115  1  0.92498445  0.82299066  0.98146065  1
  Si0+  Si116  1  0.42630487  0.32041188  0.65185831  1
  Si0+  Si117  1  0.67911222  0.92956166  0.34948186  1
  Si0+  Si118  1  0.82268579  0.07248876  0.01804413  1
  Si0+  Si119  1  0.43000434  0.82311393  0.64991028  1
  O2-  O120  1  0.24117371  -0.00020432  0.06307149  1
  O2-  O121  1  0.24363195  -0.00211802  0.39235988  1
  O2-  O122  1  0.24995336  -0.00071432  0.73008523  1
  O2-  O123  1  0.24685572  0.50558658  0.06320256  1
  O2-  O124  1  0.24626671  0.50646234  0.40033771  1
  O2-  O125  1  0.25328015  0.50757903  0.72640716  1
  O2-  O126  1  0.75921280  -0.00039654  0.06315849  1
  O2-  O127  1  0.75392667  -0.00247575  0.39001708  1
  O2-  O128  1  0.74806464  -0.00296480  0.72541956  1
  O2-  O129  1  0.75296789  0.50234948  0.05968664  1
  O2-  O130  1  0.74341879  0.49479220  0.39537362  1
  O2-  O131  1  0.74273875  0.49752016  0.72620556  1
  O2-  O132  1  -0.00068065  0.25540126  0.27395441  1
  O2-  O133  1  0.00258310  0.24377726  0.60702001  1
  O2-  O134  1  0.00617972  0.24468207  0.93800116  1
  O2-  O135  1  -0.00216958  0.75008442  0.26913854  1
  O2-  O136  1  -0.00124080  0.75916483  0.60877117  1
  O2-  O137  1  -0.00481155  0.75669728  0.93703833  1
  O2-  O138  1  0.49790615  0.25428983  0.27048599  1
  O2-  O139  1  0.49531268  0.24591902  0.61095710  1
  O2-  O140  1  0.49991877  0.24956477  0.94060905  1
  O2-  O141  1  0.49836194  0.73909802  0.27054145  1
  O2-  O142  1  0.49694117  0.75197641  0.60705105  1
  O2-  O143  1  0.49843617  0.74643869  0.94297218  1
  O2-  O144  1  0.07485865  0.17688330  0.08738966  1
  O2-  O145  1  0.06895624  0.17663736  0.43503455  1
  O2-  O146  1  0.07238267  0.17968185  0.75873154  1
  O2-  O147  1  0.06798633  0.68070562  0.09736292  1
  O2-  O148  1  0.06795159  0.67837689  0.43209306  1
  O2-  O149  1  0.06917304  0.67958192  0.76568890  1
  O2-  O150  1  0.56995764  0.17788864  0.08805664  1
  O2-  O151  1  0.57163145  0.17919362  0.43222248  1
  O2-  O152  1  0.57083069  0.17895921  0.75835003  1
  O2-  O153  1  0.57421934  0.67968157  0.09142910  1
  O2-  O154  1  0.57362387  0.68145727  0.42142586  1
  O2-  O155  1  0.57130643  0.67833036  0.76695439  1
  O2-  O156  1  0.17867245  0.43003579  0.23701043  1
  O2-  O157  1  0.18022069  0.42878398  0.56923529  1
  O2-  O158  1  0.17715670  0.43186700  0.90191702  1
  O2-  O159  1  0.17704320  0.93136847  0.24085597  1
  O2-  O160  1  0.17824051  0.92737108  0.56695788  1
  O2-  O161  1  0.18028612  0.92706600  0.91262500  1
  O2-  O162  1  0.67952299  0.42336173  0.24547384  1
  O2-  O163  1  0.67632662  0.42575624  0.57552858  1
  O2-  O164  1  0.67706566  0.43023651  0.89948206  1
  O2-  O165  1  0.67856731  0.93079173  0.24429771  1
  O2-  O166  1  0.67634715  0.93081892  0.57649157  1
  O2-  O167  1  0.68075606  0.93137535  0.90124436  1
  O2-  O168  1  0.43342426  0.31997869  0.09048157  1
  O2-  O169  1  0.43018144  0.32029461  0.42115767  1
  O2-  O170  1  0.42963647  0.32306300  0.75717856  1
  O2-  O171  1  0.43378820  0.82495269  0.08797104  1
  O2-  O172  1  0.43537120  0.82322590  0.43219926  1
  O2-  O173  1  0.43303591  0.82545394  0.75578501  1
  O2-  O174  1  0.92863542  0.31614723  0.09860655  1
  O2-  O175  1  0.92444861  0.31829774  0.42243221  1
  O2-  O176  1  0.92674739  0.31906225  0.76443147  1
  O2-  O177  1  0.92364900  0.82131658  0.08676808  1
  O2-  O178  1  0.92849061  0.82557383  0.43302873  1
  O2-  O179  1  0.92513748  0.82212464  0.75926803  1
  O2-  O180  1  0.32192529  0.06703486  0.23361625  1
  O2-  O181  1  0.32446565  0.06951225  0.56800285  1
  O2-  O182  1  0.32166761  0.06657695  0.90283231  1
  O2-  O183  1  0.32123878  0.57168330  0.23702479  1
  O2-  O184  1  0.32633556  0.56899905  0.57542019  1
  O2-  O185  1  0.32712091  0.56796128  0.89871772  1
  O2-  O186  1  0.81875699  0.07271042  0.24113794  1
  O2-  O187  1  0.81938705  0.07276992  0.56559103  1
  O2-  O188  1  0.81769367  0.07334954  0.91225747  1
  O2-  O189  1  0.81659014  0.56717644  0.23385234  1
  O2-  O190  1  0.81866761  0.57107436  0.56839305  1
  O2-  O191  1  0.81915546  0.57246854  0.91053842  1
  O2-  O192  1  0.04112119  0.08673349  0.26139871  1
  O2-  O193  1  0.04886810  0.08178537  0.61091402  1
  O2-  O194  1  0.05240089  0.08192031  0.93686418  1
  O2-  O195  1  0.03654143  0.57943328  0.26646716  1
  O2-  O196  1  0.03425321  0.58574257  0.59907124  1
  O2-  O197  1  0.03724221  0.58529894  0.93038045  1
  O2-  O198  1  0.53985845  0.08312884  0.26342033  1
  O2-  O199  1  0.54564310  0.08526414  0.60581734  1
  O2-  O200  1  0.54097788  0.08621610  0.93626384  1
  O2-  O201  1  0.55377939  0.57855686  0.27504577  1
  O2-  O202  1  0.54601532  0.58194950  0.59577187  1
  O2-  O203  1  0.54584098  0.58491347  0.94009801  1
  O2-  O204  1  0.17000505  0.21029304  0.26870445  1
  O2-  O205  1  0.16655911  0.20527844  0.60839534  1
  O2-  O206  1  0.17092621  0.20241437  0.93779299  1
  O2-  O207  1  0.16818508  0.70461853  0.26491855  1
  O2-  O208  1  0.16993310  0.70575216  0.60000981  1
  O2-  O209  1  0.16683242  0.71241044  0.92999930  1
  O2-  O210  1  0.66681462  0.20756993  0.26139504  1
  O2-  O211  1  0.65933851  0.20886328  0.60328032  1
  O2-  O212  1  0.66241032  0.20522931  0.93627590  1
  O2-  O213  1  0.66250276  0.70718328  0.26793734  1
  O2-  O214  1  0.66818734  0.71237946  0.59854087  1
  O2-  O215  1  0.66298130  0.70874742  0.93866675  1
  O2-  O216  1  0.07700817  0.45764118  0.06702518  1
  O2-  O217  1  0.07758885  0.45323270  0.40209969  1
  O2-  O218  1  0.08200623  0.46356548  0.73438384  1
  O2-  O219  1  0.08031512  0.94672842  0.06081663  1
  O2-  O220  1  0.08095865  0.95514381  0.39038496  1
  O2-  O221  1  0.08177757  0.95092244  0.73938257  1
  O2-  O222  1  0.58491021  0.45723179  0.07118337  1
  O2-  O223  1  0.58273532  0.44465045  0.39632166  1
  O2-  O224  1  0.58118189  0.45186778  0.72513455  1
  O2-  O225  1  0.58741306  0.96402832  0.07050389  1
  O2-  O226  1  0.58997698  0.96293476  0.39791896  1
  O2-  O227  1  0.58656063  0.95533793  0.73072128  1
  O2-  O228  1  0.20619387  0.33280469  0.06741142  1
  O2-  O229  1  0.21140734  0.33377228  0.40466690  1
  O2-  O230  1  0.20896560  0.33646850  0.73851906  1
  O2-  O231  1  0.20767672  0.83579058  0.06400971  1
  O2-  O232  1  0.20185531  0.83559462  0.39084288  1
  O2-  O233  1  0.21163243  0.82876990  0.73542412  1
  O2-  O234  1  0.70963796  0.33076424  0.06644850  1
  O2-  O235  1  0.70457849  0.32984175  0.39624191  1
  O2-  O236  1  0.70199190  0.33486624  0.72828587  1
  O2-  O237  1  0.70732695  0.83211410  0.07093790  1
  O2-  O238  1  0.70113628  0.83661291  0.39670983  1
  O2-  O239  1  0.70376461  0.83568164  0.72926772  1
  O2-  O240  1  0.45434509  0.41635555  0.26977159  1
  O2-  O241  1  0.45647934  0.40873705  0.59913220  1
  O2-  O242  1  0.46134316  0.41267793  0.93832835  1
  O2-  O243  1  0.46834384  0.91249658  0.26263500  1
  O2-  O244  1  0.45964490  0.91583342  0.60310081  1
  O2-  O245  1  0.46759265  0.91199061  0.93502565  1
  O2-  O246  1  0.95010133  0.41536960  0.27178123  1
  O2-  O247  1  0.96040248  0.41593004  0.59817314  1
  O2-  O248  1  0.95725746  0.41568213  0.93080174  1
  O2-  O249  1  0.95082136  0.91981383  0.26130993  1
  O2-  O250  1  0.95033796  0.92122726  0.61169308  1
  O2-  O251  1  0.94673222  0.91906426  0.93766571  1
  O2-  O252  1  0.33543897  0.29572228  0.26959442  1
  O2-  O253  1  0.33364062  0.29376576  0.60638654  1
  O2-  O254  1  0.33778292  0.29380734  0.93937707  1
  O2-  O255  1  0.33252921  0.79738757  0.26206591  1
  O2-  O256  1  0.33648878  0.80035751  0.60354041  1
  O2-  O257  1  0.33844229  0.80269266  0.93510353  1
  O2-  O258  1  0.83531187  0.29258927  0.26925519  1
  O2-  O259  1  0.83101795  0.29008954  0.59702506  1
  O2-  O260  1  0.83329930  0.28600074  0.93064826  1
  O2-  O261  1  0.82670309  0.79395777  0.26842616  1
  O2-  O262  1  0.83456564  0.79970427  0.60689344  1
  O2-  O263  1  0.83058012  0.79714000  0.93609077  1
  O2-  O264  1  0.41621306  0.03553807  0.06836220  1
  O2-  O265  1  0.41822608  0.03523310  0.39890898  1
  O2-  O266  1  0.42070949  0.04275657  0.73577831  1
  O2-  O267  1  0.41872284  0.54389209  0.06867943  1
  O2-  O268  1  0.42055042  0.54462290  0.40245840  1
  O2-  O269  1  0.41852373  0.54119428  0.72509606  1
  O2-  O270  1  0.91945582  0.05292544  0.05970744  1
  O2-  O271  1  0.91469962  0.04559984  0.39200621  1
  O2-  O272  1  0.91599109  0.04793126  0.73894699  1
  O2-  O273  1  0.91402283  0.54300140  0.06119551  1
  O2-  O274  1  0.91290986  0.53901214  0.40307393  1
  O2-  O275  1  0.91383703  0.53674458  0.73628558  1
  O2-  O276  1  0.29583434  0.16742644  0.06979017  1
  O2-  O277  1  0.29663095  0.16727588  0.39959258  1
  O2-  O278  1  0.29516403  0.16898016  0.73658446  1
  O2-  O279  1  0.29920980  0.67525122  0.05924345  1
  O2-  O280  1  0.30039052  0.67716464  0.39880851  1
  O2-  O281  1  0.30726521  0.66759592  0.72391715  1
  O2-  O282  1  0.79166961  0.16342590  0.06522474  1
  O2-  O283  1  0.79039294  0.16186549  0.39396806  1
  O2-  O284  1  0.78433427  0.16790259  0.73430413  1
  O2-  O285  1  0.79563600  0.66462572  0.06251516  1
  O2-  O286  1  0.78577699  0.66635918  0.40176658  1
  O2-  O287  1  0.78959392  0.66772169  0.73638777  1
