# generated using pymatgen
data_Ca2Al2SiO7
_symmetry_space_group_name_H-M   'P 1'
_cell_length_a   15.46388240
_cell_length_b   15.46691232
_cell_length_c   15.28952113
_cell_angle_alpha   90.01255771
_cell_angle_beta   90.00559006
_cell_angle_gamma   89.99994958
_symmetry_Int_Tables_number   1
_chemical_formula_structural   Ca2Al2SiO7
_chemical_formula_sum   'Ca48 Al48 Si24 O168'
_cell_volume   3656.92482545
_cell_formula_units_Z   24
loop_
 _symmetry_equiv_pos_site_id
 _symmetry_equiv_pos_as_xyz
  1  'x, y, z'
loop_
 _atom_type_symbol
 _atom_type_oxidation_number
  Ca2+  2.0
  Al0+  0.0
  Si0+  0.0
  O2-  -2.0
loop_
 _atom_site_type_symbol
 _atom_site_label
 _atom_site_symmetry_multiplicity
 _atom_site_fract_x
 _atom_site_fract_y
 _atom_site_fract_z
 _atom_site_occupancy
  Ca2+  Ca0  1  0.17509901  0.07823676  0.17249275  1
  Ca2+  Ca1  1  0.16921969  0.06640176  0.50329932  1
  Ca2+  Ca2  1  0.17179276  0.07362533  0.84407502  1
  Ca2+  Ca3  1  0.16545301  0.57725205  0.17920116  1
  Ca2+  Ca4  1  0.16446562  0.58849432  0.49901920  1
  Ca2+  Ca5  1  0.16322374  0.58620078  0.83220024  1
  Ca2+  Ca6  1  0.66675287  0.07823117  0.16808796  1
  Ca2+  Ca7  1  0.66828909  0.08255188  0.50834739  1
  Ca2+  Ca8  1  0.66955407  0.07817100  0.83082333  1
  Ca2+  Ca9  1  0.67316848  0.57754312  0.17174941  1
  Ca2+  Ca10  1  0.67631541  0.58679353  0.50107832  1
  Ca2+  Ca11  1  0.66760608  0.57336498  0.84381733  1
  Ca2+  Ca12  1  0.08449088  0.32846002  0.15805043  1
  Ca2+  Ca13  1  0.08096886  0.33309291  0.49642536  1
  Ca2+  Ca14  1  0.07505070  0.32256105  0.83060534  1
  Ca2+  Ca15  1  0.07767312  0.83722676  0.16415908  1
  Ca2+  Ca16  1  0.08416984  0.82761247  0.49163343  1
  Ca2+  Ca17  1  0.08435643  0.83452800  0.82981905  1
  Ca2+  Ca18  1  0.58481032  0.32780141  0.16352014  1
  Ca2+  Ca19  1  0.58414731  0.31808401  0.49441793  1
  Ca2+  Ca20  1  0.58509825  0.32737948  0.82682987  1
  Ca2+  Ca21  1  0.56985342  0.83724257  0.16021125  1
  Ca2+  Ca22  1  0.56999096  0.84580308  0.49683332  1
  Ca2+  Ca23  1  0.57233821  0.85048354  0.83163323  1
  Ca2+  Ca24  1  0.32520321  0.42568392  0.17848747  1
  Ca2+  Ca25  1  0.32805330  0.42268011  0.49676171  1
  Ca2+  Ca26  1  0.33345693  0.42167296  0.83912200  1
  Ca2+  Ca27  1  0.32475831  0.91914174  0.17061415  1
  Ca2+  Ca28  1  0.32632847  0.90877669  0.50088911  1
  Ca2+  Ca29  1  0.32505862  0.91481096  0.83962872  1
  Ca2+  Ca30  1  0.83308476  0.41913224  0.17018225  1
  Ca2+  Ca31  1  0.84036588  0.42353013  0.50313960  1
  Ca2+  Ca32  1  0.83335806  0.41278047  0.83890563  1
  Ca2+  Ca33  1  0.82961698  0.90551241  0.17034070  1
  Ca2+  Ca34  1  0.82634118  0.92070853  0.51008959  1
  Ca2+  Ca35  1  0.82305120  0.91619028  0.84097839  1
  Ca2+  Ca36  1  0.41790294  0.15584495  0.16493074  1
  Ca2+  Ca37  1  0.42830653  0.15612438  0.49267957  1
  Ca2+  Ca38  1  0.42270027  0.15901620  0.82972959  1
  Ca2+  Ca39  1  0.40547843  0.67923697  0.16630286  1
  Ca2+  Ca40  1  0.41601577  0.67691783  0.49362021  1
  Ca2+  Ca41  1  0.41804009  0.68095398  0.82867941  1
  Ca2+  Ca42  1  0.92924128  0.17272450  0.15577354  1
  Ca2+  Ca43  1  0.90903259  0.17193174  0.49882299  1
  Ca2+  Ca44  1  0.91027420  0.17530428  0.83098426  1
  Ca2+  Ca45  1  0.91832812  0.67423523  0.16932796  1
  Ca2+  Ca46  1  0.92546445  0.67247351  0.49035063  1
  Ca2+  Ca47  1  0.92203106  0.67642630  0.83130453  1
  Al0+  Al48  1  -0.00016995  -0.00103317  -0.00578681  1
  Al0+  Al49  1  -0.00141215  0.00268824  0.33368511  1
  Al0+  Al50  1  0.00037506  0.00276383  0.67566353  1
  Al0+  Al51  1  0.00006715  0.50070922  -0.00381229  1
  Al0+  Al52  1  -0.00287176  0.50050187  0.33751349  1
  Al0+  Al53  1  0.00071128  0.49965551  0.66168647  1
  Al0+  Al54  1  0.50172255  0.00030280  0.00210768  1
  Al0+  Al55  1  0.50180470  -0.00071689  0.32536503  1
  Al0+  Al56  1  0.49979939  0.00149069  0.66069605  1
  Al0+  Al57  1  0.50208335  0.49907481  0.00558979  1
  Al0+  Al58  1  0.50000388  0.49670689  0.33863700  1
  Al0+  Al59  1  0.49926535  0.50166272  0.66568864  1
  Al0+  Al60  1  0.25234903  0.25124052  -0.00204088  1
  Al0+  Al61  1  0.25216896  0.25044061  0.34302114  1
  Al0+  Al62  1  0.24863202  0.25233193  0.66662852  1
  Al0+  Al63  1  0.25112460  0.75105320  -0.00185285  1
  Al0+  Al64  1  0.24983278  0.74817403  0.33162987  1
  Al0+  Al65  1  0.25104765  0.74931007  0.66418936  1
  Al0+  Al66  1  0.74888236  0.24999009  0.00180463  1
  Al0+  Al67  1  0.74815744  0.24816787  0.32667443  1
  Al0+  Al68  1  0.74914402  0.25141633  0.66108855  1
  Al0+  Al69  1  0.75089242  0.74745818  0.00047269  1
  Al0+  Al70  1  0.74840849  0.74817315  0.33653183  1
  Al0+  Al71  1  0.74901022  0.74885554  0.67411949  1
  Al0+  Al72  1  0.17679365  0.92940591  0.34783239  1
  Al0+  Al73  1  0.07497905  0.17805130  0.98489616  1
  Al0+  Al74  1  0.93020742  0.31815944  0.65103598  1
  Al0+  Al75  1  0.57011672  0.17910918  0.31515746  1
  Al0+  Al76  1  0.68106249  0.92870355  0.01551412  1
  Al0+  Al77  1  0.92738817  0.82395838  0.32136238  1
  Al0+  Al78  1  0.07015101  0.67862962  0.31802831  1
  Al0+  Al79  1  0.81851923  0.57052586  0.34821118  1
  Al0+  Al80  1  0.06863195  0.68186284  0.65269671  1
  Al0+  Al81  1  0.32136190  0.07207885  0.01378917  1
  Al0+  Al82  1  0.17641674  0.42825488  0.34927883  1
  Al0+  Al83  1  0.32428995  0.06881888  0.34962815  1
  Al0+  Al84  1  0.43068200  0.82100997  0.98513919  1
  Al0+  Al85  1  0.18047404  0.92690840  0.68105271  1
  Al0+  Al86  1  0.92887535  0.32103781  0.98593083  1
  Al0+  Al87  1  0.67953369  0.42710622  0.01445055  1
  Al0+  Al88  1  0.43214258  0.81966819  0.65271977  1
  Al0+  Al89  1  0.56722266  0.18222761  0.65325003  1
  Al0+  Al90  1  0.67770309  0.92877154  0.68145503  1
  Al0+  Al91  1  0.42990342  0.81877268  0.31756384  1
  Al0+  Al92  1  0.32173537  0.57243378  0.34940582  1
  Al0+  Al93  1  0.82066424  0.07420939  0.68167081  1
  Al0+  Al94  1  0.17671097  0.92705141  0.01570521  1
  Al0+  Al95  1  0.92725914  0.82074319  0.98553216  1
  Si0+  Si96  1  0.43051241  0.32439090  0.98598848  1
  Si0+  Si97  1  0.57194576  0.67610858  0.98508318  1
  Si0+  Si98  1  0.67925610  0.42441194  0.35199942  1
  Si0+  Si99  1  0.92526135  0.82453555  0.65331055  1
  Si0+  Si100  1  0.42740799  0.32214876  0.31630774  1
  Si0+  Si101  1  0.42487440  0.32679802  0.64877147  1
  Si0+  Si102  1  0.17748700  0.42919635  0.68450618  1
  Si0+  Si103  1  0.07274329  0.18026194  0.32128026  1
  Si0+  Si104  1  0.07313439  0.67827412  0.98352990  1
  Si0+  Si105  1  0.32185680  0.57084532  0.01298831  1
  Si0+  Si106  1  0.17934918  0.43074306  0.01139430  1
  Si0+  Si107  1  0.82363328  0.57029473  0.68354673  1
  Si0+  Si108  1  0.67958298  0.43135249  0.67926677  1
  Si0+  Si109  1  0.57041205  0.17968449  0.98354992  1
  Si0+  Si110  1  0.32133284  0.07314997  0.68119874  1
  Si0+  Si111  1  0.57379640  0.67368731  0.65075389  1
  Si0+  Si112  1  0.82039939  0.07300713  0.34564145  1
  Si0+  Si113  1  0.32082257  0.57023250  0.68331806  1
  Si0+  Si114  1  0.07482035  0.17654166  0.64825855  1
  Si0+  Si115  1  0.92878311  0.32054371  0.31842747  1
  Si0+  Si116  1  0.82394833  0.57092395  0.01715550  1
  Si0+  Si117  1  0.57268191  0.67409274  0.31749862  1
  Si0+  Si118  1  0.82183625  0.07252837  0.01734823  1
  Si0+  Si119  1  0.68022784  0.92908912  0.34650050  1
  O2-  O120  1  0.24645098  0.00287572  0.06299372  1
  O2-  O121  1  0.25211384  -0.00248380  0.39965821  1
  O2-  O122  1  0.25159890  0.00651577  0.72581686  1
  O2-  O123  1  0.24860264  0.50223094  0.05446189  1
  O2-  O124  1  0.24628867  0.50313238  0.39897138  1
  O2-  O125  1  0.25112204  0.49800840  0.72670489  1
  O2-  O126  1  0.75937907  -0.00090843  0.06356655  1
  O2-  O127  1  0.75447213  -0.00284661  0.38725673  1
  O2-  O128  1  0.75482545  -0.00407577  0.73108078  1
  O2-  O129  1  0.75616455  0.50005078  0.05967450  1
  O2-  O130  1  0.74478031  0.49523464  0.39700939  1
  O2-  O131  1  0.74792410  0.50329716  0.72444629  1
  O2-  O132  1  0.00429022  0.25400311  0.27802915  1
  O2-  O133  1  0.00256524  0.24174159  0.60350186  1
  O2-  O134  1  -0.00158245  0.24688534  0.93581418  1
  O2-  O135  1  0.00206829  0.75509831  0.26980911  1
  O2-  O136  1  -0.00450316  0.75878470  0.60772307  1
  O2-  O137  1  0.00671270  0.74983263  0.94060326  1
  O2-  O138  1  0.49294102  0.25199437  0.26961355  1
  O2-  O139  1  0.48989240  0.25439471  0.60594099  1
  O2-  O140  1  0.49833921  0.25086216  0.94267033  1
  O2-  O141  1  0.50163158  0.73928262  0.27240839  1
  O2-  O142  1  0.51164262  0.74836698  0.60777256  1
  O2-  O143  1  0.50754130  0.74735873  0.93883276  1
  O2-  O144  1  0.07566395  0.18405415  0.09927956  1
  O2-  O145  1  0.06868872  0.17951498  0.42623123  1
  O2-  O146  1  0.07965393  0.18219310  0.75322262  1
  O2-  O147  1  0.07267821  0.67255165  0.08834875  1
  O2-  O148  1  0.06626368  0.67905472  0.43172152  1
  O2-  O149  1  0.06684597  0.67957452  0.76622454  1
  O2-  O150  1  0.57104063  0.18083195  0.08846559  1
  O2-  O151  1  0.57331041  0.18116151  0.42825168  1
  O2-  O152  1  0.56695442  0.18451530  0.76670462  1
  O2-  O153  1  0.56954790  0.67403698  0.09039868  1
  O2-  O154  1  0.57437559  0.67677402  0.42325105  1
  O2-  O155  1  0.56875265  0.66291005  0.75560092  1
  O2-  O156  1  0.17794874  0.42733292  0.23476124  1
  O2-  O157  1  0.17726049  0.42890267  0.58001873  1
  O2-  O158  1  0.18077493  0.43214188  0.90609237  1
  O2-  O159  1  0.17418152  0.93390383  0.23478428  1
  O2-  O160  1  0.18192883  0.92470174  0.56820272  1
  O2-  O161  1  0.18265777  0.92433525  0.90174964  1
  O2-  O162  1  0.68176342  0.42412013  0.24630957  1
  O2-  O163  1  0.68041918  0.43300620  0.57444361  1
  O2-  O164  1  0.67720676  0.42889427  0.90070984  1
  O2-  O165  1  0.68032437  0.92936868  0.24137467  1
  O2-  O166  1  0.67716777  0.93097887  0.56737759  1
  O2-  O167  1  0.67884956  0.93361155  0.90273403  1
  O2-  O168  1  0.43191630  0.32857154  0.09042979  1
  O2-  O169  1  0.43142238  0.32372410  0.42185132  1
  O2-  O170  1  0.42764602  0.33091886  0.75475748  1
  O2-  O171  1  0.42951564  0.81843109  0.09786014  1
  O2-  O172  1  0.43350452  0.81991428  0.43087583  1
  O2-  O173  1  0.43217958  0.81834906  0.76596159  1
  O2-  O174  1  0.93207557  0.32224419  0.09984087  1
  O2-  O175  1  0.92591190  0.31757531  0.42356404  1
  O2-  O176  1  0.93021856  0.31943239  0.76392699  1
  O2-  O177  1  0.92397927  0.81529234  0.09815157  1
  O2-  O178  1  0.92426059  0.82314775  0.43509686  1
  O2-  O179  1  0.92426755  0.81902772  0.75884435  1
  O2-  O180  1  0.32131931  0.06870791  0.23621954  1
  O2-  O181  1  0.32098259  0.07244648  0.57593221  1
  O2-  O182  1  0.32301435  0.07117874  0.89976566  1
  O2-  O183  1  0.32221878  0.56817950  0.23518051  1
  O2-  O184  1  0.32175083  0.56897267  0.57895529  1
  O2-  O185  1  0.32335788  0.56804470  0.90743651  1
  O2-  O186  1  0.81864177  0.07725984  0.24093891  1
  O2-  O187  1  0.81631552  0.07468247  0.56741859  1
  O2-  O188  1  0.81539661  0.07603656  0.91209934  1
  O2-  O189  1  0.81707407  0.56786170  0.23511390  1
  O2-  O190  1  0.82301084  0.56965013  0.57855555  1
  O2-  O191  1  0.82272376  0.57047238  0.91116352  1
  O2-  O192  1  0.04179103  0.09110185  0.27119792  1
  O2-  O193  1  0.05210431  0.08069142  0.60621144  1
  O2-  O194  1  0.05183678  0.07880668  0.93307348  1
  O2-  O195  1  0.03620544  0.58033458  0.26659992  1
  O2-  O196  1  0.03756129  0.58559211  0.59875932  1
  O2-  O197  1  0.04471835  0.58629364  0.93401379  1
  O2-  O198  1  0.54208850  0.08332747  0.25919770  1
  O2-  O199  1  0.53926289  0.08669804  0.59607548  1
  O2-  O200  1  0.54240165  0.08850017  0.93599531  1
  O2-  O201  1  0.55237335  0.57733491  0.27541517  1
  O2-  O202  1  0.54336025  0.58362011  0.59927592  1
  O2-  O203  1  0.54249195  0.58306870  0.93813194  1
  O2-  O204  1  0.16620569  0.20718291  0.27718498  1
  O2-  O205  1  0.16668541  0.20722678  0.60059144  1
  O2-  O206  1  0.17108995  0.21241720  0.92959645  1
  O2-  O207  1  0.17084934  0.69708659  0.26725132  1
  O2-  O208  1  0.16664402  0.70826870  0.60045247  1
  O2-  O209  1  0.16702698  0.70122336  0.93633327  1
  O2-  O210  1  0.66483001  0.21337562  0.25861159  1
  O2-  O211  1  0.66147946  0.21665848  0.59710331  1
  O2-  O212  1  0.66134932  0.20988693  0.93655161  1
  O2-  O213  1  0.66522883  0.70163502  0.27076962  1
  O2-  O214  1  0.67107290  0.69344805  0.61020671  1
  O2-  O215  1  0.66729972  0.69474250  0.94041388  1
  O2-  O216  1  0.08692807  0.45687787  0.05837630  1
  O2-  O217  1  0.07747152  0.45322550  0.40206259  1
  O2-  O218  1  0.08675451  0.46126930  0.73132647  1
  O2-  O219  1  0.07479913  0.94929747  0.06324480  1
  O2-  O220  1  0.07921687  0.96186090  0.40215384  1
  O2-  O221  1  0.08275184  0.95288411  0.73503456  1
  O2-  O222  1  0.58488388  0.45974507  0.07174149  1
  O2-  O223  1  0.58450023  0.44429746  0.39716236  1
  O2-  O224  1  0.58628542  0.45618616  0.72654060  1
  O2-  O225  1  0.58649264  0.96405621  0.06998941  1
  O2-  O226  1  0.59011149  0.96265172  0.39249418  1
  O2-  O227  1  0.58076994  0.96612129  0.73258070  1
  O2-  O228  1  0.20842153  0.33996921  0.05913004  1
  O2-  O229  1  0.20756180  0.33278000  0.40710299  1
  O2-  O230  1  0.20386770  0.33703096  0.73254870  1
  O2-  O231  1  0.20869647  0.82889434  0.06750597  1
  O2-  O232  1  0.20317513  0.82915763  0.39655366  1
  O2-  O233  1  0.21575827  0.83141347  0.73495921  1
  O2-  O234  1  0.70805966  0.33114131  0.07014583  1
  O2-  O235  1  0.70978644  0.33149971  0.39659784  1
  O2-  O236  1  0.70911492  0.34030144  0.72614751  1
  O2-  O237  1  0.70695077  0.82927562  0.06635050  1
  O2-  O238  1  0.70197141  0.83670760  0.39501158  1
  O2-  O239  1  0.69669679  0.82782378  0.73503279  1
  O2-  O240  1  0.45561801  0.41521359  0.26959249  1
  O2-  O241  1  0.45410987  0.41872503  0.60135114  1
  O2-  O242  1  0.46185579  0.41470575  0.93622975  1
  O2-  O243  1  0.46620583  0.91212861  0.26186597  1
  O2-  O244  1  0.45991471  0.91599793  0.59713256  1
  O2-  O245  1  0.46376939  0.91773917  0.93273458  1
  O2-  O246  1  0.95105178  0.41415950  0.27368184  1
  O2-  O247  1  0.96383326  0.41378899  0.59687784  1
  O2-  O248  1  0.95691245  0.41915285  0.93164503  1
  O2-  O249  1  0.94968471  0.92414062  0.26832872  1
  O2-  O250  1  0.94582867  0.92146262  0.61311534  1
  O2-  O251  1  0.94926606  0.91866835  0.93087087  1
  O2-  O252  1  0.33135863  0.30067339  0.27376697  1
  O2-  O253  1  0.32917823  0.30628068  0.60572724  1
  O2-  O254  1  0.33828562  0.30157384  0.93703850  1
  O2-  O255  1  0.33294850  0.78978862  0.26394697  1
  O2-  O256  1  0.33819953  0.78255527  0.59884168  1
  O2-  O257  1  0.33550693  0.78664553  0.93002978  1
  O2-  O258  1  0.83902733  0.28917727  0.26927620  1
  O2-  O259  1  0.83360523  0.29100326  0.59507212  1
  O2-  O260  1  0.82898318  0.29323840  0.93450041  1
  O2-  O261  1  0.82959334  0.78886469  0.26931271  1
  O2-  O262  1  0.83067186  0.79719290  0.60930092  1
  O2-  O263  1  0.83243617  0.78391087  0.92980751  1
  O2-  O264  1  0.41930497  0.04277828  0.06615604  1
  O2-  O265  1  0.42445345  0.03889560  0.39807425  1
  O2-  O266  1  0.41517901  0.04645734  0.72549943  1
  O2-  O267  1  0.41168698  0.54100022  0.06207844  1
  O2-  O268  1  0.41935701  0.54060697  0.40409161  1
  O2-  O269  1  0.41297049  0.54259024  0.73146495  1
  O2-  O270  1  0.91881073  0.05391281  0.05768008  1
  O2-  O271  1  0.91296266  0.05311867  0.39431440  1
  O2-  O272  1  0.92145294  0.05863311  0.73385292  1
  O2-  O273  1  0.91780448  0.54537052  0.06249624  1
  O2-  O274  1  0.91296431  0.53870360  0.40485651  1
  O2-  O275  1  0.91341560  0.53615887  0.73027768  1
  O2-  O276  1  0.29855359  0.17349313  0.06510531  1
  O2-  O277  1  0.30249745  0.16882241  0.40191730  1
  O2-  O278  1  0.30053457  0.16933404  0.72572813  1
  O2-  O279  1  0.29561197  0.66291036  0.05867851  1
  O2-  O280  1  0.29668203  0.67088337  0.40230703  1
  O2-  O281  1  0.29059223  0.66050376  0.73167423  1
  O2-  O282  1  0.79120361  0.16392321  0.06557578  1
  O2-  O283  1  0.78600326  0.16277316  0.39403838  1
  O2-  O284  1  0.78358075  0.17108321  0.73371524  1
  O2-  O285  1  0.79540433  0.66228548  0.06482201  1
  O2-  O286  1  0.78602624  0.66541598  0.40574405  1
  O2-  O287  1  0.80055278  0.66262700  0.73222970  1
