# generated using pymatgen
data_Ca2Al2SiO7
_symmetry_space_group_name_H-M   'P 1'
_cell_length_a   15.45844573
_cell_length_b   15.45883228
_cell_length_c   15.28488081
_cell_angle_alpha   90.00252210
_cell_angle_beta   90.00003944
_cell_angle_gamma   90.01123223
_symmetry_Int_Tables_number   1
_chemical_formula_structural   Ca2Al2SiO7
_chemical_formula_sum   'Ca48 Al48 Si24 O168'
_cell_volume   3652.62055433
_cell_formula_units_Z   24
loop_
 _symmetry_equiv_pos_site_id
 _symmetry_equiv_pos_as_xyz
  1  'x, y, z'
loop_
 _atom_type_symbol
 _atom_type_oxidation_number
  Ca2+  2.0
  Al0+  0.0
  Si0+  0.0
  O2-  -2.0
loop_
 _atom_site_type_symbol
 _atom_site_label
 _atom_site_symmetry_multiplicity
 _atom_site_fract_x
 _atom_site_fract_y
 _atom_site_fract_z
 _atom_site_occupancy
  Ca2+  Ca0  1  0.17095249  0.06862177  0.17350982  1
  Ca2+  Ca1  1  0.16610883  0.07661553  0.49541613  1
  Ca2+  Ca2  1  0.16779581  0.07381160  0.84053967  1
  Ca2+  Ca3  1  0.16417757  0.58031920  0.16692375  1
  Ca2+  Ca4  1  0.16737049  0.58181535  0.50579347  1
  Ca2+  Ca5  1  0.17158217  0.59082504  0.84188973  1
  Ca2+  Ca6  1  0.67251085  0.07624328  0.17171997  1
  Ca2+  Ca7  1  0.67692840  0.06765967  0.50436830  1
  Ca2+  Ca8  1  0.67710760  0.07828386  0.83749203  1
  Ca2+  Ca9  1  0.67338907  0.58744367  0.17571803  1
  Ca2+  Ca10  1  0.67044969  0.58666615  0.50488786  1
  Ca2+  Ca11  1  0.66121692  0.58077600  0.83055015  1
  Ca2+  Ca12  1  0.08306924  0.33685640  0.16629447  1
  Ca2+  Ca13  1  0.07815713  0.33147887  0.48865645  1
  Ca2+  Ca14  1  0.08598654  0.33205765  0.83264518  1
  Ca2+  Ca15  1  0.07689084  0.83636984  0.15867833  1
  Ca2+  Ca16  1  0.07336675  0.83033402  0.49654065  1
  Ca2+  Ca17  1  0.07830858  0.82902602  0.83078008  1
  Ca2+  Ca18  1  0.58167606  0.32237716  0.15897465  1
  Ca2+  Ca19  1  0.58539145  0.33427932  0.49665382  1
  Ca2+  Ca20  1  0.58823342  0.32814640  0.82877290  1
  Ca2+  Ca21  1  0.58030095  0.83266396  0.16526459  1
  Ca2+  Ca22  1  0.59269894  0.82623302  0.49478820  1
  Ca2+  Ca23  1  0.57662318  0.82972506  0.82696117  1
  Ca2+  Ca24  1  0.32104302  0.42101652  0.16856315  1
  Ca2+  Ca25  1  0.32579672  0.42179981  0.50453305  1
  Ca2+  Ca26  1  0.32639000  0.43272712  0.84115203  1
  Ca2+  Ca27  1  0.32280108  0.91152550  0.16995608  1
  Ca2+  Ca28  1  0.32898663  0.91733638  0.49732739  1
  Ca2+  Ca29  1  0.32706420  0.90924111  0.84267818  1
  Ca2+  Ca30  1  0.83674967  0.42597600  0.17515025  1
  Ca2+  Ca31  1  0.83215600  0.42405456  0.50013837  1
  Ca2+  Ca32  1  0.82662807  0.41726739  0.83471610  1
  Ca2+  Ca33  1  0.83593905  0.92429842  0.17623297  1
  Ca2+  Ca34  1  0.82954044  0.91469156  0.50473608  1
  Ca2+  Ca35  1  0.83824179  0.92017586  0.83626663  1
  Ca2+  Ca36  1  0.42128557  0.16070747  0.16081974  1
  Ca2+  Ca37  1  0.41617135  0.16664800  0.49088980  1
  Ca2+  Ca38  1  0.42625315  0.16623591  0.83144305  1
  Ca2+  Ca39  1  0.42098378  0.66970910  0.16122732  1
  Ca2+  Ca40  1  0.42916176  0.65949150  0.49919100  1
  Ca2+  Ca41  1  0.41272753  0.66855718  0.82860993  1
  Ca2+  Ca42  1  0.90700562  0.17123462  0.16437700  1
  Ca2+  Ca43  1  0.90636107  0.17137362  0.49409298  1
  Ca2+  Ca44  1  0.91308254  0.16206066  0.83067870  1
  Ca2+  Ca45  1  0.91845134  0.68095502  0.16186730  1
  Ca2+  Ca46  1  0.91328018  0.67723006  0.49337742  1
  Ca2+  Ca47  1  0.92911539  0.67805501  0.82731987  1
  Al0+  Al48  1  -0.00055798  0.00390080  0.00493336  1
  Al0+  Al49  1  0.00234712  0.00256412  0.33773676  1
  Al0+  Al50  1  0.00205147  0.00148403  0.66544413  1
  Al0+  Al51  1  -0.00184380  0.49971336  -0.00221629  1
  Al0+  Al52  1  -0.00086561  0.49922115  0.33819883  1
  Al0+  Al53  1  -0.00028482  0.49754223  0.66458727  1
  Al0+  Al54  1  0.50277852  -0.00053472  -0.01114666  1
  Al0+  Al55  1  0.50029295  -0.00115321  0.33979047  1
  Al0+  Al56  1  0.50136211  0.00118223  0.66807999  1
  Al0+  Al57  1  0.49897522  0.49786848  0.00492134  1
  Al0+  Al58  1  0.49934485  0.49841384  0.32527785  1
  Al0+  Al59  1  0.49737348  0.49948620  0.67147124  1
  Al0+  Al60  1  0.25031399  0.25214560  0.00089503  1
  Al0+  Al61  1  0.24939893  0.25162923  0.33857925  1
  Al0+  Al62  1  0.25014223  0.25002651  0.66669463  1
  Al0+  Al63  1  0.25163488  0.74971996  0.00392878  1
  Al0+  Al64  1  0.25197921  0.74845935  0.33925670  1
  Al0+  Al65  1  0.24986850  0.75071065  0.66405529  1
  Al0+  Al66  1  0.74963305  0.24903911  -0.00145375  1
  Al0+  Al67  1  0.74864394  0.25060508  0.32996435  1
  Al0+  Al68  1  0.74989841  0.24921516  0.67212919  1
  Al0+  Al69  1  0.74853223  0.75039845  -0.00571607  1
  Al0+  Al70  1  0.75191798  0.74888649  0.33019424  1
  Al0+  Al71  1  0.74858997  0.74971386  0.66698607  1
  Al0+  Al72  1  0.68039925  0.92730539  0.34672992  1
  Al0+  Al73  1  0.17740265  0.92529063  0.35046863  1
  Al0+  Al74  1  0.32143463  0.07044495  0.34640147  1
  Al0+  Al75  1  0.17910477  0.43150313  0.34874885  1
  Al0+  Al76  1  0.07287974  0.67741425  0.65041706  1
  Al0+  Al77  1  0.82009422  0.57085653  0.34545793  1
  Al0+  Al78  1  0.82179475  0.06923622  0.68290278  1
  Al0+  Al79  1  0.92796757  0.82583238  0.98541377  1
  Al0+  Al80  1  0.31807927  0.57043211  0.67954652  1
  Al0+  Al81  1  0.67798425  0.92521676  0.68503776  1
  Al0+  Al82  1  0.92839417  0.32040095  0.31946835  1
  Al0+  Al83  1  0.43030615  0.81869290  0.98807774  1
  Al0+  Al84  1  0.82134700  0.07370632  0.34761354  1
  Al0+  Al85  1  0.56756297  0.67853346  0.65440912  1
  Al0+  Al86  1  0.17975833  0.92981984  0.01188273  1
  Al0+  Al87  1  0.81970284  0.07030032  0.01606705  1
  Al0+  Al88  1  0.17617892  0.42856748  0.01536151  1
  Al0+  Al89  1  0.57157604  0.17964637  0.98409619  1
  Al0+  Al90  1  0.93139415  0.82263505  0.31927461  1
  Al0+  Al91  1  0.32178434  0.57301494  0.01823866  1
  Al0+  Al92  1  0.67947806  0.43037765  0.67911322  1
  Al0+  Al93  1  0.57164345  0.67878329  0.31923631  1
  Al0+  Al94  1  0.92992677  0.82167722  0.65083104  1
  Al0+  Al95  1  0.06984138  0.67886600  0.98758673  1
  Si0+  Si96  1  0.07419550  0.18006521  0.31544020  1
  Si0+  Si97  1  0.07328395  0.18038011  0.65107474  1
  Si0+  Si98  1  0.32526732  0.57085460  0.35116700  1
  Si0+  Si99  1  0.32219097  0.07417995  0.68296366  1
  Si0+  Si100  1  0.17632272  0.42617653  0.68353034  1
  Si0+  Si101  1  0.42651071  0.32057234  0.31674407  1
  Si0+  Si102  1  0.42709518  0.82508914  0.64798277  1
  Si0+  Si103  1  0.81884310  0.57115447  0.01255559  1
  Si0+  Si104  1  0.67609446  0.42795668  0.34633395  1
  Si0+  Si105  1  0.57262161  0.67434476  0.98269967  1
  Si0+  Si106  1  0.92710864  0.31935805  0.65206612  1
  Si0+  Si107  1  0.42786780  0.82256386  0.31795763  1
  Si0+  Si108  1  0.92845380  0.32123422  0.98375879  1
  Si0+  Si109  1  0.07380410  0.67756755  0.31824234  1
  Si0+  Si110  1  0.82383620  0.57258818  0.68462411  1
  Si0+  Si111  1  0.42953025  0.31904593  0.65162005  1
  Si0+  Si112  1  0.18179775  0.93139535  0.68197328  1
  Si0+  Si113  1  0.07240635  0.18041127  0.98642050  1
  Si0+  Si114  1  0.42718897  0.32216420  0.98160870  1
  Si0+  Si115  1  0.56901289  0.17849847  0.31940559  1
  Si0+  Si116  1  0.67659279  0.92673276  0.01554369  1
  Si0+  Si117  1  0.32474170  0.07208434  0.01193641  1
  Si0+  Si118  1  0.57209371  0.17972122  0.64907656  1
  Si0+  Si119  1  0.67943134  0.42775749  0.01568766  1
  O2-  O120  1  0.25688228  0.00383426  0.05648904  1
  O2-  O121  1  0.25071852  -0.00156547  0.39811745  1
  O2-  O122  1  0.25576285  -0.00037953  0.72522195  1
  O2-  O123  1  0.24684691  0.50191830  0.06510041  1
  O2-  O124  1  0.25259835  0.50673552  0.39573453  1
  O2-  O125  1  0.23789702  0.50119736  0.72640974  1
  O2-  O126  1  0.74929595  -0.00923736  0.06023868  1
  O2-  O127  1  0.75555081  -0.00368047  0.39690205  1
  O2-  O128  1  0.75299150  -0.00510019  0.73396826  1
  O2-  O129  1  0.74488066  0.50349468  0.05682225  1
  O2-  O130  1  0.74249321  0.49779856  0.39084143  1
  O2-  O131  1  0.75341806  0.50455240  0.72832489  1
  O2-  O132  1  0.00077052  0.24403703  0.27114364  1
  O2-  O133  1  0.00110020  0.25108034  0.61082868  1
  O2-  O134  1  0.00190357  0.25187720  0.94298209  1
  O2-  O135  1  0.01056001  0.75113883  0.27393373  1
  O2-  O136  1  -0.00265244  0.74519053  0.60035690  1
  O2-  O137  1  0.00052823  0.75324397  0.93723148  1
  O2-  O138  1  0.49636302  0.24772581  0.27577852  1
  O2-  O139  1  0.49881546  0.24810663  0.60586211  1
  O2-  O140  1  0.49628920  0.25424987  0.93664674  1
  O2-  O141  1  0.49622280  0.75334800  0.27401056  1
  O2-  O142  1  0.49826867  0.75785038  0.60570253  1
  O2-  O143  1  0.50222883  0.74174495  0.94030218  1
  O2-  O144  1  0.07371810  0.18068621  0.09091739  1
  O2-  O145  1  0.07750883  0.18452441  0.42138620  1
  O2-  O146  1  0.07697819  0.18152634  0.75649672  1
  O2-  O147  1  0.06516793  0.67716577  0.10118336  1
  O2-  O148  1  0.07130651  0.67724343  0.42383944  1
  O2-  O149  1  0.07422942  0.68078454  0.76397571  1
  O2-  O150  1  0.56951072  0.18069567  0.09764736  1
  O2-  O151  1  0.56838350  0.18248725  0.42451753  1
  O2-  O152  1  0.57088785  0.18219830  0.75420088  1
  O2-  O153  1  0.57486627  0.67494911  0.08828267  1
  O2-  O154  1  0.56929357  0.67498305  0.43225604  1
  O2-  O155  1  0.56187265  0.67611415  0.76744589  1
  O2-  O156  1  0.18040943  0.43094969  0.23597721  1
  O2-  O157  1  0.17989307  0.42128743  0.57817341  1
  O2-  O158  1  0.17909177  0.42515398  0.90170785  1
  O2-  O159  1  0.17935370  0.92592519  0.23668541  1
  O2-  O160  1  0.18237037  0.93424627  0.57723602  1
  O2-  O161  1  0.18086668  0.93270351  0.89820423  1
  O2-  O162  1  0.67702850  0.42692269  0.24048487  1
  O2-  O163  1  0.68094013  0.42921510  0.56606566  1
  O2-  O164  1  0.68111450  0.42641589  0.91039628  1
  O2-  O165  1  0.67629285  0.93109577  0.23293689  1
  O2-  O166  1  0.67655700  0.92810625  0.57160263  1
  O2-  O167  1  0.67478479  0.92927265  0.91032698  1
  O2-  O168  1  0.42827755  0.32023069  0.08738828  1
  O2-  O169  1  0.42838679  0.32223491  0.42220475  1
  O2-  O170  1  0.42963339  0.31538510  0.75644792  1
  O2-  O171  1  0.43301066  0.82073508  0.10117004  1
  O2-  O172  1  0.42779122  0.82245648  0.42351154  1
  O2-  O173  1  0.42492762  0.82415527  0.75378478  1
  O2-  O174  1  0.92574939  0.32158321  0.08858493  1
  O2-  O175  1  0.92861952  0.31982028  0.43292706  1
  O2-  O176  1  0.92702073  0.31946287  0.75752023  1
  O2-  O177  1  0.92810260  0.82496012  0.09911382  1
  O2-  O178  1  0.92906707  0.81915959  0.43210493  1
  O2-  O179  1  0.93524056  0.82372311  0.76444333  1
  O2-  O180  1  0.32184259  0.07021840  0.23260438  1
  O2-  O181  1  0.32015884  0.07795124  0.57828673  1
  O2-  O182  1  0.32164962  0.07296631  0.90588707  1
  O2-  O183  1  0.32690108  0.56870086  0.24598563  1
  O2-  O184  1  0.32102791  0.56402509  0.56656563  1
  O2-  O185  1  0.32267792  0.57073226  0.90436679  1
  O2-  O186  1  0.81520603  0.07563051  0.23405878  1
  O2-  O187  1  0.81811795  0.07408348  0.57002192  1
  O2-  O188  1  0.81880104  0.07338096  0.90326095  1
  O2-  O189  1  0.81942186  0.56944332  0.23176819  1
  O2-  O190  1  0.82362276  0.57009407  0.57900949  1
  O2-  O191  1  0.81805249  0.56718170  0.90751066  1
  O2-  O192  1  0.05538923  0.08401202  0.27302002  1
  O2-  O193  1  0.04773727  0.08883790  0.60322286  1
  O2-  O194  1  0.04294989  0.09014861  0.93708607  1
  O2-  O195  1  0.04344823  0.58477972  0.27392655  1
  O2-  O196  1  0.05052685  0.57507433  0.60176968  1
  O2-  O197  1  0.04022850  0.58108115  0.93220642  1
  O2-  O198  1  0.54153525  0.08609019  0.27320290  1
  O2-  O199  1  0.54524333  0.08715033  0.60316304  1
  O2-  O200  1  0.54202849  0.08557327  0.92506090  1
  O2-  O201  1  0.54212218  0.58208087  0.26269327  1
  O2-  O202  1  0.53300416  0.58201500  0.60096579  1
  O2-  O203  1  0.54902224  0.57832564  0.94025131  1
  O2-  O204  1  0.16597027  0.21196736  0.26896284  1
  O2-  O205  1  0.16425952  0.20986108  0.60207799  1
  O2-  O206  1  0.16423964  0.20728022  0.93656951  1
  O2-  O207  1  0.17115228  0.69608649  0.27656154  1
  O2-  O208  1  0.17019043  0.70817960  0.59623745  1
  O2-  O209  1  0.17000578  0.70525910  0.93846108  1
  O2-  O210  1  0.65846321  0.20929631  0.26917992  1
  O2-  O211  1  0.66285252  0.21246833  0.60354179  1
  O2-  O212  1  0.66605878  0.21598138  0.92894194  1
  O2-  O213  1  0.66702821  0.70894916  0.26320730  1
  O2-  O214  1  0.66703361  0.70175491  0.60281862  1
  O2-  O215  1  0.66489709  0.69944115  0.93379974  1
  O2-  O216  1  0.07584484  0.45355121  0.06604952  1
  O2-  O217  1  0.08288529  0.45859238  0.40450890  1
  O2-  O218  1  0.07944018  0.44195197  0.72625754  1
  O2-  O219  1  0.08614168  0.96533387  0.06770476  1
  O2-  O220  1  0.08229530  0.95886319  0.40636156  1
  O2-  O221  1  0.09196259  0.96404361  0.72966599  1
  O2-  O222  1  0.58549215  0.44702453  0.06227862  1
  O2-  O223  1  0.58080064  0.44993674  0.39040067  1
  O2-  O224  1  0.58337925  0.45888464  0.73548705  1
  O2-  O225  1  0.58423190  0.95916283  0.06057092  1
  O2-  O226  1  0.58365030  0.95674649  0.40239664  1
  O2-  O227  1  0.57922323  0.95809076  0.73637781  1
  O2-  O228  1  0.20746751  0.33058037  0.06924009  1
  O2-  O229  1  0.21197990  0.33631699  0.40442653  1
  O2-  O230  1  0.20915926  0.33483817  0.73125140  1
  O2-  O231  1  0.21003984  0.83510920  0.06778094  1
  O2-  O232  1  0.20711287  0.82813711  0.40552874  1
  O2-  O233  1  0.20795358  0.83882736  0.72785124  1
  O2-  O234  1  0.71210404  0.33793749  0.06349056  1
  O2-  O235  1  0.70274634  0.33541211  0.39330156  1
  O2-  O236  1  0.71218604  0.33554541  0.73624244  1
  O2-  O237  1  0.69524925  0.83007613  0.05808459  1
  O2-  O238  1  0.70758779  0.82853987  0.39786891  1
  O2-  O239  1  0.69942032  0.82487092  0.73665628  1
  O2-  O240  1  0.45515661  0.40994874  0.26531847  1
  O2-  O241  1  0.45851935  0.41028632  0.60481228  1
  O2-  O242  1  0.45433401  0.41600343  0.93693057  1
  O2-  O243  1  0.45356350  0.91664950  0.27283025  1
  O2-  O244  1  0.44965249  0.92082014  0.60431130  1
  O2-  O245  1  0.45922343  0.91370201  0.92883785  1
  O2-  O246  1  0.96165029  0.41709244  0.26644126  1
  O2-  O247  1  0.95070977  0.41195121  0.60425613  1
  O2-  O248  1  0.95370807  0.41222485  0.93365102  1
  O2-  O249  1  0.95896483  0.92229459  0.26938988  1
  O2-  O250  1  0.96273737  0.91962199  0.59870089  1
  O2-  O251  1  0.95768880  0.92510021  0.93493751  1
  O2-  O252  1  0.33450073  0.29299360  0.27037073  1
  O2-  O253  1  0.33722468  0.29137692  0.60371703  1
  O2-  O254  1  0.33379568  0.29701266  0.93467713  1
  O2-  O255  1  0.33379009  0.79579323  0.27276911  1
  O2-  O256  1  0.33446868  0.79837425  0.60130846  1
  O2-  O257  1  0.33350108  0.78977283  0.93342353  1
  O2-  O258  1  0.83091852  0.29325500  0.26348600  1
  O2-  O259  1  0.83610981  0.28865309  0.60492667  1
  O2-  O260  1  0.83797029  0.29034769  0.93509171  1
  O2-  O261  1  0.83673976  0.78805338  0.26373322  1
  O2-  O262  1  0.82918285  0.79588515  0.60199149  1
  O2-  O263  1  0.82953445  0.79701429  0.93225143  1
  O2-  O264  1  0.41977142  0.04721488  0.05428437  1
  O2-  O265  1  0.41848400  0.04431579  0.40370535  1
  O2-  O266  1  0.41611410  0.05186867  0.72811249  1
  O2-  O267  1  0.41968923  0.54089972  0.07168964  1
  O2-  O268  1  0.41737892  0.53720319  0.39614682  1
  O2-  O269  1  0.41067113  0.53342007  0.73690308  1
  O2-  O270  1  0.91788571  0.04871850  0.07026351  1
  O2-  O271  1  0.92332136  0.05813574  0.39637020  1
  O2-  O272  1  0.92342932  0.04679007  0.73327698  1
  O2-  O273  1  0.90859552  0.53897745  0.06020499  1
  O2-  O274  1  0.91318240  0.53677898  0.40314240  1
  O2-  O275  1  0.91661544  0.54251777  0.73054696  1
  O2-  O276  1  0.30101730  0.16622095  0.05734227  1
  O2-  O277  1  0.29315669  0.16839849  0.40124959  1
  O2-  O278  1  0.29064909  0.16440214  0.73207846  1
  O2-  O279  1  0.29686840  0.67061647  0.07280416  1
  O2-  O280  1  0.30712350  0.66561913  0.39695166  1
  O2-  O281  1  0.29307530  0.66979786  0.73116776  1
  O2-  O282  1  0.78398445  0.16693003  0.06800476  1
  O2-  O283  1  0.78626447  0.17093413  0.39998071  1
  O2-  O284  1  0.78979351  0.16657511  0.73741144  1
  O2-  O285  1  0.79322273  0.66438085  0.05846115  1
  O2-  O286  1  0.78864929  0.66563605  0.40049628  1
  O2-  O287  1  0.79883969  0.66553785  0.73055408  1
