# generated using pymatgen
data_Ca2Al2SiO7
_symmetry_space_group_name_H-M   'P 1'
_cell_length_a   15.45381400
_cell_length_b   15.45364119
_cell_length_c   15.28013878
_cell_angle_alpha   89.99719443
_cell_angle_beta   89.98876679
_cell_angle_gamma   90.00498040
_symmetry_Int_Tables_number   1
_chemical_formula_structural   Ca2Al2SiO7
_chemical_formula_sum   'Ca48 Al48 Si24 O168'
_cell_volume   3649.16745818
_cell_formula_units_Z   24
loop_
 _symmetry_equiv_pos_site_id
 _symmetry_equiv_pos_as_xyz
  1  'x, y, z'
loop_
 _atom_type_symbol
 _atom_type_oxidation_number
  Ca2+  2.0
  Al0+  0.0
  Si0+  0.0
  O2-  -2.0
loop_
 _atom_site_type_symbol
 _atom_site_label
 _atom_site_symmetry_multiplicity
 _atom_site_fract_x
 _atom_site_fract_y
 _atom_site_fract_z
 _atom_site_occupancy
  Ca2+  Ca0  1  0.16854562  0.07617859  0.17355412  1
  Ca2+  Ca1  1  0.17188994  0.07211939  0.50521793  1
  Ca2+  Ca2  1  0.17570892  0.08245511  0.83293122  1
  Ca2+  Ca3  1  0.17798313  0.57838614  0.17375718  1
  Ca2+  Ca4  1  0.17322786  0.57797202  0.50668966  1
  Ca2+  Ca5  1  0.17440967  0.58678324  0.83172051  1
  Ca2+  Ca6  1  0.66583449  0.08201144  0.16892299  1
  Ca2+  Ca7  1  0.67435721  0.08411074  0.50232623  1
  Ca2+  Ca8  1  0.66757993  0.07755928  0.83999185  1
  Ca2+  Ca9  1  0.67047021  0.57576888  0.16968348  1
  Ca2+  Ca10  1  0.67649420  0.59377730  0.50420958  1
  Ca2+  Ca11  1  0.66769726  0.58402733  0.83732208  1
  Ca2+  Ca12  1  0.07898300  0.33647793  0.16318217  1
  Ca2+  Ca13  1  0.08870892  0.33684964  0.49756525  1
  Ca2+  Ca14  1  0.07802976  0.34011780  0.82868003  1
  Ca2+  Ca15  1  0.07095587  0.83949988  0.16439476  1
  Ca2+  Ca16  1  0.08246651  0.82639503  0.49347565  1
  Ca2+  Ca17  1  0.07653307  0.82525244  0.82886829  1
  Ca2+  Ca18  1  0.58656175  0.32323020  0.15723667  1
  Ca2+  Ca19  1  0.58222744  0.32565658  0.49399707  1
  Ca2+  Ca20  1  0.58191617  0.33480935  0.83678004  1
  Ca2+  Ca21  1  0.57180212  0.83459877  0.15919349  1
  Ca2+  Ca22  1  0.57182984  0.82869450  0.49865347  1
  Ca2+  Ca23  1  0.57690853  0.82917731  0.82839573  1
  Ca2+  Ca24  1  0.33669629  0.42698691  0.17164454  1
  Ca2+  Ca25  1  0.32433853  0.42613429  0.50691764  1
  Ca2+  Ca26  1  0.33664168  0.42997378  0.84090708  1
  Ca2+  Ca27  1  0.32907369  0.91063431  0.17320894  1
  Ca2+  Ca28  1  0.33496632  0.91457402  0.50298944  1
  Ca2+  Ca29  1  0.34331606  0.91773859  0.83603520  1
  Ca2+  Ca30  1  0.83114349  0.41791351  0.16882803  1
  Ca2+  Ca31  1  0.83269961  0.43100115  0.50402880  1
  Ca2+  Ca32  1  0.82935854  0.42314263  0.83896826  1
  Ca2+  Ca33  1  0.82745457  0.91576847  0.17362866  1
  Ca2+  Ca34  1  0.83917687  0.92723751  0.50304681  1
  Ca2+  Ca35  1  0.82682545  0.91863569  0.84127665  1
  Ca2+  Ca36  1  0.42903589  0.17408971  0.15785192  1
  Ca2+  Ca37  1  0.42087098  0.16447570  0.49378075  1
  Ca2+  Ca38  1  0.42113354  0.16879132  0.83036571  1
  Ca2+  Ca39  1  0.40756879  0.67288856  0.16258606  1
  Ca2+  Ca40  1  0.41220778  0.67020846  0.49802229  1
  Ca2+  Ca41  1  0.41619551  0.67365430  0.82443525  1
  Ca2+  Ca42  1  0.91635596  0.17038987  0.16139941  1
  Ca2+  Ca43  1  0.91342154  0.16555311  0.49397522  1
  Ca2+  Ca44  1  0.91251810  0.17334766  0.83114750  1
  Ca2+  Ca45  1  0.91466855  0.67479164  0.16445349  1
  Ca2+  Ca46  1  0.92056165  0.66494532  0.49439230  1
  Ca2+  Ca47  1  0.91817258  0.66988141  0.82452056  1
  Al0+  Al48  1  0.00107595  0.00026599  -0.00651092  1
  Al0+  Al49  1  0.00038099  0.00004991  0.33722835  1
  Al0+  Al50  1  0.00044557  0.00348279  0.67318899  1
  Al0+  Al51  1  0.00218998  0.50019525  -0.00353277  1
  Al0+  Al52  1  -0.00042523  0.49940281  0.33771915  1
  Al0+  Al53  1  -0.00302444  0.50079732  0.66936053  1
  Al0+  Al54  1  0.50152542  0.00025044  -0.00204278  1
  Al0+  Al55  1  0.50132492  -0.00118699  0.32442794  1
  Al0+  Al56  1  0.50027684  0.00054665  0.66540290  1
  Al0+  Al57  1  0.50230640  0.49960219  0.00808700  1
  Al0+  Al58  1  0.50083078  0.49955771  0.33836439  1
  Al0+  Al59  1  0.50023378  0.49880137  0.66333623  1
  Al0+  Al60  1  0.25081547  0.25029413  -0.00191561  1
  Al0+  Al61  1  0.25032550  0.24935140  0.33369156  1
  Al0+  Al62  1  0.24782418  0.24755742  0.67321135  1
  Al0+  Al63  1  0.24889281  0.75085113  0.00004922  1
  Al0+  Al64  1  0.24877713  0.74896258  0.33628017  1
  Al0+  Al65  1  0.24570777  0.74940495  0.66181726  1
  Al0+  Al66  1  0.75260258  0.25037057  -0.00551811  1
  Al0+  Al67  1  0.75058959  0.24901146  0.33277559  1
  Al0+  Al68  1  0.75049113  0.24999564  0.66935803  1
  Al0+  Al69  1  0.74970649  0.75272599  0.00142593  1
  Al0+  Al70  1  0.74813992  0.75029598  0.33321232  1
  Al0+  Al71  1  0.74838179  0.75242105  0.66673165  1
  Al0+  Al72  1  0.93125496  0.32140739  0.98611092  1
  Al0+  Al73  1  0.32270875  0.57182825  0.35048900  1
  Al0+  Al74  1  0.17814422  0.42854313  0.68441245  1
  Al0+  Al75  1  0.17835694  0.92970981  0.34599068  1
  Al0+  Al76  1  0.32164300  0.57156396  0.68300710  1
  Al0+  Al77  1  0.32224638  0.06851846  0.67976356  1
  Al0+  Al78  1  0.42766632  0.81901007  0.98657198  1
  Al0+  Al79  1  0.06724119  0.67846733  0.65143399  1
  Al0+  Al80  1  0.81898810  0.57209710  0.34545398  1
  Al0+  Al81  1  0.81951370  0.06996719  0.34490239  1
  Al0+  Al82  1  0.82188469  0.07216231  0.68289441  1
  Al0+  Al83  1  0.17892506  0.42713360  0.34749286  1
  Al0+  Al84  1  0.57222117  0.17999956  0.31918731  1
  Al0+  Al85  1  0.92706125  0.82134052  0.98584354  1
  Al0+  Al86  1  0.92942883  0.82205172  0.32141495  1
  Al0+  Al87  1  0.42820620  0.82142096  0.65097452  1
  Al0+  Al88  1  0.67859777  0.92916564  0.01474066  1
  Al0+  Al89  1  0.57203735  0.67636443  0.65172975  1
  Al0+  Al90  1  0.81834908  0.57284711  0.68058355  1
  Al0+  Al91  1  0.42911551  0.32347244  0.98533519  1
  Al0+  Al92  1  0.57182102  0.17899859  0.98194047  1
  Al0+  Al93  1  0.68148452  0.42886749  0.01369093  1
  Al0+  Al94  1  0.32076173  0.57187565  0.01402840  1
  Al0+  Al95  1  0.42839355  0.81756063  0.31780721  1
  Si0+  Si96  1  0.17904173  0.93067910  0.01408340  1
  Si0+  Si97  1  0.07160714  0.17891768  0.65029306  1
  Si0+  Si98  1  0.17726274  0.92717946  0.68497314  1
  Si0+  Si99  1  0.32199280  0.07215884  0.01597881  1
  Si0+  Si100  1  0.42728080  0.32212279  0.31814840  1
  Si0+  Si101  1  0.42642738  0.31977690  0.65178111  1
  Si0+  Si102  1  0.67775815  0.42632426  0.68235653  1
  Si0+  Si103  1  0.32368795  0.07038608  0.34621351  1
  Si0+  Si104  1  0.07369206  0.17656416  0.98148600  1
  Si0+  Si105  1  0.92998373  0.32130725  0.32006091  1
  Si0+  Si106  1  0.82322760  0.07092926  0.01621305  1
  Si0+  Si107  1  0.67826619  0.93030563  0.68283622  1
  Si0+  Si108  1  0.17734221  0.42688060  0.01679797  1
  Si0+  Si109  1  0.07019612  0.67612996  0.31583626  1
  Si0+  Si110  1  0.57126543  0.17993962  0.65094627  1
  Si0+  Si111  1  0.67947415  0.42613357  0.35033372  1
  Si0+  Si112  1  0.07164209  0.17813919  0.32029098  1
  Si0+  Si113  1  0.57324716  0.67589540  0.31474209  1
  Si0+  Si114  1  0.67536427  0.92781974  0.35054065  1
  Si0+  Si115  1  0.57255154  0.67741643  0.98663395  1
  Si0+  Si116  1  0.92849801  0.31945230  0.64965835  1
  Si0+  Si117  1  0.82478960  0.57294243  0.01623907  1
  Si0+  Si118  1  0.07115667  0.67922258  0.98410557  1
  Si0+  Si119  1  0.92749724  0.82504839  0.65066592  1
  O2-  O120  1  0.25053486  0.00103727  0.05736222  1
  O2-  O121  1  0.25668948  0.00117085  0.39177258  1
  O2-  O122  1  0.25173671  -0.00964772  0.72835992  1
  O2-  O123  1  0.24898824  0.49273715  0.05963415  1
  O2-  O124  1  0.25112478  0.49786608  0.39760159  1
  O2-  O125  1  0.25207956  0.49786472  0.73477793  1
  O2-  O126  1  0.75557750  0.00235049  0.06124272  1
  O2-  O127  1  0.74663068  -0.00532280  0.39404487  1
  O2-  O128  1  0.74970896  -0.00430784  0.72815405  1
  O2-  O129  1  0.75705661  0.50323273  0.06025705  1
  O2-  O130  1  0.74269480  0.49968225  0.39406406  1
  O2-  O131  1  0.74019340  0.50126194  0.72568095  1
  O2-  O132  1  0.00264950  0.25131150  0.27830911  1
  O2-  O133  1  0.00071461  0.24964960  0.60687762  1
  O2-  O134  1  0.00740604  0.24830928  0.93864554  1
  O2-  O135  1  0.00216978  0.74619232  0.27204064  1
  O2-  O136  1  -0.00697982  0.75456665  0.60522411  1
  O2-  O137  1  -0.00230829  0.74309939  0.93985974  1
  O2-  O138  1  0.49762688  0.25531218  0.27387361  1
  O2-  O139  1  0.49896597  0.24976135  0.60876728  1
  O2-  O140  1  0.49905859  0.25076241  0.93242779  1
  O2-  O141  1  0.50101224  0.74073665  0.27039099  1
  O2-  O142  1  0.49607303  0.74478214  0.60177136  1
  O2-  O143  1  0.50157357  0.74319652  0.94181856  1
  O2-  O144  1  0.07244491  0.17312055  0.08750279  1
  O2-  O145  1  0.07113304  0.17708994  0.42524942  1
  O2-  O146  1  0.07065983  0.17823812  0.75531720  1
  O2-  O147  1  0.07125754  0.68053847  0.08978214  1
  O2-  O148  1  0.06740389  0.67578698  0.42133015  1
  O2-  O149  1  0.06595212  0.68123568  0.76502484  1
  O2-  O150  1  0.57098050  0.18006927  0.09576428  1
  O2-  O151  1  0.57176997  0.18135813  0.43311544  1
  O2-  O152  1  0.57160609  0.18011474  0.75553983  1
  O2-  O153  1  0.57388621  0.67965958  0.09229309  1
  O2-  O154  1  0.57566855  0.67933884  0.42004955  1
  O2-  O155  1  0.57379219  0.67896419  0.76558293  1
  O2-  O156  1  0.17754366  0.42755464  0.23370981  1
  O2-  O157  1  0.18050209  0.42768732  0.57081735  1
  O2-  O158  1  0.17475737  0.42859245  0.91171704  1
  O2-  O159  1  0.17638060  0.93394074  0.23232710  1
  O2-  O160  1  0.17329191  0.93195031  0.57945565  1
  O2-  O161  1  0.17859120  0.93189623  0.90911685  1
  O2-  O162  1  0.68307073  0.42391990  0.24478190  1
  O2-  O163  1  0.68299619  0.41954265  0.57684139  1
  O2-  O164  1  0.68260405  0.43163545  0.90056581  1
  O2-  O165  1  0.67574664  0.92939420  0.24486890  1
  O2-  O166  1  0.67763802  0.93351551  0.57713452  1
  O2-  O167  1  0.67995555  0.92953812  0.90155120  1
  O2-  O168  1  0.42954586  0.32026515  0.09917601  1
  O2-  O169  1  0.42693792  0.31824699  0.42410471  1
  O2-  O170  1  0.42830035  0.31942774  0.75659174  1
  O2-  O171  1  0.42565373  0.81814401  0.09974133  1
  O2-  O172  1  0.43082428  0.82094931  0.43041218  1
  O2-  O173  1  0.43292213  0.82316350  0.76469354  1
  O2-  O174  1  0.93282069  0.32001519  0.09993571  1
  O2-  O175  1  0.92811427  0.31981815  0.42515739  1
  O2-  O176  1  0.92830142  0.31774109  0.75477133  1
  O2-  O177  1  0.92923334  0.82311854  0.09916747  1
  O2-  O178  1  0.93291040  0.82353628  0.43432123  1
  O2-  O179  1  0.92957590  0.82389207  0.75660403  1
  O2-  O180  1  0.32017041  0.07167939  0.24048673  1
  O2-  O181  1  0.32037489  0.06986003  0.56632390  1
  O2-  O182  1  0.32062650  0.07180905  0.91071961  1
  O2-  O183  1  0.32031739  0.57070368  0.23637863  1
  O2-  O184  1  0.31984814  0.56908170  0.56979717  1
  O2-  O185  1  0.31905774  0.57431979  0.90134848  1
  O2-  O186  1  0.82046606  0.07149517  0.23210065  1
  O2-  O187  1  0.82062297  0.07315593  0.56943161  1
  O2-  O188  1  0.82253873  0.06912666  0.91048711  1
  O2-  O189  1  0.81966514  0.56886522  0.23216504  1
  O2-  O190  1  0.81973586  0.56984818  0.56728177  1
  O2-  O191  1  0.82411045  0.57252182  0.91061364  1
  O2-  O192  1  0.04074883  0.08837719  0.27082988  1
  O2-  O193  1  0.04260581  0.08660757  0.60376399  1
  O2-  O194  1  0.04618598  0.08548200  0.93124103  1
  O2-  O195  1  0.04227452  0.58292527  0.26954631  1
  O2-  O196  1  0.03393086  0.58215658  0.59811143  1
  O2-  O197  1  0.05186267  0.58455541  0.93790742  1
  O2-  O198  1  0.54303273  0.08449230  0.26302351  1
  O2-  O199  1  0.54431933  0.08861293  0.60262240  1
  O2-  O200  1  0.54125637  0.08150101  0.92902630  1
  O2-  O201  1  0.55281594  0.57877048  0.27294575  1
  O2-  O202  1  0.55291077  0.57546768  0.59862550  1
  O2-  O203  1  0.55150678  0.58221316  0.94347303  1
  O2-  O204  1  0.16393699  0.20268747  0.27098765  1
  O2-  O205  1  0.16392345  0.20487349  0.60261376  1
  O2-  O206  1  0.16827088  0.19915451  0.93642660  1
  O2-  O207  1  0.16423515  0.70136723  0.27158012  1
  O2-  O208  1  0.16255082  0.70839946  0.59487734  1
  O2-  O209  1  0.16119050  0.71265595  0.93581697  1
  O2-  O210  1  0.66826398  0.21216900  0.26433341  1
  O2-  O211  1  0.66312875  0.21041974  0.60393338  1
  O2-  O212  1  0.67039822  0.20642454  0.92982711  1
  O2-  O213  1  0.66567528  0.70325604  0.26696010  1
  O2-  O214  1  0.66901141  0.71134910  0.59735372  1
  O2-  O215  1  0.66530751  0.70522983  0.93966839  1
  O2-  O216  1  0.08436712  0.45564876  0.06394180  1
  O2-  O217  1  0.08041527  0.45360172  0.40112943  1
  O2-  O218  1  0.07934742  0.45884714  0.73489811  1
  O2-  O219  1  0.08708644  0.96128639  0.06090666  1
  O2-  O220  1  0.08580931  0.96514225  0.40409309  1
  O2-  O221  1  0.08727736  0.96044943  0.73465435  1
  O2-  O222  1  0.58715136  0.45742454  0.07310970  1
  O2-  O223  1  0.58407276  0.44433223  0.39530041  1
  O2-  O224  1  0.58165352  0.44452671  0.72506659  1
  O2-  O225  1  0.58253386  0.96213515  0.06917337  1
  O2-  O226  1  0.58301597  0.95830700  0.39616433  1
  O2-  O227  1  0.58661909  0.96040430  0.72979741  1
  O2-  O228  1  0.19740359  0.33070425  0.06076115  1
  O2-  O229  1  0.20481208  0.32718892  0.40035917  1
  O2-  O230  1  0.19986405  0.32793107  0.73562328  1
  O2-  O231  1  0.20513508  0.83930941  0.06237267  1
  O2-  O232  1  0.20446647  0.83267780  0.39955195  1
  O2-  O233  1  0.19529761  0.83148667  0.72802908  1
  O2-  O234  1  0.71551130  0.33191706  0.06595360  1
  O2-  O235  1  0.71067943  0.33515064  0.39851014  1
  O2-  O236  1  0.71018527  0.33646325  0.73210249  1
  O2-  O237  1  0.70821169  0.83293550  0.07071132  1
  O2-  O238  1  0.69785098  0.83352993  0.39537754  1
  O2-  O239  1  0.70075199  0.83643633  0.72925053  1
  O2-  O240  1  0.45146068  0.41725278  0.27497121  1
  O2-  O241  1  0.45295873  0.41064208  0.60210837  1
  O2-  O242  1  0.46149498  0.42187531  0.93480319  1
  O2-  O243  1  0.45924885  0.91388224  0.26218084  1
  O2-  O244  1  0.46112150  0.91919203  0.59720343  1
  O2-  O245  1  0.45931148  0.91584629  0.93466781  1
  O2-  O246  1  0.95698413  0.41281807  0.27157565  1
  O2-  O247  1  0.95473575  0.41206548  0.60376657  1
  O2-  O248  1  0.95976582  0.41832479  0.93057742  1
  O2-  O249  1  0.96332363  0.91804573  0.26681516  1
  O2-  O250  1  0.95651776  0.91970356  0.60805435  1
  O2-  O251  1  0.96114869  0.91604181  0.92994880  1
  O2-  O252  1  0.33436779  0.29564174  0.27062524  1
  O2-  O253  1  0.33481376  0.28785487  0.60653456  1
  O2-  O254  1  0.32952338  0.29740115  0.93327531  1
  O2-  O255  1  0.32940662  0.78957067  0.26572183  1
  O2-  O256  1  0.32710457  0.80000893  0.60111134  1
  O2-  O257  1  0.33022873  0.79189451  0.93246471  1
  O2-  O258  1  0.83961211  0.29113598  0.27128093  1
  O2-  O259  1  0.83720863  0.28885371  0.60236532  1
  O2-  O260  1  0.83733596  0.28960818  0.92840306  1
  O2-  O261  1  0.83127837  0.79360193  0.26866208  1
  O2-  O262  1  0.83213128  0.80526819  0.60701161  1
  O2-  O263  1  0.82985194  0.79392440  0.93183352  1
  O2-  O264  1  0.41391565  0.04488931  0.06203020  1
  O2-  O265  1  0.41810983  0.04527860  0.39029988  1
  O2-  O266  1  0.41975337  0.04227235  0.73430304  1
  O2-  O267  1  0.41736313  0.54446159  0.06979251  1
  O2-  O268  1  0.42223919  0.54643887  0.40296631  1
  O2-  O269  1  0.42240180  0.54432183  0.73225541  1
  O2-  O270  1  0.91899461  0.04705197  0.05911694  1
  O2-  O271  1  0.91556886  0.04103259  0.40126728  1
  O2-  O272  1  0.91908826  0.04674036  0.73822631  1
  O2-  O273  1  0.91902240  0.54705435  0.06105801  1
  O2-  O274  1  0.91373306  0.53827825  0.40080883  1
  O2-  O275  1  0.91194260  0.53756990  0.73650958  1
  O2-  O276  1  0.29362918  0.16400987  0.06367150  1
  O2-  O277  1  0.29801498  0.16352959  0.39312588  1
  O2-  O278  1  0.28677739  0.16179866  0.73729333  1
  O2-  O279  1  0.28393089  0.66697179  0.06837407  1
  O2-  O280  1  0.29192825  0.66891769  0.40303133  1
  O2-  O281  1  0.28918478  0.67089591  0.73209429  1
  O2-  O282  1  0.79853985  0.16551626  0.05988499  1
  O2-  O283  1  0.78856130  0.16623668  0.40061384  1
  O2-  O284  1  0.78860464  0.16784120  0.73672488  1
  O2-  O285  1  0.79804588  0.66629808  0.06177152  1
  O2-  O286  1  0.79066003  0.66898340  0.40043508  1
  O2-  O287  1  0.79268452  0.67138084  0.73351777  1
