# generated using pymatgen
data_Ca2Al2SiO7
_symmetry_space_group_name_H-M   'P 1'
_cell_length_a   15.46400669
_cell_length_b   15.46331374
_cell_length_c   15.28740993
_cell_angle_alpha   89.99153423
_cell_angle_beta   90.00031801
_cell_angle_gamma   90.00996274
_symmetry_Int_Tables_number   1
_chemical_formula_structural   Ca2Al2SiO7
_chemical_formula_sum   'Ca48 Al48 Si24 O168'
_cell_volume   3655.59854924
_cell_formula_units_Z   24
loop_
 _symmetry_equiv_pos_site_id
 _symmetry_equiv_pos_as_xyz
  1  'x, y, z'
loop_
 _atom_type_symbol
 _atom_type_oxidation_number
  Ca2+  2.0
  Al0+  0.0
  Si0+  0.0
  O2-  -2.0
loop_
 _atom_site_type_symbol
 _atom_site_label
 _atom_site_symmetry_multiplicity
 _atom_site_fract_x
 _atom_site_fract_y
 _atom_site_fract_z
 _atom_site_occupancy
  Ca2+  Ca0  1  0.17505088  0.07516980  0.17510837  1
  Ca2+  Ca1  1  0.17602054  0.07714153  0.50720396  1
  Ca2+  Ca2  1  0.17418089  0.07545417  0.83827498  1
  Ca2+  Ca3  1  0.17847405  0.58962904  0.16875251  1
  Ca2+  Ca4  1  0.17980532  0.58424561  0.50677875  1
  Ca2+  Ca5  1  0.17568382  0.59227989  0.83566959  1
  Ca2+  Ca6  1  0.66219536  0.07932492  0.17015750  1
  Ca2+  Ca7  1  0.66059490  0.08161723  0.50738149  1
  Ca2+  Ca8  1  0.66017807  0.07099302  0.83260106  1
  Ca2+  Ca9  1  0.67176379  0.57874684  0.17531208  1
  Ca2+  Ca10  1  0.65826030  0.57717565  0.50288117  1
  Ca2+  Ca11  1  0.67461168  0.58588282  0.83689070  1
  Ca2+  Ca12  1  0.07901384  0.33629984  0.16508219  1
  Ca2+  Ca13  1  0.07056322  0.33893857  0.49712662  1
  Ca2+  Ca14  1  0.07598695  0.33396994  0.82593853  1
  Ca2+  Ca15  1  0.08945174  0.83159880  0.15917306  1
  Ca2+  Ca16  1  0.09141104  0.83459865  0.50057362  1
  Ca2+  Ca17  1  0.08695285  0.82781359  0.82599394  1
  Ca2+  Ca18  1  0.57995790  0.33123895  0.17256877  1
  Ca2+  Ca19  1  0.57356539  0.32289667  0.49366371  1
  Ca2+  Ca20  1  0.57516225  0.32301393  0.82162857  1
  Ca2+  Ca21  1  0.58172181  0.82978180  0.16272713  1
  Ca2+  Ca22  1  0.58569160  0.82208717  0.49851510  1
  Ca2+  Ca23  1  0.58489656  0.83012042  0.82446841  1
  Ca2+  Ca24  1  0.33861817  0.42600666  0.17346720  1
  Ca2+  Ca25  1  0.34941377  0.42396279  0.50228733  1
  Ca2+  Ca26  1  0.33978322  0.42717374  0.83292952  1
  Ca2+  Ca27  1  0.32305415  0.92445156  0.17191842  1
  Ca2+  Ca28  1  0.32704017  0.92659845  0.50574673  1
  Ca2+  Ca29  1  0.32591304  0.92654397  0.83661481  1
  Ca2+  Ca30  1  0.82954944  0.42172217  0.17455776  1
  Ca2+  Ca31  1  0.82737682  0.40949169  0.50250943  1
  Ca2+  Ca32  1  0.83346235  0.42245354  0.83826136  1
  Ca2+  Ca33  1  0.82553541  0.91484827  0.16817709  1
  Ca2+  Ca34  1  0.82800095  0.91561446  0.50913231  1
  Ca2+  Ca35  1  0.82183165  0.90280981  0.83133003  1
  Ca2+  Ca36  1  0.41295027  0.16404585  0.16647506  1
  Ca2+  Ca37  1  0.42021254  0.16704318  0.49313152  1
  Ca2+  Ca38  1  0.41480874  0.16854306  0.82287759  1
  Ca2+  Ca39  1  0.41885000  0.66083681  0.16575476  1
  Ca2+  Ca40  1  0.42384690  0.66035676  0.49485207  1
  Ca2+  Ca41  1  0.41973233  0.66614162  0.82459713  1
  Ca2+  Ca42  1  0.91515002  0.17380031  0.16758317  1
  Ca2+  Ca43  1  0.91414565  0.17753109  0.49560275  1
  Ca2+  Ca44  1  0.91769103  0.17372285  0.82535182  1
  Ca2+  Ca45  1  0.92509426  0.66597109  0.15693188  1
  Ca2+  Ca46  1  0.92465096  0.67441388  0.50214431  1
  Ca2+  Ca47  1  0.93001420  0.66850131  0.82553127  1
  Al0+  Al48  1  -0.00357821  0.00135997  0.00125921  1
  Al0+  Al49  1  -0.00267652  -0.00048725  0.33567914  1
  Al0+  Al50  1  -0.00201351  0.00097858  0.66829270  1
  Al0+  Al51  1  0.00014963  0.50210965  -0.00094937  1
  Al0+  Al52  1  0.00042508  0.50353552  0.32884896  1
  Al0+  Al53  1  0.00044959  0.50195268  0.65762146  1
  Al0+  Al54  1  0.50048369  -0.00133126  0.00688904  1
  Al0+  Al55  1  0.49929991  -0.00279977  0.33258532  1
  Al0+  Al56  1  0.50051286  -0.00209958  0.67141002  1
  Al0+  Al57  1  0.50114145  0.49816040  0.00160682  1
  Al0+  Al58  1  0.50398628  0.49805774  0.33170558  1
  Al0+  Al59  1  0.50223108  0.49800620  0.66729892  1
  Al0+  Al60  1  0.24910491  0.25181988  0.00101684  1
  Al0+  Al61  1  0.24804107  0.25113345  0.33269899  1
  Al0+  Al62  1  0.24794726  0.25441117  0.66634953  1
  Al0+  Al63  1  0.25249547  0.75017779  0.00279165  1
  Al0+  Al64  1  0.25106526  0.74909274  0.34037978  1
  Al0+  Al65  1  0.25205364  0.74961299  0.66970283  1
  Al0+  Al66  1  0.74756623  0.24895988  -0.00168324  1
  Al0+  Al67  1  0.74944553  0.25093895  0.32747622  1
  Al0+  Al68  1  0.74804932  0.24921704  0.66249331  1
  Al0+  Al69  1  0.75086837  0.74868440  0.00949395  1
  Al0+  Al70  1  0.75238601  0.74942239  0.32884554  1
  Al0+  Al71  1  0.75182454  0.74824664  0.66164999  1
  Al0+  Al72  1  0.68032082  0.92867417  0.01474688  1
  Al0+  Al73  1  0.56803595  0.17572506  0.65333892  1
  Al0+  Al74  1  0.92835500  0.32149708  0.65377660  1
  Al0+  Al75  1  0.32176123  0.07270743  0.35000085  1
  Al0+  Al76  1  0.32112611  0.07409349  0.68132499  1
  Al0+  Al77  1  0.68067522  0.92715474  0.67789860  1
  Al0+  Al78  1  0.42721042  0.32012776  0.31615464  1
  Al0+  Al79  1  0.42668073  0.32133455  0.65285484  1
  Al0+  Al80  1  0.17721186  0.92932676  0.01425971  1
  Al0+  Al81  1  0.07495043  0.68090722  0.64939481  1
  Al0+  Al82  1  0.57194489  0.67885481  0.65513807  1
  Al0+  Al83  1  0.92941403  0.32238043  0.31742376  1
  Al0+  Al84  1  0.92949348  0.82187835  0.65245546  1
  Al0+  Al85  1  0.17687697  0.92885947  0.35002890  1
  Al0+  Al86  1  0.07272537  0.68139206  0.98639542  1
  Al0+  Al87  1  0.57180583  0.67869955  0.31779131  1
  Al0+  Al88  1  0.68254551  0.42952993  0.34844630  1
  Al0+  Al89  1  0.32240022  0.57001657  0.01362370  1
  Al0+  Al90  1  0.82176496  0.56929220  0.01279676  1
  Al0+  Al91  1  0.17689195  0.92921479  0.68354180  1
  Al0+  Al92  1  0.56969732  0.17565260  0.31602926  1
  Al0+  Al93  1  0.32046623  0.07372837  0.01588518  1
  Al0+  Al94  1  0.32319130  0.56844855  0.68031147  1
  Al0+  Al95  1  0.32161903  0.56740750  0.34753471  1
  Si0+  Si96  1  0.17309346  0.43086813  0.68285852  1
  Si0+  Si97  1  0.82180756  0.56965610  0.67943178  1
  Si0+  Si98  1  0.82445878  0.57384503  0.35256412  1
  Si0+  Si99  1  0.17476966  0.42854418  0.34924314  1
  Si0+  Si100  1  0.07170553  0.17811208  0.65090581  1
  Si0+  Si101  1  0.42743695  0.81939211  0.31611375  1
  Si0+  Si102  1  0.07048851  0.17924734  0.98569191  1
  Si0+  Si103  1  0.17688019  0.42860534  0.01551647  1
  Si0+  Si104  1  0.56998049  0.17701032  0.98384739  1
  Si0+  Si105  1  0.57220257  0.67813007  0.98592226  1
  Si0+  Si106  1  0.06971028  0.17694218  0.31678286  1
  Si0+  Si107  1  0.81893329  0.07082477  0.34757833  1
  Si0+  Si108  1  0.43139671  0.82084283  0.98539237  1
  Si0+  Si109  1  0.82084481  0.07613212  0.01755746  1
  Si0+  Si110  1  0.67956611  0.92687221  0.34852416  1
  Si0+  Si111  1  0.68038619  0.42747954  0.68241898  1
  Si0+  Si112  1  0.92581531  0.82298055  0.98434862  1
  Si0+  Si113  1  0.92874512  0.82261678  0.31584317  1
  Si0+  Si114  1  0.07238129  0.68208757  0.31701745  1
  Si0+  Si115  1  0.67890355  0.42611463  0.01661136  1
  Si0+  Si116  1  0.42861837  0.32157455  0.98418138  1
  Si0+  Si117  1  0.42860598  0.82142705  0.65129016  1
  Si0+  Si118  1  0.92835978  0.32116849  0.98536652  1
  Si0+  Si119  1  0.82076418  0.07455782  0.68284853  1
  O2-  O120  1  0.24607890  0.00368493  0.06445789  1
  O2-  O121  1  0.24762817  0.00233841  0.39830015  1
  O2-  O122  1  0.24787117  0.00330138  0.73162495  1
  O2-  O123  1  0.24651161  0.49614241  0.05944284  1
  O2-  O124  1  0.24920896  0.49014370  0.39379113  1
  O2-  O125  1  0.24533544  0.49618308  0.72666183  1
  O2-  O126  1  0.75444519  0.00465217  0.06064223  1
  O2-  O127  1  0.74611524  0.00211156  0.38998112  1
  O2-  O128  1  0.75491131  0.00242259  0.72601058  1
  O2-  O129  1  0.74799026  0.49456088  0.06021453  1
  O2-  O130  1  0.75648070  0.50484127  0.39682058  1
  O2-  O131  1  0.75258503  0.49770627  0.72407639  1
  O2-  O132  1  0.00550071  0.24945264  0.27018929  1
  O2-  O133  1  0.00229122  0.24654192  0.60674223  1
  O2-  O134  1  -0.00113623  0.25024900  0.94283521  1
  O2-  O135  1  0.00235087  0.75417822  0.27448039  1
  O2-  O136  1  0.00748259  0.75807282  0.60012233  1
  O2-  O137  1  -0.00057740  0.75904039  0.94161085  1
  O2-  O138  1  0.49442951  0.24385863  0.26466396  1
  O2-  O139  1  0.49136857  0.24240908  0.60417148  1
  O2-  O140  1  0.49611930  0.24608465  0.94328387  1
  O2-  O141  1  0.49655315  0.75170565  0.26966105  1
  O2-  O142  1  0.49565780  0.75082563  0.60735317  1
  O2-  O143  1  0.50204698  0.74880945  0.94253615  1
  O2-  O144  1  0.06877947  0.18128606  0.09062701  1
  O2-  O145  1  0.06469095  0.17577644  0.42199756  1
  O2-  O146  1  0.06909565  0.18061430  0.75716830  1
  O2-  O147  1  0.07067334  0.68081713  0.09991430  1
  O2-  O148  1  0.07100192  0.68095845  0.42158341  1
  O2-  O149  1  0.07193715  0.67811053  0.76323593  1
  O2-  O150  1  0.57336146  0.17872775  0.08847612  1
  O2-  O151  1  0.57241700  0.17621842  0.42902861  1
  O2-  O152  1  0.57105845  0.17882761  0.76771671  1
  O2-  O153  1  0.57118319  0.67838223  0.09093603  1
  O2-  O154  1  0.57235774  0.68069219  0.43082867  1
  O2-  O155  1  0.57357935  0.67997131  0.76902230  1
  O2-  O156  1  0.17108080  0.43357362  0.24336388  1
  O2-  O157  1  0.16680835  0.43362347  0.57781926  1
  O2-  O158  1  0.17536745  0.42695412  0.91011971  1
  O2-  O159  1  0.17653860  0.92933444  0.23620745  1
  O2-  O160  1  0.17938512  0.93197881  0.57024295  1
  O2-  O161  1  0.17922341  0.93055485  0.90123082  1
  O2-  O162  1  0.68518932  0.43146165  0.23474845  1
  O2-  O163  1  0.68116443  0.42755361  0.57772532  1
  O2-  O164  1  0.68020963  0.42526148  0.91075531  1
  O2-  O165  1  0.68317260  0.92601717  0.24309297  1
  O2-  O166  1  0.68325421  0.92592036  0.56487411  1
  O2-  O167  1  0.68095710  0.92679680  0.90177864  1
  O2-  O168  1  0.43051778  0.32492678  0.08869601  1
  O2-  O169  1  0.43267519  0.32153486  0.42899588  1
  O2-  O170  1  0.43242556  0.32361114  0.76733129  1
  O2-  O171  1  0.43333519  0.81985787  0.09049134  1
  O2-  O172  1  0.42950894  0.81876148  0.42151100  1
  O2-  O173  1  0.43102575  0.82057316  0.75751269  1
  O2-  O174  1  0.92874205  0.32039503  0.09027601  1
  O2-  O175  1  0.92939106  0.31996313  0.43034528  1
  O2-  O176  1  0.92908174  0.32139552  0.76775451  1
  O2-  O177  1  0.92432581  0.82070050  0.09026666  1
  O2-  O178  1  0.92440250  0.82173371  0.42027451  1
  O2-  O179  1  0.92438978  0.81361329  0.76580553  1
  O2-  O180  1  0.31920220  0.06922753  0.23625560  1
  O2-  O181  1  0.32115796  0.07182865  0.56819343  1
  O2-  O182  1  0.31992573  0.07421574  0.90252670  1
  O2-  O183  1  0.31865560  0.56912778  0.23404572  1
  O2-  O184  1  0.32523660  0.56605782  0.56749322  1
  O2-  O185  1  0.32554534  0.56844893  0.90076996  1
  O2-  O186  1  0.82055113  0.06789460  0.24211980  1
  O2-  O187  1  0.81894243  0.07747256  0.57721705  1
  O2-  O188  1  0.81982579  0.08340505  0.91263817  1
  O2-  O189  1  0.82420041  0.57252195  0.24646295  1
  O2-  O190  1  0.82068493  0.56901205  0.57466817  1
  O2-  O191  1  0.82053757  0.56774035  0.89932502  1
  O2-  O192  1  0.03729140  0.08539284  0.26927290  1
  O2-  O193  1  0.04633889  0.08485527  0.60536127  1
  O2-  O194  1  0.04132622  0.08799370  0.93772999  1
  O2-  O195  1  0.04336988  0.59143162  0.26762892  1
  O2-  O196  1  0.04013926  0.58598221  0.59362484  1
  O2-  O197  1  0.03972003  0.58483067  0.93263602  1
  O2-  O198  1  0.54622800  0.07484908  0.26428546  1
  O2-  O199  1  0.54755216  0.07484014  0.60302803  1
  O2-  O200  1  0.54525951  0.08295481  0.93971218  1
  O2-  O201  1  0.54332562  0.58222354  0.26338433  1
  O2-  O202  1  0.54253830  0.58198201  0.60238184  1
  O2-  O203  1  0.54651287  0.58508019  0.93953892  1
  O2-  O204  1  0.16398097  0.19890612  0.27112159  1
  O2-  O205  1  0.16420287  0.20451867  0.60438370  1
  O2-  O206  1  0.16163375  0.20822672  0.93749478  1
  O2-  O207  1  0.16525579  0.70917171  0.27125481  1
  O2-  O208  1  0.17522427  0.70450021  0.59859285  1
  O2-  O209  1  0.17089773  0.70925923  0.93402807  1
  O2-  O210  1  0.66701290  0.20833088  0.26168588  1
  O2-  O211  1  0.66489829  0.20787388  0.59972724  1
  O2-  O212  1  0.66113588  0.20700986  0.93536700  1
  O2-  O213  1  0.66878021  0.71035388  0.26356926  1
  O2-  O214  1  0.66620316  0.70961048  0.59773182  1
  O2-  O215  1  0.66552096  0.70674715  0.94197414  1
  O2-  O216  1  0.08361507  0.45457704  0.06218984  1
  O2-  O217  1  0.08322529  0.46135270  0.39615660  1
  O2-  O218  1  0.08034164  0.45946838  0.73065367  1
  O2-  O219  1  0.07578299  0.95294103  0.06418910  1
  O2-  O220  1  0.07656566  0.95469431  0.40069145  1
  O2-  O221  1  0.07643318  0.95432690  0.73489031  1
  O2-  O222  1  0.58640593  0.45312873  0.06300304  1
  O2-  O223  1  0.58682502  0.46086494  0.40206059  1
  O2-  O224  1  0.59086577  0.45726318  0.73254806  1
  O2-  O225  1  0.58518733  0.95834526  0.07135805  1
  O2-  O226  1  0.58585705  0.94790976  0.39336389  1
  O2-  O227  1  0.58536417  0.95505403  0.73597756  1
  O2-  O228  1  0.20010279  0.33524294  0.06298396  1
  O2-  O229  1  0.18914263  0.33172794  0.39143787  1
  O2-  O230  1  0.19335960  0.33591340  0.72857613  1
  O2-  O231  1  0.21025472  0.83272477  0.06792763  1
  O2-  O232  1  0.20730932  0.83149250  0.40280818  1
  O2-  O233  1  0.20722007  0.83078907  0.73487792  1
  O2-  O234  1  0.70476741  0.33273060  0.06268132  1
  O2-  O235  1  0.71564188  0.33253793  0.39997388  1
  O2-  O236  1  0.70883110  0.33586529  0.73043237  1
  O2-  O237  1  0.71154540  0.83417575  0.07293726  1
  O2-  O238  1  0.71339362  0.83622542  0.39434388  1
  O2-  O239  1  0.71454897  0.83063289  0.73230128  1
  O2-  O240  1  0.46458151  0.41599714  0.26213806  1
  O2-  O241  1  0.46678497  0.41525234  0.59961262  1
  O2-  O242  1  0.46196057  0.41169448  0.93554886  1
  O2-  O243  1  0.45352419  0.91215243  0.26866051  1
  O2-  O244  1  0.45725788  0.91352725  0.60517098  1
  O2-  O245  1  0.46096447  0.91270338  0.93889026  1
  O2-  O246  1  0.95903894  0.41997254  0.26364807  1
  O2-  O247  1  0.95784744  0.41622551  0.59655263  1
  O2-  O248  1  0.95639738  0.41267387  0.93774827  1
  O2-  O249  1  0.95160922  0.91603154  0.26879563  1
  O2-  O250  1  0.94492915  0.92478560  0.60369601  1
  O2-  O251  1  0.94107983  0.91994871  0.94102234  1
  O2-  O252  1  0.32486114  0.30173249  0.26554029  1
  O2-  O253  1  0.32396919  0.30917985  0.60384150  1
  O2-  O254  1  0.33445867  0.29961686  0.93847159  1
  O2-  O255  1  0.33387254  0.79131440  0.27100128  1
  O2-  O256  1  0.33518139  0.79798235  0.60583576  1
  O2-  O257  1  0.34007757  0.79273998  0.93821478  1
  O2-  O258  1  0.83556092  0.28830528  0.26070117  1
  O2-  O259  1  0.83290414  0.28959819  0.59897830  1
  O2-  O260  1  0.83592992  0.29349515  0.93847507  1
  O2-  O261  1  0.83905476  0.79174580  0.26514515  1
  O2-  O262  1  0.83568440  0.78523975  0.59473945  1
  O2-  O263  1  0.83318549  0.79014154  0.94005211  1
  O2-  O264  1  0.41797407  0.04323489  0.06850062  1
  O2-  O265  1  0.42047582  0.04073509  0.40021517  1
  O2-  O266  1  0.41859590  0.04319857  0.73546354  1
  O2-  O267  1  0.41884729  0.53771991  0.06778994  1
  O2-  O268  1  0.41992335  0.53867632  0.39804918  1
  O2-  O269  1  0.41894228  0.53524526  0.73636273  1
  O2-  O270  1  0.91465851  0.05329622  0.06429240  1
  O2-  O271  1  0.90909531  0.04218540  0.39704717  1
  O2-  O272  1  0.91512399  0.05450553  0.72940383  1
  O2-  O273  1  0.91774189  0.53848573  0.06825094  1
  O2-  O274  1  0.91904234  0.54922497  0.39604617  1
  O2-  O275  1  0.91414370  0.54172606  0.72584120  1
  O2-  O276  1  0.29349062  0.17328019  0.06745742  1
  O2-  O277  1  0.29537267  0.17319644  0.39916187  1
  O2-  O278  1  0.29396460  0.17450576  0.73225533  1
  O2-  O279  1  0.29327046  0.66608004  0.06870571  1
  O2-  O280  1  0.29031370  0.66277377  0.40234764  1
  O2-  O281  1  0.29601797  0.66592035  0.73427536  1
  O2-  O282  1  0.79154184  0.16796619  0.06652933  1
  O2-  O283  1  0.79400089  0.16416339  0.39205111  1
  O2-  O284  1  0.79175741  0.16676963  0.73121121  1
  O2-  O285  1  0.79239492  0.66357960  0.07125275  1
  O2-  O286  1  0.79832546  0.66829843  0.39567357  1
  O2-  O287  1  0.79111192  0.65981799  0.72760112  1
