# generated using pymatgen
data_Ca2Al2SiO7
_symmetry_space_group_name_H-M   'P 1'
_cell_length_a   15.46784341
_cell_length_b   15.46692904
_cell_length_c   15.29040527
_cell_angle_alpha   90.00386126
_cell_angle_beta   90.00082064
_cell_angle_gamma   90.00631343
_symmetry_Int_Tables_number   1
_chemical_formula_structural   Ca2Al2SiO7
_chemical_formula_sum   'Ca48 Al48 Si24 O168'
_cell_volume   3658.07708256
_cell_formula_units_Z   24
loop_
 _symmetry_equiv_pos_site_id
 _symmetry_equiv_pos_as_xyz
  1  'x, y, z'
loop_
 _atom_type_symbol
 _atom_type_oxidation_number
  Ca2+  2.0
  Al0+  0.0
  Si0+  0.0
  O2-  -2.0
loop_
 _atom_site_type_symbol
 _atom_site_label
 _atom_site_symmetry_multiplicity
 _atom_site_fract_x
 _atom_site_fract_y
 _atom_site_fract_z
 _atom_site_occupancy
  Ca2+  Ca0  1  0.16674666  0.08976522  0.16993096  1
  Ca2+  Ca1  1  0.16531494  0.08850632  0.50521103  1
  Ca2+  Ca2  1  0.16484839  0.08623581  0.83555920  1
  Ca2+  Ca3  1  0.17256501  0.57765361  0.17444632  1
  Ca2+  Ca4  1  0.17265121  0.57482231  0.50395750  1
  Ca2+  Ca5  1  0.18145665  0.58513712  0.83703183  1
  Ca2+  Ca6  1  0.67753900  0.08259106  0.17825171  1
  Ca2+  Ca7  1  0.67069634  0.08067074  0.50559518  1
  Ca2+  Ca8  1  0.67489696  0.08334742  0.83310268  1
  Ca2+  Ca9  1  0.67077146  0.57028640  0.17419515  1
  Ca2+  Ca10  1  0.66193511  0.57309429  0.50477169  1
  Ca2+  Ca11  1  0.65225029  0.57160192  0.83185340  1
  Ca2+  Ca12  1  0.07884834  0.32798418  0.16759228  1
  Ca2+  Ca13  1  0.07830792  0.32444354  0.48886884  1
  Ca2+  Ca14  1  0.08006015  0.32100036  0.82641653  1
  Ca2+  Ca15  1  0.08005672  0.83138461  0.16385431  1
  Ca2+  Ca16  1  0.07299710  0.83272555  0.50048606  1
  Ca2+  Ca17  1  0.07464240  0.83305780  0.82556925  1
  Ca2+  Ca18  1  0.59877658  0.32939327  0.16870668  1
  Ca2+  Ca19  1  0.59110357  0.32633667  0.49817802  1
  Ca2+  Ca20  1  0.58378603  0.33168728  0.82238807  1
  Ca2+  Ca21  1  0.57505231  0.83811277  0.16534071  1
  Ca2+  Ca22  1  0.57828550  0.83920397  0.49452372  1
  Ca2+  Ca23  1  0.57419882  0.82766987  0.81931710  1
  Ca2+  Ca24  1  0.32745503  0.42231682  0.17242617  1
  Ca2+  Ca25  1  0.32900335  0.41410324  0.50880368  1
  Ca2+  Ca26  1  0.34580895  0.43043656  0.83373971  1
  Ca2+  Ca27  1  0.33543606  0.91434107  0.17179826  1
  Ca2+  Ca28  1  0.33488729  0.91261309  0.50331648  1
  Ca2+  Ca29  1  0.33623590  0.91326493  0.83578278  1
  Ca2+  Ca30  1  0.82825404  0.41867029  0.17723428  1
  Ca2+  Ca31  1  0.82582763  0.41423286  0.49950574  1
  Ca2+  Ca32  1  0.81853980  0.41268720  0.83519354  1
  Ca2+  Ca33  1  0.82771772  0.92876417  0.17578620  1
  Ca2+  Ca34  1  0.82272346  0.92536086  0.50790711  1
  Ca2+  Ca35  1  0.83055732  0.92356993  0.83078880  1
  Ca2+  Ca36  1  0.42725647  0.16912569  0.16718224  1
  Ca2+  Ca37  1  0.43223353  0.16991414  0.49990570  1
  Ca2+  Ca38  1  0.42689992  0.17690424  0.82087839  1
  Ca2+  Ca39  1  0.41369023  0.67650498  0.16137666  1
  Ca2+  Ca40  1  0.42198785  0.67194242  0.50304871  1
  Ca2+  Ca41  1  0.41665197  0.67216751  0.82439759  1
  Ca2+  Ca42  1  0.91917831  0.16607276  0.16544361  1
  Ca2+  Ca43  1  0.92150611  0.16464103  0.49248834  1
  Ca2+  Ca44  1  0.92322890  0.15460739  0.82905301  1
  Ca2+  Ca45  1  0.91412569  0.66295507  0.16691946  1
  Ca2+  Ca46  1  0.90528894  0.67190751  0.49627806  1
  Ca2+  Ca47  1  0.91746425  0.67434522  0.82408656  1
  Al0+  Al48  1  0.00061419  -0.00103854  0.00142416  1
  Al0+  Al49  1  0.00241093  -0.00233915  0.33167098  1
  Al0+  Al50  1  0.00052109  -0.00272163  0.66186857  1
  Al0+  Al51  1  0.00028485  0.49836025  -0.00396967  1
  Al0+  Al52  1  0.00279155  0.50013264  0.33766684  1
  Al0+  Al53  1  0.00124060  0.49806703  0.66978256  1
  Al0+  Al54  1  0.49857914  0.00111693  -0.00492237  1
  Al0+  Al55  1  0.49790482  0.00214247  0.32646981  1
  Al0+  Al56  1  0.49835612  0.00143991  0.66504343  1
  Al0+  Al57  1  0.49912184  0.50069869  0.01370185  1
  Al0+  Al58  1  0.49978957  0.50283757  0.33596344  1
  Al0+  Al59  1  0.49647437  0.50252127  0.66654584  1
  Al0+  Al60  1  0.24978335  0.24945429  -0.00403232  1
  Al0+  Al61  1  0.25145757  0.24994040  0.33338652  1
  Al0+  Al62  1  0.24874935  0.24819856  0.66217589  1
  Al0+  Al63  1  0.24933504  0.75066128  0.00082356  1
  Al0+  Al64  1  0.24964371  0.75143599  0.33020475  1
  Al0+  Al65  1  0.24859615  0.74904262  0.66699100  1
  Al0+  Al66  1  0.75212043  0.24926694  0.00636457  1
  Al0+  Al67  1  0.75298176  0.25086792  0.33236160  1
  Al0+  Al68  1  0.75324322  0.25005565  0.67293339  1
  Al0+  Al69  1  0.74818969  0.74894642  -0.00121647  1
  Al0+  Al70  1  0.74724671  0.75097303  0.33430444  1
  Al0+  Al71  1  0.74876590  0.74966624  0.66315353  1
  Al0+  Al72  1  0.57088984  0.67814604  0.65132674  1
  Al0+  Al73  1  0.07001390  0.17936434  0.98456260  1
  Al0+  Al74  1  0.42963449  0.81967635  0.31791074  1
  Al0+  Al75  1  0.06864775  0.17863156  0.65245393  1
  Al0+  Al76  1  0.82176553  0.06708713  0.01554399  1
  Al0+  Al77  1  0.93042375  0.32207480  0.31819334  1
  Al0+  Al78  1  0.67998591  0.43075506  0.68001191  1
  Al0+  Al79  1  0.42932908  0.32276624  0.65338998  1
  Al0+  Al80  1  0.42765295  0.82205368  0.65097848  1
  Al0+  Al81  1  0.92810138  0.81874940  0.65259000  1
  Al0+  Al82  1  0.07276123  0.17675812  0.31658011  1
  Al0+  Al83  1  0.18190191  0.42823892  0.34705423  1
  Al0+  Al84  1  0.42908893  0.82081453  0.98464588  1
  Al0+  Al85  1  0.31904193  0.57187924  0.01654033  1
  Al0+  Al86  1  0.67533030  0.93159954  0.34658564  1
  Al0+  Al87  1  0.82281217  0.06974892  0.68179553  1
  Al0+  Al88  1  0.67520278  0.92792818  0.68209903  1
  Al0+  Al89  1  0.31798556  0.56994625  0.67974640  1
  Al0+  Al90  1  0.67991818  0.42986909  0.01458868  1
  Al0+  Al91  1  0.82263770  0.57228222  0.34782175  1
  Al0+  Al92  1  0.67889397  0.42898874  0.35095175  1
  Al0+  Al93  1  0.57485074  0.18031416  0.65354017  1
  Al0+  Al94  1  0.57139480  0.18199805  0.31931270  1
  Al0+  Al95  1  0.82376685  0.07063150  0.34897809  1
  Si0+  Si96  1  0.67524503  0.92716707  0.01524230  1
  Si0+  Si97  1  0.57300235  0.67655149  0.31352572  1
  Si0+  Si98  1  0.92740865  0.82024497  0.31722164  1
  Si0+  Si99  1  0.31994120  0.07216100  0.68172952  1
  Si0+  Si100  1  0.17691731  0.42643459  0.01563711  1
  Si0+  Si101  1  0.07106408  0.67787104  0.98565128  1
  Si0+  Si102  1  0.92822592  0.32439998  0.65064877  1
  Si0+  Si103  1  0.57299755  0.18108109  0.98568821  1
  Si0+  Si104  1  0.17996835  0.93002551  0.01493044  1
  Si0+  Si105  1  0.57084395  0.67652159  0.98502130  1
  Si0+  Si106  1  0.17965208  0.92910870  0.68133209  1
  Si0+  Si107  1  0.17998951  0.92703138  0.34847453  1
  Si0+  Si108  1  0.07126077  0.68032451  0.31876427  1
  Si0+  Si109  1  0.42892928  0.32149170  0.98803233  1
  Si0+  Si110  1  0.92871771  0.81986549  0.98658048  1
  Si0+  Si111  1  0.07157060  0.67644255  0.65076460  1
  Si0+  Si112  1  0.42776940  0.32459030  0.31671342  1
  Si0+  Si113  1  0.92671358  0.32232423  0.98114768  1
  Si0+  Si114  1  0.32175524  0.07249970  0.01416711  1
  Si0+  Si115  1  0.32077990  0.57509611  0.35098092  1
  Si0+  Si116  1  0.82413764  0.57319038  0.68397770  1
  Si0+  Si117  1  0.82508930  0.57379499  0.01386612  1
  Si0+  Si118  1  0.32022431  0.07087964  0.34759895  1
  Si0+  Si119  1  0.17752727  0.42430465  0.68561777  1
  O2-  O120  1  0.25206236  -0.00003873  0.05676638  1
  O2-  O121  1  0.24679317  0.00187147  0.38932023  1
  O2-  O122  1  0.25108287  -0.00114591  0.72472672  1
  O2-  O123  1  0.24331831  0.49698557  0.06075718  1
  O2-  O124  1  0.25964071  0.49956387  0.39423397  1
  O2-  O125  1  0.24606388  0.49322751  0.72961948  1
  O2-  O126  1  0.74452338  -0.00571486  0.06043856  1
  O2-  O127  1  0.74871790  0.00128126  0.39710260  1
  O2-  O128  1  0.74733484  0.00048204  0.73190851  1
  O2-  O129  1  0.75695000  0.50472213  0.05682005  1
  O2-  O130  1  0.75036056  0.50227983  0.39941144  1
  O2-  O131  1  0.75409490  0.50625909  0.72876651  1
  O2-  O132  1  -0.00084670  0.24684100  0.26676815  1
  O2-  O133  1  -0.00426185  0.25439920  0.60746296  1
  O2-  O134  1  -0.00497828  0.25295906  0.93718424  1
  O2-  O135  1  -0.00411601  0.74617777  0.27466434  1
  O2-  O136  1  -0.00298458  0.73785904  0.60606395  1
  O2-  O137  1  -0.00470043  0.74408412  0.94444950  1
  O2-  O138  1  0.50143277  0.26183924  0.27112721  1
  O2-  O139  1  0.50537369  0.25537417  0.60400520  1
  O2-  O140  1  0.50283347  0.25385319  0.94522827  1
  O2-  O141  1  0.50396291  0.74572372  0.26981375  1
  O2-  O142  1  0.50551330  0.75673353  0.60150055  1
  O2-  O143  1  0.50526841  0.74762248  0.93983371  1
  O2-  O144  1  0.07202923  0.18021161  0.09681717  1
  O2-  O145  1  0.07355679  0.17781784  0.42981235  1
  O2-  O146  1  0.06916290  0.17830725  0.76608868  1
  O2-  O147  1  0.07210748  0.67932241  0.09095701  1
  O2-  O148  1  0.07578735  0.68511217  0.42320047  1
  O2-  O149  1  0.07235300  0.68059768  0.75704666  1
  O2-  O150  1  0.57121050  0.18016671  0.09080777  1
  O2-  O151  1  0.56823480  0.17956654  0.43163342  1
  O2-  O152  1  0.57165569  0.18151699  0.76816906  1
  O2-  O153  1  0.57053358  0.67804960  0.09043649  1
  O2-  O154  1  0.57184236  0.67486132  0.41848360  1
  O2-  O155  1  0.56516231  0.67614621  0.76564796  1
  O2-  O156  1  0.18308014  0.43137544  0.23322553  1
  O2-  O157  1  0.17759653  0.42579416  0.58016953  1
  O2-  O158  1  0.17688388  0.42749665  0.91032324  1
  O2-  O159  1  0.18105059  0.92303251  0.24297260  1
  O2-  O160  1  0.17933091  0.92833511  0.57629532  1
  O2-  O161  1  0.17828282  0.92917775  0.90985450  1
  O2-  O162  1  0.68103381  0.43142435  0.23699218  1
  O2-  O163  1  0.68143381  0.42985271  0.56797663  1
  O2-  O164  1  0.67710617  0.43043447  0.90143423  1
  O2-  O165  1  0.67748041  0.93298661  0.23201593  1
  O2-  O166  1  0.67614980  0.93017047  0.56895030  1
  O2-  O167  1  0.67589105  0.92719568  0.91009730  1
  O2-  O168  1  0.42496269  0.31750089  0.09289755  1
  O2-  O169  1  0.42433457  0.32009765  0.42162366  1
  O2-  O170  1  0.43077094  0.32108475  0.76814645  1
  O2-  O171  1  0.42780396  0.82081385  0.09776201  1
  O2-  O172  1  0.42570576  0.81818024  0.43008162  1
  O2-  O173  1  0.42434038  0.81803950  0.76485995  1
  O2-  O174  1  0.92877254  0.32520128  0.08619216  1
  O2-  O175  1  0.93376255  0.32305012  0.43158622  1
  O2-  O176  1  0.93083187  0.32723048  0.75660847  1
  O2-  O177  1  0.93172816  0.81959799  0.09180125  1
  O2-  O178  1  0.93126871  0.82092626  0.42179087  1
  O2-  O179  1  0.93357507  0.81929009  0.76669129  1
  O2-  O180  1  0.32023383  0.06953305  0.24171668  1
  O2-  O181  1  0.31730023  0.07301239  0.57682689  1
  O2-  O182  1  0.32118720  0.07305612  0.90924255  1
  O2-  O183  1  0.31553721  0.57691085  0.24490479  1
  O2-  O184  1  0.31318419  0.57180239  0.56714536  1
  O2-  O185  1  0.31886408  0.57198989  0.90360949  1
  O2-  O186  1  0.82383542  0.06676791  0.23467928  1
  O2-  O187  1  0.82578033  0.06792712  0.56909281  1
  O2-  O188  1  0.82349011  0.06409432  0.90283156  1
  O2-  O189  1  0.82140982  0.57103088  0.23325687  1
  O2-  O190  1  0.82743399  0.56993235  0.57908348  1
  O2-  O191  1  0.82796539  0.57589740  0.90877991  1
  O2-  O192  1  0.04976181  0.07572950  0.26490925  1
  O2-  O193  1  0.04198502  0.08155791  0.59863147  1
  O2-  O194  1  0.04078440  0.08041028  0.93322361  1
  O2-  O195  1  0.04851570  0.58753174  0.27146987  1
  O2-  O196  1  0.05450033  0.57949165  0.60925385  1
  O2-  O197  1  0.05028206  0.58474387  0.93745954  1
  O2-  O198  1  0.53320111  0.08941219  0.26094578  1
  O2-  O199  1  0.54007882  0.08459032  0.60054039  1
  O2-  O200  1  0.54309820  0.09028037  0.93788246  1
  O2-  O201  1  0.54615237  0.58302117  0.26672043  1
  O2-  O202  1  0.53320326  0.58424036  0.59632272  1
  O2-  O203  1  0.53996052  0.58254953  0.94273608  1
  O2-  O204  1  0.17177697  0.20760293  0.26467084  1
  O2-  O205  1  0.16535441  0.20711482  0.59846331  1
  O2-  O206  1  0.16739427  0.20885873  0.92975615  1
  O2-  O207  1  0.15950728  0.71440153  0.26705857  1
  O2-  O208  1  0.16098406  0.70997705  0.60248029  1
  O2-  O209  1  0.15999483  0.71229126  0.93698356  1
  O2-  O210  1  0.66863714  0.20909708  0.26462312  1
  O2-  O211  1  0.67468168  0.20588259  0.60401059  1
  O2-  O212  1  0.66574210  0.20767743  0.94042892  1
  O2-  O213  1  0.66639484  0.70225921  0.26643688  1
  O2-  O214  1  0.67233780  0.69398353  0.60162883  1
  O2-  O215  1  0.66628709  0.69592713  0.93901206  1
  O2-  O216  1  0.08224017  0.45098367  0.06035220  1
  O2-  O217  1  0.08849201  0.46264710  0.40337765  1
  O2-  O218  1  0.08411954  0.44947141  0.73289273  1
  O2-  O219  1  0.08931285  0.95761097  0.06457855  1
  O2-  O220  1  0.08719174  0.94986452  0.39534444  1
  O2-  O221  1  0.08893367  0.95831541  0.73000702  1
  O2-  O222  1  0.58548351  0.45902592  0.07347030  1
  O2-  O223  1  0.57831480  0.45535626  0.40079547  1
  O2-  O224  1  0.58230192  0.46210757  0.73261409  1
  O2-  O225  1  0.58106390  0.95465833  0.05960496  1
  O2-  O226  1  0.57628058  0.96112480  0.39623232  1
  O2-  O227  1  0.57582694  0.95559822  0.73461361  1
  O2-  O228  1  0.20636118  0.33361566  0.06109134  1
  O2-  O229  1  0.21076304  0.33128028  0.40096705  1
  O2-  O230  1  0.20335676  0.33020507  0.73026008  1
  O2-  O231  1  0.20622383  0.83834383  0.06375117  1
  O2-  O232  1  0.21184548  0.83742384  0.39747372  1
  O2-  O233  1  0.20507698  0.83723743  0.73037882  1
  O2-  O234  1  0.71162790  0.33413077  0.06891076  1
  O2-  O235  1  0.70843262  0.33048514  0.40090916  1
  O2-  O236  1  0.71130800  0.33554486  0.73758688  1
  O2-  O237  1  0.69860575  0.83198259  0.05986079  1
  O2-  O238  1  0.69948736  0.83149507  0.39594297  1
  O2-  O239  1  0.70453421  0.82825374  0.73331452  1
  O2-  O240  1  0.44520777  0.42172279  0.27420861  1
  O2-  O241  1  0.44741753  0.42274056  0.60245892  1
  O2-  O242  1  0.45542960  0.41617252  0.94640719  1
  O2-  O243  1  0.45738625  0.91647553  0.26181555  1
  O2-  O244  1  0.44699967  0.92311079  0.60102960  1
  O2-  O245  1  0.45429851  0.91937613  0.93125047  1
  O2-  O246  1  0.96379817  0.42047364  0.26566640  1
  O2-  O247  1  0.95448925  0.41779795  0.60449007  1
  O2-  O248  1  0.95132944  0.41599791  0.93333835  1
  O2-  O249  1  0.96189533  0.90878318  0.26725153  1
  O2-  O250  1  0.96840135  0.90998612  0.59620013  1
  O2-  O251  1  0.96429646  0.90825464  0.93842141  1
  O2-  O252  1  0.33730902  0.29211696  0.26750479  1
  O2-  O253  1  0.33286807  0.28910458  0.60019921  1
  O2-  O254  1  0.33914782  0.29251001  0.93762503  1
  O2-  O255  1  0.33257308  0.78799717  0.26259968  1
  O2-  O256  1  0.32952744  0.78893387  0.59947367  1
  O2-  O257  1  0.33072147  0.79047765  0.93338721  1
  O2-  O258  1  0.83201489  0.29732462  0.26396252  1
  O2-  O259  1  0.83418043  0.29995837  0.60755372  1
  O2-  O260  1  0.83277905  0.29486782  0.93701842  1
  O2-  O261  1  0.83502842  0.79618308  0.26910054  1
  O2-  O262  1  0.83147101  0.79408460  0.59763384  1
  O2-  O263  1  0.83534439  0.79703003  0.93966285  1
  O2-  O264  1  0.41397284  0.04555359  0.06174423  1
  O2-  O265  1  0.41030754  0.03952440  0.39437848  1
  O2-  O266  1  0.41165523  0.04770720  0.73048933  1
  O2-  O267  1  0.41284735  0.54187990  0.07526888  1
  O2-  O268  1  0.41713040  0.55876967  0.39250864  1
  O2-  O269  1  0.41359156  0.54171365  0.73715324  1
  O2-  O270  1  0.91751943  0.03313626  0.06974771  1
  O2-  O271  1  0.92254374  0.03860900  0.39860924  1
  O2-  O272  1  0.92016635  0.03254606  0.73425224  1
  O2-  O273  1  0.91988277  0.54955536  0.05948407  1
  O2-  O274  1  0.92256022  0.55011196  0.39985719  1
  O2-  O275  1  0.91842428  0.54810334  0.73146103  1
  O2-  O276  1  0.29165919  0.16342240  0.06222782  1
  O2-  O277  1  0.29503430  0.16243394  0.39547002  1
  O2-  O278  1  0.28860315  0.16243516  0.73110520  1
  O2-  O279  1  0.28465569  0.66798548  0.06999564  1
  O2-  O280  1  0.28531382  0.66549953  0.39648206  1
  O2-  O281  1  0.28228653  0.66506819  0.73587477  1
  O2-  O282  1  0.79411029  0.16465018  0.06819060  1
  O2-  O283  1  0.80041522  0.17076548  0.39733137  1
  O2-  O284  1  0.80063653  0.16871287  0.73718959  1
  O2-  O285  1  0.80026382  0.66769605  0.06089576  1
  O2-  O286  1  0.79626596  0.67223037  0.39763327  1
  O2-  O287  1  0.80225334  0.66826244  0.72811653  1
