# generated using pymatgen
data_Ca2Al2SiO7
_symmetry_space_group_name_H-M   'P 1'
_cell_length_a   15.45682678
_cell_length_b   15.45626549
_cell_length_c   15.28199584
_cell_angle_alpha   90.01093452
_cell_angle_beta   90.00075353
_cell_angle_gamma   90.02380997
_symmetry_Int_Tables_number   1
_chemical_formula_structural   Ca2Al2SiO7
_chemical_formula_sum   'Ca48 Al48 Si24 O168'
_cell_volume   3650.94205928
_cell_formula_units_Z   24
loop_
 _symmetry_equiv_pos_site_id
 _symmetry_equiv_pos_as_xyz
  1  'x, y, z'
loop_
 _atom_type_symbol
 _atom_type_oxidation_number
  Ca2+  2.0
  Al0+  0.0
  Si0+  0.0
  O2-  -2.0
loop_
 _atom_site_type_symbol
 _atom_site_label
 _atom_site_symmetry_multiplicity
 _atom_site_fract_x
 _atom_site_fract_y
 _atom_site_fract_z
 _atom_site_occupancy
  Ca2+  Ca0  1  0.17135564  0.07469769  0.17365715  1
  Ca2+  Ca1  1  0.16419053  0.07387833  0.49945155  1
  Ca2+  Ca2  1  0.16359471  0.07200365  0.83796056  1
  Ca2+  Ca3  1  0.17414528  0.58367522  0.16372870  1
  Ca2+  Ca4  1  0.17996455  0.58682066  0.50423045  1
  Ca2+  Ca5  1  0.17746072  0.57784155  0.84385467  1
  Ca2+  Ca6  1  0.67137885  0.07873398  0.17044794  1
  Ca2+  Ca7  1  0.67074874  0.07179927  0.50010397  1
  Ca2+  Ca8  1  0.66793342  0.07794105  0.84233166  1
  Ca2+  Ca9  1  0.66212635  0.56803231  0.17005371  1
  Ca2+  Ca10  1  0.67244060  0.57981736  0.50670714  1
  Ca2+  Ca11  1  0.67145101  0.58185343  0.83441852  1
  Ca2+  Ca12  1  0.07806458  0.33527205  0.16137033  1
  Ca2+  Ca13  1  0.06855012  0.33537224  0.49412556  1
  Ca2+  Ca14  1  0.08033929  0.33449830  0.82737183  1
  Ca2+  Ca15  1  0.08345021  0.83486760  0.16128514  1
  Ca2+  Ca16  1  0.08093190  0.83684820  0.49190771  1
  Ca2+  Ca17  1  0.08853112  0.82974937  0.83197155  1
  Ca2+  Ca18  1  0.58207840  0.32888511  0.15539031  1
  Ca2+  Ca19  1  0.57905365  0.33570547  0.49618748  1
  Ca2+  Ca20  1  0.57659450  0.33461115  0.83473049  1
  Ca2+  Ca21  1  0.58421040  0.83641867  0.16188012  1
  Ca2+  Ca22  1  0.59348597  0.82735199  0.49683133  1
  Ca2+  Ca23  1  0.58611814  0.83057372  0.82524339  1
  Ca2+  Ca24  1  0.33550554  0.42515344  0.16810143  1
  Ca2+  Ca25  1  0.33759052  0.42606317  0.50604574  1
  Ca2+  Ca26  1  0.33872036  0.42277703  0.84024983  1
  Ca2+  Ca27  1  0.32298829  0.92053949  0.17335412  1
  Ca2+  Ca28  1  0.32322361  0.92143884  0.50163326  1
  Ca2+  Ca29  1  0.32238731  0.91273942  0.83742743  1
  Ca2+  Ca30  1  0.82050622  0.41002276  0.17186187  1
  Ca2+  Ca31  1  0.83027494  0.41472871  0.50432693  1
  Ca2+  Ca32  1  0.83174206  0.42016631  0.83730905  1
  Ca2+  Ca33  1  0.82701077  0.92621098  0.17335114  1
  Ca2+  Ca34  1  0.82940508  0.91575274  0.50186464  1
  Ca2+  Ca35  1  0.82056222  0.92273559  0.84142148  1
  Ca2+  Ca36  1  0.42303475  0.16893602  0.15527498  1
  Ca2+  Ca37  1  0.41409364  0.17016726  0.49509530  1
  Ca2+  Ca38  1  0.42052263  0.17814975  0.82999704  1
  Ca2+  Ca39  1  0.41156975  0.66521824  0.16275182  1
  Ca2+  Ca40  1  0.42036863  0.66232120  0.49887532  1
  Ca2+  Ca41  1  0.42146235  0.66147442  0.82737552  1
  Ca2+  Ca42  1  0.90762919  0.16689926  0.16531623  1
  Ca2+  Ca43  1  0.91086399  0.17484733  0.49304868  1
  Ca2+  Ca44  1  0.91329203  0.17172953  0.83118401  1
  Ca2+  Ca45  1  0.92376660  0.67687556  0.16082394  1
  Ca2+  Ca46  1  0.91621104  0.67213300  0.49260880  1
  Ca2+  Ca47  1  0.92474151  0.66167949  0.82823823  1
  Al0+  Al48  1  -0.00206974  0.00103665  0.00515502  1
  Al0+  Al49  1  -0.00125291  0.00138667  0.33558642  1
  Al0+  Al50  1  -0.00000431  -0.00034691  0.67160335  1
  Al0+  Al51  1  0.00236657  0.50247711  -0.00083122  1
  Al0+  Al52  1  -0.00019084  0.50027502  0.32482276  1
  Al0+  Al53  1  0.00083200  0.50041389  0.66308843  1
  Al0+  Al54  1  0.49959160  -0.00083943  -0.00413690  1
  Al0+  Al55  1  0.49950881  -0.00122650  0.34033969  1
  Al0+  Al56  1  0.49806859  0.00016189  0.66898478  1
  Al0+  Al57  1  0.50160477  0.50204336  0.00323822  1
  Al0+  Al58  1  0.50064261  0.49948405  0.34025953  1
  Al0+  Al59  1  0.50179468  0.50038725  0.66169078  1
  Al0+  Al60  1  0.24743458  0.25161547  -0.00281925  1
  Al0+  Al61  1  0.24826169  0.25242069  0.33535199  1
  Al0+  Al62  1  0.24950831  0.24895512  0.65927181  1
  Al0+  Al63  1  0.24948553  0.74946602  0.00243748  1
  Al0+  Al64  1  0.25231525  0.74885470  0.34022533  1
  Al0+  Al65  1  0.25189809  0.74938245  0.67319490  1
  Al0+  Al66  1  0.74954870  0.25026459  0.00007960  1
  Al0+  Al67  1  0.74683063  0.24921949  0.33806737  1
  Al0+  Al68  1  0.74848406  0.24909360  0.66218344  1
  Al0+  Al69  1  0.75054451  0.75168302  0.00223552  1
  Al0+  Al70  1  0.75104587  0.74731126  0.32625151  1
  Al0+  Al71  1  0.75123087  0.74849213  0.67133443  1
  Al0+  Al72  1  0.32255820  0.56828852  0.68193326  1
  Al0+  Al73  1  0.43005725  0.32065810  0.65087603  1
  Al0+  Al74  1  0.82279510  0.57011877  0.67894867  1
  Al0+  Al75  1  0.92657055  0.32026080  0.31707332  1
  Al0+  Al76  1  0.67920754  0.92512404  0.34865695  1
  Al0+  Al77  1  0.32227283  0.07410246  0.34699335  1
  Al0+  Al78  1  0.67970266  0.42871654  0.34874670  1
  Al0+  Al79  1  0.92901804  0.82206584  0.31898141  1
  Al0+  Al80  1  0.57220393  0.17772166  0.98455227  1
  Al0+  Al81  1  0.68166581  0.43202092  0.01094759  1
  Al0+  Al82  1  0.42810718  0.32292722  0.98674646  1
  Al0+  Al83  1  0.92932644  0.32112882  0.65342099  1
  Al0+  Al84  1  0.17669999  0.42649626  0.01441416  1
  Al0+  Al85  1  0.82012842  0.07106405  0.35053023  1
  Al0+  Al86  1  0.07093826  0.68105962  0.98472442  1
  Al0+  Al87  1  0.31990594  0.56885533  0.34943448  1
  Al0+  Al88  1  0.57208032  0.68157964  0.65291160  1
  Al0+  Al89  1  0.32218125  0.56959037  0.01499285  1
  Al0+  Al90  1  0.17969136  0.92934609  0.01415420  1
  Al0+  Al91  1  0.17905958  0.93024175  0.68234372  1
  Al0+  Al92  1  0.81953435  0.07210067  0.01488867  1
  Al0+  Al93  1  0.67935254  0.92855717  0.68052147  1
  Al0+  Al94  1  0.67573620  0.92755138  0.01538158  1
  Al0+  Al95  1  0.17868445  0.92925388  0.34798419  1
  Si0+  Si96  1  0.42838640  0.82026299  0.98578916  1
  Si0+  Si97  1  0.07333302  0.67974612  0.65131195  1
  Si0+  Si98  1  0.57035374  0.67746311  0.31717777  1
  Si0+  Si99  1  0.82296873  0.57068316  0.34636654  1
  Si0+  Si100  1  0.32168677  0.07481977  0.68502999  1
  Si0+  Si101  1  0.07082118  0.17751769  0.98535696  1
  Si0+  Si102  1  0.07201247  0.17933431  0.31552559  1
  Si0+  Si103  1  0.07561689  0.67929476  0.31609975  1
  Si0+  Si104  1  0.92886162  0.32145195  0.98546419  1
  Si0+  Si105  1  0.67896164  0.42691156  0.68340086  1
  Si0+  Si106  1  0.32107324  0.07324047  0.01248125  1
  Si0+  Si107  1  0.42927826  0.82027766  0.31984210  1
  Si0+  Si108  1  0.93068201  0.82001148  0.65426011  1
  Si0+  Si109  1  0.17801019  0.42758338  0.68003490  1
  Si0+  Si110  1  0.42631877  0.82258441  0.64932918  1
  Si0+  Si111  1  0.57251304  0.67941318  0.98605614  1
  Si0+  Si112  1  0.92800592  0.82360487  0.98128430  1
  Si0+  Si113  1  0.82081957  0.07328375  0.68383877  1
  Si0+  Si114  1  0.82513701  0.57356888  0.01734534  1
  Si0+  Si115  1  0.57137108  0.17519949  0.64690662  1
  Si0+  Si116  1  0.07095412  0.17517767  0.64895595  1
  Si0+  Si117  1  0.42850837  0.32276877  0.31855189  1
  Si0+  Si118  1  0.17460148  0.42819162  0.35068822  1
  Si0+  Si119  1  0.56744779  0.17791509  0.31976858  1
  O2-  O120  1  0.25320401  0.00542415  0.05903290  1
  O2-  O121  1  0.24886575  0.00349400  0.39730603  1
  O2-  O122  1  0.25377763  0.00517023  0.72903724  1
  O2-  O123  1  0.25196172  0.49525211  0.06400713  1
  O2-  O124  1  0.24388582  0.49546789  0.39587309  1
  O2-  O125  1  0.24983158  0.49108496  0.72642712  1
  O2-  O126  1  0.74687772  0.00038021  0.06372074  1
  O2-  O127  1  0.75341241  -0.00609610  0.39990005  1
  O2-  O128  1  0.75034294  0.00646120  0.72726786  1
  O2-  O129  1  0.75636514  0.50510001  0.06106610  1
  O2-  O130  1  0.75822349  0.50025495  0.39337498  1
  O2-  O131  1  0.75089203  0.49297094  0.72632436  1
  O2-  O132  1  0.00222537  0.24653675  0.27006167  1
  O2-  O133  1  0.00293738  0.24529745  0.60601219  1
  O2-  O134  1  0.00139244  0.25122383  0.94389630  1
  O2-  O135  1  0.00751052  0.74981012  0.27369177  1
  O2-  O136  1  0.00311730  0.75147763  0.60946126  1
  O2-  O137  1  -0.00464460  0.75414282  0.93561539  1
  O2-  O138  1  0.49367218  0.24644105  0.27721886  1
  O2-  O139  1  0.50264412  0.24421435  0.60280758  1
  O2-  O140  1  0.49878454  0.24958589  0.93610192  1
  O2-  O141  1  0.50156026  0.75108856  0.27580858  1
  O2-  O142  1  0.49892314  0.75784233  0.60487977  1
  O2-  O143  1  0.50372182  0.75302254  0.94463889  1
  O2-  O144  1  0.07182518  0.17628471  0.09007965  1
  O2-  O145  1  0.07234871  0.18191522  0.42128920  1
  O2-  O146  1  0.07057837  0.17448061  0.75486994  1
  O2-  O147  1  0.07048238  0.68348613  0.09786843  1
  O2-  O148  1  0.07490169  0.67804307  0.42222625  1
  O2-  O149  1  0.07247718  0.67914503  0.75629278  1
  O2-  O150  1  0.57073771  0.17856031  0.09872924  1
  O2-  O151  1  0.56658779  0.17945443  0.42503936  1
  O2-  O152  1  0.57199832  0.17565398  0.75226596  1
  O2-  O153  1  0.57117540  0.67782487  0.09133108  1
  O2-  O154  1  0.57071708  0.67723097  0.42232686  1
  O2-  O155  1  0.57135717  0.68176535  0.76632982  1
  O2-  O156  1  0.17555340  0.42780800  0.24535602  1
  O2-  O157  1  0.17649361  0.43240094  0.57438507  1
  O2-  O158  1  0.17344343  0.42892616  0.90059444  1
  O2-  O159  1  0.18200264  0.92866555  0.23443428  1
  O2-  O160  1  0.17797873  0.93079639  0.56961312  1
  O2-  O161  1  0.18109483  0.92969952  0.90080953  1
  O2-  O162  1  0.67701046  0.42949625  0.23547857  1
  O2-  O163  1  0.67984222  0.42836062  0.57758062  1
  O2-  O164  1  0.68299512  0.43422168  0.89776583  1
  O2-  O165  1  0.67689174  0.92820501  0.23564164  1
  O2-  O166  1  0.68452511  0.92698133  0.56777212  1
  O2-  O167  1  0.67802862  0.92618783  0.90149984  1
  O2-  O168  1  0.43065427  0.32166297  0.10080763  1
  O2-  O169  1  0.43172482  0.32375105  0.42382845  1
  O2-  O170  1  0.43158871  0.32084676  0.76374292  1
  O2-  O171  1  0.42712129  0.81988205  0.09117435  1
  O2-  O172  1  0.42775983  0.81801926  0.42476169  1
  O2-  O173  1  0.42503981  0.82026621  0.75524668  1
  O2-  O174  1  0.92794537  0.32018009  0.09042062  1
  O2-  O175  1  0.92873794  0.32075156  0.43044273  1
  O2-  O176  1  0.93108742  0.32075929  0.76696974  1
  O2-  O177  1  0.92926586  0.82189416  0.08683556  1
  O2-  O178  1  0.92867415  0.81734756  0.43300349  1
  O2-  O179  1  0.93223411  0.81875431  0.75918868  1
  O2-  O180  1  0.32263679  0.07173140  0.23301690  1
  O2-  O181  1  0.32061583  0.07392435  0.57946104  1
  O2-  O182  1  0.31818579  0.07148207  0.90680879  1
  O2-  O183  1  0.32106811  0.56886602  0.23676582  1
  O2-  O184  1  0.32049384  0.56923809  0.56868673  1
  O2-  O185  1  0.32288553  0.56946512  0.90142793  1
  O2-  O186  1  0.81563377  0.07252472  0.23740532  1
  O2-  O187  1  0.82222637  0.07240820  0.57857820  1
  O2-  O188  1  0.82039485  0.07118502  0.90071146  1
  O2-  O189  1  0.81970365  0.57024085  0.24087064  1
  O2-  O190  1  0.82166881  0.57132127  0.56577315  1
  O2-  O191  1  0.82482684  0.57173781  0.91130494  1
  O2-  O192  1  0.04907900  0.08451472  0.27133969  1
  O2-  O193  1  0.04280216  0.08177603  0.60322173  1
  O2-  O194  1  0.03946949  0.08674909  0.93664975  1
  O2-  O195  1  0.04968885  0.58671858  0.26791220  1
  O2-  O196  1  0.04562966  0.58894375  0.60198972  1
  O2-  O197  1  0.04096355  0.58416219  0.92935578  1
  O2-  O198  1  0.54208608  0.08459910  0.27373194  1
  O2-  O199  1  0.54453598  0.08133873  0.60127160  1
  O2-  O200  1  0.54418723  0.07950886  0.92984521  1
  O2-  O201  1  0.53716709  0.58618403  0.27122111  1
  O2-  O202  1  0.54184762  0.58576828  0.59704443  1
  O2-  O203  1  0.54282054  0.58920426  0.93695737  1
  O2-  O204  1  0.16564609  0.20634714  0.26892573  1
  O2-  O205  1  0.16450442  0.19732542  0.60141038  1
  O2-  O206  1  0.16182376  0.20221030  0.93431235  1
  O2-  O207  1  0.16997163  0.70519681  0.27190266  1
  O2-  O208  1  0.16575762  0.70863419  0.60561400  1
  O2-  O209  1  0.16764943  0.71298197  0.93089277  1
  O2-  O210  1  0.65828673  0.20921687  0.27348360  1
  O2-  O211  1  0.66483509  0.20067477  0.60020648  1
  O2-  O212  1  0.66960872  0.20893960  0.93052724  1
  O2-  O213  1  0.66212245  0.69984067  0.26739717  1
  O2-  O214  1  0.66978651  0.71148516  0.59935246  1
  O2-  O215  1  0.66588175  0.70411995  0.93912884  1
  O2-  O216  1  0.08018371  0.45970471  0.06892902  1
  O2-  O217  1  0.08021844  0.45562201  0.39451861  1
  O2-  O218  1  0.08585081  0.45638767  0.72680524  1
  O2-  O219  1  0.08292863  0.95855501  0.06669838  1
  O2-  O220  1  0.08055000  0.95684520  0.40113839  1
  O2-  O221  1  0.08280462  0.96041152  0.73825660  1
  O2-  O222  1  0.58714577  0.46378509  0.06798115  1
  O2-  O223  1  0.58622596  0.46391966  0.40532291  1
  O2-  O224  1  0.58691035  0.45756496  0.72802192  1
  O2-  O225  1  0.57543720  0.95289242  0.06560022  1
  O2-  O226  1  0.58176671  0.95345501  0.40332990  1
  O2-  O227  1  0.57969464  0.95363651  0.73143294  1
  O2-  O228  1  0.19797947  0.32617980  0.06625993  1
  O2-  O229  1  0.19712660  0.33454232  0.39750514  1
  O2-  O230  1  0.19707459  0.33042783  0.72102785  1
  O2-  O231  1  0.21283709  0.83462339  0.06849623  1
  O2-  O232  1  0.20920259  0.83243343  0.40261522  1
  O2-  O233  1  0.21151654  0.83436289  0.73675920  1
  O2-  O234  1  0.71130199  0.33576867  0.06520793  1
  O2-  O235  1  0.70694057  0.33301965  0.40471432  1
  O2-  O236  1  0.70146885  0.33165364  0.72697864  1
  O2-  O237  1  0.70388123  0.82900703  0.06840460  1
  O2-  O238  1  0.70722085  0.82420602  0.39669784  1
  O2-  O239  1  0.71322418  0.83401741  0.73607845  1
  O2-  O240  1  0.46259427  0.41324217  0.27250176  1
  O2-  O241  1  0.46383184  0.41559601  0.59515597  1
  O2-  O242  1  0.46185565  0.42075812  0.93463201  1
  O2-  O243  1  0.45485239  0.91324774  0.27334265  1
  O2-  O244  1  0.44562296  0.91883948  0.60624209  1
  O2-  O245  1  0.45046022  0.91235860  0.93587235  1
  O2-  O246  1  0.95510196  0.41719678  0.26174157  1
  O2-  O247  1  0.96118353  0.41684901  0.59684872  1
  O2-  O248  1  0.95545381  0.41419340  0.93913135  1
  O2-  O249  1  0.95609360  0.92044630  0.26697432  1
  O2-  O250  1  0.95653310  0.91331691  0.60834387  1
  O2-  O251  1  0.95436446  0.91763983  0.93664201  1
  O2-  O252  1  0.33313112  0.30339110  0.27491368  1
  O2-  O253  1  0.33225845  0.29341328  0.59572538  1
  O2-  O254  1  0.32858740  0.29818135  0.93313659  1
  O2-  O255  1  0.33813454  0.78935688  0.27191795  1
  O2-  O256  1  0.33406734  0.79146089  0.60312685  1
  O2-  O257  1  0.33846627  0.78837571  0.93703986  1
  O2-  O258  1  0.82845099  0.28781496  0.26668181  1
  O2-  O259  1  0.83200646  0.29216001  0.59915975  1
  O2-  O260  1  0.83852564  0.29255090  0.93592401  1
  O2-  O261  1  0.83517783  0.78725483  0.26094245  1
  O2-  O262  1  0.84005253  0.78914365  0.60700466  1
  O2-  O263  1  0.83317988  0.79832310  0.93669489  1
  O2-  O264  1  0.41488893  0.04744754  0.05688367  1
  O2-  O265  1  0.41769059  0.04372296  0.40419046  1
  O2-  O266  1  0.41565123  0.05120788  0.73074313  1
  O2-  O267  1  0.42042787  0.54499037  0.06977108  1
  O2-  O268  1  0.41516647  0.53639524  0.40458219  1
  O2-  O269  1  0.42087351  0.53864229  0.73246088  1
  O2-  O270  1  0.91700874  0.04459712  0.06976125  1
  O2-  O271  1  0.92041808  0.04987797  0.40196123  1
  O2-  O272  1  0.91389023  0.04710539  0.73060164  1
  O2-  O273  1  0.91853389  0.54952458  0.06279476  1
  O2-  O274  1  0.91900059  0.55026241  0.38958905  1
  O2-  O275  1  0.92026856  0.54055267  0.73258864  1
  O2-  O276  1  0.29684782  0.16699362  0.05780278  1
  O2-  O277  1  0.29538752  0.17330723  0.40001312  1
  O2-  O278  1  0.29459560  0.16893529  0.72920191  1
  O2-  O279  1  0.28946704  0.66640065  0.06852076  1
  O2-  O280  1  0.29164681  0.66486115  0.40560931  1
  O2-  O281  1  0.29201453  0.66434148  0.73606353  1
  O2-  O282  1  0.79289263  0.17066227  0.06739697  1
  O2-  O283  1  0.78556703  0.16648059  0.40549571  1
  O2-  O284  1  0.79571442  0.16784072  0.72847907  1
  O2-  O285  1  0.80016151  0.66760790  0.06186005  1
  O2-  O286  1  0.79427973  0.66311514  0.39255466  1
  O2-  O287  1  0.79091910  0.66391673  0.73714015  1
