# generated using pymatgen
data_Ca2Al2SiO7
_symmetry_space_group_name_H-M   'P 1'
_cell_length_a   15.46534465
_cell_length_b   15.46387239
_cell_length_c   15.28793642
_cell_angle_alpha   89.98945762
_cell_angle_beta   89.97316288
_cell_angle_gamma   90.00669557
_symmetry_Int_Tables_number   1
_chemical_formula_structural   Ca2Al2SiO7
_chemical_formula_sum   'Ca48 Al48 Si24 O168'
_cell_volume   3656.17243271
_cell_formula_units_Z   24
loop_
 _symmetry_equiv_pos_site_id
 _symmetry_equiv_pos_as_xyz
  1  'x, y, z'
loop_
 _atom_type_symbol
 _atom_type_oxidation_number
  Ca2+  2.0
  Al0+  0.0
  Si0+  0.0
  O2-  -2.0
loop_
 _atom_site_type_symbol
 _atom_site_label
 _atom_site_symmetry_multiplicity
 _atom_site_fract_x
 _atom_site_fract_y
 _atom_site_fract_z
 _atom_site_occupancy
  Ca2+  Ca0  1  0.18091373  0.07661301  0.17532065  1
  Ca2+  Ca1  1  0.17796063  0.07708202  0.50002385  1
  Ca2+  Ca2  1  0.18060375  0.08016817  0.83761839  1
  Ca2+  Ca3  1  0.17319380  0.58125652  0.16453470  1
  Ca2+  Ca4  1  0.17504345  0.58282193  0.50290076  1
  Ca2+  Ca5  1  0.17796118  0.58248376  0.83923966  1
  Ca2+  Ca6  1  0.65922456  0.07965184  0.17504983  1
  Ca2+  Ca7  1  0.66459141  0.07551116  0.50034843  1
  Ca2+  Ca8  1  0.66980308  0.08344829  0.83687922  1
  Ca2+  Ca9  1  0.67503795  0.58397937  0.17899385  1
  Ca2+  Ca10  1  0.67020744  0.58911779  0.50121428  1
  Ca2+  Ca11  1  0.67536139  0.59447903  0.83357276  1
  Ca2+  Ca12  1  0.07909917  0.33985452  0.16410656  1
  Ca2+  Ca13  1  0.07506947  0.33120952  0.49046781  1
  Ca2+  Ca14  1  0.08796550  0.33589298  0.83268425  1
  Ca2+  Ca15  1  0.07882356  0.83905148  0.16982695  1
  Ca2+  Ca16  1  0.07216531  0.83972148  0.49403306  1
  Ca2+  Ca17  1  0.07552771  0.83203089  0.82681324  1
  Ca2+  Ca18  1  0.58286903  0.32481176  0.17006489  1
  Ca2+  Ca19  1  0.58122374  0.32595595  0.48664893  1
  Ca2+  Ca20  1  0.58513349  0.32630975  0.83344491  1
  Ca2+  Ca21  1  0.57566647  0.83340976  0.16976937  1
  Ca2+  Ca22  1  0.57741577  0.82490087  0.49401681  1
  Ca2+  Ca23  1  0.57079753  0.82519474  0.82727205  1
  Ca2+  Ca24  1  0.33237962  0.41588549  0.17018795  1
  Ca2+  Ca25  1  0.34069646  0.42209902  0.50401730  1
  Ca2+  Ca26  1  0.33102458  0.43168345  0.83999327  1
  Ca2+  Ca27  1  0.33909654  0.92218283  0.17610957  1
  Ca2+  Ca28  1  0.34316679  0.92336329  0.50123815  1
  Ca2+  Ca29  1  0.34589475  0.92217029  0.83716326  1
  Ca2+  Ca30  1  0.82742102  0.42604671  0.17711720  1
  Ca2+  Ca31  1  0.82796755  0.42446908  0.49914648  1
  Ca2+  Ca32  1  0.83134149  0.43109054  0.83873298  1
  Ca2+  Ca33  1  0.82410304  0.91682618  0.17972598  1
  Ca2+  Ca34  1  0.82716001  0.91119788  0.50350966  1
  Ca2+  Ca35  1  0.83410187  0.91859612  0.83241577  1
  Ca2+  Ca36  1  0.42510587  0.15998999  0.16489416  1
  Ca2+  Ca37  1  0.41641560  0.17072386  0.48873177  1
  Ca2+  Ca38  1  0.41818071  0.16166598  0.83237077  1
  Ca2+  Ca39  1  0.41780711  0.67687934  0.16077156  1
  Ca2+  Ca40  1  0.42637554  0.67057865  0.49213840  1
  Ca2+  Ca41  1  0.41412396  0.67327873  0.82276879  1
  Ca2+  Ca42  1  0.91462991  0.17681270  0.16574841  1
  Ca2+  Ca43  1  0.91437638  0.17036690  0.49254407  1
  Ca2+  Ca44  1  0.91936398  0.16756026  0.82409289  1
  Ca2+  Ca45  1  0.91022283  0.66786758  0.16738009  1
  Ca2+  Ca46  1  0.91146746  0.67240584  0.49413736  1
  Ca2+  Ca47  1  0.91509423  0.66803571  0.82576814  1
  Al0+  Al48  1  0.00035771  0.00314864  -0.00170493  1
  Al0+  Al49  1  0.00252079  0.00048308  0.33047460  1
  Al0+  Al50  1  0.00040401  0.00106055  0.66662065  1
  Al0+  Al51  1  -0.00093090  0.50228945  0.00510849  1
  Al0+  Al52  1  0.00075091  0.50120987  0.33269626  1
  Al0+  Al53  1  -0.00254334  0.49847912  0.66939344  1
  Al0+  Al54  1  0.50257545  -0.00062601  -0.00590413  1
  Al0+  Al55  1  0.50191217  -0.00050569  0.33761630  1
  Al0+  Al56  1  0.50177397  -0.00062461  0.66901727  1
  Al0+  Al57  1  0.50286954  0.49896291  0.00222548  1
  Al0+  Al58  1  0.50182053  0.49767395  0.32770793  1
  Al0+  Al59  1  0.49986030  0.49700795  0.67000614  1
  Al0+  Al60  1  0.24982253  0.24912810  0.00628217  1
  Al0+  Al61  1  0.24878911  0.25018105  0.33359058  1
  Al0+  Al62  1  0.24910296  0.24630387  0.66991933  1
  Al0+  Al63  1  0.24627452  0.75112037  -0.00156308  1
  Al0+  Al64  1  0.24670331  0.74949135  0.33394508  1
  Al0+  Al65  1  0.24706610  0.75094494  0.66563020  1
  Al0+  Al66  1  0.75150501  0.25156239  -0.00642168  1
  Al0+  Al67  1  0.75092513  0.25243532  0.32751678  1
  Al0+  Al68  1  0.75059811  0.24961820  0.67090273  1
  Al0+  Al69  1  0.74880392  0.75304763  0.00311694  1
  Al0+  Al70  1  0.75131530  0.75241511  0.33371839  1
  Al0+  Al71  1  0.74883632  0.74969095  0.66630943  1
  Al0+  Al72  1  0.92989287  0.32216212  0.31931502  1
  Al0+  Al73  1  0.81774739  0.57281613  0.01474143  1
  Al0+  Al74  1  0.32100075  0.57107745  0.67737204  1
  Al0+  Al75  1  0.18042403  0.42978484  0.01536387  1
  Al0+  Al76  1  0.42822087  0.81833756  0.98642825  1
  Al0+  Al77  1  0.56937527  0.67595344  0.65235699  1
  Al0+  Al78  1  0.17761974  0.92640445  0.34935873  1
  Al0+  Al79  1  0.42662530  0.82230704  0.65035351  1
  Al0+  Al80  1  0.57044518  0.17809207  0.32074613  1
  Al0+  Al81  1  0.32279207  0.06706801  0.01421516  1
  Al0+  Al82  1  0.32207479  0.06968943  0.34886511  1
  Al0+  Al83  1  0.57049541  0.17971436  0.98388427  1
  Al0+  Al84  1  0.93019985  0.82125965  0.31945802  1
  Al0+  Al85  1  0.67963329  0.92973081  0.34789095  1
  Al0+  Al86  1  0.81894719  0.57089704  0.68090505  1
  Al0+  Al87  1  0.67769580  0.42794983  0.34802029  1
  Al0+  Al88  1  0.42596238  0.32222473  0.31826217  1
  Al0+  Al89  1  0.82113663  0.57155073  0.35010568  1
  Al0+  Al90  1  0.32366054  0.57443379  0.01522179  1
  Al0+  Al91  1  0.82097806  0.07115343  0.67921382  1
  Al0+  Al92  1  0.93024726  0.82070237  0.65376312  1
  Al0+  Al93  1  0.42754804  0.81970007  0.31965036  1
  Al0+  Al94  1  0.32178755  0.06904192  0.68220715  1
  Al0+  Al95  1  0.57249875  0.67862854  0.31745588  1
  Si0+  Si96  1  0.82361058  0.07351944  0.01463033  1
  Si0+  Si97  1  0.92849607  0.32104192  0.65205624  1
  Si0+  Si98  1  0.82332726  0.07330615  0.34623578  1
  Si0+  Si99  1  0.32170600  0.57031687  0.34634034  1
  Si0+  Si100  1  0.17838996  0.42910693  0.34854297  1
  Si0+  Si101  1  0.57351784  0.67698665  0.98477878  1
  Si0+  Si102  1  0.93115431  0.32254931  0.98211135  1
  Si0+  Si103  1  0.68213216  0.93288594  0.01476931  1
  Si0+  Si104  1  0.42569698  0.32243289  0.98176337  1
  Si0+  Si105  1  0.92734401  0.82304350  0.98528401  1
  Si0+  Si106  1  0.67956274  0.42428387  0.01741320  1
  Si0+  Si107  1  0.07169977  0.17977184  0.65094759  1
  Si0+  Si108  1  0.07087342  0.67488432  0.65027571  1
  Si0+  Si109  1  0.07213844  0.17863325  0.31444941  1
  Si0+  Si110  1  0.17388716  0.92857167  0.01606340  1
  Si0+  Si111  1  0.07149663  0.17961843  0.98325264  1
  Si0+  Si112  1  0.67901477  0.92770588  0.68642797  1
  Si0+  Si113  1  0.07256392  0.67619100  0.31450982  1
  Si0+  Si114  1  0.57315599  0.17987909  0.65253333  1
  Si0+  Si115  1  0.17709024  0.42687532  0.68077906  1
  Si0+  Si116  1  0.67750851  0.42535873  0.68558675  1
  Si0+  Si117  1  0.17591154  0.92880161  0.68421822  1
  Si0+  Si118  1  0.42765836  0.31769938  0.65520284  1
  Si0+  Si119  1  0.06804085  0.67892473  0.98402976  1
  O2-  O120  1  0.24902111  -0.00949552  0.05849938  1
  O2-  O121  1  0.25355248  -0.00591919  0.39928108  1
  O2-  O122  1  0.25158733  -0.01048499  0.72890281  1
  O2-  O123  1  0.25629236  0.49757919  0.06540167  1
  O2-  O124  1  0.25347591  0.49586920  0.38968551  1
  O2-  O125  1  0.24417966  0.49741661  0.72361083  1
  O2-  O126  1  0.75331336  0.00373801  0.05760595  1
  O2-  O127  1  0.75596302  0.00483335  0.39189819  1
  O2-  O128  1  0.74839271  -0.00309912  0.72998264  1
  O2-  O129  1  0.74107615  0.50005766  0.05956083  1
  O2-  O130  1  0.74613559  0.50238650  0.39966000  1
  O2-  O131  1  0.74219373  0.49872719  0.72883268  1
  O2-  O132  1  0.00360628  0.24750377  0.27012949  1
  O2-  O133  1  0.00008714  0.25071187  0.60961831  1
  O2-  O134  1  0.00213630  0.25173462  0.93875506  1
  O2-  O135  1  0.00415131  0.74639759  0.27174307  1
  O2-  O136  1  0.00263152  0.74399158  0.60677187  1
  O2-  O137  1  -0.00266567  0.75130609  0.94273774  1
  O2-  O138  1  0.49591370  0.24729646  0.27005340  1
  O2-  O139  1  0.49893254  0.24765133  0.61207046  1
  O2-  O140  1  0.49505494  0.25414324  0.93670477  1
  O2-  O141  1  0.49701920  0.74675475  0.26731474  1
  O2-  O142  1  0.49462797  0.74539786  0.60316488  1
  O2-  O143  1  0.49605103  0.73593686  0.94089939  1
  O2-  O144  1  0.06700326  0.17705986  0.08758022  1
  O2-  O145  1  0.07142025  0.18072566  0.42054484  1
  O2-  O146  1  0.07210839  0.18157975  0.75644941  1
  O2-  O147  1  0.06814715  0.67808684  0.08863232  1
  O2-  O148  1  0.07285470  0.67229082  0.42005209  1
  O2-  O149  1  0.06938402  0.67450081  0.75636799  1
  O2-  O150  1  0.57203729  0.17882101  0.09600887  1
  O2-  O151  1  0.57128446  0.17954846  0.43486754  1
  O2-  O152  1  0.57438992  0.18227658  0.75798648  1
  O2-  O153  1  0.57825356  0.68258760  0.08948378  1
  O2-  O154  1  0.57058921  0.67948545  0.43103827  1
  O2-  O155  1  0.56968207  0.67903454  0.76667612  1
  O2-  O156  1  0.17607156  0.43163323  0.24380486  1
  O2-  O157  1  0.17643389  0.42533612  0.57522226  1
  O2-  O158  1  0.17939613  0.43278494  0.90113359  1
  O2-  O159  1  0.17536888  0.93151318  0.23548305  1
  O2-  O160  1  0.16994335  0.93470150  0.57963602  1
  O2-  O161  1  0.16658453  0.93260518  0.91058656  1
  O2-  O162  1  0.68253573  0.42643731  0.23437555  1
  O2-  O163  1  0.68024466  0.41900377  0.58094582  1
  O2-  O164  1  0.68425048  0.42027593  0.91145911  1
  O2-  O165  1  0.68058378  0.93136922  0.23406730  1
  O2-  O166  1  0.67920762  0.92899519  0.58122542  1
  O2-  O167  1  0.68579580  0.93271082  0.90955739  1
  O2-  O168  1  0.42538701  0.32118136  0.08663968  1
  O2-  O169  1  0.42547674  0.32098688  0.43289362  1
  O2-  O170  1  0.42724697  0.31670419  0.76032287  1
  O2-  O171  1  0.43162896  0.82146698  0.09891353  1
  O2-  O172  1  0.42906068  0.81757295  0.43291344  1
  O2-  O173  1  0.43021142  0.82164609  0.76462438  1
  O2-  O174  1  0.93089572  0.32021285  0.08683874  1
  O2-  O175  1  0.93239081  0.32025961  0.43300266  1
  O2-  O176  1  0.93034369  0.32081603  0.75747618  1
  O2-  O177  1  0.92796056  0.82496972  0.08981525  1
  O2-  O178  1  0.93102348  0.82125689  0.43251326  1
  O2-  O179  1  0.93263953  0.82041130  0.76791300  1
  O2-  O180  1  0.32120585  0.06903412  0.23512835  1
  O2-  O181  1  0.31893704  0.07534511  0.57022719  1
  O2-  O182  1  0.32028646  0.06656190  0.90060513  1
  O2-  O183  1  0.31805712  0.57109040  0.24151544  1
  O2-  O184  1  0.32061263  0.56690697  0.56420922  1
  O2-  O185  1  0.31884824  0.57433693  0.90117198  1
  O2-  O186  1  0.82305151  0.07140265  0.24000970  1
  O2-  O187  1  0.81922482  0.07453424  0.56681194  1
  O2-  O188  1  0.82519091  0.07147858  0.90931322  1
  O2-  O189  1  0.82146817  0.56924807  0.23621809  1
  O2-  O190  1  0.82300506  0.56810581  0.56905208  1
  O2-  O191  1  0.81877559  0.57266503  0.90105116  1
  O2-  O192  1  0.04697104  0.08615242  0.26682063  1
  O2-  O193  1  0.04267622  0.08902629  0.60378872  1
  O2-  O194  1  0.04132382  0.08922309  0.93274592  1
  O2-  O195  1  0.04532731  0.58421524  0.26612362  1
  O2-  O196  1  0.04569862  0.58045305  0.60543104  1
  O2-  O197  1  0.03833269  0.58780648  0.93590808  1
  O2-  O198  1  0.54338083  0.07974004  0.26768797  1
  O2-  O199  1  0.54988816  0.08584496  0.60927241  1
  O2-  O200  1  0.54126612  0.08408152  0.92688404  1
  O2-  O201  1  0.55049038  0.57878347  0.26580547  1
  O2-  O202  1  0.54580699  0.57475600  0.60271681  1
  O2-  O203  1  0.56200671  0.57885699  0.94278160  1
  O2-  O204  1  0.16460443  0.20592609  0.26802741  1
  O2-  O205  1  0.16267227  0.20857158  0.60252792  1
  O2-  O206  1  0.16410281  0.20691485  0.93672639  1
  O2-  O207  1  0.16513181  0.70173069  0.26646183  1
  O2-  O208  1  0.16426097  0.69889441  0.60374199  1
  O2-  O209  1  0.15896405  0.70630485  0.93400632  1
  O2-  O210  1  0.66791836  0.20676731  0.26533957  1
  O2-  O211  1  0.66433201  0.21003964  0.60593065  1
  O2-  O212  1  0.66777540  0.21142780  0.92849813  1
  O2-  O213  1  0.66959297  0.71189830  0.26562451  1
  O2-  O214  1  0.66743129  0.70693038  0.60115020  1
  O2-  O215  1  0.66347303  0.71454731  0.93615412  1
  O2-  O216  1  0.08323840  0.46224011  0.06862987  1
  O2-  O217  1  0.08895611  0.46102263  0.39830369  1
  O2-  O218  1  0.08325487  0.44976420  0.72809249  1
  O2-  O219  1  0.08294659  0.96163401  0.06440187  1
  O2-  O220  1  0.08083412  0.96219520  0.40253615  1
  O2-  O221  1  0.08609038  0.96244666  0.73446333  1
  O2-  O222  1  0.58267072  0.43929141  0.05886120  1
  O2-  O223  1  0.57660266  0.44894888  0.39871073  1
  O2-  O224  1  0.58278678  0.44510562  0.73199638  1
  O2-  O225  1  0.59088579  0.96270974  0.06016763  1
  O2-  O226  1  0.58600857  0.96111580  0.40593480  1
  O2-  O227  1  0.58700053  0.95592686  0.73438050  1
  O2-  O228  1  0.20102496  0.32991962  0.06837952  1
  O2-  O229  1  0.19912920  0.33564599  0.39569809  1
  O2-  O230  1  0.20366306  0.33412610  0.72846267  1
  O2-  O231  1  0.19032523  0.83221380  0.05800403  1
  O2-  O232  1  0.19479052  0.82498146  0.40031366  1
  O2-  O233  1  0.19089703  0.83163800  0.72701070  1
  O2-  O234  1  0.71401848  0.33350252  0.06355914  1
  O2-  O235  1  0.71174880  0.33041886  0.40065568  1
  O2-  O236  1  0.70968438  0.33503327  0.73584909  1
  O2-  O237  1  0.70994008  0.84230291  0.06367689  1
  O2-  O238  1  0.71349003  0.83557979  0.40328421  1
  O2-  O239  1  0.70611385  0.83517714  0.73352962  1
  O2-  O240  1  0.45466288  0.41821501  0.26160270  1
  O2-  O241  1  0.45373900  0.40992519  0.60851976  1
  O2-  O242  1  0.45221193  0.41703654  0.93608494  1
  O2-  O243  1  0.46038238  0.91778573  0.26954375  1
  O2-  O244  1  0.46119523  0.92034419  0.60034928  1
  O2-  O245  1  0.46825667  0.91117688  0.93036297  1
  O2-  O246  1  0.96407165  0.41732323  0.26479108  1
  O2-  O247  1  0.95591187  0.41249667  0.60428348  1
  O2-  O248  1  0.96021216  0.41506371  0.93637958  1
  O2-  O249  1  0.96110506  0.91777113  0.26371356  1
  O2-  O250  1  0.96133392  0.91769942  0.60094692  1
  O2-  O251  1  0.95621331  0.91525370  0.93757264  1
  O2-  O252  1  0.32542686  0.29871497  0.26731257  1
  O2-  O253  1  0.33555174  0.29009510  0.60803805  1
  O2-  O254  1  0.33135709  0.29601440  0.93713708  1
  O2-  O255  1  0.32704432  0.79519662  0.26879749  1
  O2-  O256  1  0.32400712  0.80379823  0.60314020  1
  O2-  O257  1  0.32774461  0.79753645  0.93419326  1
  O2-  O258  1  0.83602705  0.29141209  0.26088297  1
  O2-  O259  1  0.83690288  0.29105555  0.60649408  1
  O2-  O260  1  0.84066005  0.29420445  0.93247995  1
  O2-  O261  1  0.83461242  0.79169195  0.26385724  1
  O2-  O262  1  0.83256094  0.79270112  0.60252621  1
  O2-  O263  1  0.83527925  0.79604134  0.93788280  1
  O2-  O264  1  0.42101867  0.03703428  0.06397356  1
  O2-  O265  1  0.42027920  0.04519292  0.40286576  1
  O2-  O266  1  0.42022030  0.04282162  0.73567617  1
  O2-  O267  1  0.42525385  0.55302947  0.06353297  1
  O2-  O268  1  0.41411946  0.54329293  0.39169189  1
  O2-  O269  1  0.41536308  0.53783784  0.73477548  1
  O2-  O270  1  0.91569299  0.04743721  0.06172383  1
  O2-  O271  1  0.91790619  0.05034083  0.39057671  1
  O2-  O272  1  0.91820604  0.04209646  0.73450529  1
  O2-  O273  1  0.91366825  0.54108389  0.06774132  1
  O2-  O274  1  0.91994745  0.54055852  0.40098287  1
  O2-  O275  1  0.91495311  0.53721798  0.73680537  1
  O2-  O276  1  0.29131267  0.16331718  0.06689254  1
  O2-  O277  1  0.28833375  0.16802501  0.40055375  1
  O2-  O278  1  0.28503309  0.16363488  0.73852660  1
  O2-  O279  1  0.28688320  0.67076944  0.06745949  1
  O2-  O280  1  0.28966997  0.65985640  0.39514894  1
  O2-  O281  1  0.28977516  0.66803143  0.73118309  1
  O2-  O282  1  0.79726189  0.16721273  0.05794794  1
  O2-  O283  1  0.79928673  0.16761661  0.39026429  1
  O2-  O284  1  0.79087896  0.16680714  0.73724122  1
  O2-  O285  1  0.79059773  0.67083406  0.06753440  1
  O2-  O286  1  0.79541596  0.67109716  0.40023499  1
  O2-  O287  1  0.79041661  0.66817366  0.73585159  1
