# generated using pymatgen
data_Ca2Al2SiO7
_symmetry_space_group_name_H-M   'P 1'
_cell_length_a   15.46188132
_cell_length_b   15.46314830
_cell_length_c   15.28704439
_cell_angle_alpha   90.01024482
_cell_angle_beta   89.99584183
_cell_angle_gamma   90.01260002
_symmetry_Int_Tables_number   1
_chemical_formula_structural   Ca2Al2SiO7
_chemical_formula_sum   'Ca48 Al48 Si24 O168'
_cell_volume   3654.96956199
_cell_formula_units_Z   24
loop_
 _symmetry_equiv_pos_site_id
 _symmetry_equiv_pos_as_xyz
  1  'x, y, z'
loop_
 _atom_type_symbol
 _atom_type_oxidation_number
  Ca2+  2.0
  Al0+  0.0
  Si0+  0.0
  O2-  -2.0
loop_
 _atom_site_type_symbol
 _atom_site_label
 _atom_site_symmetry_multiplicity
 _atom_site_fract_x
 _atom_site_fract_y
 _atom_site_fract_z
 _atom_site_occupancy
  Ca2+  Ca0  1  0.17142952  0.08145163  0.18014440  1
  Ca2+  Ca1  1  0.17889963  0.09461959  0.49885703  1
  Ca2+  Ca2  1  0.17357041  0.08583581  0.83197103  1
  Ca2+  Ca3  1  0.17473975  0.57581212  0.17146211  1
  Ca2+  Ca4  1  0.16775006  0.56950354  0.50402612  1
  Ca2+  Ca5  1  0.17141890  0.57681185  0.83518653  1
  Ca2+  Ca6  1  0.67015589  0.08373542  0.17410168  1
  Ca2+  Ca7  1  0.67484939  0.07900157  0.50816573  1
  Ca2+  Ca8  1  0.66678570  0.08785190  0.83140141  1
  Ca2+  Ca9  1  0.66076418  0.57769462  0.16382586  1
  Ca2+  Ca10  1  0.67267178  0.57268478  0.50911921  1
  Ca2+  Ca11  1  0.66830568  0.57156083  0.83690447  1
  Ca2+  Ca12  1  0.07515009  0.33312314  0.16957855  1
  Ca2+  Ca13  1  0.07499158  0.33308077  0.49104463  1
  Ca2+  Ca14  1  0.07237512  0.33970506  0.82662836  1
  Ca2+  Ca15  1  0.08591605  0.83626524  0.16507833  1
  Ca2+  Ca16  1  0.08061504  0.83556974  0.49625001  1
  Ca2+  Ca17  1  0.07576534  0.82810783  0.82387165  1
  Ca2+  Ca18  1  0.57405386  0.32785101  0.15567198  1
  Ca2+  Ca19  1  0.58316941  0.32589652  0.49743018  1
  Ca2+  Ca20  1  0.58597446  0.32662653  0.82971825  1
  Ca2+  Ca21  1  0.57997227  0.83179508  0.16537228  1
  Ca2+  Ca22  1  0.58470741  0.83750457  0.49469835  1
  Ca2+  Ca23  1  0.59041027  0.82583261  0.82680101  1
  Ca2+  Ca24  1  0.33752108  0.41753802  0.17334362  1
  Ca2+  Ca25  1  0.31873713  0.39911907  0.49986804  1
  Ca2+  Ca26  1  0.32778885  0.41609712  0.84109019  1
  Ca2+  Ca27  1  0.33013300  0.92403774  0.18044014  1
  Ca2+  Ca28  1  0.33271651  0.92654338  0.49946145  1
  Ca2+  Ca29  1  0.33750831  0.92498605  0.83231764  1
  Ca2+  Ca30  1  0.82956085  0.40724574  0.16695168  1
  Ca2+  Ca31  1  0.83494633  0.41872606  0.51142144  1
  Ca2+  Ca32  1  0.82269752  0.40590102  0.83337060  1
  Ca2+  Ca33  1  0.82444502  0.92743132  0.17936341  1
  Ca2+  Ca34  1  0.82719541  0.92731242  0.50717656  1
  Ca2+  Ca35  1  0.83152206  0.92041510  0.82999681  1
  Ca2+  Ca36  1  0.41615968  0.17613510  0.16312126  1
  Ca2+  Ca37  1  0.42126816  0.16299331  0.49501207  1
  Ca2+  Ca38  1  0.42756743  0.16842939  0.82841584  1
  Ca2+  Ca39  1  0.41835441  0.67217634  0.16015568  1
  Ca2+  Ca40  1  0.41848719  0.67657098  0.49231364  1
  Ca2+  Ca41  1  0.42131076  0.66136683  0.83551686  1
  Ca2+  Ca42  1  0.91828776  0.17214359  0.16710641  1
  Ca2+  Ca43  1  0.91516498  0.17348250  0.49332021  1
  Ca2+  Ca44  1  0.91425332  0.17644406  0.82566359  1
  Ca2+  Ca45  1  0.91946574  0.66958907  0.16434253  1
  Ca2+  Ca46  1  0.90912862  0.67230207  0.50106117  1
  Ca2+  Ca47  1  0.90999916  0.67243637  0.82267530  1
  Al0+  Al48  1  -0.00080053  0.00013569  -0.00045506  1
  Al0+  Al49  1  -0.00059948  0.00004439  0.33553970  1
  Al0+  Al50  1  0.00119375  -0.00054617  0.66584660  1
  Al0+  Al51  1  0.00018300  0.50160663  -0.00305541  1
  Al0+  Al52  1  0.00050150  0.50163515  0.33132154  1
  Al0+  Al53  1  0.00231345  0.50199779  0.67081305  1
  Al0+  Al54  1  0.49893159  -0.00005618  -0.00143573  1
  Al0+  Al55  1  0.49966335  -0.00251795  0.33383725  1
  Al0+  Al56  1  0.50010238  -0.00009958  0.67094584  1
  Al0+  Al57  1  0.49906516  0.50229232  0.00087923  1
  Al0+  Al58  1  0.50182150  0.50129476  0.33211875  1
  Al0+  Al59  1  0.49867949  0.50058181  0.66628458  1
  Al0+  Al60  1  0.24729695  0.24857620  -0.00149729  1
  Al0+  Al61  1  0.24930677  0.25068385  0.33160805  1
  Al0+  Al62  1  0.24950350  0.25008527  0.67989889  1
  Al0+  Al63  1  0.24876515  0.74878732  0.00160153  1
  Al0+  Al64  1  0.25143572  0.74995931  0.33244606  1
  Al0+  Al65  1  0.25024214  0.74969425  0.66610943  1
  Al0+  Al66  1  0.75083186  0.24938196  -0.00085024  1
  Al0+  Al67  1  0.74890497  0.25114080  0.33284492  1
  Al0+  Al68  1  0.74949177  0.24890030  0.66385032  1
  Al0+  Al69  1  0.74918213  0.74993891  -0.00180575  1
  Al0+  Al70  1  0.75090783  0.74781670  0.33375399  1
  Al0+  Al71  1  0.75015864  0.74997702  0.66623454  1
  Al0+  Al72  1  0.93102277  0.32047178  0.98482896  1
  Al0+  Al73  1  0.92700994  0.32392054  0.31794955  1
  Al0+  Al74  1  0.42970270  0.82101456  0.31985515  1
  Al0+  Al75  1  0.18013212  0.42944710  0.68152637  1
  Al0+  Al76  1  0.68074956  0.42852472  0.01484148  1
  Al0+  Al77  1  0.17992500  0.43074587  0.34505896  1
  Al0+  Al78  1  0.92873040  0.82111127  0.65106061  1
  Al0+  Al79  1  0.67745918  0.42716605  0.68067780  1
  Al0+  Al80  1  0.56951656  0.17914752  0.65119571  1
  Al0+  Al81  1  0.82089359  0.57060824  0.68091100  1
  Al0+  Al82  1  0.93069764  0.32063892  0.65319965  1
  Al0+  Al83  1  0.67921475  0.92712263  0.34706725  1
  Al0+  Al84  1  0.32020390  0.56972789  0.01456701  1
  Al0+  Al85  1  0.42651566  0.32251901  0.98480743  1
  Al0+  Al86  1  0.57064049  0.17811693  0.98507304  1
  Al0+  Al87  1  0.42949652  0.32064664  0.32186586  1
  Al0+  Al88  1  0.57081194  0.68061497  0.98511347  1
  Al0+  Al89  1  0.32041402  0.07259952  0.34712837  1
  Al0+  Al90  1  0.67899472  0.92962765  0.68326001  1
  Al0+  Al91  1  0.32140960  0.07075344  0.68246874  1
  Al0+  Al92  1  0.82331920  0.07182211  0.68305636  1
  Al0+  Al93  1  0.07062309  0.17820778  0.31969872  1
  Al0+  Al94  1  0.82049100  0.07410115  0.34842512  1
  Al0+  Al95  1  0.17771879  0.92614956  0.34851296  1
  Si0+  Si96  1  0.07468213  0.17819171  0.65116630  1
  Si0+  Si97  1  0.32454342  0.57159595  0.35035712  1
  Si0+  Si98  1  0.67889994  0.92667075  0.01511670  1
  Si0+  Si99  1  0.82240806  0.57455539  0.01776469  1
  Si0+  Si100  1  0.07166562  0.68028591  0.98454384  1
  Si0+  Si101  1  0.67768423  0.43014221  0.34679889  1
  Si0+  Si102  1  0.42587254  0.32267897  0.65166068  1
  Si0+  Si103  1  0.57053287  0.67833897  0.65043856  1
  Si0+  Si104  1  0.42849762  0.82102757  0.65213183  1
  Si0+  Si105  1  0.82120327  0.06979516  0.01551345  1
  Si0+  Si106  1  0.17908885  0.92563229  0.68403168  1
  Si0+  Si107  1  0.82244739  0.57008610  0.34684500  1
  Si0+  Si108  1  0.92848837  0.82034976  0.31803979  1
  Si0+  Si109  1  0.07407453  0.67901470  0.64817677  1
  Si0+  Si110  1  0.17568397  0.42737372  0.01866229  1
  Si0+  Si111  1  0.32186599  0.57578220  0.68277518  1
  Si0+  Si112  1  0.07165260  0.67929172  0.31761446  1
  Si0+  Si113  1  0.57159036  0.17726076  0.31775607  1
  Si0+  Si114  1  0.32094180  0.07032137  0.01605808  1
  Si0+  Si115  1  0.42600527  0.82131794  0.98214046  1
  Si0+  Si116  1  0.57401823  0.67789665  0.31591969  1
  Si0+  Si117  1  0.17825094  0.92974838  0.01325598  1
  Si0+  Si118  1  0.07087167  0.17442486  0.98149858  1
  Si0+  Si119  1  0.92926971  0.82113706  0.98600238  1
  O2-  O120  1  0.24903323  -0.00052657  0.05674725  1
  O2-  O121  1  0.24653061  0.00160113  0.39725518  1
  O2-  O122  1  0.24603983  -0.00458974  0.72889063  1
  O2-  O123  1  0.25032847  0.49046807  0.06179923  1
  O2-  O124  1  0.25868377  0.50057149  0.39429708  1
  O2-  O125  1  0.25728853  0.50300648  0.72587961  1
  O2-  O126  1  0.74723574  0.00060459  0.05659651  1
  O2-  O127  1  0.74858521  0.00112093  0.39661174  1
  O2-  O128  1  0.75043883  0.00121249  0.73489926  1
  O2-  O129  1  0.75674403  0.50333283  0.06226907  1
  O2-  O130  1  0.75403063  0.49627632  0.38734944  1
  O2-  O131  1  0.75211423  0.49656755  0.73153350  1
  O2-  O132  1  -0.00306132  0.24873211  0.26940732  1
  O2-  O133  1  0.00413380  0.24461132  0.60715408  1
  O2-  O134  1  0.00696481  0.24726488  0.93784397  1
  O2-  O135  1  0.00382463  0.75387997  0.27466122  1
  O2-  O136  1  0.00381164  0.74615926  0.60429994  1
  O2-  O137  1  -0.00199170  0.74847541  0.94292959  1
  O2-  O138  1  0.50254281  0.24544798  0.27372433  1
  O2-  O139  1  0.49551301  0.25587481  0.60632250  1
  O2-  O140  1  0.49957648  0.25157828  0.93515806  1
  O2-  O141  1  0.50541884  0.74737317  0.27309229  1
  O2-  O142  1  0.49951029  0.75000632  0.60962678  1
  O2-  O143  1  0.49684826  0.75573169  0.93691679  1
  O2-  O144  1  0.06898141  0.16880295  0.08652745  1
  O2-  O145  1  0.07272670  0.18290594  0.43302167  1
  O2-  O146  1  0.07466055  0.17966744  0.75728757  1
  O2-  O147  1  0.07210102  0.68224581  0.08983319  1
  O2-  O148  1  0.06950975  0.67698761  0.42223238  1
  O2-  O149  1  0.07733726  0.68274207  0.75414819  1
  O2-  O150  1  0.56916109  0.17642021  0.09900112  1
  O2-  O151  1  0.57227820  0.17894422  0.42321995  1
  O2-  O152  1  0.56742296  0.17925406  0.76417064  1
  O2-  O153  1  0.57167495  0.68481162  0.09827862  1
  O2-  O154  1  0.57372504  0.67601815  0.42154748  1
  O2-  O155  1  0.56919864  0.67789709  0.75550231  1
  O2-  O156  1  0.17859893  0.43526458  0.23211513  1
  O2-  O157  1  0.18058652  0.42934690  0.56823718  1
  O2-  O158  1  0.17408960  0.43184986  0.91305710  1
  O2-  O159  1  0.18124145  0.92496991  0.23391481  1
  O2-  O160  1  0.18178503  0.92116948  0.57933725  1
  O2-  O161  1  0.17739440  0.92990546  0.90824137  1
  O2-  O162  1  0.67553711  0.43261030  0.24172256  1
  O2-  O163  1  0.67593785  0.43095709  0.56653542  1
  O2-  O164  1  0.68215819  0.42873104  0.90231618  1
  O2-  O165  1  0.68202145  0.92586721  0.23254231  1
  O2-  O166  1  0.67931473  0.92963801  0.56997233  1
  O2-  O167  1  0.68210893  0.92308376  0.91064856  1
  O2-  O168  1  0.42757594  0.31931250  0.09881717  1
  O2-  O169  1  0.43212211  0.32058283  0.43492603  1
  O2-  O170  1  0.42615910  0.32222150  0.75716852  1
  O2-  O171  1  0.42534453  0.82057814  0.08761797  1
  O2-  O172  1  0.42867241  0.81803469  0.43311399  1
  O2-  O173  1  0.42670231  0.81836357  0.75741331  1
  O2-  O174  1  0.93188182  0.31877676  0.09781549  1
  O2-  O175  1  0.92927955  0.32855023  0.43107347  1
  O2-  O176  1  0.93255812  0.31957276  0.76654027  1
  O2-  O177  1  0.93132680  0.82131781  0.09133395  1
  O2-  O178  1  0.92597305  0.81559619  0.42244605  1
  O2-  O179  1  0.93164091  0.81875261  0.76513601  1
  O2-  O180  1  0.31983116  0.07064402  0.23298443  1
  O2-  O181  1  0.32098483  0.07057806  0.56986986  1
  O2-  O182  1  0.32074369  0.06769426  0.91097419  1
  O2-  O183  1  0.32288183  0.57206246  0.24465002  1
  O2-  O184  1  0.31935152  0.58257831  0.57752082  1
  O2-  O185  1  0.31456522  0.57346705  0.90150718  1
  O2-  O186  1  0.81836388  0.07173004  0.23358569  1
  O2-  O187  1  0.82249531  0.07070868  0.56988484  1
  O2-  O188  1  0.82535106  0.06688981  0.91100193  1
  O2-  O189  1  0.82265483  0.57445909  0.24172482  1
  O2-  O190  1  0.81797144  0.57065969  0.56663685  1
  O2-  O191  1  0.82097162  0.57900820  0.91301310  1
  O2-  O192  1  0.04560320  0.07798066  0.26651519  1
  O2-  O193  1  0.05573237  0.08244120  0.60775292  1
  O2-  O194  1  0.04199571  0.08227165  0.93286755  1
  O2-  O195  1  0.03914990  0.59100446  0.26599149  1
  O2-  O196  1  0.05020953  0.58480331  0.60392716  1
  O2-  O197  1  0.04759037  0.58818413  0.93670888  1
  O2-  O198  1  0.54869278  0.08275847  0.27291072  1
  O2-  O199  1  0.53645480  0.08173384  0.59987286  1
  O2-  O200  1  0.54153017  0.07934724  0.93202785  1
  O2-  O201  1  0.54640942  0.58570714  0.26800044  1
  O2-  O202  1  0.54206295  0.58725284  0.60106283  1
  O2-  O203  1  0.53867206  0.58516371  0.93100951  1
  O2-  O204  1  0.16750340  0.20847796  0.26392160  1
  O2-  O205  1  0.16886378  0.20783054  0.60891077  1
  O2-  O206  1  0.16610573  0.19574448  0.93722433  1
  O2-  O207  1  0.16404383  0.70417685  0.26956250  1
  O2-  O208  1  0.16673999  0.70652609  0.60064364  1
  O2-  O209  1  0.16136886  0.71171222  0.93501681  1
  O2-  O210  1  0.66411894  0.20466291  0.27034647  1
  O2-  O211  1  0.66564081  0.20861945  0.59620459  1
  O2-  O212  1  0.66979197  0.20477018  0.93391414  1
  O2-  O213  1  0.66761576  0.70246447  0.26871360  1
  O2-  O214  1  0.66175848  0.70634669  0.60275741  1
  O2-  O215  1  0.66754553  0.71111383  0.93058058  1
  O2-  O216  1  0.08448499  0.46146944  0.06490395  1
  O2-  O217  1  0.08488565  0.46707859  0.39894433  1
  O2-  O218  1  0.08683462  0.46539069  0.73849797  1
  O2-  O219  1  0.08591022  0.95639883  0.06121192  1
  O2-  O220  1  0.07697608  0.94650552  0.39796541  1
  O2-  O221  1  0.08525770  0.94979677  0.73001226  1
  O2-  O222  1  0.58437369  0.46221312  0.06755328  1
  O2-  O223  1  0.58902910  0.46339245  0.39721551  1
  O2-  O224  1  0.57901889  0.45841029  0.73263023  1
  O2-  O225  1  0.58452919  0.95100125  0.05941871  1
  O2-  O226  1  0.57933798  0.94921851  0.39757949  1
  O2-  O227  1  0.58028890  0.95381378  0.73702952  1
  O2-  O228  1  0.19334399  0.33009900  0.05971764  1
  O2-  O229  1  0.20805856  0.33423504  0.39906852  1
  O2-  O230  1  0.20737304  0.33540481  0.74158306  1
  O2-  O231  1  0.20376101  0.83720173  0.06021837  1
  O2-  O232  1  0.20809045  0.82812329  0.40127504  1
  O2-  O233  1  0.20677117  0.83294149  0.73250543  1
  O2-  O234  1  0.71229073  0.33190799  0.06934086  1
  O2-  O235  1  0.69930821  0.33669125  0.39242196  1
  O2-  O236  1  0.70528261  0.32897756  0.73255102  1
  O2-  O237  1  0.70981615  0.83647468  0.06422221  1
  O2-  O238  1  0.70924747  0.82843898  0.39892496  1
  O2-  O239  1  0.70986690  0.83114027  0.73468494  1
  O2-  O240  1  0.46067912  0.41811306  0.26855529  1
  O2-  O241  1  0.44549411  0.41810539  0.60627894  1
  O2-  O242  1  0.44971513  0.42310561  0.93570930  1
  O2-  O243  1  0.45870054  0.91687318  0.26281794  1
  O2-  O244  1  0.45579623  0.91281036  0.60616467  1
  O2-  O245  1  0.44944597  0.91577189  0.93760339  1
  O2-  O246  1  0.95839030  0.42150664  0.26328256  1
  O2-  O247  1  0.96245314  0.41931853  0.60337993  1
  O2-  O248  1  0.95869155  0.41910762  0.93267501  1
  O2-  O249  1  0.95143292  0.91303976  0.27041713  1
  O2-  O250  1  0.96074461  0.91730430  0.59763153  1
  O2-  O251  1  0.95943455  0.91168481  0.93765855  1
  O2-  O252  1  0.33307549  0.29363826  0.26623414  1
  O2-  O253  1  0.33145076  0.29241998  0.60999154  1
  O2-  O254  1  0.32670196  0.29440411  0.93392760  1
  O2-  O255  1  0.33389948  0.78846557  0.26396399  1
  O2-  O256  1  0.33696191  0.79227894  0.60439774  1
  O2-  O257  1  0.33282391  0.79281109  0.93626739  1
  O2-  O258  1  0.82774051  0.29635616  0.26548808  1
  O2-  O259  1  0.83335078  0.29359125  0.59975470  1
  O2-  O260  1  0.83523575  0.28684366  0.93243374  1
  O2-  O261  1  0.83922780  0.78632477  0.26802909  1
  O2-  O262  1  0.83302654  0.78779515  0.59665178  1
  O2-  O263  1  0.83751593  0.79460343  0.93889625  1
  O2-  O264  1  0.41256595  0.04211051  0.06337428  1
  O2-  O265  1  0.41790472  0.04110771  0.39925813  1
  O2-  O266  1  0.41489009  0.03560865  0.73905942  1
  O2-  O267  1  0.41810874  0.54773586  0.06932969  1
  O2-  O268  1  0.41976762  0.55134748  0.39506808  1
  O2-  O269  1  0.41671787  0.55346671  0.72682440  1
  O2-  O270  1  0.91191509  0.03785510  0.06397765  1
  O2-  O271  1  0.91894287  0.04662294  0.39932745  1
  O2-  O272  1  0.92233150  0.04220749  0.73556547  1
  O2-  O273  1  0.91852840  0.55253733  0.06114936  1
  O2-  O274  1  0.91465136  0.54652836  0.39456572  1
  O2-  O275  1  0.92187691  0.55252219  0.73201315  1
  O2-  O276  1  0.29299341  0.16278752  0.06181073  1
  O2-  O277  1  0.29305702  0.17061517  0.40082114  1
  O2-  O278  1  0.29005443  0.16407949  0.74214611  1
  O2-  O279  1  0.28403231  0.66547914  0.06959667  1
  O2-  O280  1  0.29491765  0.66384174  0.39605416  1
  O2-  O281  1  0.29226430  0.66675747  0.73293976  1
  O2-  O282  1  0.79511455  0.16149269  0.06272057  1
  O2-  O283  1  0.79258613  0.17280676  0.40052756  1
  O2-  O284  1  0.79307446  0.16984475  0.73463123  1
  O2-  O285  1  0.79423366  0.66745756  0.06586653  1
  O2-  O286  1  0.79200447  0.66028531  0.39602633  1
  O2-  O287  1  0.78936424  0.66781731  0.73371549  1
