# generated using pymatgen
data_Ca2Al2SiO7
_symmetry_space_group_name_H-M   'P 1'
_cell_length_a   15.46501508
_cell_length_b   15.46422080
_cell_length_c   15.28810376
_cell_angle_alpha   90.00245231
_cell_angle_beta   90.01002989
_cell_angle_gamma   89.98976815
_symmetry_Int_Tables_number   1
_chemical_formula_structural   Ca2Al2SiO7
_chemical_formula_sum   'Ca48 Al48 Si24 O168'
_cell_volume   3656.21728454
_cell_formula_units_Z   24
loop_
 _symmetry_equiv_pos_site_id
 _symmetry_equiv_pos_as_xyz
  1  'x, y, z'
loop_
 _atom_type_symbol
 _atom_type_oxidation_number
  Ca2+  2.0
  Al0+  0.0
  Si0+  0.0
  O2-  -2.0
loop_
 _atom_site_type_symbol
 _atom_site_label
 _atom_site_symmetry_multiplicity
 _atom_site_fract_x
 _atom_site_fract_y
 _atom_site_fract_z
 _atom_site_occupancy
  Ca2+  Ca0  1  0.15623993  0.07920549  0.16382179  1
  Ca2+  Ca1  1  0.16633682  0.07695154  0.51163244  1
  Ca2+  Ca2  1  0.15584057  0.07611939  0.83782899  1
  Ca2+  Ca3  1  0.17282900  0.59266864  0.16459144  1
  Ca2+  Ca4  1  0.17206952  0.58491816  0.51278926  1
  Ca2+  Ca5  1  0.17652102  0.59731861  0.83639165  1
  Ca2+  Ca6  1  0.66472312  0.07713066  0.16928591  1
  Ca2+  Ca7  1  0.66855035  0.08398852  0.51296145  1
  Ca2+  Ca8  1  0.66817258  0.07458833  0.83185283  1
  Ca2+  Ca9  1  0.66222114  0.57382208  0.17138992  1
  Ca2+  Ca10  1  0.67069212  0.57218554  0.50865683  1
  Ca2+  Ca11  1  0.66895561  0.57327257  0.84068494  1
  Ca2+  Ca12  1  0.06932317  0.32955556  0.15457234  1
  Ca2+  Ca13  1  0.06758769  0.33278804  0.49832746  1
  Ca2+  Ca14  1  0.07302623  0.32471690  0.82398996  1
  Ca2+  Ca15  1  0.07640811  0.83138295  0.15320174  1
  Ca2+  Ca16  1  0.08589662  0.82986167  0.50475858  1
  Ca2+  Ca17  1  0.08433292  0.83026702  0.83120804  1
  Ca2+  Ca18  1  0.59226334  0.33058312  0.16401301  1
  Ca2+  Ca19  1  0.59810732  0.32412279  0.49969868  1
  Ca2+  Ca20  1  0.58955062  0.33198020  0.82754291  1
  Ca2+  Ca21  1  0.58691207  0.81881249  0.15719369  1
  Ca2+  Ca22  1  0.57941589  0.83160891  0.49799189  1
  Ca2+  Ca23  1  0.58155394  0.83270869  0.82749648  1
  Ca2+  Ca24  1  0.33119763  0.42246531  0.16565698  1
  Ca2+  Ca25  1  0.33087824  0.42458303  0.50816076  1
  Ca2+  Ca26  1  0.33434086  0.43093640  0.83892862  1
  Ca2+  Ca27  1  0.32602668  0.91664718  0.16460453  1
  Ca2+  Ca28  1  0.33020633  0.91529716  0.51168099  1
  Ca2+  Ca29  1  0.32342003  0.91169424  0.83391425  1
  Ca2+  Ca30  1  0.82763082  0.41033874  0.16894336  1
  Ca2+  Ca31  1  0.82793537  0.41569755  0.50835939  1
  Ca2+  Ca32  1  0.82978225  0.41433343  0.83244343  1
  Ca2+  Ca33  1  0.83026081  0.91198355  0.16401134  1
  Ca2+  Ca34  1  0.82292267  0.92679457  0.51347948  1
  Ca2+  Ca35  1  0.83038313  0.92089521  0.83873422  1
  Ca2+  Ca36  1  0.42339650  0.16880257  0.16514652  1
  Ca2+  Ca37  1  0.43154060  0.16557577  0.49839433  1
  Ca2+  Ca38  1  0.42387209  0.16866113  0.82594733  1
  Ca2+  Ca39  1  0.42822845  0.66006605  0.16121147  1
  Ca2+  Ca40  1  0.42100655  0.67008868  0.50211013  1
  Ca2+  Ca41  1  0.41956429  0.66738550  0.82884425  1
  Ca2+  Ca42  1  0.91687862  0.17895193  0.15854722  1
  Ca2+  Ca43  1  0.90747219  0.17731836  0.50327403  1
  Ca2+  Ca44  1  0.91897295  0.17369170  0.82739512  1
  Ca2+  Ca45  1  0.92415377  0.67344293  0.15382218  1
  Ca2+  Ca46  1  0.91864558  0.66038106  0.50373388  1
  Ca2+  Ca47  1  0.92427058  0.66876012  0.82748373  1
  Al0+  Al48  1  -0.00132880  0.00104419  0.00080418  1
  Al0+  Al49  1  -0.00087721  -0.00071997  0.33615905  1
  Al0+  Al50  1  -0.00070316  -0.00119315  0.66990822  1
  Al0+  Al51  1  0.00107027  0.50027908  -0.00872638  1
  Al0+  Al52  1  0.00063719  0.50029407  0.32689680  1
  Al0+  Al53  1  0.00044856  0.49942119  0.66134921  1
  Al0+  Al54  1  0.49999853  -0.00064046  0.00633910  1
  Al0+  Al55  1  0.49718612  -0.00025508  0.32805520  1
  Al0+  Al56  1  0.49758863  0.00014719  0.66231713  1
  Al0+  Al57  1  0.50062572  0.49945990  0.00556891  1
  Al0+  Al58  1  0.49882041  0.49916110  0.33654923  1
  Al0+  Al59  1  0.49881689  0.50051545  0.67306909  1
  Al0+  Al60  1  0.25271854  0.25123671  -0.00183116  1
  Al0+  Al61  1  0.25097101  0.24877758  0.33446673  1
  Al0+  Al62  1  0.25057490  0.24996462  0.66196952  1
  Al0+  Al63  1  0.25227135  0.75300709  0.00974236  1
  Al0+  Al64  1  0.25008877  0.75158042  0.33419924  1
  Al0+  Al65  1  0.25140086  0.75126938  0.66485946  1
  Al0+  Al66  1  0.74968717  0.24897663  0.00004254  1
  Al0+  Al67  1  0.75031193  0.24873052  0.32709364  1
  Al0+  Al68  1  0.75005077  0.24877109  0.66825215  1
  Al0+  Al69  1  0.74993980  0.74849814  -0.00417653  1
  Al0+  Al70  1  0.75045602  0.74939371  0.33106014  1
  Al0+  Al71  1  0.75029526  0.74781409  0.67098679  1
  Al0+  Al72  1  0.93002750  0.32064766  0.31755730  1
  Al0+  Al73  1  0.68151044  0.42935310  0.01597685  1
  Al0+  Al74  1  0.17893283  0.93274900  0.01458481  1
  Al0+  Al75  1  0.56884157  0.18114320  0.65574115  1
  Al0+  Al76  1  0.43093543  0.81901582  0.65477652  1
  Al0+  Al77  1  0.31915784  0.57093820  0.68014865  1
  Al0+  Al78  1  0.82057221  0.07070363  0.68265429  1
  Al0+  Al79  1  0.57004912  0.67658921  0.98563070  1
  Al0+  Al80  1  0.07283199  0.17995730  0.98562490  1
  Al0+  Al81  1  0.31982384  0.57166062  0.01596483  1
  Al0+  Al82  1  0.67988543  0.42933678  0.68212919  1
  Al0+  Al83  1  0.17984145  0.93020040  0.67995954  1
  Al0+  Al84  1  0.68052748  0.42885921  0.34755230  1
  Al0+  Al85  1  0.92748802  0.82147695  0.98389989  1
  Al0+  Al86  1  0.67805284  0.92694179  0.01497509  1
  Al0+  Al87  1  0.57070808  0.17952769  0.31796426  1
  Al0+  Al88  1  0.07233956  0.17523347  0.65005431  1
  Al0+  Al89  1  0.92904025  0.31985154  0.64977976  1
  Al0+  Al90  1  0.67461101  0.92783869  0.67954048  1
  Al0+  Al91  1  0.82465686  0.57133050  0.68212988  1
  Al0+  Al92  1  0.07465142  0.68066517  0.98514449  1
  Al0+  Al93  1  0.07077004  0.68177083  0.65275536  1
  Al0+  Al94  1  0.92613072  0.32184669  0.98165023  1
  Al0+  Al95  1  0.56997535  0.67898296  0.32157025  1
  Si0+  Si96  1  0.43009457  0.82299996  0.98525240  1
  Si0+  Si97  1  0.92493112  0.82210427  0.64901076  1
  Si0+  Si98  1  0.42606315  0.82177227  0.31390630  1
  Si0+  Si99  1  0.92987986  0.82254759  0.32000629  1
  Si0+  Si100  1  0.17769608  0.42867158  0.34671991  1
  Si0+  Si101  1  0.17890152  0.93050563  0.35010031  1
  Si0+  Si102  1  0.07352810  0.17676724  0.31754151  1
  Si0+  Si103  1  0.07230024  0.68041960  0.31842968  1
  Si0+  Si104  1  0.67754411  0.92687202  0.34676918  1
  Si0+  Si105  1  0.81984586  0.07053083  0.01908979  1
  Si0+  Si106  1  0.31946045  0.57117634  0.35031924  1
  Si0+  Si107  1  0.81900248  0.06908103  0.34701512  1
  Si0+  Si108  1  0.17797496  0.42645930  0.68173029  1
  Si0+  Si109  1  0.56973233  0.17722437  0.98553831  1
  Si0+  Si110  1  0.82480472  0.57196904  0.01618385  1
  Si0+  Si111  1  0.82435918  0.57375951  0.34797466  1
  Si0+  Si112  1  0.17828203  0.42650105  0.01506581  1
  Si0+  Si113  1  0.32394267  0.07558140  0.01822654  1
  Si0+  Si114  1  0.57378830  0.67519991  0.65139194  1
  Si0+  Si115  1  0.42745933  0.32562499  0.65049946  1
  Si0+  Si116  1  0.32259366  0.07128300  0.34986677  1
  Si0+  Si117  1  0.43038642  0.32155844  0.98593110  1
  Si0+  Si118  1  0.32192315  0.07372173  0.68204591  1
  Si0+  Si119  1  0.42515796  0.32221823  0.31620956  1
  O2-  O120  1  0.25077724  0.01078924  0.06200054  1
  O2-  O121  1  0.24983523  0.00174104  0.39144192  1
  O2-  O122  1  0.24820799  0.01120536  0.72609353  1
  O2-  O123  1  0.24140212  0.49968551  0.06215060  1
  O2-  O124  1  0.24710737  0.50078554  0.39094144  1
  O2-  O125  1  0.24587429  0.49518217  0.72687821  1
  O2-  O126  1  0.75304475  0.00013744  0.06456948  1
  O2-  O127  1  0.74594754  -0.00019343  0.38912549  1
  O2-  O128  1  0.75090190  -0.00525162  0.73001673  1
  O2-  O129  1  0.75817949  0.50232089  0.06294056  1
  O2-  O130  1  0.75544395  0.50484750  0.39134681  1
  O2-  O131  1  0.74998495  0.50262083  0.73226058  1
  O2-  O132  1  0.00785620  0.24760949  0.27324711  1
  O2-  O133  1  0.00068957  0.24682880  0.59907771  1
  O2-  O134  1  0.00271890  0.25273493  0.93564357  1
  O2-  O135  1  -0.00077564  0.74959839  0.27814745  1
  O2-  O136  1  -0.00693903  0.75263547  0.60358193  1
  O2-  O137  1  0.00017404  0.74958867  0.93534166  1
  O2-  O138  1  0.49701288  0.25636126  0.27225557  1
  O2-  O139  1  0.49697702  0.25784609  0.60646074  1
  O2-  O140  1  0.49968504  0.24914659  0.94427304  1
  O2-  O141  1  0.49671489  0.75449136  0.27183607  1
  O2-  O142  1  0.50927758  0.74834616  0.60724506  1
  O2-  O143  1  0.49888871  0.75529865  0.94086604  1
  O2-  O144  1  0.07011159  0.18209938  0.10038683  1
  O2-  O145  1  0.07411632  0.17559071  0.42245827  1
  O2-  O146  1  0.07343222  0.17881531  0.76305928  1
  O2-  O147  1  0.07314703  0.68380922  0.10010875  1
  O2-  O148  1  0.07550710  0.68078822  0.42325885  1
  O2-  O149  1  0.07437576  0.68605666  0.76472172  1
  O2-  O150  1  0.56780216  0.17758413  0.09116880  1
  O2-  O151  1  0.56981998  0.17772635  0.43076195  1
  O2-  O152  1  0.56531742  0.17983628  0.76890819  1
  O2-  O153  1  0.56733768  0.67603827  0.09955421  1
  O2-  O154  1  0.56767037  0.68194571  0.43441337  1
  O2-  O155  1  0.56947682  0.67284776  0.75656458  1
  O2-  O156  1  0.17940636  0.42987755  0.24177014  1
  O2-  O157  1  0.18082482  0.42909889  0.57513554  1
  O2-  O158  1  0.18528449  0.42194053  0.91039157  1
  O2-  O159  1  0.17807672  0.93055169  0.24521018  1
  O2-  O160  1  0.18444110  0.92865207  0.56586682  1
  O2-  O161  1  0.18285439  0.93081637  0.90229150  1
  O2-  O162  1  0.68147102  0.42978640  0.23444460  1
  O2-  O163  1  0.68052753  0.42965893  0.56794145  1
  O2-  O164  1  0.67832320  0.42894112  0.90383518  1
  O2-  O165  1  0.68059812  0.92599886  0.24177189  1
  O2-  O166  1  0.67500283  0.93113697  0.56468195  1
  O2-  O167  1  0.67379143  0.93213004  0.90287900  1
  O2-  O168  1  0.42957221  0.32062363  0.09138969  1
  O2-  O169  1  0.41976194  0.32032785  0.42123715  1
  O2-  O170  1  0.42616871  0.32441575  0.75615705  1
  O2-  O171  1  0.43122241  0.82271866  0.09142673  1
  O2-  O172  1  0.42326188  0.82208748  0.41937917  1
  O2-  O173  1  0.42895984  0.81747923  0.76753224  1
  O2-  O174  1  0.92610391  0.31860519  0.09618324  1
  O2-  O175  1  0.92938807  0.32055801  0.42999273  1
  O2-  O176  1  0.92995993  0.31883785  0.76251648  1
  O2-  O177  1  0.92984198  0.81982777  0.09914443  1
  O2-  O178  1  0.93096729  0.82547370  0.42459950  1
  O2-  O179  1  0.92603414  0.82303432  0.75387375  1
  O2-  O180  1  0.32390864  0.07106962  0.24495387  1
  O2-  O181  1  0.32399065  0.07032979  0.57591287  1
  O2-  O182  1  0.32963106  0.07496227  0.91339332  1
  O2-  O183  1  0.31892560  0.57165412  0.24529467  1
  O2-  O184  1  0.31825101  0.56974263  0.56612425  1
  O2-  O185  1  0.32067403  0.57087379  0.90334194  1
  O2-  O186  1  0.82067850  0.06635728  0.24206032  1
  O2-  O187  1  0.81674050  0.07085958  0.56767854  1
  O2-  O188  1  0.81748052  0.07107038  0.91416605  1
  O2-  O189  1  0.82558435  0.57611355  0.24262310  1
  O2-  O190  1  0.82223656  0.56948807  0.56736570  1
  O2-  O191  1  0.82217310  0.57204377  0.91126346  1
  O2-  O192  1  0.04393077  0.08305847  0.27264559  1
  O2-  O193  1  0.04613523  0.07509427  0.59913452  1
  O2-  O194  1  0.04363811  0.08146330  0.93622360  1
  O2-  O195  1  0.04890023  0.58843383  0.26968798  1
  O2-  O196  1  0.04462444  0.58434986  0.59691721  1
  O2-  O197  1  0.05548743  0.58044849  0.93377650  1
  O2-  O198  1  0.53670528  0.08355608  0.26305237  1
  O2-  O199  1  0.53510571  0.08692595  0.59788662  1
  O2-  O200  1  0.53934850  0.08562717  0.94033408  1
  O2-  O201  1  0.53592966  0.58242891  0.26852621  1
  O2-  O202  1  0.54076536  0.58381355  0.60417603  1
  O2-  O203  1  0.53417567  0.58111659  0.93383836  1
  O2-  O204  1  0.16901818  0.19782831  0.27286448  1
  O2-  O205  1  0.17243765  0.20157852  0.59702737  1
  O2-  O206  1  0.17402095  0.20209193  0.93593768  1
  O2-  O207  1  0.16354376  0.71138451  0.27099010  1
  O2-  O208  1  0.16525166  0.71682846  0.59569407  1
  O2-  O209  1  0.17385592  0.71404277  0.93800413  1
  O2-  O210  1  0.66613058  0.20768586  0.26127272  1
  O2-  O211  1  0.66509877  0.20985291  0.60043752  1
  O2-  O212  1  0.66148638  0.20395611  0.94005473  1
  O2-  O213  1  0.66726394  0.70763867  0.26684136  1
  O2-  O214  1  0.66916432  0.69462314  0.60660085  1
  O2-  O215  1  0.66710663  0.70272796  0.93314608  1
  O2-  O216  1  0.08194400  0.44764218  0.05734840  1
  O2-  O217  1  0.08543078  0.45670084  0.39289875  1
  O2-  O218  1  0.08405038  0.45063263  0.72459900  1
  O2-  O219  1  0.08193643  0.96165624  0.07106597  1
  O2-  O220  1  0.08680895  0.95665759  0.39798446  1
  O2-  O221  1  0.08167078  0.95195384  0.73300256  1
  O2-  O222  1  0.58528195  0.46054705  0.07162012  1
  O2-  O223  1  0.58198584  0.45584469  0.40007095  1
  O2-  O224  1  0.58034937  0.45406964  0.73454871  1
  O2-  O225  1  0.58282366  0.95930989  0.07276065  1
  O2-  O226  1  0.58249010  0.95171389  0.38880505  1
  O2-  O227  1  0.57775581  0.96125380  0.73208513  1
  O2-  O228  1  0.21009763  0.33575393  0.06542186  1
  O2-  O229  1  0.20574054  0.33665596  0.39383034  1
  O2-  O230  1  0.20381688  0.33247635  0.72620387  1
  O2-  O231  1  0.21353411  0.83965058  0.07461912  1
  O2-  O232  1  0.20800187  0.83826019  0.39662266  1
  O2-  O233  1  0.21900027  0.83689631  0.73305737  1
  O2-  O234  1  0.71016683  0.33083125  0.06891713  1
  O2-  O235  1  0.71260925  0.33040466  0.39721803  1
  O2-  O236  1  0.70786589  0.33121615  0.73403155  1
  O2-  O237  1  0.70918532  0.82931535  0.06806046  1
  O2-  O238  1  0.70696852  0.83597960  0.39485949  1
  O2-  O239  1  0.69502468  0.82691549  0.72858630  1
  O2-  O240  1  0.44781480  0.41722908  0.27234998  1
  O2-  O241  1  0.45162439  0.41971350  0.60458272  1
  O2-  O242  1  0.46025455  0.41239681  0.93941834  1
  O2-  O243  1  0.44751898  0.91594644  0.26773264  1
  O2-  O244  1  0.45682692  0.91553197  0.59686278  1
  O2-  O245  1  0.45365226  0.91764086  0.94094287  1
  O2-  O246  1  0.95918243  0.41755309  0.26229561  1
  O2-  O247  1  0.95890152  0.41702355  0.59405607  1
  O2-  O248  1  0.94964747  0.42111768  0.93055084  1
  O2-  O249  1  0.96033168  0.91303745  0.27080893  1
  O2-  O250  1  0.95242340  0.91504098  0.60242267  1
  O2-  O251  1  0.95513217  0.92057670  0.93479949  1
  O2-  O252  1  0.33335943  0.29263222  0.26686456  1
  O2-  O253  1  0.33474038  0.30081998  0.60182623  1
  O2-  O254  1  0.33926631  0.29648187  0.93655519  1
  O2-  O255  1  0.33260880  0.79371323  0.26783010  1
  O2-  O256  1  0.33775985  0.78404320  0.59580049  1
  O2-  O257  1  0.33611208  0.79602144  0.94283300  1
  O2-  O258  1  0.83610761  0.28525864  0.26199173  1
  O2-  O259  1  0.83094230  0.28849967  0.59730526  1
  O2-  O260  1  0.82898712  0.28769232  0.93061423  1
  O2-  O261  1  0.83768687  0.79706624  0.27207309  1
  O2-  O262  1  0.83091578  0.79721610  0.60183866  1
  O2-  O263  1  0.82942244  0.79604407  0.93113159  1
  O2-  O264  1  0.41396987  0.04393006  0.06957458  1
  O2-  O265  1  0.41383659  0.04061491  0.39755062  1
  O2-  O266  1  0.41256652  0.04226676  0.72960248  1
  O2-  O267  1  0.41317475  0.53345107  0.07248649  1
  O2-  O268  1  0.41008566  0.54264924  0.39882257  1
  O2-  O269  1  0.41444580  0.54185759  0.73642872  1
  O2-  O270  1  0.91361341  0.04720867  0.06618566  1
  O2-  O271  1  0.91019956  0.04024264  0.39555935  1
  O2-  O272  1  0.91920587  0.04529153  0.73477838  1
  O2-  O273  1  0.92095752  0.54978491  0.06016693  1
  O2-  O274  1  0.91943435  0.54850995  0.39211855  1
  O2-  O275  1  0.92368095  0.54236628  0.73247291  1
  O2-  O276  1  0.30321286  0.17054680  0.06463962  1
  O2-  O277  1  0.29849507  0.16415373  0.39706286  1
  O2-  O278  1  0.30477080  0.17037000  0.72495353  1
  O2-  O279  1  0.29281240  0.66729317  0.07472492  1
  O2-  O280  1  0.29140907  0.66411081  0.39597267  1
  O2-  O281  1  0.28659548  0.66650374  0.73295880  1
  O2-  O282  1  0.78972366  0.16258495  0.06654721  1
  O2-  O283  1  0.79087779  0.16120246  0.39237559  1
  O2-  O284  1  0.78864018  0.16641227  0.73649353  1
  O2-  O285  1  0.79852526  0.66565489  0.06220710  1
  O2-  O286  1  0.79973785  0.66771379  0.39479029  1
  O2-  O287  1  0.80334427  0.67139770  0.73356041  1
