# generated using pymatgen
data_Ca2Al2SiO7
_symmetry_space_group_name_H-M   'P 1'
_cell_length_a   15.46626402
_cell_length_b   15.46956152
_cell_length_c   15.29063610
_cell_angle_alpha   89.99098302
_cell_angle_beta   89.97461610
_cell_angle_gamma   89.99549881
_symmetry_Int_Tables_number   1
_chemical_formula_structural   Ca2Al2SiO7
_chemical_formula_sum   'Ca48 Al48 Si24 O168'
_cell_volume   3658.38095198
_cell_formula_units_Z   24
loop_
 _symmetry_equiv_pos_site_id
 _symmetry_equiv_pos_as_xyz
  1  'x, y, z'
loop_
 _atom_type_symbol
 _atom_type_oxidation_number
  Ca2+  2.0
  Al0+  0.0
  Si0+  0.0
  O2-  -2.0
loop_
 _atom_site_type_symbol
 _atom_site_label
 _atom_site_symmetry_multiplicity
 _atom_site_fract_x
 _atom_site_fract_y
 _atom_site_fract_z
 _atom_site_occupancy
  Ca2+  Ca0  1  0.17038095  0.08928392  0.17362084  1
  Ca2+  Ca1  1  0.17638115  0.09529411  0.50439251  1
  Ca2+  Ca2  1  0.17075372  0.09769516  0.83378360  1
  Ca2+  Ca3  1  0.16362719  0.58093739  0.17021812  1
  Ca2+  Ca4  1  0.17521213  0.57160332  0.51183968  1
  Ca2+  Ca5  1  0.16620043  0.57848046  0.83374498  1
  Ca2+  Ca6  1  0.67350771  0.08861923  0.16976508  1
  Ca2+  Ca7  1  0.67687659  0.09125117  0.50269729  1
  Ca2+  Ca8  1  0.68059595  0.08250338  0.84305756  1
  Ca2+  Ca9  1  0.67423221  0.58034875  0.17257004  1
  Ca2+  Ca10  1  0.67334655  0.57542257  0.50762017  1
  Ca2+  Ca11  1  0.67029274  0.57578558  0.82853872  1
  Ca2+  Ca12  1  0.08164615  0.32030054  0.16408735  1
  Ca2+  Ca13  1  0.08374439  0.32571734  0.50376487  1
  Ca2+  Ca14  1  0.07699873  0.32503240  0.82495532  1
  Ca2+  Ca15  1  0.07453854  0.82627435  0.15531042  1
  Ca2+  Ca16  1  0.07736428  0.83321621  0.50088010  1
  Ca2+  Ca17  1  0.07126055  0.82896379  0.83021576  1
  Ca2+  Ca18  1  0.57556749  0.32141960  0.16277626  1
  Ca2+  Ca19  1  0.57443204  0.33356585  0.49594338  1
  Ca2+  Ca20  1  0.57558728  0.33487910  0.82777888  1
  Ca2+  Ca21  1  0.58068388  0.83951121  0.16427514  1
  Ca2+  Ca22  1  0.57684050  0.83134026  0.49430219  1
  Ca2+  Ca23  1  0.58916913  0.83433860  0.83104167  1
  Ca2+  Ca24  1  0.33649811  0.40928142  0.16848137  1
  Ca2+  Ca25  1  0.33101224  0.41332239  0.51299862  1
  Ca2+  Ca26  1  0.33078271  0.41070508  0.83157690  1
  Ca2+  Ca27  1  0.33063298  0.92393869  0.17705679  1
  Ca2+  Ca28  1  0.33628917  0.92988910  0.50328037  1
  Ca2+  Ca29  1  0.33014278  0.92579842  0.83440228  1
  Ca2+  Ca30  1  0.83555350  0.42468273  0.17517599  1
  Ca2+  Ca31  1  0.83051726  0.42468374  0.51341471  1
  Ca2+  Ca32  1  0.83057681  0.41024683  0.83193958  1
  Ca2+  Ca33  1  0.83141397  0.92452711  0.16480607  1
  Ca2+  Ca34  1  0.83648157  0.92804266  0.50552184  1
  Ca2+  Ca35  1  0.83645575  0.92360541  0.83888091  1
  Ca2+  Ca36  1  0.42599890  0.17018359  0.16379226  1
  Ca2+  Ca37  1  0.41786685  0.17447018  0.49174805  1
  Ca2+  Ca38  1  0.42308927  0.17380878  0.82732225  1
  Ca2+  Ca39  1  0.41558524  0.67676767  0.16413003  1
  Ca2+  Ca40  1  0.41289715  0.67097951  0.49624208  1
  Ca2+  Ca41  1  0.41661096  0.66660342  0.82624728  1
  Ca2+  Ca42  1  0.92588930  0.15311068  0.16285609  1
  Ca2+  Ca43  1  0.92450707  0.16414354  0.49699812  1
  Ca2+  Ca44  1  0.92448015  0.16139781  0.82332829  1
  Ca2+  Ca45  1  0.91953804  0.67104522  0.15642527  1
  Ca2+  Ca46  1  0.90608473  0.66998034  0.49880210  1
  Ca2+  Ca47  1  0.90923527  0.67867257  0.82716357  1
  Al0+  Al48  1  0.00223155  -0.00284213  -0.00467504  1
  Al0+  Al49  1  -0.00094865  -0.00279816  0.33270344  1
  Al0+  Al50  1  0.00150110  -0.00397949  0.65996969  1
  Al0+  Al51  1  0.00378140  0.49757689  -0.00071788  1
  Al0+  Al52  1  0.00124797  0.50068475  0.33923510  1
  Al0+  Al53  1  0.00166878  0.50158265  0.67214081  1
  Al0+  Al54  1  0.49971111  0.00074400  -0.00130427  1
  Al0+  Al55  1  0.49889707  -0.00039943  0.33002837  1
  Al0+  Al56  1  0.49885020  -0.00044571  0.67064318  1
  Al0+  Al57  1  0.49871467  0.50298301  -0.00031453  1
  Al0+  Al58  1  0.49982336  0.50249765  0.32817310  1
  Al0+  Al59  1  0.50159749  0.50111861  0.66921958  1
  Al0+  Al60  1  0.24875207  0.25285043  -0.00409461  1
  Al0+  Al61  1  0.24774170  0.25031240  0.33008180  1
  Al0+  Al62  1  0.25157610  0.25066430  0.66951868  1
  Al0+  Al63  1  0.25086685  0.74944805  -0.00306124  1
  Al0+  Al64  1  0.24812110  0.74925118  0.32957198  1
  Al0+  Al65  1  0.24978360  0.75132056  0.66925797  1
  Al0+  Al66  1  0.74972397  0.25073311  0.00575818  1
  Al0+  Al67  1  0.74960257  0.25209071  0.33473360  1
  Al0+  Al68  1  0.75062660  0.24964641  0.67275420  1
  Al0+  Al69  1  0.74800241  0.75065945  0.00101059  1
  Al0+  Al70  1  0.74923127  0.75077996  0.33524854  1
  Al0+  Al71  1  0.74829913  0.74927218  0.66251161  1
  Al0+  Al72  1  0.07301407  0.67597733  0.98380034  1
  Al0+  Al73  1  0.57326837  0.17728655  0.98313720  1
  Al0+  Al74  1  0.32055024  0.07150669  0.68131850  1
  Al0+  Al75  1  0.92664484  0.32237997  0.65283496  1
  Al0+  Al76  1  0.43078787  0.32161363  0.98276053  1
  Al0+  Al77  1  0.31959296  0.07096048  0.34546852  1
  Al0+  Al78  1  0.82158293  0.57121935  0.34641172  1
  Al0+  Al79  1  0.32195933  0.57228283  0.68160913  1
  Al0+  Al80  1  0.82172399  0.07075819  0.34817609  1
  Al0+  Al81  1  0.06800462  0.17884527  0.31979596  1
  Al0+  Al82  1  0.92786914  0.81818121  0.64936111  1
  Al0+  Al83  1  0.67758006  0.92828226  0.01566882  1
  Al0+  Al84  1  0.07077982  0.17845793  0.65043933  1
  Al0+  Al85  1  0.82375852  0.07169199  0.01520411  1
  Al0+  Al86  1  0.92790514  0.81805731  0.98448823  1
  Al0+  Al87  1  0.57392774  0.17858655  0.31952624  1
  Al0+  Al88  1  0.42737410  0.32258875  0.31904061  1
  Al0+  Al89  1  0.67971980  0.42744756  0.68189083  1
  Al0+  Al90  1  0.17928668  0.42775333  0.68430697  1
  Al0+  Al91  1  0.82240920  0.06928091  0.67857054  1
  Al0+  Al92  1  0.82157685  0.57306591  0.68275934  1
  Al0+  Al93  1  0.43239625  0.32013035  0.65341630  1
  Al0+  Al94  1  0.42786135  0.82044606  0.32035182  1
  Al0+  Al95  1  0.06852609  0.17837429  0.98694984  1
  Si0+  Si96  1  0.67569100  0.43009049  0.01735562  1
  Si0+  Si97  1  0.56948080  0.67987475  0.65059886  1
  Si0+  Si98  1  0.92717976  0.32348428  0.98748068  1
  Si0+  Si99  1  0.17833149  0.92711702  0.68411482  1
  Si0+  Si100  1  0.82078023  0.56891869  0.01333572  1
  Si0+  Si101  1  0.92749726  0.81985371  0.31683462  1
  Si0+  Si102  1  0.18037583  0.42910841  0.01887257  1
  Si0+  Si103  1  0.67628941  0.42979607  0.34869995  1
  Si0+  Si104  1  0.32087698  0.57302666  0.34564151  1
  Si0+  Si105  1  0.57268212  0.67984767  0.31519473  1
  Si0+  Si106  1  0.07432368  0.67847279  0.64863030  1
  Si0+  Si107  1  0.42836667  0.82199082  0.98348269  1
  Si0+  Si108  1  0.92882203  0.32457541  0.31938201  1
  Si0+  Si109  1  0.57252018  0.17499922  0.65133556  1
  Si0+  Si110  1  0.32149898  0.57293180  0.01818384  1
  Si0+  Si111  1  0.67708887  0.92806717  0.68046553  1
  Si0+  Si112  1  0.42736548  0.82243482  0.65220235  1
  Si0+  Si113  1  0.18144512  0.92671170  0.01461837  1
  Si0+  Si114  1  0.18065220  0.42933463  0.34818542  1
  Si0+  Si115  1  0.67688284  0.92826528  0.35072994  1
  Si0+  Si116  1  0.31864992  0.07249199  0.01516140  1
  Si0+  Si117  1  0.57018773  0.67997044  0.98432123  1
  Si0+  Si118  1  0.17752627  0.92521279  0.34938536  1
  Si0+  Si119  1  0.06969023  0.67790070  0.31959497  1
  O2-  O120  1  0.24856644  0.00056976  0.05828237  1
  O2-  O121  1  0.24467196  -0.00432740  0.39256826  1
  O2-  O122  1  0.24236213  0.00015833  0.72832221  1
  O2-  O123  1  0.25105103  0.50154030  0.06095882  1
  O2-  O124  1  0.25684939  0.49664160  0.38774302  1
  O2-  O125  1  0.25105265  0.50123924  0.73377792  1
  O2-  O126  1  0.74713638  0.00312999  0.06486923  1
  O2-  O127  1  0.74313867  -0.00096933  0.39450753  1
  O2-  O128  1  0.74547991  -0.00369284  0.72408421  1
  O2-  O129  1  0.75267255  0.49633879  0.05836230  1
  O2-  O130  1  0.74789631  0.49577174  0.39194623  1
  O2-  O131  1  0.75707246  0.49439332  0.73274771  1
  O2-  O132  1  -0.01025551  0.25013956  0.27287393  1
  O2-  O133  1  -0.00379253  0.24872352  0.60104936  1
  O2-  O134  1  -0.01387856  0.24614939  0.94481302  1
  O2-  O135  1  -0.00236138  0.74696486  0.27635123  1
  O2-  O136  1  0.00091293  0.74102961  0.60234592  1
  O2-  O137  1  -0.00274168  0.74332909  0.93437577  1
  O2-  O138  1  0.49951792  0.24975641  0.27121509  1
  O2-  O139  1  0.50572988  0.24492795  0.60617394  1
  O2-  O140  1  0.50372829  0.25116671  0.93258934  1
  O2-  O141  1  0.50333570  0.74780751  0.27084326  1
  O2-  O142  1  0.49694925  0.75023804  0.60988008  1
  O2-  O143  1  0.50220881  0.75384006  0.94195732  1
  O2-  O144  1  0.07163296  0.18055350  0.10051862  1
  O2-  O145  1  0.07122755  0.18144377  0.43193327  1
  O2-  O146  1  0.06937129  0.17965502  0.76409941  1
  O2-  O147  1  0.07122252  0.67775846  0.09863080  1
  O2-  O148  1  0.07255275  0.67869703  0.42403313  1
  O2-  O149  1  0.07791682  0.68457166  0.75361693  1
  O2-  O150  1  0.57018647  0.17838749  0.09691277  1
  O2-  O151  1  0.57378858  0.18072463  0.43317750  1
  O2-  O152  1  0.56902398  0.17306059  0.75662053  1
  O2-  O153  1  0.56805101  0.67812688  0.08961321  1
  O2-  O154  1  0.57181971  0.67953945  0.42050231  1
  O2-  O155  1  0.57050086  0.68216992  0.75594216  1
  O2-  O156  1  0.17725076  0.43240136  0.24282003  1
  O2-  O157  1  0.18295139  0.42848180  0.56979673  1
  O2-  O158  1  0.18021112  0.42865694  0.91469775  1
  O2-  O159  1  0.17920821  0.92264986  0.24346675  1
  O2-  O160  1  0.18294385  0.92221779  0.57848955  1
  O2-  O161  1  0.18563353  0.92351630  0.91005032  1
  O2-  O162  1  0.67683552  0.43347699  0.24263721  1
  O2-  O163  1  0.67551971  0.43298753  0.56820162  1
  O2-  O164  1  0.67367798  0.43320216  0.91275036  1
  O2-  O165  1  0.67972977  0.92440259  0.24550224  1
  O2-  O166  1  0.67476731  0.92783331  0.57475609  1
  O2-  O167  1  0.67992094  0.92556770  0.90215701  1
  O2-  O168  1  0.43142660  0.32031791  0.09660747  1
  O2-  O169  1  0.42774526  0.32433643  0.43245836  1
  O2-  O170  1  0.43379678  0.31954203  0.76610212  1
  O2-  O171  1  0.42539580  0.81876782  0.08871524  1
  O2-  O172  1  0.42819394  0.81728307  0.43350907  1
  O2-  O173  1  0.42883773  0.82276124  0.75739671  1
  O2-  O174  1  0.93295820  0.33159978  0.09313807  1
  O2-  O175  1  0.93333281  0.32816913  0.42409813  1
  O2-  O176  1  0.92781011  0.31877320  0.76677051  1
  O2-  O177  1  0.92950657  0.81573692  0.09886590  1
  O2-  O178  1  0.92821254  0.81942068  0.42174414  1
  O2-  O179  1  0.92729860  0.81811543  0.76197460  1
  O2-  O180  1  0.31719602  0.06917346  0.23185514  1
  O2-  O181  1  0.32335442  0.06904190  0.56806109  1
  O2-  O182  1  0.31770284  0.07047242  0.91013370  1
  O2-  O183  1  0.31698600  0.57714368  0.24048213  1
  O2-  O184  1  0.32035599  0.57373717  0.56718508  1
  O2-  O185  1  0.32278579  0.57558176  0.91394868  1
  O2-  O186  1  0.82535137  0.06546585  0.23562085  1
  O2-  O187  1  0.82133527  0.06789248  0.56508037  1
  O2-  O188  1  0.82565407  0.06803776  0.90177149  1
  O2-  O189  1  0.82178818  0.57044996  0.23226003  1
  O2-  O190  1  0.81443503  0.57444925  0.56908802  1
  O2-  O191  1  0.81808279  0.56913459  0.90891014  1
  O2-  O192  1  0.04180923  0.07972358  0.26725376  1
  O2-  O193  1  0.04898279  0.07837909  0.59804608  1
  O2-  O194  1  0.04899149  0.07974898  0.93328849  1
  O2-  O195  1  0.04278241  0.58570352  0.27188757  1
  O2-  O196  1  0.05635536  0.58204540  0.60672168  1
  O2-  O197  1  0.05120924  0.57543121  0.93462654  1
  O2-  O198  1  0.54704839  0.07986724  0.26703987  1
  O2-  O199  1  0.54537516  0.08138304  0.60553674  1
  O2-  O200  1  0.54375502  0.07897704  0.93086112  1
  O2-  O201  1  0.54795966  0.58729486  0.26649105  1
  O2-  O202  1  0.54192926  0.58906959  0.60227252  1
  O2-  O203  1  0.53843542  0.59061367  0.93541210  1
  O2-  O204  1  0.16234345  0.21358142  0.26364334  1
  O2-  O205  1  0.16931135  0.21155241  0.60031296  1
  O2-  O206  1  0.16209991  0.21686821  0.93304997  1
  O2-  O207  1  0.16025626  0.70575748  0.26895679  1
  O2-  O208  1  0.16621046  0.71044981  0.60072461  1
  O2-  O209  1  0.17041834  0.70750668  0.93176223  1
  O2-  O210  1  0.67172189  0.20901805  0.26478606  1
  O2-  O211  1  0.66752054  0.19927728  0.60903518  1
  O2-  O212  1  0.67478257  0.20316200  0.93601235  1
  O2-  O213  1  0.66586012  0.70704330  0.26830895  1
  O2-  O214  1  0.65861874  0.70951388  0.59936761  1
  O2-  O215  1  0.66207768  0.70531329  0.93688188  1
  O2-  O216  1  0.08888323  0.45656670  0.06864611  1
  O2-  O217  1  0.09204732  0.46232821  0.39824506  1
  O2-  O218  1  0.08168687  0.45552728  0.73863876  1
  O2-  O219  1  0.08810187  0.94999407  0.06046182  1
  O2-  O220  1  0.08313552  0.94768553  0.39408393  1
  O2-  O221  1  0.08266605  0.94689223  0.72657851  1
  O2-  O222  1  0.58704774  0.46676549  0.06580151  1
  O2-  O223  1  0.58346049  0.46061380  0.39417496  1
  O2-  O224  1  0.58562545  0.46618320  0.73742508  1
  O2-  O225  1  0.57603031  0.95150591  0.06609399  1
  O2-  O226  1  0.58130064  0.94875143  0.39443950  1
  O2-  O227  1  0.58362335  0.94988892  0.72880418  1
  O2-  O228  1  0.21088456  0.33814995  0.06740200  1
  O2-  O229  1  0.20495202  0.33711345  0.39468153  1
  O2-  O230  1  0.21064269  0.33157884  0.73876748  1
  O2-  O231  1  0.21224286  0.83589127  0.06394124  1
  O2-  O232  1  0.20479970  0.83194050  0.39588059  1
  O2-  O233  1  0.20955013  0.83694580  0.73383111  1
  O2-  O234  1  0.69755638  0.33739360  0.06514094  1
  O2-  O235  1  0.69648191  0.33566002  0.39410919  1
  O2-  O236  1  0.70124513  0.32915446  0.73785612  1
  O2-  O237  1  0.70550163  0.82935299  0.07053614  1
  O2-  O238  1  0.70371233  0.83505203  0.39796616  1
  O2-  O239  1  0.70233473  0.83389114  0.72476108  1
  O2-  O240  1  0.45385439  0.42200901  0.26515386  1
  O2-  O241  1  0.46176677  0.41856033  0.60144962  1
  O2-  O242  1  0.45697372  0.42260845  0.93410904  1
  O2-  O243  1  0.45608039  0.91592311  0.26391403  1
  O2-  O244  1  0.45763520  0.91321875  0.60396962  1
  O2-  O245  1  0.45207976  0.91424874  0.93617064  1
  O2-  O246  1  0.96188555  0.41622267  0.27134242  1
  O2-  O247  1  0.95536696  0.42314236  0.60359169  1
  O2-  O248  1  0.96089084  0.41232736  0.93728056  1
  O2-  O249  1  0.95796910  0.90962016  0.26799653  1
  O2-  O250  1  0.96304964  0.91158047  0.59189586  1
  O2-  O251  1  0.96158750  0.91359819  0.93046930  1
  O2-  O252  1  0.32932833  0.29481346  0.26545456  1
  O2-  O253  1  0.33515987  0.29003621  0.60167912  1
  O2-  O254  1  0.33187370  0.29351590  0.93240593  1
  O2-  O255  1  0.33244595  0.78700575  0.26385158  1
  O2-  O256  1  0.33572569  0.79553149  0.60464347  1
  O2-  O257  1  0.33896567  0.79003217  0.93461289  1
  O2-  O258  1  0.83209301  0.30914039  0.27666779  1
  O2-  O259  1  0.82555535  0.29944956  0.60260987  1
  O2-  O260  1  0.82928779  0.30981165  0.94796580  1
  O2-  O261  1  0.83513697  0.79265403  0.27066529  1
  O2-  O262  1  0.83095259  0.78827141  0.59443135  1
  O2-  O263  1  0.82871644  0.79042637  0.93317321  1
  O2-  O264  1  0.41090846  0.04407212  0.06056179  1
  O2-  O265  1  0.41617584  0.03896208  0.39855916  1
  O2-  O266  1  0.41469939  0.03521122  0.73760788  1
  O2-  O267  1  0.41371223  0.54674903  0.06659723  1
  O2-  O268  1  0.41638270  0.55433352  0.38903555  1
  O2-  O269  1  0.42078393  0.54766534  0.73409247  1
  O2-  O270  1  0.92191513  0.03581126  0.06650382  1
  O2-  O271  1  0.91708381  0.03432717  0.40187521  1
  O2-  O272  1  0.91920908  0.03409214  0.72880751  1
  O2-  O273  1  0.91431960  0.54284265  0.05944336  1
  O2-  O274  1  0.91825556  0.54411339  0.40160541  1
  O2-  O275  1  0.92356982  0.55910013  0.73140254  1
  O2-  O276  1  0.28830706  0.16424977  0.06071047  1
  O2-  O277  1  0.28704211  0.16765124  0.39819199  1
  O2-  O278  1  0.29186499  0.16681188  0.73703549  1
  O2-  O279  1  0.29236127  0.66502393  0.06581465  1
  O2-  O280  1  0.28788280  0.66254880  0.39471896  1
  O2-  O281  1  0.29475151  0.67150341  0.73446571  1
  O2-  O282  1  0.80211469  0.17223408  0.06895468  1
  O2-  O283  1  0.79599499  0.17037907  0.39900584  1
  O2-  O284  1  0.79629678  0.16542804  0.73423345  1
  O2-  O285  1  0.79021273  0.65964104  0.06160275  1
  O2-  O286  1  0.78914629  0.66754311  0.39949079  1
  O2-  O287  1  0.78138154  0.66842236  0.73503250  1
