# generated using pymatgen
data_Ca2Al2SiO7
_symmetry_space_group_name_H-M   'P 1'
_cell_length_a   15.47282550
_cell_length_b   15.47733963
_cell_length_c   15.29768345
_cell_angle_alpha   89.98608724
_cell_angle_beta   89.99855588
_cell_angle_gamma   89.97262879
_symmetry_Int_Tables_number   1
_chemical_formula_structural   Ca2Al2SiO7
_chemical_formula_sum   'Ca48 Al48 Si24 O168'
_cell_volume   3663.46079007
_cell_formula_units_Z   24
loop_
 _symmetry_equiv_pos_site_id
 _symmetry_equiv_pos_as_xyz
  1  'x, y, z'
loop_
 _atom_type_symbol
 _atom_type_oxidation_number
  Ca2+  2.0
  Al0+  0.0
  Si0+  0.0
  O2-  -2.0
loop_
 _atom_site_type_symbol
 _atom_site_label
 _atom_site_symmetry_multiplicity
 _atom_site_fract_x
 _atom_site_fract_y
 _atom_site_fract_z
 _atom_site_occupancy
  Ca2+  Ca0  1  0.15832134  0.07653956  0.16444458  1
  Ca2+  Ca1  1  0.17278138  0.07745325  0.50915665  1
  Ca2+  Ca2  1  0.17007262  0.07431160  0.84060390  1
  Ca2+  Ca3  1  0.17070545  0.58712886  0.17683843  1
  Ca2+  Ca4  1  0.16846532  0.58010673  0.50746675  1
  Ca2+  Ca5  1  0.16585291  0.58730615  0.83275826  1
  Ca2+  Ca6  1  0.66931846  0.07628958  0.17343076  1
  Ca2+  Ca7  1  0.66696180  0.08074135  0.50850140  1
  Ca2+  Ca8  1  0.66519943  0.08158017  0.83569166  1
  Ca2+  Ca9  1  0.67604288  0.58972485  0.17408859  1
  Ca2+  Ca10  1  0.67150617  0.59262219  0.49984831  1
  Ca2+  Ca11  1  0.67068812  0.59518113  0.83854920  1
  Ca2+  Ca12  1  0.07904036  0.33715073  0.16518044  1
  Ca2+  Ca13  1  0.08452377  0.33819023  0.49313717  1
  Ca2+  Ca14  1  0.09034002  0.32871899  0.82799905  1
  Ca2+  Ca15  1  0.07641853  0.82115072  0.16062822  1
  Ca2+  Ca16  1  0.07817295  0.82162303  0.49681673  1
  Ca2+  Ca17  1  0.07837832  0.82529962  0.83197013  1
  Ca2+  Ca18  1  0.58602531  0.33819640  0.16756158  1
  Ca2+  Ca19  1  0.58018807  0.33429308  0.49687022  1
  Ca2+  Ca20  1  0.57498313  0.32688235  0.82098741  1
  Ca2+  Ca21  1  0.57719045  0.81920163  0.16234460  1
  Ca2+  Ca22  1  0.57392971  0.82078552  0.50169808  1
  Ca2+  Ca23  1  0.57481597  0.82340401  0.83051620  1
  Ca2+  Ca24  1  0.32429029  0.42566484  0.17608552  1
  Ca2+  Ca25  1  0.32368903  0.42624860  0.50523706  1
  Ca2+  Ca26  1  0.33299177  0.42188796  0.82708621  1
  Ca2+  Ca27  1  0.32568618  0.90804535  0.16441591  1
  Ca2+  Ca28  1  0.34026756  0.92314168  0.50970561  1
  Ca2+  Ca29  1  0.33678975  0.91675264  0.83924398  1
  Ca2+  Ca30  1  0.83017500  0.43101236  0.17567169  1
  Ca2+  Ca31  1  0.83236878  0.42232021  0.49642176  1
  Ca2+  Ca32  1  0.82811905  0.42784523  0.83989827  1
  Ca2+  Ca33  1  0.84110472  0.91238414  0.17066397  1
  Ca2+  Ca34  1  0.83706595  0.91021984  0.50484498  1
  Ca2+  Ca35  1  0.83695276  0.91020505  0.83866961  1
  Ca2+  Ca36  1  0.41635770  0.17205030  0.16340485  1
  Ca2+  Ca37  1  0.41474618  0.17170628  0.50506224  1
  Ca2+  Ca38  1  0.41750797  0.17176070  0.82026924  1
  Ca2+  Ca39  1  0.42597605  0.66122242  0.16175288  1
  Ca2+  Ca40  1  0.42402135  0.64990510  0.49749818  1
  Ca2+  Ca41  1  0.42179608  0.67422721  0.82279169  1
  Ca2+  Ca42  1  0.92170579  0.17777523  0.16425895  1
  Ca2+  Ca43  1  0.91864248  0.17699626  0.49352375  1
  Ca2+  Ca44  1  0.92580426  0.16620471  0.83279797  1
  Ca2+  Ca45  1  0.92338277  0.66526109  0.16151788  1
  Ca2+  Ca46  1  0.92769849  0.66883277  0.49218949  1
  Ca2+  Ca47  1  0.92439027  0.67192976  0.82984951  1
  Al0+  Al48  1  0.00128281  0.00284447  -0.00148657  1
  Al0+  Al49  1  0.00120272  0.00118810  0.33339286  1
  Al0+  Al50  1  -0.00060428  0.00276558  0.66479525  1
  Al0+  Al51  1  -0.00216912  0.49944529  -0.00006968  1
  Al0+  Al52  1  -0.00219236  0.49857392  0.33100947  1
  Al0+  Al53  1  -0.00216644  0.49883417  0.66950261  1
  Al0+  Al54  1  0.50156481  0.00218885  0.00179198  1
  Al0+  Al55  1  0.50166665  0.00004855  0.33284634  1
  Al0+  Al56  1  0.50330953  -0.00080462  0.66600093  1
  Al0+  Al57  1  0.49967176  0.49697890  -0.00416368  1
  Al0+  Al58  1  0.49929300  0.49621977  0.33236899  1
  Al0+  Al59  1  0.49881313  0.49736262  0.66319851  1
  Al0+  Al60  1  0.25061245  0.24937091  -0.00252088  1
  Al0+  Al61  1  0.25277270  0.24820293  0.33483959  1
  Al0+  Al62  1  0.25135899  0.24759832  0.66955832  1
  Al0+  Al63  1  0.24934062  0.75133553  -0.00047875  1
  Al0+  Al64  1  0.25065259  0.75324108  0.33687422  1
  Al0+  Al65  1  0.24763803  0.75154812  0.66385086  1
  Al0+  Al66  1  0.75046310  0.24960741  0.00088411  1
  Al0+  Al67  1  0.75218417  0.24797989  0.33157666  1
  Al0+  Al68  1  0.75197999  0.24857287  0.66664533  1
  Al0+  Al69  1  0.74908774  0.75168907  0.00048469  1
  Al0+  Al70  1  0.74644540  0.75285333  0.33273733  1
  Al0+  Al71  1  0.74746958  0.75244515  0.66286344  1
  Al0+  Al72  1  0.92896783  0.82212984  0.31876154  1
  Al0+  Al73  1  0.56886579  0.67711300  0.65061123  1
  Al0+  Al74  1  0.56706755  0.67710707  0.31904496  1
  Al0+  Al75  1  0.17759663  0.42808228  0.34505349  1
  Al0+  Al76  1  0.42715524  0.32015800  0.64848826  1
  Al0+  Al77  1  0.42675000  0.82108719  0.65329138  1
  Al0+  Al78  1  0.67994766  0.42679196  0.34834831  1
  Al0+  Al79  1  0.32038505  0.57311363  0.34620060  1
  Al0+  Al80  1  0.07217391  0.67790409  0.31895720  1
  Al0+  Al81  1  0.92922056  0.82225339  0.65232100  1
  Al0+  Al82  1  0.07211806  0.67549343  0.98494854  1
  Al0+  Al83  1  0.32211101  0.06692299  0.68120350  1
  Al0+  Al84  1  0.07009496  0.67638478  0.65104856  1
  Al0+  Al85  1  0.81958466  0.57446046  0.34958919  1
  Al0+  Al86  1  0.32142035  0.57290134  0.68281575  1
  Al0+  Al87  1  0.92923051  0.82160105  0.98648809  1
  Al0+  Al88  1  0.17876784  0.92890397  0.01443824  1
  Al0+  Al89  1  0.42854196  0.82164397  0.98720111  1
  Al0+  Al90  1  0.57041947  0.67703100  0.98598073  1
  Al0+  Al91  1  0.57307732  0.17905475  0.65142335  1
  Al0+  Al92  1  0.81888981  0.57232888  0.01276909  1
  Al0+  Al93  1  0.17684472  0.42945677  0.68294400  1
  Al0+  Al94  1  0.92891816  0.32093313  0.31928446  1
  Al0+  Al95  1  0.07076619  0.18171305  0.98598558  1
  Si0+  Si96  1  0.07112057  0.18003640  0.65176156  1
  Si0+  Si97  1  0.82226472  0.07285567  0.68391105  1
  Si0+  Si98  1  0.57193392  0.17765802  0.31707901  1
  Si0+  Si99  1  0.17875263  0.93157635  0.34958000  1
  Si0+  Si100  1  0.32282448  0.07303781  0.01822767  1
  Si0+  Si101  1  0.68148152  0.92985010  0.68410658  1
  Si0+  Si102  1  0.82185312  0.07279303  0.01700242  1
  Si0+  Si103  1  0.67731775  0.93057267  0.35081077  1
  Si0+  Si104  1  0.42897703  0.82704927  0.31654575  1
  Si0+  Si105  1  0.07488999  0.17880596  0.31780758  1
  Si0+  Si106  1  0.67989062  0.42608017  0.68061584  1
  Si0+  Si107  1  0.67679880  0.42572621  0.01477642  1
  Si0+  Si108  1  0.92884847  0.32056101  0.65289514  1
  Si0+  Si109  1  0.42913448  0.31833437  0.31594394  1
  Si0+  Si110  1  0.17460816  0.92922059  0.68388972  1
  Si0+  Si111  1  0.42859416  0.31936373  0.98444419  1
  Si0+  Si112  1  0.67905954  0.93132536  0.01719111  1
  Si0+  Si113  1  0.32127155  0.57047909  0.01271996  1
  Si0+  Si114  1  0.92665853  0.32184717  0.98151590  1
  Si0+  Si115  1  0.32418768  0.07047736  0.34861742  1
  Si0+  Si116  1  0.18017621  0.42673933  0.01356228  1
  Si0+  Si117  1  0.82162756  0.06924675  0.34883563  1
  Si0+  Si118  1  0.81776724  0.57231372  0.68152943  1
  Si0+  Si119  1  0.57269039  0.17956583  0.98675521  1
  O2-  O120  1  0.25659458  0.00223567  0.06216095  1
  O2-  O121  1  0.25363034  -0.00045164  0.39046743  1
  O2-  O122  1  0.25030206  -0.00952630  0.72836248  1
  O2-  O123  1  0.24612059  0.50279362  0.05465371  1
  O2-  O124  1  0.24163796  0.50707580  0.39421793  1
  O2-  O125  1  0.24661577  0.50334072  0.73382157  1
  O2-  O126  1  0.75310241  -0.00007387  0.05958114  1
  O2-  O127  1  0.75420435  -0.00389346  0.39218001  1
  O2-  O128  1  0.75428611  -0.00030097  0.72654236  1
  O2-  O129  1  0.74189576  0.49784793  0.05709905  1
  O2-  O130  1  0.74668230  0.50244837  0.40010707  1
  O2-  O131  1  0.74397903  0.50287813  0.72338403  1
  O2-  O132  1  0.01005144  0.25139334  0.27453064  1
  O2-  O133  1  0.00474881  0.25494283  0.61028463  1
  O2-  O134  1  -0.00146838  0.25725321  0.93648940  1
  O2-  O135  1  -0.00346699  0.74657738  0.26895468  1
  O2-  O136  1  -0.00105042  0.74970628  0.60210870  1
  O2-  O137  1  -0.00090922  0.74796847  0.93725953  1
  O2-  O138  1  0.50295764  0.24948974  0.27331472  1
  O2-  O139  1  0.50277123  0.25060984  0.59929457  1
  O2-  O140  1  0.50236744  0.24997110  0.94468900  1
  O2-  O141  1  0.48915592  0.75007518  0.27442336  1
  O2-  O142  1  0.48840774  0.74087942  0.60170279  1
  O2-  O143  1  0.49558923  0.74595982  0.93681168  1
  O2-  O144  1  0.06868435  0.18361998  0.09916844  1
  O2-  O145  1  0.07312171  0.17647396  0.42350216  1
  O2-  O146  1  0.06796458  0.17818142  0.75683849  1
  O2-  O147  1  0.07283073  0.67502847  0.09832937  1
  O2-  O148  1  0.07278479  0.68065856  0.43210996  1
  O2-  O149  1  0.06606272  0.67596619  0.76454478  1
  O2-  O150  1  0.57300674  0.17916803  0.09210753  1
  O2-  O151  1  0.57136909  0.17543111  0.42137861  1
  O2-  O152  1  0.57437641  0.18154044  0.76568468  1
  O2-  O153  1  0.56953187  0.67760957  0.09964748  1
  O2-  O154  1  0.56732784  0.67959811  0.43160281  1
  O2-  O155  1  0.57364363  0.68230485  0.76391740  1
  O2-  O156  1  0.18362228  0.42281467  0.23100820  1
  O2-  O157  1  0.17584384  0.42775470  0.56977441  1
  O2-  O158  1  0.18420773  0.42200426  0.90905889  1
  O2-  O159  1  0.17750921  0.93439097  0.24449231  1
  O2-  O160  1  0.17016863  0.93720597  0.57833124  1
  O2-  O161  1  0.17786644  0.93342167  0.90185934  1
  O2-  O162  1  0.68299997  0.42549554  0.23436361  1
  O2-  O163  1  0.68582276  0.42018646  0.57640781  1
  O2-  O164  1  0.67891337  0.41928489  0.90936123  1
  O2-  O165  1  0.67291407  0.93569361  0.24567226  1
  O2-  O166  1  0.68221571  0.93222506  0.57898327  1
  O2-  O167  1  0.67720981  0.93546745  0.91230554  1
  O2-  O168  1  0.42752711  0.31834876  0.08980009  1
  O2-  O169  1  0.42692989  0.31452222  0.42002899  1
  O2-  O170  1  0.42983532  0.31722052  0.76296787  1
  O2-  O171  1  0.43134250  0.82143037  0.10106209  1
  O2-  O172  1  0.43581811  0.83849524  0.42078938  1
  O2-  O173  1  0.43378504  0.82424396  0.76654100  1
  O2-  O174  1  0.92505833  0.31880315  0.08685228  1
  O2-  O175  1  0.92537909  0.31477975  0.43245537  1
  O2-  O176  1  0.92583781  0.31693652  0.75799361  1
  O2-  O177  1  0.93124222  0.82157223  0.09962721  1
  O2-  O178  1  0.93415484  0.82590916  0.43177170  1
  O2-  O179  1  0.92964180  0.82225703  0.76572874  1
  O2-  O180  1  0.32645684  0.07206131  0.24356876  1
  O2-  O181  1  0.31885351  0.06763494  0.56750269  1
  O2-  O182  1  0.32352993  0.07494659  0.91311299  1
  O2-  O183  1  0.32228422  0.56874077  0.23153871  1
  O2-  O184  1  0.32122314  0.56743220  0.56979772  1
  O2-  O185  1  0.32432387  0.56750701  0.90826327  1
  O2-  O186  1  0.81928853  0.07016129  0.24353014  1
  O2-  O187  1  0.82198978  0.07544155  0.57889939  1
  O2-  O188  1  0.81868367  0.07682223  0.91203848  1
  O2-  O189  1  0.81842179  0.57334841  0.23587726  1
  O2-  O190  1  0.81895340  0.57094662  0.57685555  1
  O2-  O191  1  0.81748907  0.56961177  0.89909841  1
  O2-  O192  1  0.04233233  0.08816154  0.27012996  1
  O2-  O193  1  0.03816564  0.09153827  0.60150481  1
  O2-  O194  1  0.03668043  0.08771571  0.93020086  1
  O2-  O195  1  0.04890001  0.57796169  0.26763631  1
  O2-  O196  1  0.03834484  0.57774933  0.60040904  1
  O2-  O197  1  0.04404946  0.57667257  0.93261781  1
  O2-  O198  1  0.54099926  0.08747381  0.26744834  1
  O2-  O199  1  0.54597631  0.08092573  0.59920243  1
  O2-  O200  1  0.54624399  0.08805379  0.93924598  1
  O2-  O201  1  0.54014974  0.57923304  0.26509651  1
  O2-  O202  1  0.55162651  0.57576692  0.60046618  1
  O2-  O203  1  0.54944505  0.57624988  0.93461206  1
  O2-  O204  1  0.17009574  0.19797872  0.27246343  1
  O2-  O205  1  0.16428388  0.20190603  0.60594528  1
  O2-  O206  1  0.16804624  0.20936893  0.93177674  1
  O2-  O207  1  0.17111187  0.71103270  0.26796882  1
  O2-  O208  1  0.16877252  0.70252945  0.59903488  1
  O2-  O209  1  0.17002982  0.70524674  0.93325961  1
  O2-  O210  1  0.66407374  0.20266241  0.26892610  1
  O2-  O211  1  0.67272603  0.20544709  0.59978729  1
  O2-  O212  1  0.66486031  0.20527310  0.93898375  1
  O2-  O213  1  0.66206139  0.71413641  0.26584010  1
  O2-  O214  1  0.66362555  0.71573432  0.59685255  1
  O2-  O215  1  0.66643408  0.71218106  0.93373631  1
  O2-  O216  1  0.08479160  0.44686657  0.05669185  1
  O2-  O217  1  0.07534656  0.44344800  0.39309827  1
  O2-  O218  1  0.07640374  0.45175974  0.73667478  1
  O2-  O219  1  0.08444970  0.96785886  0.06886948  1
  O2-  O220  1  0.08961657  0.96572604  0.39852312  1
  O2-  O221  1  0.08469060  0.96580983  0.73162761  1
  O2-  O222  1  0.58089093  0.44544334  0.05904812  1
  O2-  O223  1  0.57820922  0.44609255  0.39610986  1
  O2-  O224  1  0.58504290  0.44534978  0.72462073  1
  O2-  O225  1  0.58984967  0.96476094  0.06737390  1
  O2-  O226  1  0.58912494  0.96727721  0.39958136  1
  O2-  O227  1  0.59193768  0.96149774  0.73316060  1
  O2-  O228  1  0.21312890  0.33692735  0.06256129  1
  O2-  O229  1  0.21199297  0.33061246  0.39852954  1
  O2-  O230  1  0.20877047  0.33049669  0.73437880  1
  O2-  O231  1  0.20837470  0.83269547  0.07082720  1
  O2-  O232  1  0.20225343  0.83991448  0.39793083  1
  O2-  O233  1  0.19006749  0.83260823  0.72513562  1
  O2-  O234  1  0.70482114  0.33306296  0.06318638  1
  O2-  O235  1  0.71150959  0.32797124  0.39958027  1
  O2-  O236  1  0.71402943  0.33687793  0.73133275  1
  O2-  O237  1  0.70406723  0.83944510  0.06471865  1
  O2-  O238  1  0.69876284  0.83820776  0.39813401  1
  O2-  O239  1  0.70821897  0.83821103  0.73239505  1
  O2-  O240  1  0.45542992  0.40873933  0.26571246  1
  O2-  O241  1  0.45365433  0.41770182  0.59570675  1
  O2-  O242  1  0.45453762  0.41009619  0.93500846  1
  O2-  O243  1  0.46278893  0.91656777  0.26551817  1
  O2-  O244  1  0.46674134  0.91546205  0.59899886  1
  O2-  O245  1  0.46064417  0.92094145  0.93734682  1
  O2-  O246  1  0.95313338  0.41697061  0.26222574  1
  O2-  O247  1  0.95044234  0.41334766  0.60647621  1
  O2-  O248  1  0.94789178  0.41600968  0.93664615  1
  O2-  O249  1  0.96031155  0.92115352  0.26676961  1
  O2-  O250  1  0.95526051  0.92258074  0.60097673  1
  O2-  O251  1  0.95568577  0.92133790  0.93529785  1
  O2-  O252  1  0.33963461  0.28481879  0.26621271  1
  O2-  O253  1  0.33071499  0.28426853  0.59680333  1
  O2-  O254  1  0.33932044  0.28793538  0.93568458  1
  O2-  O255  1  0.33148304  0.81041499  0.27694685  1
  O2-  O256  1  0.32387050  0.81132819  0.60495106  1
  O2-  O257  1  0.32865316  0.80146185  0.93645261  1
  O2-  O258  1  0.83664763  0.28000227  0.26257604  1
  O2-  O259  1  0.84079680  0.28521245  0.60379611  1
  O2-  O260  1  0.83428307  0.29092869  0.93522178  1
  O2-  O261  1  0.82603215  0.80497689  0.27149855  1
  O2-  O262  1  0.82959770  0.79775197  0.60131904  1
  O2-  O263  1  0.82923215  0.79772841  0.93553418  1
  O2-  O264  1  0.41807185  0.05215896  0.06415369  1
  O2-  O265  1  0.41610483  0.04291363  0.39598834  1
  O2-  O266  1  0.42105459  0.04123719  0.73358894  1
  O2-  O267  1  0.41212888  0.53686173  0.06021278  1
  O2-  O268  1  0.41538268  0.53385146  0.39780628  1
  O2-  O269  1  0.42040950  0.53988075  0.73482577  1
  O2-  O270  1  0.91416108  0.04843885  0.06387228  1
  O2-  O271  1  0.91482097  0.04664665  0.39623329  1
  O2-  O272  1  0.91498309  0.04749355  0.73116514  1
  O2-  O273  1  0.91482421  0.53840151  0.06708418  1
  O2-  O274  1  0.91755370  0.54203158  0.40044214  1
  O2-  O275  1  0.90727849  0.54030267  0.73062182  1
  O2-  O276  1  0.29295810  0.16564152  0.06534396  1
  O2-  O277  1  0.29660957  0.16148011  0.39702830  1
  O2-  O278  1  0.28994659  0.16261752  0.73579620  1
  O2-  O279  1  0.29857435  0.66322397  0.05971061  1
  O2-  O280  1  0.30578876  0.67523872  0.39649258  1
  O2-  O281  1  0.29687649  0.67421779  0.73239919  1
  O2-  O282  1  0.79061276  0.16342576  0.06622393  1
  O2-  O283  1  0.79007361  0.15915973  0.39707424  1
  O2-  O284  1  0.79237744  0.16291423  0.73440206  1
  O2-  O285  1  0.78921711  0.66877615  0.06729680  1
  O2-  O286  1  0.78982864  0.67313906  0.40165451  1
  O2-  O287  1  0.78916039  0.66473139  0.72730002  1
