# generated using pymatgen
data_Ca2Al2SiO7
_symmetry_space_group_name_H-M   'P 1'
_cell_length_a   15.46137019
_cell_length_b   15.46071070
_cell_length_c   15.28615699
_cell_angle_alpha   89.99326620
_cell_angle_beta   89.99364861
_cell_angle_gamma   89.99469424
_symmetry_Int_Tables_number   1
_chemical_formula_structural   Ca2Al2SiO7
_chemical_formula_sum   'Ca48 Al48 Si24 O168'
_cell_volume   3654.06055486
_cell_formula_units_Z   24
loop_
 _symmetry_equiv_pos_site_id
 _symmetry_equiv_pos_as_xyz
  1  'x, y, z'
loop_
 _atom_type_symbol
 _atom_type_oxidation_number
  Ca2+  2.0
  Al0+  0.0
  Si0+  0.0
  O2-  -2.0
loop_
 _atom_site_type_symbol
 _atom_site_label
 _atom_site_symmetry_multiplicity
 _atom_site_fract_x
 _atom_site_fract_y
 _atom_site_fract_z
 _atom_site_occupancy
  Ca2+  Ca0  1  0.16218273  0.07397335  0.16801512  1
  Ca2+  Ca1  1  0.17185772  0.08027843  0.50705239  1
  Ca2+  Ca2  1  0.17202534  0.08547792  0.84108466  1
  Ca2+  Ca3  1  0.16439684  0.58537548  0.17011916  1
  Ca2+  Ca4  1  0.17407369  0.58225936  0.50755454  1
  Ca2+  Ca5  1  0.17051893  0.58805909  0.83545012  1
  Ca2+  Ca6  1  0.67487158  0.08191798  0.17342394  1
  Ca2+  Ca7  1  0.67575009  0.08144690  0.51052742  1
  Ca2+  Ca8  1  0.66862091  0.08052616  0.82727938  1
  Ca2+  Ca9  1  0.67015906  0.58037757  0.17731683  1
  Ca2+  Ca10  1  0.66966297  0.57399099  0.50609594  1
  Ca2+  Ca11  1  0.67202841  0.58180178  0.83356506  1
  Ca2+  Ca12  1  0.06820760  0.32821903  0.15685576  1
  Ca2+  Ca13  1  0.07112096  0.32671478  0.49961886  1
  Ca2+  Ca14  1  0.07393118  0.32275505  0.82659997  1
  Ca2+  Ca15  1  0.08756715  0.83235286  0.16244280  1
  Ca2+  Ca16  1  0.07822554  0.83690075  0.49974640  1
  Ca2+  Ca17  1  0.08342749  0.83164043  0.83068676  1
  Ca2+  Ca18  1  0.58494697  0.33535377  0.16643112  1
  Ca2+  Ca19  1  0.59701330  0.33024195  0.50168243  1
  Ca2+  Ca20  1  0.58409640  0.32651192  0.82399731  1
  Ca2+  Ca21  1  0.58385371  0.82019277  0.16342749  1
  Ca2+  Ca22  1  0.57287392  0.83610105  0.49524414  1
  Ca2+  Ca23  1  0.57986580  0.83166678  0.82274714  1
  Ca2+  Ca24  1  0.32848142  0.41819654  0.17051159  1
  Ca2+  Ca25  1  0.33289090  0.42559483  0.50922528  1
  Ca2+  Ca26  1  0.33476929  0.42388291  0.83369632  1
  Ca2+  Ca27  1  0.32293999  0.91597518  0.16916631  1
  Ca2+  Ca28  1  0.33029944  0.91223551  0.50684561  1
  Ca2+  Ca29  1  0.33104769  0.92639806  0.83732524  1
  Ca2+  Ca30  1  0.83203024  0.42019377  0.17751353  1
  Ca2+  Ca31  1  0.83063343  0.42313721  0.50546291  1
  Ca2+  Ca32  1  0.83526997  0.41191901  0.83008067  1
  Ca2+  Ca33  1  0.83493881  0.92555776  0.17414369  1
  Ca2+  Ca34  1  0.82946092  0.92602559  0.51149990  1
  Ca2+  Ca35  1  0.83454284  0.91727568  0.82883655  1
  Ca2+  Ca36  1  0.41609097  0.16598560  0.16227780  1
  Ca2+  Ca37  1  0.42424538  0.15934691  0.50285047  1
  Ca2+  Ca38  1  0.41885570  0.15966912  0.82302545  1
  Ca2+  Ca39  1  0.42861163  0.67010913  0.16480282  1
  Ca2+  Ca40  1  0.42152031  0.67546297  0.49453654  1
  Ca2+  Ca41  1  0.42118248  0.67303490  0.82469801  1
  Ca2+  Ca42  1  0.91548411  0.17685289  0.16059248  1
  Ca2+  Ca43  1  0.90579380  0.17492772  0.49837562  1
  Ca2+  Ca44  1  0.92661094  0.16994119  0.82203339  1
  Ca2+  Ca45  1  0.92129282  0.66592977  0.16077797  1
  Ca2+  Ca46  1  0.90474687  0.67008843  0.50043539  1
  Ca2+  Ca47  1  0.92179676  0.67065678  0.82532579  1
  Al0+  Al48  1  -0.00047529  0.00131130  0.00187869  1
  Al0+  Al49  1  0.00244080  -0.00014985  0.34187362  1
  Al0+  Al50  1  0.00141513  -0.00299777  0.66268501  1
  Al0+  Al51  1  -0.00032101  0.50229573  -0.00831641  1
  Al0+  Al52  1  -0.00025431  0.49914830  0.33404939  1
  Al0+  Al53  1  0.00156185  0.49806641  0.66632860  1
  Al0+  Al54  1  0.50051227  -0.00027277  0.00678705  1
  Al0+  Al55  1  0.49751623  0.00145807  0.32448455  1
  Al0+  Al56  1  0.49885097  -0.00061825  0.66455190  1
  Al0+  Al57  1  0.50170855  0.50021279  -0.00295467  1
  Al0+  Al58  1  0.49953668  0.49871567  0.33305880  1
  Al0+  Al59  1  0.49969213  0.49986999  0.67566270  1
  Al0+  Al60  1  0.25028196  0.25334728  0.00225328  1
  Al0+  Al61  1  0.25008087  0.24816462  0.33274552  1
  Al0+  Al62  1  0.24989656  0.25046472  0.66554625  1
  Al0+  Al63  1  0.25175232  0.75134164  0.00064533  1
  Al0+  Al64  1  0.24944392  0.75136322  0.33320142  1
  Al0+  Al65  1  0.25150994  0.74943563  0.66787880  1
  Al0+  Al66  1  0.74616256  0.25167709  -0.00248276  1
  Al0+  Al67  1  0.75005775  0.25077194  0.33319964  1
  Al0+  Al68  1  0.74993526  0.24934455  0.66788533  1
  Al0+  Al69  1  0.74967327  0.74848569  -0.00273138  1
  Al0+  Al70  1  0.74984936  0.75137351  0.33023622  1
  Al0+  Al71  1  0.75049537  0.74755665  0.66988376  1
  Al0+  Al72  1  0.17801074  0.92964284  0.01498645  1
  Al0+  Al73  1  0.32250710  0.07414186  0.01693349  1
  Al0+  Al74  1  0.18118180  0.92812305  0.35032499  1
  Al0+  Al75  1  0.43009979  0.82032335  0.65412215  1
  Al0+  Al76  1  0.07270738  0.68074920  0.98709219  1
  Al0+  Al77  1  0.92938302  0.31987427  0.31877623  1
  Al0+  Al78  1  0.67755586  0.42980336  0.34784123  1
  Al0+  Al79  1  0.07402677  0.17618283  0.64983491  1
  Al0+  Al80  1  0.92574511  0.32170770  0.98344872  1
  Al0+  Al81  1  0.92868089  0.31971083  0.64869265  1
  Al0+  Al82  1  0.32051307  0.57208674  0.68082899  1
  Al0+  Al83  1  0.67753422  0.92838225  0.67947086  1
  Al0+  Al84  1  0.57138585  0.67812552  0.31966019  1
  Al0+  Al85  1  0.67993339  0.42838408  0.68485786  1
  Al0+  Al86  1  0.07080650  0.17850771  0.98628299  1
  Al0+  Al87  1  0.92820552  0.81878460  0.65281145  1
  Al0+  Al88  1  0.82339930  0.57335111  0.34695907  1
  Al0+  Al89  1  0.42616809  0.82256853  0.31480401  1
  Al0+  Al90  1  0.82014083  0.07029719  0.34583211  1
  Al0+  Al91  1  0.56918931  0.17948313  0.65354273  1
  Al0+  Al92  1  0.57174149  0.67821022  0.98322496  1
  Al0+  Al93  1  0.31939299  0.07033116  0.67791270  1
  Al0+  Al94  1  0.82306302  0.07044780  0.68277348  1
  Al0+  Al95  1  0.82340141  0.57091665  0.68438088  1
  Si0+  Si96  1  0.57086014  0.18063353  0.31717598  1
  Si0+  Si97  1  0.32290906  0.07343088  0.35107918  1
  Si0+  Si98  1  0.92952353  0.82307549  0.31963372  1
  Si0+  Si99  1  0.67611828  0.92847364  0.34671133  1
  Si0+  Si100  1  0.07074483  0.67925266  0.32066107  1
  Si0+  Si101  1  0.17891520  0.42771064  0.68447259  1
  Si0+  Si102  1  0.07371849  0.17719765  0.31584323  1
  Si0+  Si103  1  0.81854011  0.07190182  0.01381453  1
  Si0+  Si104  1  0.42861773  0.32202350  0.98594556  1
  Si0+  Si105  1  0.43066692  0.82191763  0.98263151  1
  Si0+  Si106  1  0.17793994  0.43192064  0.01517384  1
  Si0+  Si107  1  0.17820214  0.92661215  0.68397031  1
  Si0+  Si108  1  0.67870412  0.42942107  0.01638898  1
  Si0+  Si109  1  0.31955516  0.56944933  0.34617123  1
  Si0+  Si110  1  0.67922308  0.92673516  0.01626027  1
  Si0+  Si111  1  0.42588608  0.32139293  0.31842726  1
  Si0+  Si112  1  0.82154844  0.57117213  0.01484454  1
  Si0+  Si113  1  0.32255657  0.57074561  0.01660412  1
  Si0+  Si114  1  0.56883442  0.17793448  0.98590308  1
  Si0+  Si115  1  0.17820153  0.42721568  0.34716061  1
  Si0+  Si116  1  0.07294948  0.67803532  0.64946171  1
  Si0+  Si117  1  0.42818386  0.32412252  0.65081311  1
  Si0+  Si118  1  0.57190978  0.67587413  0.65059075  1
  Si0+  Si119  1  0.92708322  0.82325064  0.98524160  1
  O2-  O120  1  0.24813984  0.00380067  0.06584879  1
  O2-  O121  1  0.25752790  0.00212972  0.39460967  1
  O2-  O122  1  0.24170053  0.00044845  0.72653834  1
  O2-  O123  1  0.24853205  0.50305236  0.05996322  1
  O2-  O124  1  0.24949661  0.49803180  0.38929169  1
  O2-  O125  1  0.24649094  0.49759162  0.72913327  1
  O2-  O126  1  0.75058331  -0.00190242  0.05763797  1
  O2-  O127  1  0.74543902  -0.00481635  0.39114944  1
  O2-  O128  1  0.75166367  -0.00295123  0.73233225  1
  O2-  O129  1  0.75177257  0.49883710  0.05734855  1
  O2-  O130  1  0.74840453  0.50376408  0.39541079  1
  O2-  O131  1  0.75263067  0.49868476  0.73628979  1
  O2-  O132  1  0.00388517  0.24480950  0.27181199  1
  O2-  O133  1  -0.00281748  0.24321736  0.59961194  1
  O2-  O134  1  -0.00342213  0.24753946  0.93604401  1
  O2-  O135  1  -0.00281877  0.74800582  0.27824063  1
  O2-  O136  1  0.00119105  0.74244578  0.60445462  1
  O2-  O137  1  -0.00068217  0.75725576  0.94284914  1
  O2-  O138  1  0.49805037  0.25121224  0.27641920  1
  O2-  O139  1  0.49662528  0.25629967  0.60544996  1
  O2-  O140  1  0.49246748  0.24419856  0.94564041  1
  O2-  O141  1  0.50160867  0.75209104  0.26763816  1
  O2-  O142  1  0.50583729  0.74696672  0.60670772  1
  O2-  O143  1  0.49949129  0.75473205  0.93685838  1
  O2-  O144  1  0.06714556  0.18011728  0.10044475  1
  O2-  O145  1  0.07814545  0.18064722  0.42071219  1
  O2-  O146  1  0.07615620  0.18020587  0.76358671  1
  O2-  O147  1  0.06955063  0.67812895  0.10085060  1
  O2-  O148  1  0.07529895  0.67941071  0.42515571  1
  O2-  O149  1  0.07502588  0.68164972  0.75519549  1
  O2-  O150  1  0.57227751  0.18126253  0.09139711  1
  O2-  O151  1  0.57033594  0.17868635  0.42173881  1
  O2-  O152  1  0.56556609  0.17895141  0.76716718  1
  O2-  O153  1  0.57074327  0.67715509  0.09638337  1
  O2-  O154  1  0.56731416  0.67583885  0.43269282  1
  O2-  O155  1  0.56837196  0.67675111  0.75655360  1
  O2-  O156  1  0.17957412  0.42929204  0.24155422  1
  O2-  O157  1  0.18134247  0.42957140  0.57825738  1
  O2-  O158  1  0.18192062  0.43244406  0.91056403  1
  O2-  O159  1  0.17949178  0.92789039  0.23726010  1
  O2-  O160  1  0.18215550  0.92282718  0.57830401  1
  O2-  O161  1  0.18027849  0.92750061  0.90193486  1
  O2-  O162  1  0.67802077  0.42974221  0.23329580  1
  O2-  O163  1  0.67763595  0.43154222  0.57152123  1
  O2-  O164  1  0.67597331  0.42840265  0.91212944  1
  O2-  O165  1  0.67957867  0.93026059  0.24020596  1
  O2-  O166  1  0.67680267  0.93141397  0.56558191  1
  O2-  O167  1  0.67700449  0.92689995  0.91180314  1
  O2-  O168  1  0.43136927  0.32608537  0.09148201  1
  O2-  O169  1  0.42045460  0.32248474  0.42266855  1
  O2-  O170  1  0.42830988  0.32337661  0.75676381  1
  O2-  O171  1  0.43209640  0.81873253  0.08819981  1
  O2-  O172  1  0.42629624  0.82021964  0.42840316  1
  O2-  O173  1  0.42982278  0.81898921  0.76737074  1
  O2-  O174  1  0.92570199  0.32155447  0.09781569  1
  O2-  O175  1  0.93047414  0.32054719  0.43089168  1
  O2-  O176  1  0.93253071  0.31917253  0.76224036  1
  O2-  O177  1  0.92422078  0.82131401  0.09140232  1
  O2-  O178  1  0.93003603  0.82324503  0.42423614  1
  O2-  O179  1  0.93188177  0.81850620  0.76625252  1
  O2-  O180  1  0.32065033  0.07719176  0.24569726  1
  O2-  O181  1  0.32061683  0.06746122  0.56478934  1
  O2-  O182  1  0.32533816  0.07159548  0.90365513  1
  O2-  O183  1  0.31801613  0.56714361  0.24053348  1
  O2-  O184  1  0.31879056  0.57067993  0.56701787  1
  O2-  O185  1  0.32265005  0.56845858  0.91183023  1
  O2-  O186  1  0.81835356  0.06960044  0.23149578  1
  O2-  O187  1  0.81870357  0.06996224  0.56908029  1
  O2-  O188  1  0.81700262  0.07146689  0.90944415  1
  O2-  O189  1  0.82590754  0.57078080  0.23243086  1
  O2-  O190  1  0.82051596  0.57100141  0.57093038  1
  O2-  O191  1  0.82057862  0.57305481  0.91050241  1
  O2-  O192  1  0.04751695  0.08195938  0.27391158  1
  O2-  O193  1  0.05429514  0.07510074  0.60030387  1
  O2-  O194  1  0.04606856  0.07878471  0.93489980  1
  O2-  O195  1  0.04619284  0.58672895  0.27227185  1
  O2-  O196  1  0.05451884  0.58212275  0.60610886  1
  O2-  O197  1  0.04288545  0.58644760  0.92930693  1
  O2-  O198  1  0.54452999  0.09002607  0.26562011  1
  O2-  O199  1  0.53555187  0.08537740  0.59694662  1
  O2-  O200  1  0.54614111  0.08370120  0.94167015  1
  O2-  O201  1  0.53914027  0.58026652  0.26510486  1
  O2-  O202  1  0.54064384  0.58286050  0.60712028  1
  O2-  O203  1  0.53849359  0.58241207  0.92985730  1
  O2-  O204  1  0.16712421  0.20334867  0.26833745  1
  O2-  O205  1  0.17068114  0.21070647  0.59542809  1
  O2-  O206  1  0.17009303  0.20987926  0.93680326  1
  O2-  O207  1  0.16097889  0.70876279  0.27049233  1
  O2-  O208  1  0.16542708  0.70729898  0.60269020  1
  O2-  O209  1  0.17076258  0.70806213  0.93382357  1
  O2-  O210  1  0.66077464  0.21065168  0.26703761  1
  O2-  O211  1  0.66572894  0.20883140  0.59973816  1
  O2-  O212  1  0.65757031  0.21058385  0.93646083  1
  O2-  O213  1  0.66980825  0.70599260  0.26371068  1
  O2-  O214  1  0.66705114  0.69625185  0.60788675  1
  O2-  O215  1  0.66893338  0.70724782  0.93055829  1
  O2-  O216  1  0.08563390  0.46153502  0.06104724  1
  O2-  O217  1  0.08837339  0.45641061  0.39591434  1
  O2-  O218  1  0.08619135  0.45272654  0.73101025  1
  O2-  O219  1  0.07808373  0.95457541  0.06953172  1
  O2-  O220  1  0.08590935  0.95833530  0.40624454  1
  O2-  O221  1  0.08261534  0.94494963  0.72713216  1
  O2-  O222  1  0.58681967  0.45916230  0.06391447  1
  O2-  O223  1  0.57709486  0.45233118  0.39990034  1
  O2-  O224  1  0.58129209  0.45531306  0.73926618  1
  O2-  O225  1  0.58892786  0.95484748  0.06659626  1
  O2-  O226  1  0.58102544  0.95567878  0.38787977  1
  O2-  O227  1  0.58130524  0.96126741  0.73427278  1
  O2-  O228  1  0.20647491  0.34170027  0.06569241  1
  O2-  O229  1  0.20705891  0.33557642  0.39338962  1
  O2-  O230  1  0.20731239  0.33566525  0.73127108  1
  O2-  O231  1  0.20953709  0.83111367  0.06900345  1
  O2-  O232  1  0.21075670  0.83090562  0.40398359  1
  O2-  O233  1  0.20887680  0.83509002  0.73140312  1
  O2-  O234  1  0.70295452  0.33635244  0.06434244  1
  O2-  O235  1  0.70687547  0.33158748  0.39870098  1
  O2-  O236  1  0.70579463  0.32918304  0.73699459  1
  O2-  O237  1  0.70858141  0.83479924  0.06360690  1
  O2-  O238  1  0.69778746  0.83402480  0.39079026  1
  O2-  O239  1  0.70267627  0.82952216  0.73247657  1
  O2-  O240  1  0.45263528  0.41256492  0.26854798  1
  O2-  O241  1  0.45310666  0.41894320  0.60669417  1
  O2-  O242  1  0.46231019  0.41063203  0.93611889  1
  O2-  O243  1  0.44922719  0.92210372  0.26122509  1
  O2-  O244  1  0.45983745  0.91521311  0.59732941  1
  O2-  O245  1  0.45668401  0.91709033  0.94052535  1
  O2-  O246  1  0.96270587  0.41665156  0.26482989  1
  O2-  O247  1  0.96239615  0.41767920  0.59690634  1
  O2-  O248  1  0.95621987  0.41895659  0.93091924  1
  O2-  O249  1  0.96223759  0.91377843  0.27215833  1
  O2-  O250  1  0.95929608  0.91369471  0.59612286  1
  O2-  O251  1  0.94879325  0.91790593  0.94086693  1
  O2-  O252  1  0.33531392  0.29228923  0.26723149  1
  O2-  O253  1  0.33458225  0.30093592  0.60438812  1
  O2-  O254  1  0.33442236  0.30402740  0.94015038  1
  O2-  O255  1  0.32929881  0.78801976  0.26181904  1
  O2-  O256  1  0.33434967  0.78626313  0.59996682  1
  O2-  O257  1  0.33717729  0.79560268  0.93794561  1
  O2-  O258  1  0.83263845  0.28890043  0.26399726  1
  O2-  O259  1  0.82877751  0.29424674  0.59855089  1
  O2-  O260  1  0.82585712  0.29564515  0.93336151  1
  O2-  O261  1  0.83679351  0.80202978  0.27029417  1
  O2-  O262  1  0.83067745  0.78945465  0.59920323  1
  O2-  O263  1  0.83552882  0.79437303  0.93759118  1
  O2-  O264  1  0.42058868  0.04457159  0.07222183  1
  O2-  O265  1  0.41942603  0.05119426  0.39228399  1
  O2-  O266  1  0.41425650  0.03648711  0.73265296  1
  O2-  O267  1  0.41305816  0.53691741  0.06370215  1
  O2-  O268  1  0.41022522  0.54074012  0.39379712  1
  O2-  O269  1  0.41437305  0.54081409  0.73913914  1
  O2-  O270  1  0.91055157  0.04739491  0.06240430  1
  O2-  O271  1  0.91615427  0.04235617  0.40029977  1
  O2-  O272  1  0.92232163  0.04010248  0.73285669  1
  O2-  O273  1  0.91516244  0.54508895  0.06010142  1
  O2-  O274  1  0.92137128  0.54458005  0.40054062  1
  O2-  O275  1  0.92420752  0.54519893  0.73409750  1
  O2-  O276  1  0.29997247  0.17569783  0.06789203  1
  O2-  O277  1  0.29645628  0.16676202  0.39792944  1
  O2-  O278  1  0.29578670  0.16966351  0.73049520  1
  O2-  O279  1  0.29765362  0.66327116  0.06325874  1
  O2-  O280  1  0.29018802  0.66045961  0.39276835  1
  O2-  O281  1  0.28802995  0.66678055  0.73737559  1
  O2-  O282  1  0.78470575  0.16253687  0.06137698  1
  O2-  O283  1  0.78599316  0.16548527  0.39834244  1
  O2-  O284  1  0.79245197  0.16739175  0.73564507  1
  O2-  O285  1  0.79326470  0.66320066  0.06269388  1
  O2-  O286  1  0.79869600  0.67441054  0.39565284  1
  O2-  O287  1  0.79523711  0.66863749  0.73883901  1
