# generated using pymatgen
data_Ca2Al2SiO7
_symmetry_space_group_name_H-M   'P 1'
_cell_length_a   15.45734881
_cell_length_b   15.45709008
_cell_length_c   15.28295868
_cell_angle_alpha   89.99762454
_cell_angle_beta   89.99294260
_cell_angle_gamma   89.98654371
_symmetry_Int_Tables_number   1
_chemical_formula_structural   Ca2Al2SiO7
_chemical_formula_sum   'Ca48 Al48 Si24 O168'
_cell_volume   3651.49044456
_cell_formula_units_Z   24
loop_
 _symmetry_equiv_pos_site_id
 _symmetry_equiv_pos_as_xyz
  1  'x, y, z'
loop_
 _atom_type_symbol
 _atom_type_oxidation_number
  Ca2+  2.0
  Al0+  0.0
  Si0+  0.0
  O2-  -2.0
loop_
 _atom_site_type_symbol
 _atom_site_label
 _atom_site_symmetry_multiplicity
 _atom_site_fract_x
 _atom_site_fract_y
 _atom_site_fract_z
 _atom_site_occupancy
  Ca2+  Ca0  1  0.16468375  0.07893359  0.16787257  1
  Ca2+  Ca1  1  0.17773610  0.08923580  0.50661910  1
  Ca2+  Ca2  1  0.16604173  0.08399491  0.83837997  1
  Ca2+  Ca3  1  0.17056298  0.58745114  0.17152597  1
  Ca2+  Ca4  1  0.15994842  0.58636318  0.50323650  1
  Ca2+  Ca5  1  0.17208801  0.58959660  0.84026607  1
  Ca2+  Ca6  1  0.67646307  0.08556119  0.16724264  1
  Ca2+  Ca7  1  0.68123859  0.08052375  0.50402361  1
  Ca2+  Ca8  1  0.67801464  0.07667753  0.84426992  1
  Ca2+  Ca9  1  0.66431311  0.57381640  0.16751808  1
  Ca2+  Ca10  1  0.66253583  0.57773498  0.50217901  1
  Ca2+  Ca11  1  0.66106465  0.57932784  0.84302782  1
  Ca2+  Ca12  1  0.06884656  0.32438985  0.15939777  1
  Ca2+  Ca13  1  0.07573436  0.32654477  0.49397835  1
  Ca2+  Ca14  1  0.07824146  0.32260004  0.83262763  1
  Ca2+  Ca15  1  0.07428817  0.83801283  0.16262506  1
  Ca2+  Ca16  1  0.07580355  0.82657960  0.49630287  1
  Ca2+  Ca17  1  0.07318893  0.83871691  0.83107297  1
  Ca2+  Ca18  1  0.58432763  0.33129141  0.16112986  1
  Ca2+  Ca19  1  0.57725422  0.33165601  0.49073621  1
  Ca2+  Ca20  1  0.58836784  0.32698368  0.83809003  1
  Ca2+  Ca21  1  0.57874611  0.83401308  0.15789269  1
  Ca2+  Ca22  1  0.57980473  0.82899998  0.49575686  1
  Ca2+  Ca23  1  0.59373161  0.82167016  0.83275866  1
  Ca2+  Ca24  1  0.33624692  0.42191456  0.17009123  1
  Ca2+  Ca25  1  0.33133005  0.41526415  0.50280417  1
  Ca2+  Ca26  1  0.32932303  0.42533354  0.84120960  1
  Ca2+  Ca27  1  0.32760338  0.91920805  0.17392625  1
  Ca2+  Ca28  1  0.33626523  0.92570990  0.50194426  1
  Ca2+  Ca29  1  0.32285155  0.91989078  0.83952504  1
  Ca2+  Ca30  1  0.82394963  0.40558134  0.17210363  1
  Ca2+  Ca31  1  0.82965320  0.41334217  0.49871373  1
  Ca2+  Ca32  1  0.82948444  0.42024417  0.84346301  1
  Ca2+  Ca33  1  0.83647757  0.92432214  0.16811187  1
  Ca2+  Ca34  1  0.84461431  0.92254224  0.50174360  1
  Ca2+  Ca35  1  0.83688194  0.92224675  0.84215644  1
  Ca2+  Ca36  1  0.42098776  0.16964973  0.16315382  1
  Ca2+  Ca37  1  0.41472031  0.16827024  0.49035451  1
  Ca2+  Ca38  1  0.42422994  0.16015716  0.83096142  1
  Ca2+  Ca39  1  0.42024827  0.67085315  0.16104027  1
  Ca2+  Ca40  1  0.42219032  0.67435151  0.49453545  1
  Ca2+  Ca41  1  0.42546690  0.66414274  0.83390725  1
  Ca2+  Ca42  1  0.91047332  0.17113336  0.15807194  1
  Ca2+  Ca43  1  0.91976495  0.16227642  0.49599549  1
  Ca2+  Ca44  1  0.92371334  0.15949826  0.83351815  1
  Ca2+  Ca45  1  0.91894699  0.67755266  0.16334118  1
  Ca2+  Ca46  1  0.92471582  0.67783113  0.49305951  1
  Ca2+  Ca47  1  0.91736250  0.68261767  0.82573676  1
  Al0+  Al48  1  0.00180483  0.00081988  0.00130348  1
  Al0+  Al49  1  0.00234777  -0.00262168  0.33602253  1
  Al0+  Al50  1  0.00248862  0.00263573  0.66116363  1
  Al0+  Al51  1  0.00094735  0.50017878  -0.00298976  1
  Al0+  Al52  1  -0.00045388  0.49831637  0.32610337  1
  Al0+  Al53  1  -0.00213129  0.49873554  0.66618141  1
  Al0+  Al54  1  0.49872697  0.00056542  -0.00303238  1
  Al0+  Al55  1  0.50115205  -0.00095734  0.33384020  1
  Al0+  Al56  1  0.50176849  0.00003787  0.67098984  1
  Al0+  Al57  1  0.49906756  0.50181911  0.00462039  1
  Al0+  Al58  1  0.49887050  0.49846371  0.33572467  1
  Al0+  Al59  1  0.49838175  0.49956568  0.66341514  1
  Al0+  Al60  1  0.24924823  0.25316688  -0.00271111  1
  Al0+  Al61  1  0.25077492  0.25203946  0.33150888  1
  Al0+  Al62  1  0.25004191  0.25155468  0.66984146  1
  Al0+  Al63  1  0.25111272  0.75191577  0.00945870  1
  Al0+  Al64  1  0.25281849  0.74972675  0.32986518  1
  Al0+  Al65  1  0.25106689  0.75056436  0.66483302  1
  Al0+  Al66  1  0.74719018  0.25130080  -0.00208390  1
  Al0+  Al67  1  0.74935183  0.24850907  0.34211036  1
  Al0+  Al68  1  0.74818784  0.24903327  0.67165810  1
  Al0+  Al69  1  0.74924630  0.74910302  -0.00380709  1
  Al0+  Al70  1  0.75125737  0.74789577  0.33050668  1
  Al0+  Al71  1  0.74907364  0.74805485  0.65481441  1
  Al0+  Al72  1  0.56894718  0.68009899  0.98824943  1
  Al0+  Al73  1  0.92732138  0.31705972  0.32134138  1
  Al0+  Al74  1  0.32259114  0.07318167  0.68185054  1
  Al0+  Al75  1  0.92981902  0.82002595  0.98649984  1
  Al0+  Al76  1  0.67747309  0.92567868  0.01362962  1
  Al0+  Al77  1  0.56960583  0.67703065  0.65123139  1
  Al0+  Al78  1  0.67891323  0.42971891  0.34901035  1
  Al0+  Al79  1  0.82026379  0.06964819  0.01446167  1
  Al0+  Al80  1  0.07183187  0.18159268  0.65140602  1
  Al0+  Al81  1  0.31937763  0.57025064  0.01511307  1
  Al0+  Al82  1  0.68078565  0.43049366  0.01335287  1
  Al0+  Al83  1  0.07245082  0.67716295  0.65417608  1
  Al0+  Al84  1  0.43200657  0.82247201  0.31939945  1
  Al0+  Al85  1  0.32063474  0.07148388  0.34505623  1
  Al0+  Al86  1  0.42803307  0.32114735  0.31952153  1
  Al0+  Al87  1  0.07115147  0.17896876  0.98547467  1
  Al0+  Al88  1  0.56933464  0.17803383  0.98644558  1
  Al0+  Al89  1  0.92560520  0.32231076  0.98393599  1
  Al0+  Al90  1  0.17976564  0.93149379  0.01431646  1
  Al0+  Al91  1  0.92894338  0.82287615  0.31489479  1
  Al0+  Al92  1  0.82148047  0.06901421  0.34793059  1
  Al0+  Al93  1  0.82246502  0.06935175  0.68202710  1
  Al0+  Al94  1  0.92895185  0.82313801  0.65045312  1
  Al0+  Al95  1  0.07164320  0.67795120  0.31640674  1
  Si0+  Si96  1  0.43016569  0.31973105  0.65273906  1
  Si0+  Si97  1  0.17720479  0.42934697  0.68165298  1
  Si0+  Si98  1  0.42563601  0.82298664  0.98272156  1
  Si0+  Si99  1  0.67772355  0.92488425  0.34983284  1
  Si0+  Si100  1  0.18042318  0.92852538  0.68173961  1
  Si0+  Si101  1  0.57195285  0.17855443  0.31909986  1
  Si0+  Si102  1  0.32303333  0.07527870  0.01611347  1
  Si0+  Si103  1  0.57166544  0.17793441  0.65125263  1
  Si0+  Si104  1  0.42858138  0.32372890  0.98281042  1
  Si0+  Si105  1  0.67840465  0.92551062  0.68195196  1
  Si0+  Si106  1  0.17999701  0.92639091  0.35291316  1
  Si0+  Si107  1  0.82339695  0.57201148  0.35034829  1
  Si0+  Si108  1  0.07359246  0.17802112  0.31816518  1
  Si0+  Si109  1  0.57133729  0.67644577  0.31603343  1
  Si0+  Si110  1  0.32073621  0.57090770  0.68022312  1
  Si0+  Si111  1  0.82431590  0.57316657  0.01531649  1
  Si0+  Si112  1  0.42805516  0.82332113  0.65132368  1
  Si0+  Si113  1  0.17801197  0.43018363  0.34824419  1
  Si0+  Si114  1  0.32057137  0.57123483  0.35132540  1
  Si0+  Si115  1  0.07472039  0.67910118  0.98494371  1
  Si0+  Si116  1  0.81998250  0.57072960  0.67967789  1
  Si0+  Si117  1  0.67629619  0.43042106  0.68291902  1
  Si0+  Si118  1  0.17639508  0.42716417  0.01840451  1
  Si0+  Si119  1  0.92509692  0.32181106  0.64989049  1
  O2-  O120  1  0.25425662  0.00744822  0.06018426  1
  O2-  O121  1  0.24654945  -0.00171422  0.39589857  1
  O2-  O122  1  0.24850189  -0.00227645  0.72685510  1
  O2-  O123  1  0.24258653  0.49811723  0.06272430  1
  O2-  O124  1  0.24689693  0.50268184  0.39338580  1
  O2-  O125  1  0.24399290  0.50588119  0.72229724  1
  O2-  O126  1  0.74832914  -0.00251511  0.06512223  1
  O2-  O127  1  0.75024326  -0.01034464  0.39419193  1
  O2-  O128  1  0.75041707  -0.00948497  0.72564283  1
  O2-  O129  1  0.76031638  0.50008935  0.05985732  1
  O2-  O130  1  0.75303571  0.50496096  0.39618827  1
  O2-  O131  1  0.74821449  0.50095681  0.72372000  1
  O2-  O132  1  -0.00149304  0.23939280  0.27471766  1
  O2-  O133  1  -0.00678171  0.25274622  0.60547804  1
  O2-  O134  1  -0.00241269  0.24976962  0.93499468  1
  O2-  O135  1  0.00159247  0.75084710  0.26606962  1
  O2-  O136  1  0.00095180  0.74862317  0.60401073  1
  O2-  O137  1  0.00366703  0.74370343  0.93963602  1
  O2-  O138  1  0.50175867  0.24574470  0.27468339  1
  O2-  O139  1  0.49829785  0.24672645  0.60909221  1
  O2-  O140  1  0.49222859  0.25090754  0.93798080  1
  O2-  O141  1  0.50805522  0.74967266  0.27221811  1
  O2-  O142  1  0.49726530  0.75488559  0.60701942  1
  O2-  O143  1  0.49835076  0.75813013  0.93898096  1
  O2-  O144  1  0.07330914  0.18108329  0.09908863  1
  O2-  O145  1  0.07656003  0.18324515  0.42407280  1
  O2-  O146  1  0.07392541  0.18358860  0.76387938  1
  O2-  O147  1  0.07427593  0.68032917  0.09019784  1
  O2-  O148  1  0.06996773  0.67842843  0.43036102  1
  O2-  O149  1  0.07264979  0.67740987  0.76757648  1
  O2-  O150  1  0.56846333  0.18044427  0.09961803  1
  O2-  O151  1  0.57032797  0.18055071  0.42546637  1
  O2-  O152  1  0.57170256  0.18015621  0.75614418  1
  O2-  O153  1  0.56505146  0.67736966  0.10090880  1
  O2-  O154  1  0.56719623  0.67577313  0.42218039  1
  O2-  O155  1  0.56695480  0.67321350  0.76403653  1
  O2-  O156  1  0.18089785  0.43028049  0.24359887  1
  O2-  O157  1  0.17996527  0.42725944  0.57636160  1
  O2-  O158  1  0.17913935  0.42733714  0.91226754  1
  O2-  O159  1  0.18065517  0.92733101  0.24729238  1
  O2-  O160  1  0.18433911  0.92725083  0.57631185  1
  O2-  O161  1  0.18147339  0.92958684  0.90079240  1
  O2-  O162  1  0.67827132  0.43006826  0.23637562  1
  O2-  O163  1  0.67459417  0.43020311  0.57780212  1
  O2-  O164  1  0.67817491  0.43385096  0.89955391  1
  O2-  O165  1  0.67431270  0.92702682  0.24482948  1
  O2-  O166  1  0.67323921  0.92949642  0.57635467  1
  O2-  O167  1  0.68076690  0.92567813  0.89961181  1
  O2-  O168  1  0.42980008  0.32387014  0.08836251  1
  O2-  O169  1  0.42822846  0.32084922  0.43347470  1
  O2-  O170  1  0.43221786  0.32335867  0.75750728  1
  O2-  O171  1  0.42528738  0.82100898  0.08834502  1
  O2-  O172  1  0.43295738  0.82054964  0.43321622  1
  O2-  O173  1  0.42512420  0.82130250  0.75657025  1
  O2-  O174  1  0.92615067  0.31984461  0.09774005  1
  O2-  O175  1  0.93031263  0.31772377  0.43492596  1
  O2-  O176  1  0.92645497  0.32494793  0.75492996  1
  O2-  O177  1  0.93077951  0.81957506  0.09904963  1
  O2-  O178  1  0.93146191  0.82178564  0.42849699  1
  O2-  O179  1  0.92891889  0.82200085  0.76422169  1
  O2-  O180  1  0.31918645  0.07112735  0.23233943  1
  O2-  O181  1  0.32230543  0.07393606  0.56848621  1
  O2-  O182  1  0.32255454  0.07322907  0.91020937  1
  O2-  O183  1  0.32237088  0.56917378  0.24651738  1
  O2-  O184  1  0.32363590  0.56767229  0.57522873  1
  O2-  O185  1  0.31926620  0.56868072  0.90093289  1
  O2-  O186  1  0.81824661  0.07279464  0.23556534  1
  O2-  O187  1  0.81936663  0.07111558  0.56869539  1
  O2-  O188  1  0.82071894  0.06742941  0.90067784  1
  O2-  O189  1  0.82201853  0.57221348  0.24500063  1
  O2-  O190  1  0.81986893  0.56716694  0.57473544  1
  O2-  O191  1  0.82151593  0.57335841  0.90912504  1
  O2-  O192  1  0.05629787  0.08089865  0.27843801  1
  O2-  O193  1  0.04697722  0.08508990  0.59544596  1
  O2-  O194  1  0.04462036  0.08093843  0.93159424  1
  O2-  O195  1  0.04494866  0.57968664  0.26257791  1
  O2-  O196  1  0.04458736  0.57785909  0.60154377  1
  O2-  O197  1  0.05664562  0.58306845  0.94050470  1
  O2-  O198  1  0.54872863  0.08477242  0.27392897  1
  O2-  O199  1  0.54679650  0.08476931  0.60547542  1
  O2-  O200  1  0.54000188  0.08219655  0.92874697  1
  O2-  O201  1  0.53880838  0.58470648  0.27137779  1
  O2-  O202  1  0.53370019  0.58243385  0.59523066  1
  O2-  O203  1  0.53199757  0.58509878  0.93329263  1
  O2-  O204  1  0.16356282  0.21058352  0.26983166  1
  O2-  O205  1  0.16810365  0.21766517  0.59845997  1
  O2-  O206  1  0.16936648  0.20996473  0.93111872  1
  O2-  O207  1  0.17233588  0.70262837  0.26734933  1
  O2-  O208  1  0.17209233  0.70266033  0.60080815  1
  O2-  O209  1  0.16874006  0.70780954  0.94115153  1
  O2-  O210  1  0.66428794  0.20824637  0.27485487  1
  O2-  O211  1  0.66229393  0.20963793  0.60365516  1
  O2-  O212  1  0.66281047  0.21288448  0.92935991  1
  O2-  O213  1  0.66767576  0.69315671  0.27373591  1
  O2-  O214  1  0.66497036  0.70268887  0.59290780  1
  O2-  O215  1  0.66556503  0.70503171  0.93089519  1
  O2-  O216  1  0.08131729  0.44961254  0.06264612  1
  O2-  O217  1  0.08518639  0.45577781  0.39536835  1
  O2-  O218  1  0.08360200  0.45103321  0.72826560  1
  O2-  O219  1  0.08536715  0.96336981  0.07098322  1
  O2-  O220  1  0.08605628  0.94842750  0.39912734  1
  O2-  O221  1  0.08692501  0.95579945  0.72584175  1
  O2-  O222  1  0.58575719  0.46484136  0.06806768  1
  O2-  O223  1  0.58199727  0.46122063  0.40438201  1
  O2-  O224  1  0.58445059  0.46022660  0.72934895  1
  O2-  O225  1  0.57663197  0.95258903  0.06254364  1
  O2-  O226  1  0.58611454  0.95436086  0.39912572  1
  O2-  O227  1  0.58638575  0.95219881  0.73096417  1
  O2-  O228  1  0.20517216  0.33498337  0.06546361  1
  O2-  O229  1  0.20913702  0.33971227  0.39721982  1
  O2-  O230  1  0.21220622  0.34189315  0.73261898  1
  O2-  O231  1  0.21137916  0.83721911  0.07204647  1
  O2-  O232  1  0.21073037  0.83355440  0.39789000  1
  O2-  O233  1  0.20663074  0.83500076  0.72914933  1
  O2-  O234  1  0.70567308  0.33297037  0.06736977  1
  O2-  O235  1  0.70899592  0.33455102  0.40686804  1
  O2-  O236  1  0.70223448  0.33804387  0.72989683  1
  O2-  O237  1  0.70189653  0.82585477  0.06512411  1
  O2-  O238  1  0.69825023  0.82860959  0.39388296  1
  O2-  O239  1  0.70016387  0.82816369  0.72189618  1
  O2-  O240  1  0.45922901  0.41780882  0.26678359  1
  O2-  O241  1  0.45954339  0.40998909  0.60237262  1
  O2-  O242  1  0.45929275  0.41556564  0.93628322  1
  O2-  O243  1  0.45965981  0.91917763  0.26452039  1
  O2-  O244  1  0.45545033  0.91709349  0.60579756  1
  O2-  O245  1  0.44392349  0.91800209  0.93728460  1
  O2-  O246  1  0.95778357  0.41225449  0.26584952  1
  O2-  O247  1  0.95141865  0.41489996  0.60264961  1
  O2-  O248  1  0.95526097  0.42140164  0.93057909  1
  O2-  O249  1  0.95960808  0.92163380  0.26390198  1
  O2-  O250  1  0.96098368  0.91946331  0.59650516  1
  O2-  O251  1  0.96427252  0.91559074  0.93360610  1
  O2-  O252  1  0.33198298  0.29324994  0.26373755  1
  O2-  O253  1  0.33723526  0.29515482  0.60636545  1
  O2-  O254  1  0.33318809  0.30484618  0.93735567  1
  O2-  O255  1  0.33667928  0.79014956  0.26526368  1
  O2-  O256  1  0.33595859  0.79690276  0.60267048  1
  O2-  O257  1  0.33373811  0.79055401  0.93695342  1
  O2-  O258  1  0.82897259  0.28776305  0.27110260  1
  O2-  O259  1  0.82983998  0.29704121  0.60644979  1
  O2-  O260  1  0.82668304  0.29849645  0.93123055  1
  O2-  O261  1  0.82928321  0.79480252  0.26461073  1
  O2-  O262  1  0.83162091  0.79523816  0.59496922  1
  O2-  O263  1  0.83405676  0.78921734  0.93104032  1
  O2-  O264  1  0.41669971  0.05028693  0.06133968  1
  O2-  O265  1  0.41800057  0.04141864  0.39977475  1
  O2-  O266  1  0.41951655  0.04273002  0.73569131  1
  O2-  O267  1  0.41312393  0.53579437  0.07151777  1
  O2-  O268  1  0.41068404  0.53977481  0.40037381  1
  O2-  O269  1  0.40991843  0.53554760  0.72895132  1
  O2-  O270  1  0.91894702  0.04387126  0.06673380  1
  O2-  O271  1  0.92017810  0.04144728  0.40123376  1
  O2-  O272  1  0.92223859  0.04337129  0.73143716  1
  O2-  O273  1  0.92057402  0.55409038  0.05856741  1
  O2-  O274  1  0.91670798  0.54241783  0.39513344  1
  O2-  O275  1  0.91122646  0.54326513  0.72902052  1
  O2-  O276  1  0.30012393  0.17103359  0.05902793  1
  O2-  O277  1  0.29059035  0.16938858  0.39915061  1
  O2-  O278  1  0.29291080  0.17002527  0.73599686  1
  O2-  O279  1  0.29244712  0.66621055  0.07157796  1
  O2-  O280  1  0.29601542  0.66424510  0.39828135  1
  O2-  O281  1  0.29977582  0.66469379  0.72700771  1
  O2-  O282  1  0.78793942  0.16828951  0.06427742  1
  O2-  O283  1  0.78679815  0.16235413  0.40675556  1
  O2-  O284  1  0.78798720  0.16540458  0.73549117  1
  O2-  O285  1  0.79293691  0.66402800  0.06240417  1
  O2-  O286  1  0.79892204  0.66603503  0.39726377  1
  O2-  O287  1  0.79255208  0.66425494  0.72358239  1
