# generated using pymatgen
data_Ca2Al2SiO7
_symmetry_space_group_name_H-M   'P 1'
_cell_length_a   15.45589039
_cell_length_b   15.45541864
_cell_length_c   15.28161563
_cell_angle_alpha   89.98848401
_cell_angle_beta   89.99486389
_cell_angle_gamma   89.99504496
_symmetry_Int_Tables_number   1
_chemical_formula_structural   Ca2Al2SiO7
_chemical_formula_sum   'Ca48 Al48 Si24 O168'
_cell_volume   3650.43031519
_cell_formula_units_Z   24
loop_
 _symmetry_equiv_pos_site_id
 _symmetry_equiv_pos_as_xyz
  1  'x, y, z'
loop_
 _atom_type_symbol
 _atom_type_oxidation_number
  Ca2+  2.0
  Al0+  0.0
  Si0+  0.0
  O2-  -2.0
loop_
 _atom_site_type_symbol
 _atom_site_label
 _atom_site_symmetry_multiplicity
 _atom_site_fract_x
 _atom_site_fract_y
 _atom_site_fract_z
 _atom_site_occupancy
  Ca2+  Ca0  1  0.17716677  0.08538701  0.17415771  1
  Ca2+  Ca1  1  0.17293161  0.07938584  0.49737811  1
  Ca2+  Ca2  1  0.17222029  0.08588502  0.84386441  1
  Ca2+  Ca3  1  0.16610484  0.57812767  0.16989177  1
  Ca2+  Ca4  1  0.17557369  0.58665879  0.49884243  1
  Ca2+  Ca5  1  0.16077869  0.57664218  0.84313749  1
  Ca2+  Ca6  1  0.67033013  0.09147841  0.16826104  1
  Ca2+  Ca7  1  0.66643753  0.08443988  0.50546658  1
  Ca2+  Ca8  1  0.67391308  0.08983063  0.83743786  1
  Ca2+  Ca9  1  0.67594151  0.57791904  0.17864179  1
  Ca2+  Ca10  1  0.66923486  0.58425658  0.50281884  1
  Ca2+  Ca11  1  0.67901450  0.58664851  0.83671203  1
  Ca2+  Ca12  1  0.07918115  0.33164984  0.15475858  1
  Ca2+  Ca13  1  0.07539413  0.33392075  0.49987331  1
  Ca2+  Ca14  1  0.07461145  0.33193450  0.83667380  1
  Ca2+  Ca15  1  0.08307581  0.82934824  0.16683308  1
  Ca2+  Ca16  1  0.07195516  0.83916828  0.49307122  1
  Ca2+  Ca17  1  0.07765103  0.82643817  0.83047193  1
  Ca2+  Ca18  1  0.58147291  0.32824458  0.16856764  1
  Ca2+  Ca19  1  0.58517619  0.32365597  0.48955781  1
  Ca2+  Ca20  1  0.58925180  0.32060903  0.83097710  1
  Ca2+  Ca21  1  0.57892658  0.82939451  0.17057691  1
  Ca2+  Ca22  1  0.58271751  0.81974571  0.49129038  1
  Ca2+  Ca23  1  0.58466294  0.82734835  0.82876788  1
  Ca2+  Ca24  1  0.32753173  0.41527668  0.17497071  1
  Ca2+  Ca25  1  0.34185901  0.41911045  0.49546021  1
  Ca2+  Ca26  1  0.32406671  0.41696022  0.84021168  1
  Ca2+  Ca27  1  0.32892026  0.92498573  0.17758292  1
  Ca2+  Ca28  1  0.33329796  0.91398334  0.49619201  1
  Ca2+  Ca29  1  0.33142113  0.92334291  0.84169913  1
  Ca2+  Ca30  1  0.83330343  0.42602806  0.17206137  1
  Ca2+  Ca31  1  0.82838896  0.42720282  0.50369274  1
  Ca2+  Ca32  1  0.84257791  0.42440691  0.83884314  1
  Ca2+  Ca33  1  0.83653221  0.92255931  0.17045655  1
  Ca2+  Ca34  1  0.83629876  0.92002211  0.50697684  1
  Ca2+  Ca35  1  0.83687687  0.92778092  0.83402071  1
  Ca2+  Ca36  1  0.42372794  0.16113631  0.16347484  1
  Ca2+  Ca37  1  0.42784271  0.16964032  0.48815664  1
  Ca2+  Ca38  1  0.42667395  0.16219764  0.83195156  1
  Ca2+  Ca39  1  0.41569014  0.66584654  0.16917848  1
  Ca2+  Ca40  1  0.42744976  0.66652523  0.48720642  1
  Ca2+  Ca41  1  0.42487195  0.66834073  0.82591679  1
  Ca2+  Ca42  1  0.92364445  0.17366419  0.15400444  1
  Ca2+  Ca43  1  0.90905858  0.17364734  0.49865121  1
  Ca2+  Ca44  1  0.90860112  0.17773725  0.83039183  1
  Ca2+  Ca45  1  0.91532794  0.66875942  0.16202407  1
  Ca2+  Ca46  1  0.90779674  0.67640761  0.49481623  1
  Ca2+  Ca47  1  0.91665387  0.66706364  0.82894186  1
  Al0+  Al48  1  0.00011092  -0.00122757  0.00081256  1
  Al0+  Al49  1  0.00070732  0.00047031  0.33240884  1
  Al0+  Al50  1  0.00177700  -0.00016508  0.66918414  1
  Al0+  Al51  1  0.00105761  0.50159849  0.00235686  1
  Al0+  Al52  1  -0.00080894  0.50146662  0.33970480  1
  Al0+  Al53  1  0.00113574  0.49923997  0.66429053  1
  Al0+  Al54  1  0.49955736  -0.00098463  -0.00120966  1
  Al0+  Al55  1  0.50248644  -0.00125106  0.33058046  1
  Al0+  Al56  1  0.49895429  -0.00073425  0.66398115  1
  Al0+  Al57  1  0.50070950  0.50071203  -0.00305716  1
  Al0+  Al58  1  0.50024334  0.49589359  0.33189081  1
  Al0+  Al59  1  0.49999723  0.49868824  0.66717383  1
  Al0+  Al60  1  0.24995744  0.25099972  0.00450257  1
  Al0+  Al61  1  0.24994359  0.24874654  0.33873263  1
  Al0+  Al62  1  0.24929562  0.25012874  0.66762612  1
  Al0+  Al63  1  0.24979726  0.75050940  -0.00619586  1
  Al0+  Al64  1  0.24757955  0.74916407  0.33875477  1
  Al0+  Al65  1  0.24952350  0.75009520  0.66974395  1
  Al0+  Al66  1  0.74853929  0.25082925  -0.00309921  1
  Al0+  Al67  1  0.75114531  0.25249870  0.33198881  1
  Al0+  Al68  1  0.75013648  0.25060902  0.66087160  1
  Al0+  Al69  1  0.74914010  0.75113455  0.00389633  1
  Al0+  Al70  1  0.75132873  0.75319598  0.32611050  1
  Al0+  Al71  1  0.74973152  0.74998920  0.66455964  1
  Al0+  Al72  1  0.92994909  0.32128207  0.65092540  1
  Al0+  Al73  1  0.82053403  0.07188091  0.01327054  1
  Al0+  Al74  1  0.57013929  0.17933246  0.65234288  1
  Al0+  Al75  1  0.67950535  0.42819918  0.34856266  1
  Al0+  Al76  1  0.57046724  0.67899420  0.65398444  1
  Al0+  Al77  1  0.18037843  0.43099782  0.01343934  1
  Al0+  Al78  1  0.07309806  0.17704554  0.98663763  1
  Al0+  Al79  1  0.81995253  0.57155363  0.68115429  1
  Al0+  Al80  1  0.82066603  0.57094244  0.01416217  1
  Al0+  Al81  1  0.32014570  0.56930869  0.34545782  1
  Al0+  Al82  1  0.92892964  0.32113056  0.98637970  1
  Al0+  Al83  1  0.42710947  0.31963214  0.31769317  1
  Al0+  Al84  1  0.42662997  0.81928880  0.31859586  1
  Al0+  Al85  1  0.56898614  0.17901036  0.98470567  1
  Al0+  Al86  1  0.17800360  0.92889021  0.34889105  1
  Al0+  Al87  1  0.57332535  0.17776726  0.31635942  1
  Al0+  Al88  1  0.57172516  0.67655528  0.31629406  1
  Al0+  Al89  1  0.82100061  0.57396314  0.34977899  1
  Al0+  Al90  1  0.32072899  0.06993579  0.01350969  1
  Al0+  Al91  1  0.82033477  0.07184415  0.67932546  1
  Al0+  Al92  1  0.06995262  0.68086353  0.98762488  1
  Al0+  Al93  1  0.93154746  0.82066297  0.65449812  1
  Al0+  Al94  1  0.32411081  0.07070479  0.35047220  1
  Al0+  Al95  1  0.92944468  0.82287608  0.31791967  1
  Si0+  Si96  1  0.67665780  0.92810809  0.68201898  1
  Si0+  Si97  1  0.07106352  0.67675381  0.31822083  1
  Si0+  Si98  1  0.17615211  0.42610624  0.35289416  1
  Si0+  Si99  1  0.17888693  0.42908851  0.68265459  1
  Si0+  Si100  1  0.32102761  0.07043068  0.68227220  1
  Si0+  Si101  1  0.42487846  0.32094376  0.65096232  1
  Si0+  Si102  1  0.06966913  0.17983135  0.32041098  1
  Si0+  Si103  1  0.67754124  0.42758179  0.68446183  1
  Si0+  Si104  1  0.32189980  0.57109032  0.68245450  1
  Si0+  Si105  1  0.07351823  0.67684165  0.64858979  1
  Si0+  Si106  1  0.67995088  0.92932308  0.34775002  1
  Si0+  Si107  1  0.92495702  0.82247361  0.98202860  1
  Si0+  Si108  1  0.42700005  0.32419786  0.98272073  1
  Si0+  Si109  1  0.17866915  0.92852033  0.68480563  1
  Si0+  Si110  1  0.07443901  0.17749001  0.64934132  1
  Si0+  Si111  1  0.42580690  0.82121409  0.65038552  1
  Si0+  Si112  1  0.67748547  0.92785824  0.01791237  1
  Si0+  Si113  1  0.17806157  0.92533553  0.01580464  1
  Si0+  Si114  1  0.42941560  0.81997797  0.98406863  1
  Si0+  Si115  1  0.93072650  0.32282194  0.31877246  1
  Si0+  Si116  1  0.32412211  0.57376399  0.01415103  1
  Si0+  Si117  1  0.67577348  0.42783529  0.01567911  1
  Si0+  Si118  1  0.82140023  0.07137194  0.34685530  1
  Si0+  Si119  1  0.57215183  0.67834420  0.98462624  1
  O2-  O120  1  0.24128863  -0.00064273  0.05857456  1
  O2-  O121  1  0.25382443  -0.00357802  0.40050212  1
  O2-  O122  1  0.25057507  -0.00071273  0.72589804  1
  O2-  O123  1  0.25757553  0.50385909  0.05830818  1
  O2-  O124  1  0.24709096  0.49373782  0.39540254  1
  O2-  O125  1  0.24970792  0.50134346  0.72431903  1
  O2-  O126  1  0.74627865  -0.00283773  0.06109202  1
  O2-  O127  1  0.74926453  0.00213847  0.38961971  1
  O2-  O128  1  0.74354260  -0.00139835  0.72625071  1
  O2-  O129  1  0.74487183  0.49662997  0.05863164  1
  O2-  O130  1  0.74657913  0.50444688  0.39957896  1
  O2-  O131  1  0.74609578  0.49626207  0.72944479  1
  O2-  O132  1  0.00364610  0.25433297  0.27713395  1
  O2-  O133  1  0.00247320  0.24301937  0.60518009  1
  O2-  O134  1  -0.00306710  0.24446643  0.93590566  1
  O2-  O135  1  0.00138601  0.74434793  0.27405394  1
  O2-  O136  1  0.00423127  0.74490511  0.60550160  1
  O2-  O137  1  -0.00561803  0.75374372  0.93902935  1
  O2-  O138  1  0.49684053  0.24581601  0.26745529  1
  O2-  O139  1  0.49475802  0.25366658  0.60785932  1
  O2-  O140  1  0.49499137  0.25504674  0.93773399  1
  O2-  O141  1  0.49582572  0.74547447  0.26658221  1
  O2-  O142  1  0.49349550  0.75148140  0.60794696  1
  O2-  O143  1  0.49933493  0.74766330  0.94193645  1
  O2-  O144  1  0.07283958  0.18052808  0.10054733  1
  O2-  O145  1  0.06638295  0.17965041  0.42594954  1
  O2-  O146  1  0.07943221  0.17999218  0.75444074  1
  O2-  O147  1  0.07221885  0.68293730  0.10032598  1
  O2-  O148  1  0.07117661  0.67650282  0.42397480  1
  O2-  O149  1  0.07514431  0.67778857  0.75447992  1
  O2-  O150  1  0.56859860  0.17831138  0.09684645  1
  O2-  O151  1  0.57468739  0.17900329  0.43024117  1
  O2-  O152  1  0.56842876  0.17883220  0.76578478  1
  O2-  O153  1  0.57158713  0.67785545  0.08892472  1
  O2-  O154  1  0.57178298  0.67986603  0.43026381  1
  O2-  O155  1  0.56879804  0.68173236  0.76795133  1
  O2-  O156  1  0.17317888  0.42676954  0.24754392  1
  O2-  O157  1  0.17947757  0.42838972  0.57776979  1
  O2-  O158  1  0.18087577  0.43296203  0.89961566  1
  O2-  O159  1  0.17656872  0.93272061  0.23528508  1
  O2-  O160  1  0.17837043  0.92737023  0.58030992  1
  O2-  O161  1  0.18271864  0.92251527  0.90961337  1
  O2-  O162  1  0.68534289  0.42626865  0.23472823  1
  O2-  O163  1  0.67722494  0.42889192  0.57931736  1
  O2-  O164  1  0.67340288  0.43026598  0.90972384  1
  O2-  O165  1  0.68110916  0.92845627  0.24261242  1
  O2-  O166  1  0.67652529  0.92801314  0.57654325  1
  O2-  O167  1  0.67739446  0.92512308  0.91196424  1
  O2-  O168  1  0.42805272  0.32680687  0.08748367  1
  O2-  O169  1  0.42848502  0.31734081  0.43190589  1
  O2-  O170  1  0.42115321  0.31950028  0.75679034  1
  O2-  O171  1  0.42785144  0.81955250  0.08846642  1
  O2-  O172  1  0.43068450  0.81707559  0.43261400  1
  O2-  O173  1  0.42516904  0.82085207  0.75666597  1
  O2-  O174  1  0.93171108  0.32139078  0.10029675  1
  O2-  O175  1  0.93110969  0.32102599  0.42416014  1
  O2-  O176  1  0.93248265  0.32302025  0.76371216  1
  O2-  O177  1  0.92480086  0.82215119  0.08745310  1
  O2-  O178  1  0.93037554  0.82557282  0.43128890  1
  O2-  O179  1  0.93443425  0.82095417  0.76762270  1
  O2-  O180  1  0.32055003  0.07097555  0.23687857  1
  O2-  O181  1  0.32065227  0.07007553  0.57792079  1
  O2-  O182  1  0.32201343  0.06593058  0.89931990  1
  O2-  O183  1  0.31511538  0.56938923  0.23227636  1
  O2-  O184  1  0.32213882  0.57165617  0.57780385  1
  O2-  O185  1  0.32428169  0.57293049  0.90784423  1
  O2-  O186  1  0.82242132  0.07064750  0.24174212  1
  O2-  O187  1  0.81974197  0.06984825  0.56586824  1
  O2-  O188  1  0.81805070  0.07100020  0.89994038  1
  O2-  O189  1  0.82395482  0.56999644  0.23604290  1
  O2-  O190  1  0.81784796  0.57281810  0.56876400  1
  O2-  O191  1  0.81933855  0.57259496  0.90049386  1
  O2-  O192  1  0.03902754  0.09045608  0.27123232  1
  O2-  O193  1  0.05250183  0.08229630  0.60604323  1
  O2-  O194  1  0.05255985  0.07542997  0.93638743  1
  O2-  O195  1  0.04644702  0.58214591  0.27316144  1
  O2-  O196  1  0.05232194  0.58273407  0.60317004  1
  O2-  O197  1  0.03958864  0.58491017  0.93266937  1
  O2-  O198  1  0.55099530  0.07776801  0.26502721  1
  O2-  O199  1  0.54060123  0.08158766  0.59970162  1
  O2-  O200  1  0.53763733  0.08190993  0.93045964  1
  O2-  O201  1  0.54685676  0.57703956  0.26585414  1
  O2-  O202  1  0.54063736  0.58127221  0.60234273  1
  O2-  O203  1  0.54678710  0.58679256  0.93472005  1
  O2-  O204  1  0.16362411  0.20331454  0.27658731  1
  O2-  O205  1  0.16614649  0.20794812  0.60086970  1
  O2-  O206  1  0.17063001  0.20984655  0.93332589  1
  O2-  O207  1  0.16402486  0.70294172  0.27215481  1
  O2-  O208  1  0.16794011  0.70452051  0.60460102  1
  O2-  O209  1  0.16593079  0.71041935  0.92881286  1
  O2-  O210  1  0.67095006  0.21155267  0.26369251  1
  O2-  O211  1  0.66576604  0.20897055  0.59711840  1
  O2-  O212  1  0.66486413  0.21073774  0.92937788  1
  O2-  O213  1  0.66720435  0.71174202  0.26190387  1
  O2-  O214  1  0.66498710  0.71187057  0.59878998  1
  O2-  O215  1  0.66280749  0.71089719  0.93708921  1
  O2-  O216  1  0.08647747  0.46498639  0.06983704  1
  O2-  O217  1  0.08459634  0.45524548  0.40186004  1
  O2-  O218  1  0.08782761  0.45765387  0.73054985  1
  O2-  O219  1  0.08173873  0.94165753  0.05858611  1
  O2-  O220  1  0.08190840  0.96540793  0.40366570  1
  O2-  O221  1  0.08833479  0.95646143  0.73458528  1
  O2-  O222  1  0.58197337  0.45431295  0.06131482  1
  O2-  O223  1  0.57875565  0.44789745  0.39944152  1
  O2-  O224  1  0.58277372  0.45040691  0.73091916  1
  O2-  O225  1  0.58352220  0.95289444  0.06246543  1
  O2-  O226  1  0.58817181  0.95341476  0.39661063  1
  O2-  O227  1  0.58155114  0.95070939  0.72818164  1
  O2-  O228  1  0.20851889  0.33514880  0.06944013  1
  O2-  O229  1  0.19940786  0.33291412  0.40086447  1
  O2-  O230  1  0.20773087  0.33750360  0.73076235  1
  O2-  O231  1  0.21044047  0.83375423  0.06206142  1
  O2-  O232  1  0.19969902  0.82979479  0.40366860  1
  O2-  O233  1  0.20648572  0.83620835  0.73326504  1
  O2-  O234  1  0.69970934  0.33388640  0.06020878  1
  O2-  O235  1  0.71437545  0.33184223  0.40344002  1
  O2-  O236  1  0.70491060  0.33364237  0.72847691  1
  O2-  O237  1  0.70314186  0.83541494  0.06630462  1
  O2-  O238  1  0.71055323  0.83856746  0.39535717  1
  O2-  O239  1  0.70452526  0.83581673  0.72974245  1
  O2-  O240  1  0.45345683  0.41732606  0.26326088  1
  O2-  O241  1  0.44891678  0.41587905  0.60739291  1
  O2-  O242  1  0.45147285  0.41804408  0.93409185  1
  O2-  O243  1  0.45848791  0.91625304  0.26534604  1
  O2-  O244  1  0.44999641  0.91474708  0.60478181  1
  O2-  O245  1  0.45965769  0.90993532  0.93394406  1
  O2-  O246  1  0.95778259  0.41594059  0.27409177  1
  O2-  O247  1  0.96507300  0.41599459  0.59544583  1
  O2-  O248  1  0.96399845  0.41780566  0.93385627  1
  O2-  O249  1  0.96413475  0.91818344  0.26295464  1
  O2-  O250  1  0.96437595  0.91716630  0.60068352  1
  O2-  O251  1  0.95116434  0.91596741  0.93613593  1
  O2-  O252  1  0.32537274  0.29521529  0.26907677  1
  O2-  O253  1  0.33181566  0.29565140  0.60365801  1
  O2-  O254  1  0.33310199  0.29848071  0.93765634  1
  O2-  O255  1  0.32602977  0.79380702  0.26896411  1
  O2-  O256  1  0.33130975  0.79650508  0.60605753  1
  O2-  O257  1  0.33864382  0.79374018  0.93279079  1
  O2-  O258  1  0.84058393  0.29339272  0.27082935  1
  O2-  O259  1  0.83430895  0.29137083  0.59535839  1
  O2-  O260  1  0.82986909  0.29731953  0.93237460  1
  O2-  O261  1  0.83384612  0.79710296  0.26071275  1
  O2-  O262  1  0.83388563  0.79344499  0.60135976  1
  O2-  O263  1  0.83101333  0.79652143  0.93668823  1
  O2-  O264  1  0.41574884  0.03380729  0.06638714  1
  O2-  O265  1  0.42394302  0.04307181  0.40072580  1
  O2-  O266  1  0.41293198  0.04144505  0.72998531  1
  O2-  O267  1  0.41907805  0.55166883  0.05851610  1
  O2-  O268  1  0.41655033  0.53857635  0.39996770  1
  O2-  O269  1  0.41296348  0.54266730  0.73193585  1
  O2-  O270  1  0.91803143  0.04206979  0.06707070  1
  O2-  O271  1  0.91210792  0.04218273  0.39506591  1
  O2-  O272  1  0.91741468  0.04100522  0.73310080  1
  O2-  O273  1  0.91666912  0.54107935  0.06831838  1
  O2-  O274  1  0.91848988  0.54452034  0.40483795  1
  O2-  O275  1  0.91934464  0.54151035  0.73117975  1
  O2-  O276  1  0.29569300  0.16765398  0.06666028  1
  O2-  O277  1  0.29103730  0.16703686  0.40611155  1
  O2-  O278  1  0.29290831  0.16266189  0.72931710  1
  O2-  O279  1  0.29677445  0.66766744  0.05757684  1
  O2-  O280  1  0.28856296  0.66377107  0.40383933  1
  O2-  O281  1  0.29614817  0.66381358  0.73052008  1
  O2-  O282  1  0.78980823  0.16913552  0.06605436  1
  O2-  O283  1  0.79526234  0.16395547  0.39330460  1
  O2-  O284  1  0.78924388  0.16937691  0.73133825  1
  O2-  O285  1  0.79008816  0.66797486  0.06737171  1
  O2-  O286  1  0.79422911  0.67525558  0.39675430  1
  O2-  O287  1  0.78792439  0.66826956  0.73544423  1
