# generated using pymatgen
data_Ca2Al2SiO7
_symmetry_space_group_name_H-M   'P 1'
_cell_length_a   15.45732627
_cell_length_b   15.45671504
_cell_length_c   15.28257674
_cell_angle_alpha   90.01827732
_cell_angle_beta   90.01124272
_cell_angle_gamma   90.00007422
_symmetry_Int_Tables_number   1
_chemical_formula_structural   Ca2Al2SiO7
_chemical_formula_sum   'Ca48 Al48 Si24 O168'
_cell_volume   3651.30514516
_cell_formula_units_Z   24
loop_
 _symmetry_equiv_pos_site_id
 _symmetry_equiv_pos_as_xyz
  1  'x, y, z'
loop_
 _atom_type_symbol
 _atom_type_oxidation_number
  Ca2+  2.0
  Al0+  0.0
  Si0+  0.0
  O2-  -2.0
loop_
 _atom_site_type_symbol
 _atom_site_label
 _atom_site_symmetry_multiplicity
 _atom_site_fract_x
 _atom_site_fract_y
 _atom_site_fract_z
 _atom_site_occupancy
  Ca2+  Ca0  1  0.16058639  0.07225251  0.16993278  1
  Ca2+  Ca1  1  0.17394346  0.06904318  0.51036014  1
  Ca2+  Ca2  1  0.16950054  0.07417092  0.83842872  1
  Ca2+  Ca3  1  0.16840992  0.58776544  0.17009269  1
  Ca2+  Ca4  1  0.15883684  0.57618722  0.50360818  1
  Ca2+  Ca5  1  0.16779377  0.58375399  0.83661433  1
  Ca2+  Ca6  1  0.66893108  0.07653938  0.17254553  1
  Ca2+  Ca7  1  0.66257782  0.07489341  0.50641797  1
  Ca2+  Ca8  1  0.65963087  0.08051713  0.83045600  1
  Ca2+  Ca9  1  0.67173283  0.58307412  0.16884956  1
  Ca2+  Ca10  1  0.66616135  0.58180410  0.50578002  1
  Ca2+  Ca11  1  0.67018338  0.57108406  0.84341571  1
  Ca2+  Ca12  1  0.07472148  0.33303740  0.16043685  1
  Ca2+  Ca13  1  0.08072361  0.33787489  0.49062879  1
  Ca2+  Ca14  1  0.07982895  0.33487455  0.82911672  1
  Ca2+  Ca15  1  0.09378689  0.82574197  0.16111094  1
  Ca2+  Ca16  1  0.09500448  0.82319097  0.49655343  1
  Ca2+  Ca17  1  0.09324941  0.82353857  0.82944490  1
  Ca2+  Ca18  1  0.58476041  0.33306857  0.16032999  1
  Ca2+  Ca19  1  0.57915543  0.33269652  0.50323345  1
  Ca2+  Ca20  1  0.58009587  0.33340358  0.82239456  1
  Ca2+  Ca21  1  0.57461621  0.83135689  0.16542573  1
  Ca2+  Ca22  1  0.57486596  0.83781350  0.49270370  1
  Ca2+  Ca23  1  0.57077780  0.83509391  0.82417202  1
  Ca2+  Ca24  1  0.32598965  0.42708590  0.17161329  1
  Ca2+  Ca25  1  0.32223814  0.41732753  0.50919121  1
  Ca2+  Ca26  1  0.33123649  0.42178040  0.83732944  1
  Ca2+  Ca27  1  0.32695577  0.90990528  0.16805580  1
  Ca2+  Ca28  1  0.33006782  0.91443350  0.50692879  1
  Ca2+  Ca29  1  0.32893900  0.91486372  0.83449649  1
  Ca2+  Ca30  1  0.83778609  0.41729978  0.16501893  1
  Ca2+  Ca31  1  0.82953692  0.41738770  0.50569027  1
  Ca2+  Ca32  1  0.82340611  0.41750903  0.84123942  1
  Ca2+  Ca33  1  0.82767611  0.91715924  0.17382895  1
  Ca2+  Ca34  1  0.81907310  0.91190609  0.50358629  1
  Ca2+  Ca35  1  0.82572178  0.91528724  0.83482180  1
  Ca2+  Ca36  1  0.41775387  0.16864892  0.16410342  1
  Ca2+  Ca37  1  0.41534547  0.16587927  0.50661935  1
  Ca2+  Ca38  1  0.42013034  0.17256515  0.82025966  1
  Ca2+  Ca39  1  0.41382376  0.67714468  0.16222194  1
  Ca2+  Ca40  1  0.42250780  0.68003578  0.49320482  1
  Ca2+  Ca41  1  0.40798688  0.67619205  0.83102562  1
  Ca2+  Ca42  1  0.92203682  0.17783605  0.15786892  1
  Ca2+  Ca43  1  0.91769000  0.17531445  0.49445979  1
  Ca2+  Ca44  1  0.92287552  0.16932985  0.83516976  1
  Ca2+  Ca45  1  0.92847374  0.66381648  0.16045425  1
  Ca2+  Ca46  1  0.92785806  0.66689624  0.49698570  1
  Ca2+  Ca47  1  0.92706199  0.65813882  0.83290110  1
  Al0+  Al48  1  -0.00133065  -0.00086391  0.00040266  1
  Al0+  Al49  1  0.00017814  0.00054432  0.34082181  1
  Al0+  Al50  1  -0.00208335  -0.00109237  0.66862707  1
  Al0+  Al51  1  -0.00230863  0.49913686  -0.00571369  1
  Al0+  Al52  1  -0.00105513  0.50080177  0.32870313  1
  Al0+  Al53  1  0.00061004  0.50007298  0.66654799  1
  Al0+  Al54  1  0.49757620  0.00021054  -0.00254554  1
  Al0+  Al55  1  0.50003126  0.00179052  0.33139846  1
  Al0+  Al56  1  0.50015923  0.00126477  0.66647884  1
  Al0+  Al57  1  0.49934995  0.50052235  0.00971347  1
  Al0+  Al58  1  0.50140410  0.50007551  0.33072047  1
  Al0+  Al59  1  0.49937333  0.50033742  0.66613389  1
  Al0+  Al60  1  0.25185040  0.24812066  -0.00243833  1
  Al0+  Al61  1  0.25017417  0.25016549  0.33524834  1
  Al0+  Al62  1  0.24872626  0.24952076  0.67017429  1
  Al0+  Al63  1  0.25033390  0.75032472  -0.00089893  1
  Al0+  Al64  1  0.25260872  0.75009436  0.33084834  1
  Al0+  Al65  1  0.25019416  0.74778893  0.65903532  1
  Al0+  Al66  1  0.74988653  0.24776447  -0.00015812  1
  Al0+  Al67  1  0.74999312  0.25166694  0.32934696  1
  Al0+  Al68  1  0.75042962  0.24987707  0.66622928  1
  Al0+  Al69  1  0.74940841  0.74789561  0.00430444  1
  Al0+  Al70  1  0.75072431  0.74915207  0.33495280  1
  Al0+  Al71  1  0.75300172  0.75073767  0.67294474  1
  Al0+  Al72  1  0.06979860  0.68130141  0.31900169  1
  Al0+  Al73  1  0.67983336  0.92955363  0.34584680  1
  Al0+  Al74  1  0.92905649  0.32040966  0.31929989  1
  Al0+  Al75  1  0.32075675  0.07007189  0.68272068  1
  Al0+  Al76  1  0.07280600  0.17646613  0.98441732  1
  Al0+  Al77  1  0.43053137  0.81971515  0.98368905  1
  Al0+  Al78  1  0.92896510  0.32020990  0.98136953  1
  Al0+  Al79  1  0.57197839  0.18035703  0.65056829  1
  Al0+  Al80  1  0.18025109  0.92807516  0.34789914  1
  Al0+  Al81  1  0.17756430  0.42883229  0.68075167  1
  Al0+  Al82  1  0.43072356  0.82000873  0.65242415  1
  Al0+  Al83  1  0.43042715  0.82273847  0.31602588  1
  Al0+  Al84  1  0.06927924  0.67992934  0.65174945  1
  Al0+  Al85  1  0.82236083  0.57076490  0.01710951  1
  Al0+  Al86  1  0.07013985  0.68078497  0.98568435  1
  Al0+  Al87  1  0.67913974  0.42677213  0.01722325  1
  Al0+  Al88  1  0.67882801  0.43018861  0.67824927  1
  Al0+  Al89  1  0.17858306  0.92556151  0.68253273  1
  Al0+  Al90  1  0.17971072  0.93061307  0.01334817  1
  Al0+  Al91  1  0.17881788  0.43137627  0.34442223  1
  Al0+  Al92  1  0.42615134  0.32388621  0.65165077  1
  Al0+  Al93  1  0.67896639  0.92938030  0.68107511  1
  Al0+  Al94  1  0.57398498  0.67696913  0.31752663  1
  Al0+  Al95  1  0.31864005  0.57152387  0.01391386  1
  Si0+  Si96  1  0.07308947  0.17662360  0.31915895  1
  Si0+  Si97  1  0.57576668  0.67819609  0.65374322  1
  Si0+  Si98  1  0.32389844  0.57167412  0.35128586  1
  Si0+  Si99  1  0.67612203  0.92942034  0.01476032  1
  Si0+  Si100  1  0.92393398  0.82287206  0.98402173  1
  Si0+  Si101  1  0.17791520  0.42561542  0.01512917  1
  Si0+  Si102  1  0.92571133  0.82426620  0.64930444  1
  Si0+  Si103  1  0.07117768  0.17622347  0.65083691  1
  Si0+  Si104  1  0.82054856  0.06923830  0.01554747  1
  Si0+  Si105  1  0.67799694  0.42721816  0.34992974  1
  Si0+  Si106  1  0.57054627  0.18105157  0.31724991  1
  Si0+  Si107  1  0.82308853  0.57149445  0.68315980  1
  Si0+  Si108  1  0.32304710  0.07434541  0.35045382  1
  Si0+  Si109  1  0.82234965  0.07383753  0.68458010  1
  Si0+  Si110  1  0.32343405  0.07332593  0.01795076  1
  Si0+  Si111  1  0.82104847  0.07449649  0.34989489  1
  Si0+  Si112  1  0.43011849  0.32298869  0.98721655  1
  Si0+  Si113  1  0.57011010  0.17870530  0.98580712  1
  Si0+  Si114  1  0.42711682  0.32185417  0.31757599  1
  Si0+  Si115  1  0.93088805  0.31939242  0.65114393  1
  Si0+  Si116  1  0.32184982  0.57107218  0.68088022  1
  Si0+  Si117  1  0.92754312  0.82384089  0.31883369  1
  Si0+  Si118  1  0.57287206  0.67705175  0.98337397  1
  Si0+  Si119  1  0.82105879  0.56980226  0.34944444  1
  O2-  O120  1  0.25151789  0.00803667  0.06143230  1
  O2-  O121  1  0.25481843  0.00417663  0.39228199  1
  O2-  O122  1  0.24898240  -0.00156961  0.73342889  1
  O2-  O123  1  0.24349684  0.49654482  0.06028625  1
  O2-  O124  1  0.25399649  0.50377228  0.39464010  1
  O2-  O125  1  0.25565076  0.50012814  0.72572696  1
  O2-  O126  1  0.75054378  -0.00319232  0.05754547  1
  O2-  O127  1  0.75537188  0.00320088  0.39387599  1
  O2-  O128  1  0.75396185  0.00404643  0.72801354  1
  O2-  O129  1  0.75097680  0.49834774  0.06832553  1
  O2-  O130  1  0.74696563  0.50089179  0.39102138  1
  O2-  O131  1  0.74954557  0.50748981  0.72573194  1
  O2-  O132  1  0.00459628  0.24536969  0.27478175  1
  O2-  O133  1  0.00251721  0.24963922  0.60769918  1
  O2-  O134  1  0.00539140  0.25210859  0.93224946  1
  O2-  O135  1  0.00012988  0.76114320  0.27263936  1
  O2-  O136  1  -0.00235528  0.75856113  0.60597238  1
  O2-  O137  1  -0.00722461  0.75419533  0.94036519  1
  O2-  O138  1  0.49936539  0.25177956  0.27486054  1
  O2-  O139  1  0.49892206  0.25209365  0.60113868  1
  O2-  O140  1  0.50207379  0.25286630  0.94547239  1
  O2-  O141  1  0.50159916  0.74854795  0.26752340  1
  O2-  O142  1  0.51014433  0.74865689  0.60806650  1
  O2-  O143  1  0.50620383  0.74584113  0.93688463  1
  O2-  O144  1  0.06843379  0.17627024  0.09854863  1
  O2-  O145  1  0.07144159  0.17790354  0.42492096  1
  O2-  O146  1  0.06792206  0.17578200  0.75562627  1
  O2-  O147  1  0.07052760  0.68303881  0.09895156  1
  O2-  O148  1  0.06610043  0.67868845  0.43204106  1
  O2-  O149  1  0.06768443  0.67829018  0.76473489  1
  O2-  O150  1  0.56871752  0.17679964  0.09154525  1
  O2-  O151  1  0.57284309  0.18147027  0.42163589  1
  O2-  O152  1  0.57250346  0.18309324  0.76461001  1
  O2-  O153  1  0.57313818  0.68007326  0.08883304  1
  O2-  O154  1  0.57265115  0.67620277  0.43159626  1
  O2-  O155  1  0.57501381  0.67855305  0.75928428  1
  O2-  O156  1  0.18073798  0.43098243  0.23137224  1
  O2-  O157  1  0.17411203  0.43162102  0.56727500  1
  O2-  O158  1  0.18170972  0.42499514  0.90950767  1
  O2-  O159  1  0.17936700  0.93026325  0.23463637  1
  O2-  O160  1  0.18079022  0.92694142  0.56870218  1
  O2-  O161  1  0.18221277  0.92968455  0.90074795  1
  O2-  O162  1  0.67888406  0.42374083  0.24532943  1
  O2-  O163  1  0.68242530  0.43073385  0.56456003  1
  O2-  O164  1  0.67803441  0.42688702  0.90345400  1
  O2-  O165  1  0.68146779  0.93342167  0.23217720  1
  O2-  O166  1  0.68077170  0.92967948  0.56786652  1
  O2-  O167  1  0.67590274  0.93218418  0.90977849  1
  O2-  O168  1  0.42981020  0.31997097  0.09288117  1
  O2-  O169  1  0.42696081  0.32200460  0.42213670  1
  O2-  O170  1  0.42925987  0.32501094  0.76567735  1
  O2-  O171  1  0.43286815  0.82115656  0.09653130  1
  O2-  O172  1  0.43232135  0.82324378  0.42966333  1
  O2-  O173  1  0.42974261  0.81721691  0.76564209  1
  O2-  O174  1  0.92930785  0.31742791  0.09525943  1
  O2-  O175  1  0.92784968  0.31937522  0.43300897  1
  O2-  O176  1  0.93042064  0.31832641  0.75573827  1
  O2-  O177  1  0.92247118  0.82449566  0.08976981  1
  O2-  O178  1  0.92426416  0.81986575  0.42420903  1
  O2-  O179  1  0.92150381  0.82356959  0.75465442  1
  O2-  O180  1  0.32299564  0.07819813  0.24473188  1
  O2-  O181  1  0.31827018  0.06918012  0.56867201  1
  O2-  O182  1  0.32765992  0.07318629  0.91317113  1
  O2-  O183  1  0.32289790  0.56977413  0.24539531  1
  O2-  O184  1  0.32154142  0.57028967  0.57530124  1
  O2-  O185  1  0.31881083  0.56951688  0.90064191  1
  O2-  O186  1  0.81908776  0.07475286  0.24402595  1
  O2-  O187  1  0.82275378  0.07543296  0.57889984  1
  O2-  O188  1  0.81948489  0.06940040  0.91060276  1
  O2-  O189  1  0.82229044  0.56863366  0.24484672  1
  O2-  O190  1  0.82438025  0.56955702  0.57705068  1
  O2-  O191  1  0.81904942  0.57031164  0.90337247  1
  O2-  O192  1  0.04600467  0.08259527  0.27429517  1
  O2-  O193  1  0.04046802  0.08504369  0.60286541  1
  O2-  O194  1  0.03756607  0.07999651  0.93106191  1
  O2-  O195  1  0.03483563  0.58701488  0.26373109  1
  O2-  O196  1  0.03329300  0.58426624  0.59730809  1
  O2-  O197  1  0.04174104  0.58355969  0.93158863  1
  O2-  O198  1  0.54281287  0.09030684  0.26743684  1
  O2-  O199  1  0.54285113  0.08242413  0.59752344  1
  O2-  O200  1  0.53947195  0.08872666  0.93686956  1
  O2-  O201  1  0.54927939  0.57714057  0.26481859  1
  O2-  O202  1  0.54922258  0.58543793  0.60641804  1
  O2-  O203  1  0.54578257  0.58187700  0.94159510  1
  O2-  O204  1  0.16714193  0.20036801  0.27335936  1
  O2-  O205  1  0.16367427  0.20158946  0.60503441  1
  O2-  O206  1  0.17386391  0.19812845  0.93405291  1
  O2-  O207  1  0.16830307  0.70729734  0.26728467  1
  O2-  O208  1  0.16547782  0.70595704  0.59491406  1
  O2-  O209  1  0.16549872  0.71347454  0.93131685  1
  O2-  O210  1  0.66152756  0.20929406  0.26766176  1
  O2-  O211  1  0.67069196  0.20844588  0.59697907  1
  O2-  O212  1  0.66312392  0.20087263  0.93943229  1
  O2-  O213  1  0.67283601  0.70598497  0.26560270  1
  O2-  O214  1  0.67148509  0.70018870  0.60989475  1
  O2-  O215  1  0.66771968  0.70017008  0.93873673  1
  O2-  O216  1  0.08192617  0.44814594  0.05593492  1
  O2-  O217  1  0.08167968  0.46287369  0.39779028  1
  O2-  O218  1  0.08246745  0.46302292  0.73560939  1
  O2-  O219  1  0.08104875  0.95725684  0.06673379  1
  O2-  O220  1  0.08258732  0.95512411  0.40312609  1
  O2-  O221  1  0.07760444  0.95088418  0.73170239  1
  O2-  O222  1  0.58145868  0.45425734  0.07235930  1
  O2-  O223  1  0.58478635  0.45227573  0.39605862  1
  O2-  O224  1  0.58114143  0.45684781  0.73213252  1
  O2-  O225  1  0.58643513  0.96336052  0.06261782  1
  O2-  O226  1  0.58399868  0.96440711  0.39822484  1
  O2-  O227  1  0.58412676  0.96238673  0.73586432  1
  O2-  O228  1  0.20593879  0.33243881  0.06151306  1
  O2-  O229  1  0.20700002  0.33345648  0.39816773  1
  O2-  O230  1  0.20235484  0.33135701  0.73440882  1
  O2-  O231  1  0.21503520  0.83567532  0.06716830  1
  O2-  O232  1  0.21310438  0.83136457  0.40026214  1
  O2-  O233  1  0.20955046  0.82608418  0.73106411  1
  O2-  O234  1  0.70673609  0.32672981  0.06862810  1
  O2-  O235  1  0.70918229  0.33612246  0.39707559  1
  O2-  O236  1  0.71228974  0.33428911  0.73153293  1
  O2-  O237  1  0.70003821  0.83647784  0.06102975  1
  O2-  O238  1  0.70983556  0.83301928  0.40055070  1
  O2-  O239  1  0.71016602  0.83370434  0.73751306  1
  O2-  O240  1  0.45487655  0.41319067  0.26952844  1
  O2-  O241  1  0.45518667  0.42174584  0.59687495  1
  O2-  O242  1  0.45703904  0.41570141  0.94197673  1
  O2-  O243  1  0.45884138  0.92165755  0.26321013  1
  O2-  O244  1  0.46003407  0.91715913  0.60017865  1
  O2-  O245  1  0.46115671  0.91711013  0.93082914  1
  O2-  O246  1  0.96027819  0.41551678  0.26407359  1
  O2-  O247  1  0.95777122  0.41160827  0.60406259  1
  O2-  O248  1  0.95126803  0.41920470  0.92791346  1
  O2-  O249  1  0.94634193  0.92115297  0.27714805  1
  O2-  O250  1  0.94469003  0.91965523  0.60381742  1
  O2-  O251  1  0.94730994  0.91667771  0.93800488  1
  O2-  O252  1  0.33625399  0.29226683  0.26858887  1
  O2-  O253  1  0.32714059  0.29402787  0.59965730  1
  O2-  O254  1  0.33884212  0.29602843  0.93890174  1
  O2-  O255  1  0.33306071  0.79181453  0.26257675  1
  O2-  O256  1  0.33690625  0.78581494  0.59557363  1
  O2-  O257  1  0.33500690  0.78610812  0.93066930  1
  O2-  O258  1  0.83319192  0.28939247  0.26348575  1
  O2-  O259  1  0.83976573  0.29030729  0.60278202  1
  O2-  O260  1  0.83116107  0.28509508  0.93036170  1
  O2-  O261  1  0.83563227  0.79519394  0.27110909  1
  O2-  O262  1  0.83347802  0.79339586  0.60166788  1
  O2-  O263  1  0.82957606  0.79749917  0.93817753  1
  O2-  O264  1  0.41587858  0.04390523  0.06612700  1
  O2-  O265  1  0.41762856  0.05047994  0.39473362  1
  O2-  O266  1  0.42008440  0.04497158  0.73441006  1
  O2-  O267  1  0.41359294  0.54146791  0.07160910  1
  O2-  O268  1  0.41787455  0.54465539  0.39576161  1
  O2-  O269  1  0.41589133  0.54977189  0.72821136  1
  O2-  O270  1  0.91145352  0.04304889  0.06521399  1
  O2-  O271  1  0.91519099  0.05435820  0.39708932  1
  O2-  O272  1  0.91505010  0.04782837  0.73217499  1
  O2-  O273  1  0.92156958  0.54096988  0.06848531  1
  O2-  O274  1  0.91098399  0.53746514  0.39781524  1
  O2-  O275  1  0.91345920  0.53858669  0.73045619  1
  O2-  O276  1  0.30229733  0.16842348  0.06426112  1
  O2-  O277  1  0.29774482  0.16730703  0.39833022  1
  O2-  O278  1  0.29394295  0.16888421  0.73547988  1
  O2-  O279  1  0.28643845  0.66672289  0.06910180  1
  O2-  O280  1  0.29993565  0.66604182  0.39518360  1
  O2-  O281  1  0.29115667  0.66300087  0.72669415  1
  O2-  O282  1  0.78990316  0.15939844  0.06465714  1
  O2-  O283  1  0.79091230  0.16711907  0.39588015  1
  O2-  O284  1  0.79517989  0.16613441  0.73218740  1
  O2-  O285  1  0.79546919  0.66971590  0.07144931  1
  O2-  O286  1  0.79634265  0.66196640  0.39796629  1
  O2-  O287  1  0.80564947  0.66632851  0.72933104  1
