# generated using pymatgen
data_Ca2Al2SiO7
_symmetry_space_group_name_H-M   'P 1'
_cell_length_a   15.46075457
_cell_length_b   15.46107948
_cell_length_c   15.28617396
_cell_angle_alpha   89.99871370
_cell_angle_beta   89.99625886
_cell_angle_gamma   89.96930664
_symmetry_Int_Tables_number   1
_chemical_formula_structural   Ca2Al2SiO7
_chemical_formula_sum   'Ca48 Al48 Si24 O168'
_cell_volume   3654.00580436
_cell_formula_units_Z   24
loop_
 _symmetry_equiv_pos_site_id
 _symmetry_equiv_pos_as_xyz
  1  'x, y, z'
loop_
 _atom_type_symbol
 _atom_type_oxidation_number
  Ca2+  2.0
  Al0+  0.0
  Si0+  0.0
  O2-  -2.0
loop_
 _atom_site_type_symbol
 _atom_site_label
 _atom_site_symmetry_multiplicity
 _atom_site_fract_x
 _atom_site_fract_y
 _atom_site_fract_z
 _atom_site_occupancy
  Ca2+  Ca0  1  0.16331818  0.08403194  0.16865669  1
  Ca2+  Ca1  1  0.16721970  0.08250736  0.50800682  1
  Ca2+  Ca2  1  0.16451860  0.08878980  0.83927422  1
  Ca2+  Ca3  1  0.16572374  0.58041820  0.17066969  1
  Ca2+  Ca4  1  0.16871528  0.59134903  0.50203902  1
  Ca2+  Ca5  1  0.16480871  0.58136954  0.84203634  1
  Ca2+  Ca6  1  0.67077350  0.08016198  0.16908296  1
  Ca2+  Ca7  1  0.67320817  0.08006290  0.50810470  1
  Ca2+  Ca8  1  0.65493162  0.07321425  0.83743762  1
  Ca2+  Ca9  1  0.67840605  0.58289637  0.17036492  1
  Ca2+  Ca10  1  0.67078120  0.57937485  0.49774903  1
  Ca2+  Ca11  1  0.67364945  0.58590202  0.84323969  1
  Ca2+  Ca12  1  0.07774485  0.33145224  0.15444839  1
  Ca2+  Ca13  1  0.08446489  0.32575035  0.50106339  1
  Ca2+  Ca14  1  0.08104967  0.33009887  0.83694430  1
  Ca2+  Ca15  1  0.06980310  0.82008703  0.16242964  1
  Ca2+  Ca16  1  0.07305772  0.82422303  0.49391247  1
  Ca2+  Ca17  1  0.07103556  0.82294736  0.82725931  1
  Ca2+  Ca18  1  0.57615400  0.33785993  0.15968735  1
  Ca2+  Ca19  1  0.57738379  0.33754198  0.49310852  1
  Ca2+  Ca20  1  0.57451416  0.32455618  0.82638633  1
  Ca2+  Ca21  1  0.58742494  0.82741344  0.15771757  1
  Ca2+  Ca22  1  0.57996055  0.83941613  0.50396733  1
  Ca2+  Ca23  1  0.58744579  0.83088443  0.83016738  1
  Ca2+  Ca24  1  0.33059020  0.41686478  0.17096906  1
  Ca2+  Ca25  1  0.33862267  0.41976100  0.50071628  1
  Ca2+  Ca26  1  0.32801357  0.40803395  0.83969438  1
  Ca2+  Ca27  1  0.32903144  0.91961492  0.17071623  1
  Ca2+  Ca28  1  0.33231583  0.91648293  0.50968467  1
  Ca2+  Ca29  1  0.33408000  0.91736673  0.83769052  1
  Ca2+  Ca30  1  0.83402284  0.42774389  0.17191207  1
  Ca2+  Ca31  1  0.83113073  0.42245934  0.49963838  1
  Ca2+  Ca32  1  0.83737156  0.42397264  0.84357181  1
  Ca2+  Ca33  1  0.83475315  0.91753047  0.16903545  1
  Ca2+  Ca34  1  0.83493532  0.91677536  0.50456413  1
  Ca2+  Ca35  1  0.82657742  0.90993160  0.83920710  1
  Ca2+  Ca36  1  0.42455317  0.17972317  0.15842821  1
  Ca2+  Ca37  1  0.42534261  0.17801451  0.49859096  1
  Ca2+  Ca38  1  0.42541889  0.17481914  0.83182458  1
  Ca2+  Ca39  1  0.42401868  0.66108544  0.16399248  1
  Ca2+  Ca40  1  0.41355169  0.67058001  0.49537118  1
  Ca2+  Ca41  1  0.42470467  0.67121627  0.83108842  1
  Ca2+  Ca42  1  0.91715410  0.17278715  0.16014516  1
  Ca2+  Ca43  1  0.92029942  0.15912593  0.49616026  1
  Ca2+  Ca44  1  0.92554859  0.16966734  0.83378988  1
  Ca2+  Ca45  1  0.91613301  0.66853461  0.15729955  1
  Ca2+  Ca46  1  0.92181366  0.67449632  0.49241934  1
  Ca2+  Ca47  1  0.92092662  0.67150495  0.83212548  1
  Al0+  Al48  1  -0.00127953  -0.00108179  -0.00530051  1
  Al0+  Al49  1  -0.00004974  -0.00303782  0.33330034  1
  Al0+  Al50  1  0.00036698  0.00001183  0.66224265  1
  Al0+  Al51  1  0.00181974  0.49961259  0.00253718  1
  Al0+  Al52  1  0.00181149  0.49693954  0.33779061  1
  Al0+  Al53  1  0.00234806  0.49894199  0.66376997  1
  Al0+  Al54  1  0.49839400  0.00077082  0.00594495  1
  Al0+  Al55  1  0.49886638  0.00204415  0.33348873  1
  Al0+  Al56  1  0.50049124  0.00119631  0.66360835  1
  Al0+  Al57  1  0.49913424  0.50213525  -0.01008428  1
  Al0+  Al58  1  0.49670655  0.50130901  0.33716746  1
  Al0+  Al59  1  0.49986300  0.50132253  0.66598258  1
  Al0+  Al60  1  0.25065542  0.25031385  0.00068133  1
  Al0+  Al61  1  0.25286981  0.24956451  0.33100779  1
  Al0+  Al62  1  0.25049128  0.25118940  0.65946779  1
  Al0+  Al63  1  0.24990399  0.75100376  0.00068219  1
  Al0+  Al64  1  0.24819857  0.74999303  0.33255536  1
  Al0+  Al65  1  0.25119983  0.75030103  0.66403131  1
  Al0+  Al66  1  0.74907813  0.24811442  -0.00836120  1
  Al0+  Al67  1  0.75062648  0.24637749  0.34234508  1
  Al0+  Al68  1  0.75129882  0.25000518  0.66638814  1
  Al0+  Al69  1  0.74803439  0.74994252  0.00151986  1
  Al0+  Al70  1  0.74778100  0.75128950  0.33621787  1
  Al0+  Al71  1  0.75024911  0.75003809  0.66591546  1
  Al0+  Al72  1  0.92727930  0.32306133  0.98783891  1
  Al0+  Al73  1  0.67874553  0.93017946  0.01450736  1
  Al0+  Al74  1  0.07114508  0.67641551  0.31648369  1
  Al0+  Al75  1  0.43156304  0.32216821  0.31716873  1
  Al0+  Al76  1  0.07164203  0.67723348  0.65085600  1
  Al0+  Al77  1  0.57271103  0.17843482  0.64969842  1
  Al0+  Al78  1  0.92697849  0.81994924  0.98457155  1
  Al0+  Al79  1  0.82012816  0.56916165  0.01185338  1
  Al0+  Al80  1  0.57050329  0.68043225  0.98818221  1
  Al0+  Al81  1  0.06954044  0.18026770  0.65278921  1
  Al0+  Al82  1  0.43059621  0.82032402  0.65508555  1
  Al0+  Al83  1  0.92651693  0.82015451  0.31633382  1
  Al0+  Al84  1  0.07103585  0.17822741  0.98785108  1
  Al0+  Al85  1  0.18130768  0.42940307  0.01346394  1
  Al0+  Al86  1  0.42966732  0.32267946  0.98501010  1
  Al0+  Al87  1  0.42991014  0.32202284  0.64898202  1
  Al0+  Al88  1  0.82145747  0.06826684  0.34659167  1
  Al0+  Al89  1  0.82369888  0.57283208  0.34963582  1
  Al0+  Al90  1  0.57221641  0.17655579  0.98642324  1
  Al0+  Al91  1  0.92693364  0.81985472  0.65032770  1
  Al0+  Al92  1  0.68036471  0.93119210  0.68132430  1
  Al0+  Al93  1  0.07273610  0.67763201  0.98582967  1
  Al0+  Al94  1  0.67857385  0.42943700  0.34614658  1
  Al0+  Al95  1  0.31789629  0.57047115  0.34693046  1
  Si0+  Si96  1  0.67437061  0.92794913  0.35130262  1
  Si0+  Si97  1  0.32377824  0.57441837  0.01521898  1
  Si0+  Si98  1  0.92785675  0.31887551  0.32122589  1
  Si0+  Si99  1  0.32146956  0.07208623  0.35028658  1
  Si0+  Si100  1  0.32148135  0.57351178  0.68347163  1
  Si0+  Si101  1  0.92762640  0.32337316  0.64846591  1
  Si0+  Si102  1  0.82543439  0.07331156  0.68637470  1
  Si0+  Si103  1  0.18100265  0.42853752  0.68172595  1
  Si0+  Si104  1  0.82395365  0.07292896  0.01489153  1
  Si0+  Si105  1  0.18108435  0.93076982  0.34910268  1
  Si0+  Si106  1  0.31918503  0.07158398  0.68144418  1
  Si0+  Si107  1  0.17831011  0.42378545  0.35217187  1
  Si0+  Si108  1  0.42747295  0.82387002  0.31856371  1
  Si0+  Si109  1  0.31939787  0.07062122  0.01691411  1
  Si0+  Si110  1  0.17908755  0.92876125  0.68228706  1
  Si0+  Si111  1  0.57304950  0.67771149  0.64808953  1
  Si0+  Si112  1  0.67749607  0.42863810  0.68294914  1
  Si0+  Si113  1  0.17663870  0.92798739  0.01504378  1
  Si0+  Si114  1  0.82093800  0.56869870  0.68147660  1
  Si0+  Si115  1  0.07152038  0.17828101  0.31951395  1
  Si0+  Si116  1  0.57374358  0.17748483  0.31622688  1
  Si0+  Si117  1  0.67596021  0.42618737  0.01110373  1
  Si0+  Si118  1  0.42696554  0.82366052  0.98680800  1
  Si0+  Si119  1  0.56822829  0.68065520  0.32034226  1
  O2-  O120  1  0.24642549  0.00060092  0.05840639  1
  O2-  O121  1  0.25178740  0.00092863  0.39400083  1
  O2-  O122  1  0.24840096  0.00111414  0.72573986  1
  O2-  O123  1  0.25513377  0.50575299  0.05897066  1
  O2-  O124  1  0.24222757  0.49746971  0.39557188  1
  O2-  O125  1  0.25097426  0.50118001  0.72373602  1
  O2-  O126  1  0.75360940  0.00562106  0.05924727  1
  O2-  O127  1  0.74623024  -0.00593064  0.39331862  1
  O2-  O128  1  0.75487789  0.00597962  0.72940305  1
  O2-  O129  1  0.74765079  0.49063948  0.05672123  1
  O2-  O130  1  0.75206415  0.49913661  0.39868457  1
  O2-  O131  1  0.75025941  0.49768314  0.72505334  1
  O2-  O132  1  0.00166989  0.25036776  0.27879033  1
  O2-  O133  1  -0.00852815  0.24986993  0.60415692  1
  O2-  O134  1  -0.00135903  0.24970989  0.93854705  1
  O2-  O135  1  -0.00896547  0.74030639  0.26797257  1
  O2-  O136  1  -0.00074540  0.74818598  0.60112127  1
  O2-  O137  1  0.00062107  0.74899226  0.93608975  1
  O2-  O138  1  0.50937647  0.25006550  0.27205534  1
  O2-  O139  1  0.50717010  0.25584425  0.59881881  1
  O2-  O140  1  0.50491289  0.25322429  0.93716526  1
  O2-  O141  1  0.50083255  0.75561676  0.27757123  1
  O2-  O142  1  0.50331760  0.74601276  0.60484798  1
  O2-  O143  1  0.49556660  0.75563538  0.94280834  1
  O2-  O144  1  0.07021296  0.17866443  0.10198853  1
  O2-  O145  1  0.07207985  0.17829850  0.42480089  1
  O2-  O146  1  0.07191210  0.18319041  0.76516744  1
  O2-  O147  1  0.07368900  0.67938608  0.09908717  1
  O2-  O148  1  0.07448461  0.68341576  0.42982586  1
  O2-  O149  1  0.07132537  0.67701429  0.76417844  1
  O2-  O150  1  0.56938424  0.17535232  0.10027973  1
  O2-  O151  1  0.56965050  0.17470727  0.42151510  1
  O2-  O152  1  0.56670431  0.17730363  0.76291814  1
  O2-  O153  1  0.56938001  0.67999759  0.10170304  1
  O2-  O154  1  0.56592381  0.68115354  0.42556683  1
  O2-  O155  1  0.57293085  0.67745877  0.75373225  1
  O2-  O156  1  0.18042812  0.41931648  0.24693143  1
  O2-  O157  1  0.18150066  0.42689173  0.57658670  1
  O2-  O158  1  0.18326466  0.42776452  0.89996840  1
  O2-  O159  1  0.18354288  0.93388109  0.24386118  1
  O2-  O160  1  0.18222722  0.93035983  0.57678769  1
  O2-  O161  1  0.18052453  0.92713134  0.90996708  1
  O2-  O162  1  0.67912212  0.43136248  0.23241405  1
  O2-  O163  1  0.67704810  0.43122579  0.57782855  1
  O2-  O164  1  0.67653708  0.43070342  0.90534691  1
  O2-  O165  1  0.66966363  0.92968025  0.24593621  1
  O2-  O166  1  0.67984436  0.93298994  0.56810565  1
  O2-  O167  1  0.67682078  0.93022714  0.90157115  1
  O2-  O168  1  0.43004697  0.32204458  0.09887320  1
  O2-  O169  1  0.43078882  0.31980789  0.43003098  1
  O2-  O170  1  0.42765413  0.31876740  0.76213729  1
  O2-  O171  1  0.42604536  0.82354815  0.09275469  1
  O2-  O172  1  0.42714810  0.82459548  0.42369842  1
  O2-  O173  1  0.42959738  0.81868787  0.76801478  1
  O2-  O174  1  0.92800645  0.32193767  0.10202646  1
  O2-  O175  1  0.92918085  0.31692627  0.42654379  1
  O2-  O176  1  0.93027070  0.32690645  0.75368362  1
  O2-  O177  1  0.92837831  0.82026294  0.09805555  1
  O2-  O178  1  0.93140270  0.82302704  0.42967009  1
  O2-  O179  1  0.92708880  0.81748442  0.76361273  1
  O2-  O180  1  0.32063708  0.07086589  0.24513368  1
  O2-  O181  1  0.31659205  0.06934541  0.57591660  1
  O2-  O182  1  0.32073850  0.06884128  0.91167624  1
  O2-  O183  1  0.32032475  0.56923004  0.23408799  1
  O2-  O184  1  0.32122762  0.57475690  0.57828640  1
  O2-  O185  1  0.32324184  0.57699720  0.90959166  1
  O2-  O186  1  0.82137300  0.07039346  0.23357923  1
  O2-  O187  1  0.82589356  0.07116857  0.58042372  1
  O2-  O188  1  0.82753910  0.07164305  0.90981649  1
  O2-  O189  1  0.82144528  0.57182120  0.23607739  1
  O2-  O190  1  0.81943721  0.56682311  0.57647640  1
  O2-  O191  1  0.81851777  0.56960175  0.89819084  1
  O2-  O192  1  0.04383054  0.08647544  0.27307927  1
  O2-  O193  1  0.04445204  0.08282371  0.59740360  1
  O2-  O194  1  0.04593201  0.08053474  0.93243549  1
  O2-  O195  1  0.05454481  0.57198356  0.27239155  1
  O2-  O196  1  0.04671809  0.57808574  0.59793984  1
  O2-  O197  1  0.04634177  0.57908368  0.93435606  1
  O2-  O198  1  0.54213706  0.08549206  0.26926472  1
  O2-  O199  1  0.53807740  0.08324387  0.59478987  1
  O2-  O200  1  0.53377523  0.08045365  0.93467268  1
  O2-  O201  1  0.53485613  0.59123529  0.27299490  1
  O2-  O202  1  0.54642941  0.58473648  0.60211452  1
  O2-  O203  1  0.54094424  0.58719594  0.92743253  1
  O2-  O204  1  0.16433737  0.20362933  0.27313042  1
  O2-  O205  1  0.16397790  0.21352300  0.59538850  1
  O2-  O206  1  0.16918375  0.20643063  0.93543671  1
  O2-  O207  1  0.16749213  0.71294112  0.26329726  1
  O2-  O208  1  0.16994617  0.70789462  0.59945799  1
  O2-  O209  1  0.17169132  0.70700971  0.93374205  1
  O2-  O210  1  0.67018746  0.19726044  0.27489521  1
  O2-  O211  1  0.67470258  0.19979923  0.60139911  1
  O2-  O212  1  0.67093008  0.19423592  0.93109377  1
  O2-  O213  1  0.66101157  0.70493196  0.27377624  1
  O2-  O214  1  0.66541256  0.70430392  0.60144765  1
  O2-  O215  1  0.66441663  0.71293429  0.93166739  1
  O2-  O216  1  0.08522453  0.45756755  0.06982957  1
  O2-  O217  1  0.08339442  0.44146716  0.39870905  1
  O2-  O218  1  0.08794956  0.45391265  0.72818720  1
  O2-  O219  1  0.08484789  0.95594399  0.06204665  1
  O2-  O220  1  0.09011195  0.95958085  0.39684535  1
  O2-  O221  1  0.08658901  0.95618435  0.72772633  1
  O2-  O222  1  0.58257643  0.45642131  0.05548229  1
  O2-  O223  1  0.58233871  0.46308245  0.40133941  1
  O2-  O224  1  0.58571128  0.45777473  0.73000472  1
  O2-  O225  1  0.58156364  0.95847200  0.07075134  1
  O2-  O226  1  0.58115889  0.95709859  0.39822342  1
  O2-  O227  1  0.58182021  0.96143464  0.73340082  1
  O2-  O228  1  0.21207100  0.33294771  0.06932623  1
  O2-  O229  1  0.21048368  0.33176470  0.39943333  1
  O2-  O230  1  0.21177655  0.33688023  0.72804645  1
  O2-  O231  1  0.20759285  0.83822443  0.06544051  1
  O2-  O232  1  0.21004172  0.83960467  0.39629896  1
  O2-  O233  1  0.21004815  0.83775051  0.72935304  1
  O2-  O234  1  0.69455012  0.32973777  0.05386392  1
  O2-  O235  1  0.70394074  0.33086248  0.40106749  1
  O2-  O236  1  0.70236038  0.33507720  0.72823071  1
  O2-  O237  1  0.70917285  0.83419188  0.06959778  1
  O2-  O238  1  0.69414383  0.83344037  0.39736906  1
  O2-  O239  1  0.70814958  0.83188995  0.73297859  1
  O2-  O240  1  0.45863300  0.42058563  0.26581359  1
  O2-  O241  1  0.45467352  0.42307210  0.59941258  1
  O2-  O242  1  0.45098460  0.42071843  0.92916673  1
  O2-  O243  1  0.45178675  0.91710403  0.27148900  1
  O2-  O244  1  0.45956222  0.91609097  0.59861741  1
  O2-  O245  1  0.45089928  0.91754419  0.94199621  1
  O2-  O246  1  0.95317738  0.41166050  0.27538552  1
  O2-  O247  1  0.95976304  0.41344824  0.59925157  1
  O2-  O248  1  0.96015305  0.41875026  0.93303607  1
  O2-  O249  1  0.96427506  0.91616243  0.26308428  1
  O2-  O250  1  0.95587637  0.91865465  0.59904156  1
  O2-  O251  1  0.95416186  0.91786962  0.93104656  1
  O2-  O252  1  0.33572056  0.28656051  0.26403219  1
  O2-  O253  1  0.33405803  0.28930003  0.59393994  1
  O2-  O254  1  0.33358465  0.28704073  0.93294981  1
  O2-  O255  1  0.33652953  0.79519313  0.27080110  1
  O2-  O256  1  0.33484671  0.79096904  0.59850854  1
  O2-  O257  1  0.33397306  0.79938798  0.93928607  1
  O2-  O258  1  0.83662351  0.28807777  0.27540020  1
  O2-  O259  1  0.83221164  0.30360809  0.60449024  1
  O2-  O260  1  0.83001688  0.29867488  0.93111146  1
  O2-  O261  1  0.82312688  0.80257913  0.26973119  1
  O2-  O262  1  0.82902170  0.79141719  0.59683661  1
  O2-  O263  1  0.82949565  0.78932221  0.93293734  1
  O2-  O264  1  0.40833424  0.04045219  0.06890035  1
  O2-  O265  1  0.41331726  0.04448627  0.39782345  1
  O2-  O266  1  0.41050608  0.04214995  0.72785348  1
  O2-  O267  1  0.41825387  0.54772497  0.05949475  1
  O2-  O268  1  0.41274672  0.54013074  0.40481110  1
  O2-  O269  1  0.41492924  0.54817073  0.72938845  1
  O2-  O270  1  0.91725783  0.04624491  0.06242036  1
  O2-  O271  1  0.91842681  0.03709038  0.40145112  1
  O2-  O272  1  0.92002609  0.04730414  0.73041888  1
  O2-  O273  1  0.91649885  0.54079693  0.06688521  1
  O2-  O274  1  0.92156342  0.54278509  0.40363109  1
  O2-  O275  1  0.91374240  0.53985218  0.72668905  1
  O2-  O276  1  0.29173090  0.16158705  0.06572291  1
  O2-  O277  1  0.29248162  0.16330566  0.39785410  1
  O2-  O278  1  0.28931257  0.16371471  0.72656209  1
  O2-  O279  1  0.30133400  0.66866949  0.06261862  1
  O2-  O280  1  0.28965303  0.66890770  0.40092280  1
  O2-  O281  1  0.29380127  0.66521718  0.73140874  1
  O2-  O282  1  0.79886712  0.16774965  0.05997259  1
  O2-  O283  1  0.79399923  0.16302280  0.40653940  1
  O2-  O284  1  0.80458743  0.16959650  0.72926421  1
  O2-  O285  1  0.78388677  0.66313628  0.06709203  1
  O2-  O286  1  0.79116065  0.67029451  0.40276911  1
  O2-  O287  1  0.79213099  0.66055627  0.72758078  1
