# generated using pymatgen
data_Ca2Al2SiO7
_symmetry_space_group_name_H-M   'P 1'
_cell_length_a   15.46718098
_cell_length_b   15.46437032
_cell_length_c   15.28939276
_cell_angle_alpha   90.00638925
_cell_angle_beta   89.99343142
_cell_angle_gamma   89.98581429
_symmetry_Int_Tables_number   1
_chemical_formula_structural   Ca2Al2SiO7
_chemical_formula_sum   'Ca48 Al48 Si24 O168'
_cell_volume   3657.07297431
_cell_formula_units_Z   24
loop_
 _symmetry_equiv_pos_site_id
 _symmetry_equiv_pos_as_xyz
  1  'x, y, z'
loop_
 _atom_type_symbol
 _atom_type_oxidation_number
  Ca2+  2.0
  Al0+  0.0
  Si0+  0.0
  O2-  -2.0
loop_
 _atom_site_type_symbol
 _atom_site_label
 _atom_site_symmetry_multiplicity
 _atom_site_fract_x
 _atom_site_fract_y
 _atom_site_fract_z
 _atom_site_occupancy
  Ca2+  Ca0  1  0.17054677  0.07834208  0.16742616  1
  Ca2+  Ca1  1  0.17692170  0.08174083  0.50668679  1
  Ca2+  Ca2  1  0.16858875  0.08175257  0.83685314  1
  Ca2+  Ca3  1  0.17576550  0.58018106  0.16331810  1
  Ca2+  Ca4  1  0.17433424  0.58134255  0.51104956  1
  Ca2+  Ca5  1  0.17753411  0.58374485  0.83983184  1
  Ca2+  Ca6  1  0.65425858  0.07676996  0.16321632  1
  Ca2+  Ca7  1  0.66669514  0.07305640  0.51009295  1
  Ca2+  Ca8  1  0.66349901  0.07132359  0.84077672  1
  Ca2+  Ca9  1  0.66772238  0.58202705  0.17061192  1
  Ca2+  Ca10  1  0.66552423  0.59447276  0.50311238  1
  Ca2+  Ca11  1  0.66286430  0.58098733  0.83791125  1
  Ca2+  Ca12  1  0.08499970  0.32837631  0.15647062  1
  Ca2+  Ca13  1  0.08923238  0.32500442  0.49955506  1
  Ca2+  Ca14  1  0.09837148  0.32259273  0.83335998  1
  Ca2+  Ca15  1  0.07655895  0.83686182  0.15433955  1
  Ca2+  Ca16  1  0.08200001  0.82771081  0.50414801  1
  Ca2+  Ca17  1  0.07368842  0.83654970  0.82843017  1
  Ca2+  Ca18  1  0.57426786  0.32937581  0.15584028  1
  Ca2+  Ca19  1  0.56839891  0.33245249  0.49582591  1
  Ca2+  Ca20  1  0.57627939  0.33232669  0.83312738  1
  Ca2+  Ca21  1  0.57396161  0.83043133  0.16177819  1
  Ca2+  Ca22  1  0.57543074  0.82874911  0.50075197  1
  Ca2+  Ca23  1  0.57583185  0.83254406  0.82782970  1
  Ca2+  Ca24  1  0.33639409  0.41553102  0.16408909  1
  Ca2+  Ca25  1  0.34003648  0.42134406  0.50835451  1
  Ca2+  Ca26  1  0.33980925  0.42925126  0.83940817  1
  Ca2+  Ca27  1  0.33459336  0.91872620  0.17044159  1
  Ca2+  Ca28  1  0.34593740  0.92689936  0.50654275  1
  Ca2+  Ca29  1  0.33406995  0.91957215  0.84106109  1
  Ca2+  Ca30  1  0.82338643  0.41988416  0.17175234  1
  Ca2+  Ca31  1  0.82922581  0.42502451  0.50314924  1
  Ca2+  Ca32  1  0.82470687  0.41879695  0.84198254  1
  Ca2+  Ca33  1  0.82690316  0.91223181  0.16413587  1
  Ca2+  Ca34  1  0.82553066  0.91134982  0.50948502  1
  Ca2+  Ca35  1  0.82348495  0.90611208  0.83803886  1
  Ca2+  Ca36  1  0.41539825  0.17605540  0.16024446  1
  Ca2+  Ca37  1  0.40451481  0.17502654  0.49698498  1
  Ca2+  Ca38  1  0.41243661  0.17890453  0.82976671  1
  Ca2+  Ca39  1  0.41594954  0.67592480  0.16077288  1
  Ca2+  Ca40  1  0.42495168  0.67341395  0.49644053  1
  Ca2+  Ca41  1  0.41397538  0.67578730  0.82528042  1
  Ca2+  Ca42  1  0.92572482  0.16563201  0.15557660  1
  Ca2+  Ca43  1  0.92456795  0.16410037  0.50087280  1
  Ca2+  Ca44  1  0.93075516  0.16460260  0.82996158  1
  Ca2+  Ca45  1  0.91624704  0.66902533  0.16218989  1
  Ca2+  Ca46  1  0.91839433  0.66788273  0.49969710  1
  Ca2+  Ca47  1  0.92477324  0.67589693  0.82678280  1
  Al0+  Al48  1  -0.00015948  0.00030439  -0.00477650  1
  Al0+  Al49  1  0.00016779  -0.00152945  0.33480780  1
  Al0+  Al50  1  0.00003127  0.00205261  0.65605848  1
  Al0+  Al51  1  0.00140256  0.50047742  0.00344881  1
  Al0+  Al52  1  -0.00195502  0.49895296  0.33782421  1
  Al0+  Al53  1  -0.00128386  0.49827552  0.66589138  1
  Al0+  Al54  1  0.50118688  -0.00047260  -0.00045722  1
  Al0+  Al55  1  0.49948156  0.00038555  0.33671298  1
  Al0+  Al56  1  0.50173595  0.00196915  0.67478700  1
  Al0+  Al57  1  0.50238682  0.50105897  0.00724432  1
  Al0+  Al58  1  0.49969172  0.49851248  0.32587568  1
  Al0+  Al59  1  0.49985139  0.49945440  0.66328217  1
  Al0+  Al60  1  0.25073452  0.25144717  -0.00427644  1
  Al0+  Al61  1  0.24846085  0.24763973  0.33127054  1
  Al0+  Al62  1  0.24980540  0.24875096  0.66157225  1
  Al0+  Al63  1  0.24926411  0.75092054  0.00599729  1
  Al0+  Al64  1  0.24709538  0.74787721  0.33133211  1
  Al0+  Al65  1  0.24809257  0.75235473  0.66195409  1
  Al0+  Al66  1  0.75144793  0.24995825  0.00121522  1
  Al0+  Al67  1  0.75072515  0.25005375  0.33636007  1
  Al0+  Al68  1  0.75102393  0.24981166  0.66692642  1
  Al0+  Al69  1  0.74975549  0.75172796  0.00201282  1
  Al0+  Al70  1  0.75149336  0.74942819  0.33397048  1
  Al0+  Al71  1  0.75022794  0.74956384  0.66627711  1
  Al0+  Al72  1  0.92882913  0.81985707  0.98710424  1
  Al0+  Al73  1  0.42989671  0.32278260  0.98318802  1
  Al0+  Al74  1  0.57317153  0.17832959  0.98446929  1
  Al0+  Al75  1  0.07057594  0.18099242  0.65028111  1
  Al0+  Al76  1  0.07212241  0.67618374  0.65229299  1
  Al0+  Al77  1  0.17990206  0.42786143  0.01419610  1
  Al0+  Al78  1  0.56925454  0.67818207  0.65434740  1
  Al0+  Al79  1  0.31883545  0.06883827  0.34607937  1
  Al0+  Al80  1  0.42729970  0.82530982  0.65404496  1
  Al0+  Al81  1  0.32314029  0.57295967  0.01615166  1
  Al0+  Al82  1  0.43093651  0.31924947  0.65291286  1
  Al0+  Al83  1  0.32091957  0.57230673  0.67744042  1
  Al0+  Al84  1  0.57279433  0.68043006  0.31643493  1
  Al0+  Al85  1  0.67791287  0.92892169  0.01598062  1
  Al0+  Al86  1  0.67990855  0.42755309  0.01409828  1
  Al0+  Al87  1  0.92876859  0.81988578  0.65046887  1
  Al0+  Al88  1  0.07119673  0.17996354  0.98663086  1
  Al0+  Al89  1  0.17767890  0.93062884  0.01125990  1
  Al0+  Al90  1  0.42715160  0.82012799  0.98688464  1
  Al0+  Al91  1  0.42770710  0.31910584  0.31807369  1
  Al0+  Al92  1  0.32044588  0.07147468  0.68253368  1
  Al0+  Al93  1  0.42770728  0.82246337  0.31794668  1
  Al0+  Al94  1  0.68119170  0.92855786  0.68190291  1
  Al0+  Al95  1  0.81930354  0.57014465  0.34879375  1
  Si0+  Si96  1  0.17493802  0.92567677  0.35135671  1
  Si0+  Si97  1  0.17894635  0.42868267  0.34848414  1
  Si0+  Si98  1  0.32214366  0.07202441  0.01557008  1
  Si0+  Si99  1  0.57429157  0.17813938  0.65090531  1
  Si0+  Si100  1  0.06844828  0.17886633  0.31680172  1
  Si0+  Si101  1  0.82385257  0.07316833  0.68341216  1
  Si0+  Si102  1  0.92869169  0.32137872  0.31882585  1
  Si0+  Si103  1  0.07231919  0.67663051  0.98518689  1
  Si0+  Si104  1  0.67630190  0.42694387  0.35203929  1
  Si0+  Si105  1  0.93088868  0.82046809  0.31725960  1
  Si0+  Si106  1  0.32130186  0.57044893  0.34880312  1
  Si0+  Si107  1  0.67903214  0.42830992  0.68060005  1
  Si0+  Si108  1  0.82194461  0.57245373  0.01568269  1
  Si0+  Si109  1  0.92380181  0.32241022  0.64854879  1
  Si0+  Si110  1  0.68099419  0.93065546  0.34874145  1
  Si0+  Si111  1  0.82248432  0.07073201  0.01548072  1
  Si0+  Si112  1  0.57526198  0.17801914  0.31904246  1
  Si0+  Si113  1  0.57240738  0.67928655  0.98516497  1
  Si0+  Si114  1  0.92847230  0.32446727  0.98489018  1
  Si0+  Si115  1  0.82171900  0.57063416  0.68340452  1
  Si0+  Si116  1  0.06979240  0.67521677  0.31698482  1
  Si0+  Si117  1  0.82473899  0.07205641  0.34870963  1
  Si0+  Si118  1  0.17728273  0.42764798  0.68104551  1
  Si0+  Si119  1  0.17569305  0.92948801  0.68180507  1
  O2-  O120  1  0.25437345  0.00214417  0.05979528  1
  O2-  O121  1  0.24939192  -0.01117785  0.39373934  1
  O2-  O122  1  0.24885662  -0.00729172  0.72674173  1
  O2-  O123  1  0.25329018  0.49727962  0.06571154  1
  O2-  O124  1  0.25139905  0.49769141  0.39117421  1
  O2-  O125  1  0.24186319  0.50071135  0.72299567  1
  O2-  O126  1  0.75076047  0.00659667  0.06227150  1
  O2-  O127  1  0.75067761  0.00425843  0.38995466  1
  O2-  O128  1  0.75721608  0.00347330  0.72753350  1
  O2-  O129  1  0.75534900  0.50210078  0.06022341  1
  O2-  O130  1  0.74113416  0.49925767  0.39687400  1
  O2-  O131  1  0.75006204  0.49948748  0.72346195  1
  O2-  O132  1  -0.00443017  0.24778590  0.27483847  1
  O2-  O133  1  -0.00457033  0.25646409  0.60440599  1
  O2-  O134  1  -0.00045819  0.25865838  0.94062271  1
  O2-  O135  1  0.00328747  0.75096681  0.27500685  1
  O2-  O136  1  -0.00015436  0.74718986  0.59995733  1
  O2-  O137  1  0.00453630  0.74621802  0.94174779  1
  O2-  O138  1  0.50646005  0.24652250  0.27546586  1
  O2-  O139  1  0.50379763  0.24331788  0.60460866  1
  O2-  O140  1  0.50103315  0.24947709  0.93381536  1
  O2-  O141  1  0.49779918  0.74916800  0.26668235  1
  O2-  O142  1  0.49628162  0.74968057  0.60494950  1
  O2-  O143  1  0.50041895  0.74385348  0.94124046  1
  O2-  O144  1  0.06777890  0.17917677  0.10041841  1
  O2-  O145  1  0.06794912  0.18051694  0.42177977  1
  O2-  O146  1  0.06971816  0.18179716  0.76308336  1
  O2-  O147  1  0.06894849  0.67593730  0.09138163  1
  O2-  O148  1  0.06839148  0.67394249  0.42175093  1
  O2-  O149  1  0.06915529  0.67465219  0.76559060  1
  O2-  O150  1  0.57002117  0.17961225  0.09892024  1
  O2-  O151  1  0.57879250  0.17956860  0.42463077  1
  O2-  O152  1  0.57747229  0.18232352  0.75571097  1
  O2-  O153  1  0.57515956  0.68267651  0.09073766  1
  O2-  O154  1  0.57259292  0.68412301  0.42987952  1
  O2-  O155  1  0.56949812  0.67623225  0.76773536  1
  O2-  O156  1  0.17664548  0.42925192  0.24386323  1
  O2-  O157  1  0.17848440  0.42715375  0.57458941  1
  O2-  O158  1  0.17787236  0.43067581  0.90094506  1
  O2-  O159  1  0.16787090  0.93016495  0.24604851  1
  O2-  O160  1  0.17287998  0.93332830  0.57596880  1
  O2-  O161  1  0.17546475  0.93297970  0.89855645  1
  O2-  O162  1  0.68181590  0.42338588  0.24689264  1
  O2-  O163  1  0.68168195  0.42649093  0.57551785  1
  O2-  O164  1  0.68193342  0.42957500  0.90046894  1
  O2-  O165  1  0.68210574  0.93137772  0.24373418  1
  O2-  O166  1  0.68289944  0.93092372  0.56781523  1
  O2-  O167  1  0.68112465  0.92621821  0.90351451  1
  O2-  O168  1  0.42959450  0.31882159  0.09708299  1
  O2-  O169  1  0.42685835  0.31851104  0.43143138  1
  O2-  O170  1  0.43264382  0.32200018  0.76511961  1
  O2-  O171  1  0.42896609  0.82065419  0.10017182  1
  O2-  O172  1  0.43099588  0.82386541  0.43125461  1
  O2-  O173  1  0.42887613  0.82416009  0.76762192  1
  O2-  O174  1  0.92840795  0.32209858  0.09102004  1
  O2-  O175  1  0.93040034  0.32081843  0.42380737  1
  O2-  O176  1  0.91845215  0.32138880  0.75361286  1
  O2-  O177  1  0.92948210  0.81845263  0.10105156  1
  O2-  O178  1  0.93069675  0.82100454  0.42197767  1
  O2-  O179  1  0.92941775  0.81848914  0.76388504  1
  O2-  O180  1  0.31437162  0.07164291  0.23317869  1
  O2-  O181  1  0.31743750  0.07292721  0.56888166  1
  O2-  O182  1  0.32015268  0.07214693  0.91009483  1
  O2-  O183  1  0.31810339  0.57130654  0.24416538  1
  O2-  O184  1  0.32165147  0.56779782  0.56367719  1
  O2-  O185  1  0.32127942  0.57441454  0.90239121  1
  O2-  O186  1  0.83066671  0.07143364  0.24421062  1
  O2-  O187  1  0.82078664  0.07443399  0.57709830  1
  O2-  O188  1  0.82416540  0.06902536  0.91030128  1
  O2-  O189  1  0.82215745  0.56654219  0.23583552  1
  O2-  O190  1  0.82247441  0.56937191  0.57812458  1
  O2-  O191  1  0.82175699  0.57165279  0.91006292  1
  O2-  O192  1  0.04083712  0.08579424  0.27178739  1
  O2-  O193  1  0.03891511  0.08739093  0.59089650  1
  O2-  O194  1  0.03570485  0.08672358  0.93023400  1
  O2-  O195  1  0.03590376  0.58493623  0.27031868  1
  O2-  O196  1  0.04366915  0.57704532  0.59900432  1
  O2-  O197  1  0.04604562  0.58361856  0.93861858  1
  O2-  O198  1  0.54902173  0.08411340  0.27505878  1
  O2-  O199  1  0.55095806  0.08339089  0.60758941  1
  O2-  O200  1  0.54797210  0.07884650  0.93405085  1
  O2-  O201  1  0.55054640  0.57943204  0.26672656  1
  O2-  O202  1  0.54401674  0.58062452  0.59764732  1
  O2-  O203  1  0.55279175  0.58316534  0.94342712  1
  O2-  O204  1  0.15848781  0.20879396  0.26875248  1
  O2-  O205  1  0.16458131  0.21397601  0.59267157  1
  O2-  O206  1  0.16703115  0.20829522  0.93106152  1
  O2-  O207  1  0.16271689  0.69761832  0.26984353  1
  O2-  O208  1  0.16799613  0.70602978  0.59461759  1
  O2-  O209  1  0.16614027  0.70188476  0.94203007  1
  O2-  O210  1  0.66977859  0.20140205  0.27263899  1
  O2-  O211  1  0.66777996  0.20402021  0.60315347  1
  O2-  O212  1  0.67305772  0.20519267  0.93389609  1
  O2-  O213  1  0.67175160  0.71011791  0.26466299  1
  O2-  O214  1  0.66777827  0.70705534  0.60187120  1
  O2-  O215  1  0.66501366  0.70736062  0.93863097  1
  O2-  O216  1  0.08105731  0.45553286  0.06956396  1
  O2-  O217  1  0.08777419  0.45682758  0.39743500  1
  O2-  O218  1  0.08087024  0.44459178  0.72489663  1
  O2-  O219  1  0.08192270  0.96484639  0.06687217  1
  O2-  O220  1  0.08395356  0.95754431  0.40048608  1
  O2-  O221  1  0.08272624  0.96210960  0.72579205  1
  O2-  O222  1  0.58595713  0.45766751  0.07216642  1
  O2-  O223  1  0.58027061  0.44885278  0.39403777  1
  O2-  O224  1  0.58796144  0.45670155  0.72764048  1
  O2-  O225  1  0.58204726  0.96013687  0.07205757  1
  O2-  O226  1  0.58959046  0.95723536  0.39726347  1
  O2-  O227  1  0.58678621  0.96062993  0.73822977  1
  O2-  O228  1  0.20568833  0.32821622  0.06717029  1
  O2-  O229  1  0.20470793  0.33533944  0.39408807  1
  O2-  O230  1  0.20730788  0.33513124  0.72510155  1
  O2-  O231  1  0.20207098  0.83416979  0.06844806  1
  O2-  O232  1  0.19243535  0.82854194  0.39294680  1
  O2-  O233  1  0.19205689  0.83303853  0.72425047  1
  O2-  O234  1  0.71229754  0.33193564  0.07023279  1
  O2-  O235  1  0.70644795  0.33481775  0.40016360  1
  O2-  O236  1  0.70822976  0.33692068  0.72842559  1
  O2-  O237  1  0.71378256  0.83457192  0.07207889  1
  O2-  O238  1  0.71372576  0.84040429  0.39536448  1
  O2-  O239  1  0.71308889  0.83206718  0.73526577  1
  O2-  O240  1  0.45507529  0.41555860  0.26337102  1
  O2-  O241  1  0.46469745  0.41348560  0.59621615  1
  O2-  O242  1  0.46131926  0.42259645  0.93554684  1
  O2-  O243  1  0.45761195  0.92184972  0.26706988  1
  O2-  O244  1  0.46272775  0.92295502  0.60286147  1
  O2-  O245  1  0.45841550  0.91670664  0.93496954  1
  O2-  O246  1  0.95910709  0.41211797  0.27145792  1
  O2-  O247  1  0.94715410  0.41654454  0.60288003  1
  O2-  O248  1  0.94975122  0.41953635  0.94026508  1
  O2-  O249  1  0.95747309  0.91331372  0.27060700  1
  O2-  O250  1  0.95435318  0.91815481  0.59550736  1
  O2-  O251  1  0.95851663  0.91544868  0.93224381  1
  O2-  O252  1  0.33164103  0.28535177  0.26469224  1
  O2-  O253  1  0.33469403  0.28943640  0.59756264  1
  O2-  O254  1  0.33135730  0.29655081  0.93034943  1
  O2-  O255  1  0.32643634  0.79659596  0.26854074  1
  O2-  O256  1  0.32748170  0.80546395  0.60127058  1
  O2-  O257  1  0.32865098  0.79242913  0.93576540  1
  O2-  O258  1  0.83516478  0.29659528  0.27315655  1
  O2-  O259  1  0.83259840  0.29355020  0.59820397  1
  O2-  O260  1  0.83618590  0.29727863  0.93797716  1
  O2-  O261  1  0.83969767  0.79127483  0.27019513  1
  O2-  O262  1  0.83184047  0.78845280  0.59680450  1
  O2-  O263  1  0.83301595  0.78734271  0.93369053  1
  O2-  O264  1  0.41556480  0.04754047  0.06177235  1
  O2-  O265  1  0.41745611  0.04587037  0.40116329  1
  O2-  O266  1  0.41833478  0.04869527  0.73642599  1
  O2-  O267  1  0.42124355  0.54820266  0.07085561  1
  O2-  O268  1  0.41471949  0.54273700  0.39262072  1
  O2-  O269  1  0.41620921  0.53702729  0.73103388  1
  O2-  O270  1  0.91402745  0.04018760  0.06370492  1
  O2-  O271  1  0.91471720  0.04121949  0.39900171  1
  O2-  O272  1  0.91966039  0.04961036  0.72454280  1
  O2-  O273  1  0.91595435  0.54981943  0.06256748  1
  O2-  O274  1  0.91391823  0.53426734  0.40519742  1
  O2-  O275  1  0.91298269  0.54162513  0.73145737  1
  O2-  O276  1  0.29387206  0.16530483  0.06041546  1
  O2-  O277  1  0.28083147  0.16376869  0.40063162  1
  O2-  O278  1  0.28360310  0.16745354  0.73403611  1
  O2-  O279  1  0.28857209  0.66788961  0.07349928  1
  O2-  O280  1  0.29154223  0.66213246  0.39564682  1
  O2-  O281  1  0.29211096  0.67073972  0.72879516  1
  O2-  O282  1  0.80354088  0.16599679  0.06150440  1
  O2-  O283  1  0.80118371  0.16522517  0.39638723  1
  O2-  O284  1  0.79969705  0.16717269  0.72930854  1
  O2-  O285  1  0.79388115  0.66443291  0.06369762  1
  O2-  O286  1  0.79314342  0.66837610  0.40248323  1
  O2-  O287  1  0.79447912  0.66199232  0.73053745  1
