# generated using pymatgen
data_Ca2Al2SiO7
_symmetry_space_group_name_H-M   'P 1'
_cell_length_a   15.46288060
_cell_length_b   15.46406965
_cell_length_c   15.28702246
_cell_angle_alpha   89.99774771
_cell_angle_beta   89.99011589
_cell_angle_gamma   90.01010318
_symmetry_Int_Tables_number   1
_chemical_formula_structural   Ca2Al2SiO7
_chemical_formula_sum   'Ca48 Al48 Si24 O168'
_cell_volume   3655.41836798
_cell_formula_units_Z   24
loop_
 _symmetry_equiv_pos_site_id
 _symmetry_equiv_pos_as_xyz
  1  'x, y, z'
loop_
 _atom_type_symbol
 _atom_type_oxidation_number
  Ca2+  2.0
  Al0+  0.0
  Si0+  0.0
  O2-  -2.0
loop_
 _atom_site_type_symbol
 _atom_site_label
 _atom_site_symmetry_multiplicity
 _atom_site_fract_x
 _atom_site_fract_y
 _atom_site_fract_z
 _atom_site_occupancy
  Ca2+  Ca0  1  0.17017081  0.08512279  0.17659144  1
  Ca2+  Ca1  1  0.17757808  0.09508101  0.49852793  1
  Ca2+  Ca2  1  0.17507258  0.08645314  0.83517011  1
  Ca2+  Ca3  1  0.17042474  0.57154836  0.16639818  1
  Ca2+  Ca4  1  0.17203990  0.56951403  0.50942062  1
  Ca2+  Ca5  1  0.17450714  0.57411341  0.83832247  1
  Ca2+  Ca6  1  0.67912245  0.09263720  0.16607387  1
  Ca2+  Ca7  1  0.66891864  0.08078878  0.50692594  1
  Ca2+  Ca8  1  0.66456249  0.08141888  0.84045339  1
  Ca2+  Ca9  1  0.66484901  0.58469531  0.16438055  1
  Ca2+  Ca10  1  0.67065937  0.58141911  0.50480631  1
  Ca2+  Ca11  1  0.67518484  0.57689399  0.84362825  1
  Ca2+  Ca12  1  0.07723523  0.33502054  0.16645679  1
  Ca2+  Ca13  1  0.07742844  0.33632375  0.49267785  1
  Ca2+  Ca14  1  0.07418321  0.34807530  0.83264436  1
  Ca2+  Ca15  1  0.07752541  0.83171687  0.15703157  1
  Ca2+  Ca16  1  0.08360546  0.82803244  0.49664332  1
  Ca2+  Ca17  1  0.07578000  0.83157298  0.83373880  1
  Ca2+  Ca18  1  0.57852473  0.33178542  0.15840822  1
  Ca2+  Ca19  1  0.57470060  0.32726618  0.49545913  1
  Ca2+  Ca20  1  0.59381018  0.32199417  0.83253500  1
  Ca2+  Ca21  1  0.57956773  0.82134530  0.15850044  1
  Ca2+  Ca22  1  0.58672367  0.82744552  0.49666378  1
  Ca2+  Ca23  1  0.58282884  0.82862363  0.83329779  1
  Ca2+  Ca24  1  0.32377062  0.41143675  0.17257836  1
  Ca2+  Ca25  1  0.32223192  0.41157622  0.50496978  1
  Ca2+  Ca26  1  0.32187268  0.42223608  0.84182415  1
  Ca2+  Ca27  1  0.33778665  0.92121374  0.16816105  1
  Ca2+  Ca28  1  0.33609411  0.93032779  0.50443514  1
  Ca2+  Ca29  1  0.33801895  0.91979752  0.83644047  1
  Ca2+  Ca30  1  0.83021948  0.41297996  0.16357129  1
  Ca2+  Ca31  1  0.83855849  0.41881039  0.50572913  1
  Ca2+  Ca32  1  0.83474399  0.42312712  0.84297162  1
  Ca2+  Ca33  1  0.83962889  0.93043020  0.16892031  1
  Ca2+  Ca34  1  0.82686398  0.92597126  0.50438469  1
  Ca2+  Ca35  1  0.82662011  0.92249554  0.84136852  1
  Ca2+  Ca36  1  0.41805814  0.17231530  0.16374913  1
  Ca2+  Ca37  1  0.41701307  0.16643628  0.49545635  1
  Ca2+  Ca38  1  0.42870470  0.16444330  0.82717146  1
  Ca2+  Ca39  1  0.42516086  0.66874070  0.15457137  1
  Ca2+  Ca40  1  0.42235789  0.66277140  0.49318383  1
  Ca2+  Ca41  1  0.41389326  0.66428473  0.83338149  1
  Ca2+  Ca42  1  0.91593672  0.17386988  0.16013520  1
  Ca2+  Ca43  1  0.92191628  0.18028395  0.48936149  1
  Ca2+  Ca44  1  0.91230146  0.18080574  0.83075719  1
  Ca2+  Ca45  1  0.91546501  0.67296800  0.15640836  1
  Ca2+  Ca46  1  0.91476063  0.66489574  0.49816582  1
  Ca2+  Ca47  1  0.90641573  0.66749206  0.83098050  1
  Al0+  Al48  1  0.00103008  -0.00016961  -0.00275585  1
  Al0+  Al49  1  0.00029030  0.00013579  0.33841825  1
  Al0+  Al50  1  0.00001786  0.00043996  0.66371657  1
  Al0+  Al51  1  0.00141342  0.50086687  0.00567970  1
  Al0+  Al52  1  -0.00025179  0.50113636  0.33247502  1
  Al0+  Al53  1  -0.00028619  0.50300122  0.66896637  1
  Al0+  Al54  1  0.50020853  -0.00111683  -0.00447246  1
  Al0+  Al55  1  0.50131545  -0.00250882  0.33669690  1
  Al0+  Al56  1  0.50050851  -0.00196133  0.66912995  1
  Al0+  Al57  1  0.49996346  0.49995074  0.00028727  1
  Al0+  Al58  1  0.50148956  0.49897453  0.32564035  1
  Al0+  Al59  1  0.50062257  0.49917182  0.66840628  1
  Al0+  Al60  1  0.24996752  0.24876596  0.00331648  1
  Al0+  Al61  1  0.24948605  0.24964352  0.33432420  1
  Al0+  Al62  1  0.24911100  0.24888205  0.67828103  1
  Al0+  Al63  1  0.24912762  0.75120701  -0.00032530  1
  Al0+  Al64  1  0.25064293  0.74986084  0.33217866  1
  Al0+  Al65  1  0.24902858  0.75135052  0.66667615  1
  Al0+  Al66  1  0.75150859  0.25033531  -0.00081424  1
  Al0+  Al67  1  0.74999034  0.25169897  0.33700964  1
  Al0+  Al68  1  0.75120213  0.24937228  0.65440808  1
  Al0+  Al69  1  0.74821775  0.75142538  -0.00412574  1
  Al0+  Al70  1  0.75027956  0.74968484  0.32978548  1
  Al0+  Al71  1  0.74813943  0.75203162  0.67149934  1
  Al0+  Al72  1  0.82143415  0.07032229  0.01122845  1
  Al0+  Al73  1  0.32112663  0.57297334  0.01637234  1
  Al0+  Al74  1  0.81879273  0.57020893  0.67828183  1
  Al0+  Al75  1  0.92848078  0.82267260  0.98604608  1
  Al0+  Al76  1  0.57075162  0.67619022  0.98086212  1
  Al0+  Al77  1  0.56995705  0.17700452  0.65120742  1
  Al0+  Al78  1  0.67965134  0.93063287  0.68144678  1
  Al0+  Al79  1  0.32008918  0.06972621  0.68202015  1
  Al0+  Al80  1  0.42900112  0.31842346  0.32124359  1
  Al0+  Al81  1  0.32346821  0.57284746  0.68010904  1
  Al0+  Al82  1  0.32126952  0.06917532  0.34540970  1
  Al0+  Al83  1  0.17929220  0.42718510  0.01933165  1
  Al0+  Al84  1  0.17934004  0.43081411  0.34852700  1
  Al0+  Al85  1  0.67950067  0.42746119  0.01442653  1
  Al0+  Al86  1  0.93190824  0.32277097  0.65296239  1
  Al0+  Al87  1  0.57035969  0.18154818  0.98837868  1
  Al0+  Al88  1  0.42785920  0.82012897  0.98332672  1
  Al0+  Al89  1  0.82198073  0.07341374  0.34890589  1
  Al0+  Al90  1  0.07055463  0.17909345  0.31929611  1
  Al0+  Al91  1  0.17837832  0.42848999  0.68272262  1
  Al0+  Al92  1  0.92725828  0.32342694  0.31547835  1
  Al0+  Al93  1  0.93190872  0.32037780  0.98644240  1
  Al0+  Al94  1  0.82022089  0.57338920  0.01655929  1
  Al0+  Al95  1  0.57152515  0.67915221  0.32001113  1
  Si0+  Si96  1  0.93034499  0.82018201  0.32032197  1
  Si0+  Si97  1  0.67645723  0.42901396  0.34936001  1
  Si0+  Si98  1  0.07423846  0.17631609  0.98233966  1
  Si0+  Si99  1  0.07016895  0.68162785  0.65132707  1
  Si0+  Si100  1  0.07059270  0.67916981  0.98304876  1
  Si0+  Si101  1  0.32397869  0.57213263  0.34823463  1
  Si0+  Si102  1  0.67641525  0.92927318  0.01807687  1
  Si0+  Si103  1  0.82243356  0.07315277  0.68239164  1
  Si0+  Si104  1  0.92630090  0.82185824  0.64999397  1
  Si0+  Si105  1  0.42774973  0.82013715  0.64963388  1
  Si0+  Si106  1  0.07257840  0.67913950  0.31863874  1
  Si0+  Si107  1  0.17592680  0.92650199  0.68377541  1
  Si0+  Si108  1  0.57126349  0.67878130  0.65145931  1
  Si0+  Si109  1  0.17867375  0.93043631  0.01411383  1
  Si0+  Si110  1  0.67787740  0.42507727  0.68016080  1
  Si0+  Si111  1  0.17681521  0.92494356  0.35035341  1
  Si0+  Si112  1  0.42670091  0.32109992  0.65300270  1
  Si0+  Si113  1  0.81908871  0.57220012  0.34754594  1
  Si0+  Si114  1  0.42516924  0.32176073  0.98279150  1
  Si0+  Si115  1  0.68133271  0.92669114  0.34882160  1
  Si0+  Si116  1  0.57223032  0.17502374  0.31787750  1
  Si0+  Si117  1  0.32289592  0.06935353  0.01554707  1
  Si0+  Si118  1  0.42758258  0.82265633  0.31789448  1
  Si0+  Si119  1  0.07367075  0.17582579  0.65053142  1
  O2-  O120  1  0.24966194  0.00052374  0.05719787  1
  O2-  O121  1  0.24603839  -0.00590792  0.39260373  1
  O2-  O122  1  0.24302226  -0.00350309  0.72780823  1
  O2-  O123  1  0.25527348  0.49627291  0.06774032  1
  O2-  O124  1  0.25529447  0.50511425  0.39449104  1
  O2-  O125  1  0.25470855  0.49783524  0.72934024  1
  O2-  O126  1  0.74762805  -0.00425113  0.06131880  1
  O2-  O127  1  0.74460848  -0.00002884  0.39400520  1
  O2-  O128  1  0.75224994  0.00724110  0.72778459  1
  O2-  O129  1  0.74762044  0.50243537  0.06708320  1
  O2-  O130  1  0.75054084  0.49865797  0.38974500  1
  O2-  O131  1  0.74718128  0.49301355  0.72352240  1
  O2-  O132  1  -0.00394832  0.24700507  0.26762549  1
  O2-  O133  1  0.00650189  0.24672369  0.60795273  1
  O2-  O134  1  0.00843737  0.24768107  0.93870070  1
  O2-  O135  1  0.00469256  0.75352558  0.27751804  1
  O2-  O136  1  -0.00169629  0.75188870  0.60736756  1
  O2-  O137  1  -0.00294875  0.74278248  0.93801780  1
  O2-  O138  1  0.50340461  0.24326295  0.27426289  1
  O2-  O139  1  0.49453507  0.25218009  0.60667688  1
  O2-  O140  1  0.49738638  0.25666152  0.93892832  1
  O2-  O141  1  0.49305164  0.75079932  0.27547875  1
  O2-  O142  1  0.49568874  0.74530322  0.60816684  1
  O2-  O143  1  0.49621174  0.74616166  0.93114495  1
  O2-  O144  1  0.07364277  0.17237578  0.08768594  1
  O2-  O145  1  0.07102651  0.18231269  0.43314522  1
  O2-  O146  1  0.07073139  0.16934999  0.75566772  1
  O2-  O147  1  0.07125833  0.68450893  0.08916900  1
  O2-  O148  1  0.07187169  0.68007921  0.42417471  1
  O2-  O149  1  0.07025594  0.68422373  0.75584251  1
  O2-  O150  1  0.56765281  0.18085647  0.10171532  1
  O2-  O151  1  0.56995457  0.17513333  0.42375925  1
  O2-  O152  1  0.57082412  0.17778292  0.76423044  1
  O2-  O153  1  0.57148605  0.68214677  0.09486815  1
  O2-  O154  1  0.57284979  0.68143946  0.43406082  1
  O2-  O155  1  0.57360964  0.68093524  0.75543304  1
  O2-  O156  1  0.17914628  0.43265396  0.23621220  1
  O2-  O157  1  0.17872860  0.42985464  0.56864103  1
  O2-  O158  1  0.17921999  0.42946827  0.90581950  1
  O2-  O159  1  0.17574363  0.92214086  0.24487958  1
  O2-  O160  1  0.17735707  0.92299373  0.57817020  1
  O2-  O161  1  0.17717157  0.93199907  0.90903958  1
  O2-  O162  1  0.67437887  0.42834227  0.24497961  1
  O2-  O163  1  0.67546993  0.42868779  0.57405743  1
  O2-  O164  1  0.68497899  0.42466942  0.90047132  1
  O2-  O165  1  0.68377450  0.92361883  0.24389007  1
  O2-  O166  1  0.68273187  0.92806778  0.56771499  1
  O2-  O167  1  0.67613667  0.93208011  0.91226610  1
  O2-  O168  1  0.42310910  0.31632860  0.08863489  1
  O2-  O169  1  0.43053863  0.31828715  0.43482359  1
  O2-  O170  1  0.42828140  0.32011844  0.75819854  1
  O2-  O171  1  0.43044433  0.82282882  0.09738952  1
  O2-  O172  1  0.42756033  0.82365716  0.42374674  1
  O2-  O173  1  0.42750459  0.82111808  0.75407821  1
  O2-  O174  1  0.93062970  0.31740478  0.09903087  1
  O2-  O175  1  0.93035824  0.32569280  0.42951918  1
  O2-  O176  1  0.93050610  0.32262003  0.76594784  1
  O2-  O177  1  0.93435056  0.82531570  0.09971129  1
  O2-  O178  1  0.92924234  0.81675857  0.42588444  1
  O2-  O179  1  0.92729484  0.82247257  0.75465145  1
  O2-  O180  1  0.32182039  0.06565672  0.23228489  1
  O2-  O181  1  0.31962646  0.06863706  0.56865752  1
  O2-  O182  1  0.32230791  0.06824299  0.91047183  1
  O2-  O183  1  0.32123555  0.57327769  0.24334901  1
  O2-  O184  1  0.32125097  0.57420912  0.56587246  1
  O2-  O185  1  0.31546212  0.57295396  0.90278209  1
  O2-  O186  1  0.82208390  0.07083227  0.23573433  1
  O2-  O187  1  0.82154686  0.06925508  0.57660037  1
  O2-  O188  1  0.81995694  0.06913970  0.89815882  1
  O2-  O189  1  0.81807615  0.57759915  0.24343938  1
  O2-  O190  1  0.81714420  0.57202746  0.56426850  1
  O2-  O191  1  0.81989637  0.57084762  0.90276952  1
  O2-  O192  1  0.04852417  0.07640681  0.27099939  1
  O2-  O193  1  0.04963678  0.08242652  0.60146719  1
  O2-  O194  1  0.04810806  0.08390957  0.93429016  1
  O2-  O195  1  0.04061931  0.59017534  0.27010228  1
  O2-  O196  1  0.04108744  0.59102248  0.60248464  1
  O2-  O197  1  0.05052404  0.58385986  0.94018659  1
  O2-  O198  1  0.54942990  0.08014297  0.27366897  1
  O2-  O199  1  0.53832008  0.07975931  0.59839636  1
  O2-  O200  1  0.53827305  0.08573289  0.93362880  1
  O2-  O201  1  0.54567348  0.58297475  0.26457074  1
  O2-  O202  1  0.54895086  0.58484625  0.60424540  1
  O2-  O203  1  0.54788765  0.57575513  0.92978557  1
  O2-  O204  1  0.16849325  0.20710898  0.26633255  1
  O2-  O205  1  0.16946855  0.20107957  0.60895798  1
  O2-  O206  1  0.16954170  0.19935402  0.93806846  1
  O2-  O207  1  0.16490705  0.70434163  0.27076737  1
  O2-  O208  1  0.16075988  0.71133385  0.60137539  1
  O2-  O209  1  0.16083729  0.71230436  0.93527379  1
  O2-  O210  1  0.66612864  0.20264721  0.27492882  1
  O2-  O211  1  0.66539307  0.20609629  0.59358635  1
  O2-  O212  1  0.66660310  0.21035711  0.93267388  1
  O2-  O213  1  0.66613608  0.71390731  0.26466485  1
  O2-  O214  1  0.66134939  0.71329833  0.60306713  1
  O2-  O215  1  0.66811897  0.70845565  0.92793095  1
  O2-  O216  1  0.08318340  0.46011129  0.07322316  1
  O2-  O217  1  0.08286263  0.46551887  0.40162543  1
  O2-  O218  1  0.08316081  0.46607072  0.73537967  1
  O2-  O219  1  0.08776123  0.95829230  0.06330938  1
  O2-  O220  1  0.08386264  0.94775750  0.39906255  1
  O2-  O221  1  0.08077766  0.95033096  0.72790253  1
  O2-  O222  1  0.57875479  0.44975513  0.06506431  1
  O2-  O223  1  0.58581393  0.46037188  0.39786262  1
  O2-  O224  1  0.58476308  0.44861065  0.72714563  1
  O2-  O225  1  0.58346626  0.95707355  0.06405656  1
  O2-  O226  1  0.58607962  0.94616701  0.39492750  1
  O2-  O227  1  0.58303370  0.95754202  0.73559064  1
  O2-  O228  1  0.20559159  0.32699716  0.07058015  1
  O2-  O229  1  0.21077069  0.33436154  0.40176138  1
  O2-  O230  1  0.19911378  0.33004172  0.73773371  1
  O2-  O231  1  0.20474411  0.83908644  0.06284240  1
  O2-  O232  1  0.20306248  0.83125355  0.39776022  1
  O2-  O233  1  0.20256441  0.83442708  0.73155679  1
  O2-  O234  1  0.71131013  0.33099709  0.06944951  1
  O2-  O235  1  0.70104041  0.33727827  0.39876212  1
  O2-  O236  1  0.70423115  0.33008275  0.72176968  1
  O2-  O237  1  0.70034262  0.83477492  0.06114789  1
  O2-  O238  1  0.71338198  0.83540718  0.39762042  1
  O2-  O239  1  0.71267062  0.83640733  0.73754042  1
  O2-  O240  1  0.45883519  0.41372655  0.26498358  1
  O2-  O241  1  0.45202833  0.41481758  0.60565699  1
  O2-  O242  1  0.44469463  0.41725243  0.94023239  1
  O2-  O243  1  0.45671842  0.91473785  0.27060182  1
  O2-  O244  1  0.46084828  0.91003953  0.60157661  1
  O2-  O245  1  0.45896963  0.91736016  0.92896539  1
  O2-  O246  1  0.95748783  0.42203940  0.26432321  1
  O2-  O247  1  0.96182356  0.42063425  0.59962718  1
  O2-  O248  1  0.96169117  0.41924884  0.93579733  1
  O2-  O249  1  0.95544410  0.91333856  0.27525250  1
  O2-  O250  1  0.95414645  0.91352752  0.60135063  1
  O2-  O251  1  0.96560605  0.91578126  0.92862024  1
  O2-  O252  1  0.33412869  0.28610392  0.26617497  1
  O2-  O253  1  0.33183159  0.29371331  0.61004682  1
  O2-  O254  1  0.33297123  0.29126963  0.93624533  1
  O2-  O255  1  0.33234381  0.80239492  0.27235196  1
  O2-  O256  1  0.33414569  0.79809120  0.60221572  1
  O2-  O257  1  0.32714052  0.79751851  0.93174990  1
  O2-  O258  1  0.82604718  0.29772679  0.26776051  1
  O2-  O259  1  0.83640935  0.29403670  0.59467767  1
  O2-  O260  1  0.83674946  0.28711288  0.93148830  1
  O2-  O261  1  0.84095362  0.78924971  0.27130088  1
  O2-  O262  1  0.83511475  0.79148041  0.60255915  1
  O2-  O263  1  0.83078265  0.79868209  0.93237556  1
  O2-  O264  1  0.41341386  0.03830045  0.06304300  1
  O2-  O265  1  0.41745370  0.03768469  0.40172535  1
  O2-  O266  1  0.41507719  0.03475547  0.73521562  1
  O2-  O267  1  0.42270105  0.55255811  0.06433556  1
  O2-  O268  1  0.41879085  0.54641400  0.39172424  1
  O2-  O269  1  0.42360480  0.55009061  0.73144051  1
  O2-  O270  1  0.91818029  0.03794847  0.06484631  1
  O2-  O271  1  0.91684895  0.03934756  0.40496479  1
  O2-  O272  1  0.91621510  0.04578947  0.72638754  1
  O2-  O273  1  0.91940847  0.54819208  0.06858993  1
  O2-  O274  1  0.91194320  0.54699639  0.39468156  1
  O2-  O275  1  0.91628891  0.54638338  0.73210432  1
  O2-  O276  1  0.29705736  0.16132020  0.06280664  1
  O2-  O277  1  0.28988124  0.16449224  0.40123036  1
  O2-  O278  1  0.29264577  0.16427927  0.74080468  1
  O2-  O279  1  0.28820604  0.67090600  0.06906876  1
  O2-  O280  1  0.30040144  0.66743908  0.39339452  1
  O2-  O281  1  0.29164752  0.67089050  0.73140238  1
  O2-  O282  1  0.78882619  0.16493535  0.06666006  1
  O2-  O283  1  0.79276422  0.17006727  0.40370453  1
  O2-  O284  1  0.79812680  0.16896511  0.72301226  1
  O2-  O285  1  0.79351321  0.67419439  0.06636167  1
  O2-  O286  1  0.78912786  0.66320102  0.39706956  1
  O2-  O287  1  0.78745768  0.66600986  0.73230904  1
