# generated using pymatgen
data_Ca2Al2SiO7
_symmetry_space_group_name_H-M   'P 1'
_cell_length_a   15.46167990
_cell_length_b   15.46353279
_cell_length_c   15.28668724
_cell_angle_alpha   90.01474098
_cell_angle_beta   89.98771594
_cell_angle_gamma   90.01039353
_symmetry_Int_Tables_number   1
_chemical_formula_structural   Ca2Al2SiO7
_chemical_formula_sum   'Ca48 Al48 Si24 O168'
_cell_volume   3654.92732685
_cell_formula_units_Z   24
loop_
 _symmetry_equiv_pos_site_id
 _symmetry_equiv_pos_as_xyz
  1  'x, y, z'
loop_
 _atom_type_symbol
 _atom_type_oxidation_number
  Ca2+  2.0
  Al0+  0.0
  Si0+  0.0
  O2-  -2.0
loop_
 _atom_site_type_symbol
 _atom_site_label
 _atom_site_symmetry_multiplicity
 _atom_site_fract_x
 _atom_site_fract_y
 _atom_site_fract_z
 _atom_site_occupancy
  Ca2+  Ca0  1  0.16738134  0.07911517  0.17304294  1
  Ca2+  Ca1  1  0.16922259  0.08380843  0.50756809  1
  Ca2+  Ca2  1  0.17214798  0.09313700  0.83000971  1
  Ca2+  Ca3  1  0.17704860  0.57721473  0.17114800  1
  Ca2+  Ca4  1  0.16470498  0.56781577  0.50396703  1
  Ca2+  Ca5  1  0.17435516  0.57447732  0.83552711  1
  Ca2+  Ca6  1  0.66689496  0.08604604  0.16144804  1
  Ca2+  Ca7  1  0.67485180  0.07767640  0.51192700  1
  Ca2+  Ca8  1  0.67079704  0.07938268  0.84029700  1
  Ca2+  Ca9  1  0.66895699  0.57718389  0.17332147  1
  Ca2+  Ca10  1  0.67772243  0.57162817  0.50272891  1
  Ca2+  Ca11  1  0.66632050  0.57849764  0.83150861  1
  Ca2+  Ca12  1  0.07086209  0.34478113  0.16739916  1
  Ca2+  Ca13  1  0.07600788  0.33417841  0.49949697  1
  Ca2+  Ca14  1  0.07266994  0.33061167  0.82266512  1
  Ca2+  Ca15  1  0.07824512  0.83686192  0.16774324  1
  Ca2+  Ca16  1  0.07705278  0.83148495  0.49019636  1
  Ca2+  Ca17  1  0.08326975  0.82763372  0.82758387  1
  Ca2+  Ca18  1  0.57626077  0.33411896  0.15899683  1
  Ca2+  Ca19  1  0.57573885  0.34555456  0.49742999  1
  Ca2+  Ca20  1  0.57373290  0.33231699  0.82881667  1
  Ca2+  Ca21  1  0.58721300  0.82436622  0.15652166  1
  Ca2+  Ca22  1  0.58131596  0.83751062  0.50077484  1
  Ca2+  Ca23  1  0.58935980  0.83040562  0.82759536  1
  Ca2+  Ca24  1  0.33666201  0.41758343  0.17268311  1
  Ca2+  Ca25  1  0.32326494  0.40304831  0.50463662  1
  Ca2+  Ca26  1  0.32935450  0.40897627  0.83693573  1
  Ca2+  Ca27  1  0.32603485  0.91949901  0.17357992  1
  Ca2+  Ca28  1  0.32912267  0.92256835  0.50913787  1
  Ca2+  Ca29  1  0.34001012  0.92238271  0.83147783  1
  Ca2+  Ca30  1  0.82758324  0.41745579  0.17810091  1
  Ca2+  Ca31  1  0.83106237  0.41991064  0.50934261  1
  Ca2+  Ca32  1  0.83287108  0.41325359  0.83374612  1
  Ca2+  Ca33  1  0.83090194  0.92269637  0.16901100  1
  Ca2+  Ca34  1  0.83065821  0.92170602  0.50933401  1
  Ca2+  Ca35  1  0.82506593  0.93079491  0.83730462  1
  Ca2+  Ca36  1  0.42340179  0.17946996  0.16058272  1
  Ca2+  Ca37  1  0.41626664  0.17428958  0.50010323  1
  Ca2+  Ca38  1  0.42123757  0.17101589  0.82599256  1
  Ca2+  Ca39  1  0.42441328  0.66388221  0.15579445  1
  Ca2+  Ca40  1  0.41650567  0.67352569  0.49979314  1
  Ca2+  Ca41  1  0.42063683  0.67021226  0.83043743  1
  Ca2+  Ca42  1  0.91351724  0.17932398  0.15991225  1
  Ca2+  Ca43  1  0.91432673  0.17636924  0.49970558  1
  Ca2+  Ca44  1  0.91602659  0.17223901  0.82685668  1
  Ca2+  Ca45  1  0.91004630  0.67166788  0.16725351  1
  Ca2+  Ca46  1  0.90738807  0.66982583  0.49343402  1
  Ca2+  Ca47  1  0.91448932  0.66619175  0.82612613  1
  Al0+  Al48  1  -0.00116843  0.00042875  0.00325087  1
  Al0+  Al49  1  -0.00004385  -0.00118613  0.33249859  1
  Al0+  Al50  1  0.00083828  -0.00234452  0.66779746  1
  Al0+  Al51  1  0.00077901  0.50208958  -0.00335697  1
  Al0+  Al52  1  0.00369934  0.50274500  0.33482867  1
  Al0+  Al53  1  0.00232065  0.49956510  0.67166694  1
  Al0+  Al54  1  0.49834849  -0.00033444  0.00442506  1
  Al0+  Al55  1  0.49991682  0.00080137  0.33125295  1
  Al0+  Al56  1  0.49752597  -0.00140794  0.66844227  1
  Al0+  Al57  1  0.49956114  0.50280740  -0.00559674  1
  Al0+  Al58  1  0.50095107  0.50304435  0.33377548  1
  Al0+  Al59  1  0.50099297  0.50280413  0.66366748  1
  Al0+  Al60  1  0.24565508  0.24931940  0.00271050  1
  Al0+  Al61  1  0.25243797  0.24987749  0.33079681  1
  Al0+  Al62  1  0.24965435  0.24785555  0.66863533  1
  Al0+  Al63  1  0.24952880  0.74741944  0.00455258  1
  Al0+  Al64  1  0.24913457  0.75149263  0.33629856  1
  Al0+  Al65  1  0.25053229  0.74892589  0.66104383  1
  Al0+  Al66  1  0.74909194  0.25018341  -0.00314754  1
  Al0+  Al67  1  0.74851836  0.24811968  0.33374156  1
  Al0+  Al68  1  0.74896817  0.25053427  0.67043611  1
  Al0+  Al69  1  0.74982086  0.75030815  -0.00270664  1
  Al0+  Al70  1  0.74963890  0.75092428  0.33149383  1
  Al0+  Al71  1  0.75044433  0.74760385  0.67101305  1
  Al0+  Al72  1  0.67793054  0.92904459  0.68064272  1
  Al0+  Al73  1  0.92862896  0.82081263  0.31898060  1
  Al0+  Al74  1  0.67827918  0.42650225  0.34658948  1
  Al0+  Al75  1  0.82219937  0.56863884  0.68286572  1
  Al0+  Al76  1  0.92904772  0.32233096  0.32116247  1
  Al0+  Al77  1  0.43019220  0.32149797  0.65278604  1
  Al0+  Al78  1  0.18162049  0.42770280  0.68113774  1
  Al0+  Al79  1  0.82123263  0.07298909  0.01802476  1
  Al0+  Al80  1  0.42705254  0.32173153  0.98491294  1
  Al0+  Al81  1  0.56951320  0.17787545  0.98398862  1
  Al0+  Al82  1  0.07098593  0.17731369  0.65192256  1
  Al0+  Al83  1  0.43091933  0.32123225  0.31987848  1
  Al0+  Al84  1  0.31899951  0.06977125  0.68018929  1
  Al0+  Al85  1  0.17817229  0.92986638  0.34792695  1
  Al0+  Al86  1  0.42966964  0.82112571  0.65255245  1
  Al0+  Al87  1  0.92749601  0.32146899  0.65127484  1
  Al0+  Al88  1  0.18145118  0.42885493  0.34687752  1
  Al0+  Al89  1  0.82130489  0.57131568  0.34528342  1
  Al0+  Al90  1  0.82339650  0.07196217  0.68125878  1
  Al0+  Al91  1  0.67614550  0.42813390  0.68401751  1
  Al0+  Al92  1  0.32120046  0.56902369  0.01255703  1
  Al0+  Al93  1  0.92955680  0.32266026  0.98695081  1
  Al0+  Al94  1  0.67827964  0.92820363  0.01689907  1
  Al0+  Al95  1  0.57247913  0.68017614  0.98448350  1
  Si0+  Si96  1  0.07189686  0.17838726  0.31670096  1
  Si0+  Si97  1  0.57133896  0.17676148  0.65065602  1
  Si0+  Si98  1  0.07039485  0.17462541  0.98466820  1
  Si0+  Si99  1  0.31999569  0.07245849  0.01722603  1
  Si0+  Si100  1  0.67863314  0.92863386  0.34721064  1
  Si0+  Si101  1  0.32417206  0.57354260  0.35123395  1
  Si0+  Si102  1  0.42533537  0.82101859  0.98591448  1
  Si0+  Si103  1  0.07211746  0.68074098  0.98447568  1
  Si0+  Si104  1  0.42737225  0.82277351  0.31742389  1
  Si0+  Si105  1  0.17679851  0.42784312  0.01761299  1
  Si0+  Si106  1  0.32151436  0.57442001  0.68155729  1
  Si0+  Si107  1  0.82324792  0.57153548  0.01511337  1
  Si0+  Si108  1  0.56917894  0.68278641  0.31826958  1
  Si0+  Si109  1  0.92956454  0.81818346  0.65301468  1
  Si0+  Si110  1  0.17805963  0.92484227  0.68338209  1
  Si0+  Si111  1  0.67941492  0.43090224  0.01333026  1
  Si0+  Si112  1  0.32241665  0.07079069  0.35007703  1
  Si0+  Si113  1  0.92972909  0.82144457  0.98366617  1
  Si0+  Si114  1  0.82114145  0.07080392  0.34812380  1
  Si0+  Si115  1  0.57289545  0.17421713  0.31648511  1
  Si0+  Si116  1  0.07469278  0.67855047  0.31448715  1
  Si0+  Si117  1  0.07254789  0.67837513  0.65072200  1
  Si0+  Si118  1  0.17912526  0.92704985  0.01473375  1
  Si0+  Si119  1  0.57465064  0.67900130  0.64567051  1
  O2-  O120  1  0.24888975  -0.00045887  0.05697568  1
  O2-  O121  1  0.25286102  0.00334898  0.39466222  1
  O2-  O122  1  0.24447380  -0.00528705  0.72843029  1
  O2-  O123  1  0.25187602  0.49017991  0.06090773  1
  O2-  O124  1  0.25808958  0.50212546  0.39404560  1
  O2-  O125  1  0.25999307  0.49982510  0.72630391  1
  O2-  O126  1  0.74854443  0.00110282  0.06859016  1
  O2-  O127  1  0.74818494  0.00066818  0.38891211  1
  O2-  O128  1  0.74688790  0.00374545  0.72994825  1
  O2-  O129  1  0.75354456  0.49911488  0.05637373  1
  O2-  O130  1  0.75826335  0.49132528  0.39463141  1
  O2-  O131  1  0.75239459  0.49584204  0.73446342  1
  O2-  O132  1  0.00454644  0.24836891  0.27239116  1
  O2-  O133  1  -0.00255430  0.24703057  0.60134344  1
  O2-  O134  1  0.00285197  0.24518187  0.94324211  1
  O2-  O135  1  0.00326042  0.74566238  0.27109982  1
  O2-  O136  1  -0.00054242  0.74722514  0.60886889  1
  O2-  O137  1  0.00051034  0.75038358  0.94106673  1
  O2-  O138  1  0.50865086  0.24886915  0.27500435  1
  O2-  O139  1  0.50847210  0.25039148  0.60523492  1
  O2-  O140  1  0.49607060  0.24796473  0.93373182  1
  O2-  O141  1  0.49673906  0.75172749  0.27392813  1
  O2-  O142  1  0.50578775  0.74917733  0.60319818  1
  O2-  O143  1  0.49916271  0.75848248  0.94151263  1
  O2-  O144  1  0.07135849  0.17162633  0.09044130  1
  O2-  O145  1  0.07111650  0.17672573  0.42177998  1
  O2-  O146  1  0.07104719  0.18004511  0.76583575  1
  O2-  O147  1  0.07281301  0.68176751  0.08935145  1
  O2-  O148  1  0.07784257  0.68092636  0.41985610  1
  O2-  O149  1  0.07513314  0.68241147  0.75629409  1
  O2-  O150  1  0.56762898  0.18145039  0.09818286  1
  O2-  O151  1  0.57023910  0.16441834  0.42121671  1
  O2-  O152  1  0.56638927  0.17386337  0.75589947  1
  O2-  O153  1  0.57123840  0.67961578  0.09838702  1
  O2-  O154  1  0.56834429  0.68607964  0.42292830  1
  O2-  O155  1  0.57400032  0.67952436  0.75129575  1
  O2-  O156  1  0.18181331  0.43278660  0.23352267  1
  O2-  O157  1  0.18117708  0.42968314  0.56781312  1
  O2-  O158  1  0.17551384  0.43068879  0.91226530  1
  O2-  O159  1  0.18056479  0.93107903  0.23398853  1
  O2-  O160  1  0.17939689  0.92339895  0.57790497  1
  O2-  O161  1  0.17939876  0.92329021  0.91001118  1
  O2-  O162  1  0.67630401  0.43068545  0.23219653  1
  O2-  O163  1  0.67528189  0.43288124  0.57043514  1
  O2-  O164  1  0.67897200  0.43325843  0.90876563  1
  O2-  O165  1  0.67896294  0.92709312  0.24246529  1
  O2-  O166  1  0.68065004  0.92975648  0.56588120  1
  O2-  O167  1  0.68172265  0.92679700  0.90397383  1
  O2-  O168  1  0.43006512  0.32187197  0.09905338  1
  O2-  O169  1  0.42927689  0.31782990  0.43271297  1
  O2-  O170  1  0.42877081  0.31839979  0.76560617  1
  O2-  O171  1  0.42258478  0.81716174  0.09202033  1
  O2-  O172  1  0.42876817  0.82346483  0.42228046  1
  O2-  O173  1  0.42597615  0.81729668  0.76548669  1
  O2-  O174  1  0.93147701  0.32540371  0.10079661  1
  O2-  O175  1  0.92873259  0.32050502  0.43339062  1
  O2-  O176  1  0.93161177  0.32225069  0.76489038  1
  O2-  O177  1  0.93108007  0.82042484  0.08900348  1
  O2-  O178  1  0.92854486  0.82022872  0.43217463  1
  O2-  O179  1  0.93285377  0.81697202  0.75833619  1
  O2-  O180  1  0.32181835  0.06790446  0.24404201  1
  O2-  O181  1  0.31862160  0.06793773  0.56698276  1
  O2-  O182  1  0.31943144  0.07262899  0.91241367  1
  O2-  O183  1  0.32418656  0.57499728  0.24530593  1
  O2-  O184  1  0.31654816  0.57866039  0.57603452  1
  O2-  O185  1  0.31594334  0.57523925  0.90014916  1
  O2-  O186  1  0.82166345  0.07058371  0.24322133  1
  O2-  O187  1  0.82332419  0.06711033  0.56674863  1
  O2-  O188  1  0.82456548  0.06911974  0.90524108  1
  O2-  O189  1  0.81578324  0.57384803  0.23114334  1
  O2-  O190  1  0.82062738  0.57224278  0.56934278  1
  O2-  O191  1  0.82474510  0.57203686  0.91054231  1
  O2-  O192  1  0.04512601  0.08490397  0.27018138  1
  O2-  O193  1  0.04866183  0.07552149  0.60156747  1
  O2-  O194  1  0.04642263  0.08104139  0.93751624  1
  O2-  O195  1  0.05298302  0.58495054  0.26746305  1
  O2-  O196  1  0.04691519  0.58565944  0.60568630  1
  O2-  O197  1  0.04548888  0.58963551  0.93558214  1
  O2-  O198  1  0.54143652  0.08372466  0.26506211  1
  O2-  O199  1  0.54022822  0.08501291  0.60321747  1
  O2-  O200  1  0.54163252  0.07730815  0.93521704  1
  O2-  O201  1  0.54276198  0.59097191  0.26997485  1
  O2-  O202  1  0.54677750  0.58718499  0.59783193  1
  O2-  O203  1  0.53820332  0.58696942  0.92767700  1
  O2-  O204  1  0.16653870  0.20097461  0.27067550  1
  O2-  O205  1  0.16891756  0.20666469  0.59901661  1
  O2-  O206  1  0.16463645  0.19938723  0.93984544  1
  O2-  O207  1  0.16739364  0.70870875  0.26712814  1
  O2-  O208  1  0.16189935  0.70774830  0.59986021  1
  O2-  O209  1  0.16284924  0.71150355  0.93629195  1
  O2-  O210  1  0.66775034  0.19455690  0.27117651  1
  O2-  O211  1  0.66740915  0.19565767  0.60767277  1
  O2-  O212  1  0.66783378  0.20499800  0.93225479  1
  O2-  O213  1  0.65950359  0.71278077  0.26912098  1
  O2-  O214  1  0.66821023  0.70606649  0.60028667  1
  O2-  O215  1  0.66903997  0.70899137  0.92938703  1
  O2-  O216  1  0.08626741  0.46429287  0.06424154  1
  O2-  O217  1  0.08646294  0.46213965  0.40215987  1
  O2-  O218  1  0.08828754  0.46324857  0.73769548  1
  O2-  O219  1  0.08738132  0.95440584  0.06280205  1
  O2-  O220  1  0.08091543  0.95814071  0.40113609  1
  O2-  O221  1  0.08410752  0.94599384  0.72995805  1
  O2-  O222  1  0.58833265  0.46302799  0.05971988  1
  O2-  O223  1  0.58336423  0.46519014  0.40038873  1
  O2-  O224  1  0.57870302  0.46337424  0.73622326  1
  O2-  O225  1  0.57772662  0.95132947  0.06979442  1
  O2-  O226  1  0.58509694  0.95449643  0.39269134  1
  O2-  O227  1  0.57809216  0.95123098  0.73187172  1
  O2-  O228  1  0.19216914  0.33185489  0.06271151  1
  O2-  O229  1  0.21166782  0.33116186  0.39854720  1
  O2-  O230  1  0.21029540  0.33190701  0.73621429  1
  O2-  O231  1  0.20787761  0.83690800  0.06534614  1
  O2-  O232  1  0.20743793  0.83308528  0.40189122  1
  O2-  O233  1  0.20689191  0.83156191  0.72896200  1
  O2-  O234  1  0.70360593  0.33822164  0.05994053  1
  O2-  O235  1  0.69468010  0.32464032  0.39652503  1
  O2-  O236  1  0.69704062  0.32796720  0.73520392  1
  O2-  O237  1  0.71105264  0.82952765  0.06871908  1
  O2-  O238  1  0.70732860  0.83800007  0.39537036  1
  O2-  O239  1  0.70845654  0.83155934  0.73264417  1
  O2-  O240  1  0.45797287  0.42064879  0.26847007  1
  O2-  O241  1  0.45490675  0.42054751  0.59966894  1
  O2-  O242  1  0.45475465  0.41967867  0.93222526  1
  O2-  O243  1  0.45421904  0.91464158  0.26932415  1
  O2-  O244  1  0.45746521  0.91784297  0.59664118  1
  O2-  O245  1  0.44380684  0.91748015  0.94449163  1
  O2-  O246  1  0.96081665  0.41989810  0.26804737  1
  O2-  O247  1  0.96127468  0.42032697  0.60142912  1
  O2-  O248  1  0.96200665  0.41867632  0.93245809  1
  O2-  O249  1  0.96214642  0.91607773  0.26292781  1
  O2-  O250  1  0.95718152  0.90952045  0.60511002  1
  O2-  O251  1  0.95956954  0.91303159  0.93776616  1
  O2-  O252  1  0.33562655  0.28838091  0.26314847  1
  O2-  O253  1  0.33496066  0.28434752  0.60044441  1
  O2-  O254  1  0.32514365  0.29525256  0.93863858  1
  O2-  O255  1  0.33424830  0.79654524  0.27155655  1
  O2-  O256  1  0.33425294  0.78797380  0.59544476  1
  O2-  O257  1  0.33363358  0.78987810  0.93917467  1
  O2-  O258  1  0.83157926  0.29069775  0.26791844  1
  O2-  O259  1  0.82682504  0.29668449  0.60077441  1
  O2-  O260  1  0.83260745  0.29480572  0.93419596  1
  O2-  O261  1  0.83255930  0.78981246  0.26309089  1
  O2-  O262  1  0.83742616  0.79056667  0.60619843  1
  O2-  O263  1  0.83912303  0.79255749  0.93615805  1
  O2-  O264  1  0.41047897  0.04537597  0.06724600  1
  O2-  O265  1  0.41559932  0.04295751  0.39558091  1
  O2-  O266  1  0.41341098  0.03634873  0.73623943  1
  O2-  O267  1  0.41944201  0.54320468  0.06620198  1
  O2-  O268  1  0.41849433  0.55320132  0.39671083  1
  O2-  O269  1  0.41826924  0.55777531  0.72252549  1
  O2-  O270  1  0.91936276  0.04161384  0.07193425  1
  O2-  O271  1  0.91207611  0.04031176  0.39452915  1
  O2-  O272  1  0.91988951  0.03772890  0.73505143  1
  O2-  O273  1  0.91671231  0.54771900  0.06171980  1
  O2-  O274  1  0.92395399  0.55726090  0.39332559  1
  O2-  O275  1  0.92181890  0.54647633  0.73623816  1
  O2-  O276  1  0.28940351  0.16262905  0.06728456  1
  O2-  O277  1  0.29772403  0.16469520  0.39431821  1
  O2-  O278  1  0.28740238  0.16376833  0.73769095  1
  O2-  O279  1  0.28588768  0.66324473  0.07090459  1
  O2-  O280  1  0.29611842  0.66678474  0.39681555  1
  O2-  O281  1  0.28797322  0.66490896  0.72982603  1
  O2-  O282  1  0.79127988  0.17210508  0.06981186  1
  O2-  O283  1  0.79433566  0.16193443  0.39663831  1
  O2-  O284  1  0.79999966  0.17103901  0.73279628  1
  O2-  O285  1  0.79392504  0.66354482  0.06110935  1
  O2-  O286  1  0.78515684  0.66773873  0.39872365  1
  O2-  O287  1  0.79233208  0.66640473  0.73710951  1
