# generated using pymatgen
data_Ca2Al2SiO7
_symmetry_space_group_name_H-M   'P 1'
_cell_length_a   15.46298433
_cell_length_b   15.46173267
_cell_length_c   15.28605630
_cell_angle_alpha   90.00362309
_cell_angle_beta   89.99512899
_cell_angle_gamma   90.00879510
_symmetry_Int_Tables_number   1
_chemical_formula_structural   Ca2Al2SiO7
_chemical_formula_sum   'Ca48 Al48 Si24 O168'
_cell_volume   3654.65951978
_cell_formula_units_Z   24
loop_
 _symmetry_equiv_pos_site_id
 _symmetry_equiv_pos_as_xyz
  1  'x, y, z'
loop_
 _atom_type_symbol
 _atom_type_oxidation_number
  Ca2+  2.0
  Al0+  0.0
  Si0+  0.0
  O2-  -2.0
loop_
 _atom_site_type_symbol
 _atom_site_label
 _atom_site_symmetry_multiplicity
 _atom_site_fract_x
 _atom_site_fract_y
 _atom_site_fract_z
 _atom_site_occupancy
  Ca2+  Ca0  1  0.16664846  0.07634749  0.17229754  1
  Ca2+  Ca1  1  0.17417724  0.06846632  0.50818423  1
  Ca2+  Ca2  1  0.17093140  0.07799449  0.83603484  1
  Ca2+  Ca3  1  0.16565012  0.58355586  0.16750290  1
  Ca2+  Ca4  1  0.17314570  0.58718633  0.49924837  1
  Ca2+  Ca5  1  0.16361803  0.58004746  0.84225870  1
  Ca2+  Ca6  1  0.67495589  0.08787667  0.16925067  1
  Ca2+  Ca7  1  0.67451444  0.08927953  0.50357770  1
  Ca2+  Ca8  1  0.67532139  0.08801331  0.83805648  1
  Ca2+  Ca9  1  0.67468767  0.57680458  0.17355236  1
  Ca2+  Ca10  1  0.66425570  0.57265479  0.50370675  1
  Ca2+  Ca11  1  0.66935905  0.57212958  0.84373135  1
  Ca2+  Ca12  1  0.08365437  0.32568351  0.15454101  1
  Ca2+  Ca13  1  0.07972441  0.32770826  0.49541215  1
  Ca2+  Ca14  1  0.08555923  0.32805036  0.83336718  1
  Ca2+  Ca15  1  0.07368061  0.82952511  0.16195544  1
  Ca2+  Ca16  1  0.07658995  0.84306660  0.49649261  1
  Ca2+  Ca17  1  0.07341524  0.83218386  0.83246673  1
  Ca2+  Ca18  1  0.59623221  0.32713187  0.16514189  1
  Ca2+  Ca19  1  0.59454720  0.32503049  0.49664571  1
  Ca2+  Ca20  1  0.59670196  0.32512754  0.83082042  1
  Ca2+  Ca21  1  0.56872683  0.83697780  0.16154136  1
  Ca2+  Ca22  1  0.56861770  0.83942222  0.49498969  1
  Ca2+  Ca23  1  0.57182932  0.83753585  0.82927202  1
  Ca2+  Ca24  1  0.32610903  0.42198778  0.16990312  1
  Ca2+  Ca25  1  0.33932411  0.42557022  0.50044499  1
  Ca2+  Ca26  1  0.32697931  0.41807853  0.84095842  1
  Ca2+  Ca27  1  0.32644628  0.90937770  0.17375008  1
  Ca2+  Ca28  1  0.32495280  0.91281437  0.50740968  1
  Ca2+  Ca29  1  0.33439731  0.91618569  0.83326614  1
  Ca2+  Ca30  1  0.82756275  0.42945525  0.16958107  1
  Ca2+  Ca31  1  0.82319239  0.42177225  0.50111675  1
  Ca2+  Ca32  1  0.82438409  0.42252996  0.84215103  1
  Ca2+  Ca33  1  0.84353520  0.92486563  0.17098272  1
  Ca2+  Ca34  1  0.83965518  0.92537959  0.50487780  1
  Ca2+  Ca35  1  0.84202098  0.92347942  0.83671879  1
  Ca2+  Ca36  1  0.43346109  0.16678481  0.15948822  1
  Ca2+  Ca37  1  0.42990088  0.15993062  0.49692031  1
  Ca2+  Ca38  1  0.43026634  0.16511965  0.82503118  1
  Ca2+  Ca39  1  0.41008524  0.67493711  0.16513951  1
  Ca2+  Ca40  1  0.41356280  0.67555337  0.49299962  1
  Ca2+  Ca41  1  0.41453752  0.67864612  0.82985985  1
  Ca2+  Ca42  1  0.91834442  0.16355356  0.15948354  1
  Ca2+  Ca43  1  0.91171423  0.16275019  0.49565708  1
  Ca2+  Ca44  1  0.91848125  0.15908972  0.83335997  1
  Ca2+  Ca45  1  0.91341761  0.67393012  0.15829823  1
  Ca2+  Ca46  1  0.91474576  0.67979541  0.49193495  1
  Ca2+  Ca47  1  0.91412965  0.67414989  0.83116142  1
  Al0+  Al48  1  0.00251708  -0.00005576  -0.00331543  1
  Al0+  Al49  1  0.00137582  0.00000330  0.33750917  1
  Al0+  Al50  1  0.00254035  -0.00065334  0.67071637  1
  Al0+  Al51  1  -0.00001112  0.49877515  0.00486463  1
  Al0+  Al52  1  -0.00119267  0.49956325  0.33824408  1
  Al0+  Al53  1  0.00005123  0.49963961  0.66392104  1
  Al0+  Al54  1  0.50095257  0.00286064  -0.00839065  1
  Al0+  Al55  1  0.50109226  0.00150347  0.32203459  1
  Al0+  Al56  1  0.50099030  0.00073536  0.66005241  1
  Al0+  Al57  1  0.49775629  0.49973836  0.00603634  1
  Al0+  Al58  1  0.49770423  0.49836975  0.34041435  1
  Al0+  Al59  1  0.49930942  0.49835730  0.67354131  1
  Al0+  Al60  1  0.25160569  0.24944928  0.00035468  1
  Al0+  Al61  1  0.25160813  0.24886350  0.33339807  1
  Al0+  Al62  1  0.25163306  0.24999935  0.66671647  1
  Al0+  Al63  1  0.24772977  0.75118573  -0.00851275  1
  Al0+  Al64  1  0.24731615  0.74866053  0.33774630  1
  Al0+  Al65  1  0.24838536  0.74848856  0.66826045  1
  Al0+  Al66  1  0.75236442  0.24883953  0.00346870  1
  Al0+  Al67  1  0.75252846  0.24998515  0.33531710  1
  Al0+  Al68  1  0.75217328  0.25090675  0.67045142  1
  Al0+  Al69  1  0.74566071  0.75265462  -0.00135930  1
  Al0+  Al70  1  0.74775941  0.75248518  0.33208363  1
  Al0+  Al71  1  0.75030108  0.75027711  0.66077467  1
  Al0+  Al72  1  0.68006916  0.43049297  0.68267629  1
  Al0+  Al73  1  0.42725329  0.81923002  0.31956321  1
  Al0+  Al74  1  0.32374364  0.07095741  0.68139215  1
  Al0+  Al75  1  0.82226442  0.57602714  0.35037874  1
  Al0+  Al76  1  0.17891853  0.42757082  0.01267086  1
  Al0+  Al77  1  0.82057568  0.57539385  0.01377895  1
  Al0+  Al78  1  0.18081349  0.93013145  0.34549304  1
  Al0+  Al79  1  0.42837820  0.82068584  0.98502967  1
  Al0+  Al80  1  0.07365859  0.17833069  0.98606148  1
  Al0+  Al81  1  0.42928151  0.81941744  0.65103003  1
  Al0+  Al82  1  0.06892632  0.67697740  0.98614611  1
  Al0+  Al83  1  0.57265949  0.18174970  0.65183072  1
  Al0+  Al84  1  0.57304213  0.18313167  0.98422585  1
  Al0+  Al85  1  0.81974532  0.06799641  0.34650004  1
  Al0+  Al86  1  0.31803336  0.56946314  0.34648348  1
  Al0+  Al87  1  0.67810398  0.42830704  0.01696759  1
  Al0+  Al88  1  0.93026416  0.82162344  0.65090512  1
  Al0+  Al89  1  0.82020428  0.06952502  0.68129544  1
  Al0+  Al90  1  0.92826837  0.82245751  0.32015965  1
  Al0+  Al91  1  0.68028397  0.42975126  0.34983584  1
  Al0+  Al92  1  0.17990250  0.92715596  0.68613096  1
  Al0+  Al93  1  0.57230509  0.18192024  0.31781861  1
  Al0+  Al94  1  0.82192640  0.06639720  0.01414836  1
  Al0+  Al95  1  0.92581056  0.82143933  0.98520056  1
  Si0+  Si96  1  0.07198502  0.17958191  0.32027707  1
  Si0+  Si97  1  0.67310677  0.92962127  0.01589693  1
  Si0+  Si98  1  0.93073489  0.32127629  0.31860896  1
  Si0+  Si99  1  0.32493859  0.07264709  0.34716753  1
  Si0+  Si100  1  0.17685370  0.42383849  0.35103371  1
  Si0+  Si101  1  0.57002858  0.67515478  0.31788213  1
  Si0+  Si102  1  0.42587147  0.32325807  0.64956941  1
  Si0+  Si103  1  0.93077347  0.32110229  0.65145428  1
  Si0+  Si104  1  0.17720485  0.42828491  0.68049410  1
  Si0+  Si105  1  0.18157535  0.92972473  0.01549153  1
  Si0+  Si106  1  0.57071182  0.67508860  0.65096899  1
  Si0+  Si107  1  0.42734611  0.32303265  0.98417208  1
  Si0+  Si108  1  0.31945340  0.57455800  0.01583068  1
  Si0+  Si109  1  0.82272994  0.57356340  0.68247342  1
  Si0+  Si110  1  0.57033179  0.67584142  0.98485317  1
  Si0+  Si111  1  0.92983204  0.32041160  0.98401728  1
  Si0+  Si112  1  0.07085367  0.67490097  0.64788377  1
  Si0+  Si113  1  0.67320823  0.92867432  0.34820984  1
  Si0+  Si114  1  0.32337306  0.07120693  0.01512348  1
  Si0+  Si115  1  0.07018381  0.67667174  0.31809942  1
  Si0+  Si116  1  0.42589644  0.32371045  0.31558818  1
  Si0+  Si117  1  0.07302322  0.17933705  0.65081258  1
  Si0+  Si118  1  0.67730053  0.92608584  0.68100568  1
  Si0+  Si119  1  0.31985691  0.56993677  0.68353278  1
  O2-  O120  1  0.25380981  -0.00068821  0.05857244  1
  O2-  O121  1  0.25867316  0.00222293  0.39132373  1
  O2-  O122  1  0.25397354  -0.00152170  0.73455788  1
  O2-  O123  1  0.25125283  0.50466228  0.05893129  1
  O2-  O124  1  0.24519469  0.49289622  0.39501390  1
  O2-  O125  1  0.24830564  0.49852884  0.72346851  1
  O2-  O126  1  0.74850636  -0.00943707  0.06069419  1
  O2-  O127  1  0.74569671  -0.00707420  0.39310807  1
  O2-  O128  1  0.74726343  -0.00744749  0.72662967  1
  O2-  O129  1  0.74675682  0.50497034  0.06367988  1
  O2-  O130  1  0.74794148  0.50594503  0.40013642  1
  O2-  O131  1  0.75139545  0.50878983  0.72762829  1
  O2-  O132  1  0.00589885  0.25429515  0.27717686  1
  O2-  O133  1  0.00088131  0.24910368  0.60826261  1
  O2-  O134  1  -0.00044158  0.25316892  0.93838526  1
  O2-  O135  1  -0.00313609  0.74089539  0.27534564  1
  O2-  O136  1  0.00384417  0.74510122  0.60453845  1
  O2-  O137  1  -0.00725434  0.74403567  0.93582115  1
  O2-  O138  1  0.49644091  0.25682827  0.27208223  1
  O2-  O139  1  0.49509323  0.25493389  0.60601985  1
  O2-  O140  1  0.50066055  0.26077156  0.93845814  1
  O2-  O141  1  0.50297952  0.74553844  0.27276641  1
  O2-  O142  1  0.50502235  0.74550510  0.60455909  1
  O2-  O143  1  0.50319436  0.74554537  0.93934013  1
  O2-  O144  1  0.07311304  0.17835651  0.09974559  1
  O2-  O145  1  0.07165893  0.18117276  0.42563409  1
  O2-  O146  1  0.07431024  0.18216776  0.75572936  1
  O2-  O147  1  0.07373248  0.68176642  0.09969271  1
  O2-  O148  1  0.07231216  0.67760033  0.42383205  1
  O2-  O149  1  0.06875560  0.66916184  0.75297242  1
  O2-  O150  1  0.57184589  0.18241801  0.09733216  1
  O2-  O151  1  0.57198710  0.18226301  0.43102435  1
  O2-  O152  1  0.57364055  0.18436712  0.76477785  1
  O2-  O153  1  0.56769967  0.67615186  0.09032841  1
  O2-  O154  1  0.56663894  0.67520122  0.42371077  1
  O2-  O155  1  0.56726064  0.67459613  0.75653701  1
  O2-  O156  1  0.17757315  0.42138501  0.24582348  1
  O2-  O157  1  0.17687923  0.42856980  0.57531435  1
  O2-  O158  1  0.18262838  0.42672419  0.89906589  1
  O2-  O159  1  0.18041345  0.93154420  0.23196559  1
  O2-  O160  1  0.18013910  0.92961596  0.57215500  1
  O2-  O161  1  0.18232459  0.93085344  0.91080136  1
  O2-  O162  1  0.68404948  0.42985971  0.23673320  1
  O2-  O163  1  0.68183709  0.43057426  0.56974418  1
  O2-  O164  1  0.68129945  0.42902810  0.90309921  1
  O2-  O165  1  0.66957722  0.93138236  0.24281741  1
  O2-  O166  1  0.67698225  0.92737238  0.57528889  1
  O2-  O167  1  0.66855018  0.93361439  0.91038850  1
  O2-  O168  1  0.42300943  0.31914874  0.08947850  1
  O2-  O169  1  0.42206739  0.32216978  0.42107977  1
  O2-  O170  1  0.42249367  0.32431014  0.75491149  1
  O2-  O171  1  0.42617065  0.81914878  0.09835361  1
  O2-  O172  1  0.42727291  0.81854869  0.43256031  1
  O2-  O173  1  0.43047917  0.81742445  0.76420375  1
  O2-  O174  1  0.93177655  0.31842101  0.08984626  1
  O2-  O175  1  0.93194839  0.31944478  0.42433710  1
  O2-  O176  1  0.93401109  0.32421544  0.75619091  1
  O2-  O177  1  0.93178969  0.82426359  0.09881244  1
  O2-  O178  1  0.93389154  0.82541970  0.43323426  1
  O2-  O179  1  0.93073309  0.81995756  0.76368272  1
  O2-  O180  1  0.32157105  0.07442237  0.24135984  1
  O2-  O181  1  0.32074500  0.07083038  0.56743031  1
  O2-  O182  1  0.32244382  0.07087424  0.91029588  1
  O2-  O183  1  0.31463904  0.56985214  0.23353864  1
  O2-  O184  1  0.32014754  0.56948638  0.57830871  1
  O2-  O185  1  0.31972128  0.57299308  0.90993483  1
  O2-  O186  1  0.82198501  0.06885963  0.23357727  1
  O2-  O187  1  0.81947440  0.07092323  0.56797871  1
  O2-  O188  1  0.82101094  0.06691682  0.90105427  1
  O2-  O189  1  0.82310866  0.57302674  0.23705203  1
  O2-  O190  1  0.82347049  0.57094260  0.57712187  1
  O2-  O191  1  0.81932513  0.57222207  0.89963322  1
  O2-  O192  1  0.04048240  0.08937564  0.27305184  1
  O2-  O193  1  0.04536812  0.08715732  0.60521809  1
  O2-  O194  1  0.04255875  0.08361027  0.92999216  1
  O2-  O195  1  0.05132852  0.57984396  0.27515711  1
  O2-  O196  1  0.04663060  0.58155961  0.59886875  1
  O2-  O197  1  0.04853531  0.57516745  0.93611796  1
  O2-  O198  1  0.54232475  0.08699374  0.25984030  1
  O2-  O199  1  0.54452482  0.08511339  0.59630207  1
  O2-  O200  1  0.53966011  0.08853910  0.92848562  1
  O2-  O201  1  0.54179737  0.58164211  0.27330910  1
  O2-  O202  1  0.54085640  0.58176708  0.60595071  1
  O2-  O203  1  0.54292847  0.58196637  0.93909254  1
  O2-  O204  1  0.16554939  0.20249029  0.27289688  1
  O2-  O205  1  0.16382401  0.20942255  0.60179067  1
  O2-  O206  1  0.16968024  0.21045030  0.93156024  1
  O2-  O207  1  0.16201964  0.70666608  0.27156072  1
  O2-  O208  1  0.16583271  0.69957680  0.60428611  1
  O2-  O209  1  0.16445139  0.70880249  0.92854640  1
  O2-  O210  1  0.66956917  0.21419741  0.26559957  1
  O2-  O211  1  0.66943652  0.21617964  0.59944443  1
  O2-  O212  1  0.67099243  0.21211765  0.93195843  1
  O2-  O213  1  0.66417861  0.69851157  0.27263796  1
  O2-  O214  1  0.66557627  0.69525834  0.60540956  1
  O2-  O215  1  0.66349867  0.69880309  0.93713274  1
  O2-  O216  1  0.08270642  0.45263119  0.06938608  1
  O2-  O217  1  0.08358701  0.44830739  0.39810258  1
  O2-  O218  1  0.08546635  0.45599553  0.72793592  1
  O2-  O219  1  0.09076108  0.96015658  0.06261149  1
  O2-  O220  1  0.08823804  0.96694397  0.40295580  1
  O2-  O221  1  0.08367935  0.96013870  0.73950638  1
  O2-  O222  1  0.57729580  0.45038255  0.06834200  1
  O2-  O223  1  0.57966963  0.45076130  0.40213392  1
  O2-  O224  1  0.58195701  0.45551016  0.73708335  1
  O2-  O225  1  0.58224636  0.96328328  0.06382289  1
  O2-  O226  1  0.58075285  0.95962437  0.39462086  1
  O2-  O227  1  0.58395203  0.95343201  0.72601286  1
  O2-  O228  1  0.21283733  0.33224051  0.06856321  1
  O2-  O229  1  0.20297641  0.33032783  0.39818419  1
  O2-  O230  1  0.20448646  0.33648770  0.72771484  1
  O2-  O231  1  0.20981837  0.83704590  0.06072961  1
  O2-  O232  1  0.20778139  0.83394648  0.40126603  1
  O2-  O233  1  0.20534057  0.82715098  0.73665287  1
  O2-  O234  1  0.71285731  0.33210592  0.06927150  1
  O2-  O235  1  0.71690868  0.33396037  0.40310884  1
  O2-  O236  1  0.71763332  0.33674637  0.73655463  1
  O2-  O237  1  0.68762349  0.83272334  0.05862081  1
  O2-  O238  1  0.69095260  0.83305912  0.39259208  1
  O2-  O239  1  0.69883474  0.83050649  0.72549162  1
  O2-  O240  1  0.44818088  0.41891225  0.27170415  1
  O2-  O241  1  0.45261952  0.41786745  0.60551051  1
  O2-  O242  1  0.44495857  0.42017390  0.94159043  1
  O2-  O243  1  0.45550978  0.91542265  0.26313497  1
  O2-  O244  1  0.45846285  0.91573559  0.59601142  1
  O2-  O245  1  0.46029710  0.91639798  0.93033477  1
  O2-  O246  1  0.95477370  0.41476476  0.27285347  1
  O2-  O247  1  0.95992086  0.41158624  0.60086935  1
  O2-  O248  1  0.95423842  0.41428759  0.93855372  1
  O2-  O249  1  0.96747017  0.91719507  0.26695410  1
  O2-  O250  1  0.96486649  0.91871403  0.59914368  1
  O2-  O251  1  0.96387115  0.91626285  0.93105443  1
  O2-  O252  1  0.33223122  0.29728057  0.26842719  1
  O2-  O253  1  0.33213704  0.30034048  0.60137182  1
  O2-  O254  1  0.33632228  0.29297086  0.93520845  1
  O2-  O255  1  0.33058603  0.78457873  0.26749223  1
  O2-  O256  1  0.33190540  0.78537254  0.60033109  1
  O2-  O257  1  0.33379437  0.78949055  0.92822053  1
  O2-  O258  1  0.84156593  0.28868124  0.27071879  1
  O2-  O259  1  0.83981664  0.29167337  0.60419166  1
  O2-  O260  1  0.83768893  0.29198477  0.93740589  1
  O2-  O261  1  0.82806450  0.80230967  0.26840863  1
  O2-  O262  1  0.83214018  0.79534194  0.59647592  1
  O2-  O263  1  0.82406750  0.80304325  0.93402250  1
  O2-  O264  1  0.41620485  0.04393129  0.06052339  1
  O2-  O265  1  0.41999632  0.04826460  0.38946477  1
  O2-  O266  1  0.42356184  0.04365655  0.73180348  1
  O2-  O267  1  0.41226127  0.55087408  0.06404891  1
  O2-  O268  1  0.41311745  0.54051047  0.40485441  1
  O2-  O269  1  0.41035878  0.54248690  0.73325039  1
  O2-  O270  1  0.92059708  0.03834416  0.06661079  1
  O2-  O271  1  0.91619729  0.03914832  0.40205275  1
  O2-  O272  1  0.91785716  0.04133367  0.73384715  1
  O2-  O273  1  0.91795710  0.54512915  0.06754500  1
  O2-  O274  1  0.91988251  0.54457205  0.40455269  1
  O2-  O275  1  0.91575804  0.54320060  0.72716631  1
  O2-  O276  1  0.29486438  0.16207129  0.06327753  1
  O2-  O277  1  0.29929099  0.16573156  0.39463804  1
  O2-  O278  1  0.29502246  0.17041105  0.73302174  1
  O2-  O279  1  0.29065812  0.66792628  0.06019090  1
  O2-  O280  1  0.28447097  0.66326002  0.40461052  1
  O2-  O281  1  0.29122910  0.66061198  0.73159328  1
  O2-  O282  1  0.79211837  0.16336155  0.06754864  1
  O2-  O283  1  0.78998920  0.16459631  0.40095523  1
  O2-  O284  1  0.79076417  0.16603760  0.73549738  1
  O2-  O285  1  0.79342200  0.67496724  0.06548379  1
  O2-  O286  1  0.79643162  0.67636603  0.40058609  1
  O2-  O287  1  0.80057662  0.66918836  0.72538214  1
