# generated using pymatgen
data_Ca2Al2SiO7
_symmetry_space_group_name_H-M   'P 1'
_cell_length_a   15.45690451
_cell_length_b   15.45706262
_cell_length_c   15.28282276
_cell_angle_alpha   90.00241105
_cell_angle_beta   90.00727707
_cell_angle_gamma   89.99356767
_symmetry_Int_Tables_number   1
_chemical_formula_structural   Ca2Al2SiO7
_chemical_formula_sum   'Ca48 Al48 Si24 O168'
_cell_volume   3651.34660184
_cell_formula_units_Z   24
loop_
 _symmetry_equiv_pos_site_id
 _symmetry_equiv_pos_as_xyz
  1  'x, y, z'
loop_
 _atom_type_symbol
 _atom_type_oxidation_number
  Ca2+  2.0
  Al0+  0.0
  Si0+  0.0
  O2-  -2.0
loop_
 _atom_site_type_symbol
 _atom_site_label
 _atom_site_symmetry_multiplicity
 _atom_site_fract_x
 _atom_site_fract_y
 _atom_site_fract_z
 _atom_site_occupancy
  Ca2+  Ca0  1  0.16694517  0.07411494  0.17524064  1
  Ca2+  Ca1  1  0.16548142  0.08583424  0.49940756  1
  Ca2+  Ca2  1  0.16548779  0.07982686  0.83901307  1
  Ca2+  Ca3  1  0.16926082  0.58144862  0.16893525  1
  Ca2+  Ca4  1  0.16395092  0.58571481  0.50147460  1
  Ca2+  Ca5  1  0.17731778  0.57894086  0.84649647  1
  Ca2+  Ca6  1  0.66121957  0.07196182  0.17032515  1
  Ca2+  Ca7  1  0.66809340  0.07001778  0.50481921  1
  Ca2+  Ca8  1  0.66328548  0.07066490  0.84072645  1
  Ca2+  Ca9  1  0.67263844  0.58798021  0.17339559  1
  Ca2+  Ca10  1  0.67530491  0.58510735  0.50718757  1
  Ca2+  Ca11  1  0.66667430  0.58628846  0.83265785  1
  Ca2+  Ca12  1  0.07458922  0.33250392  0.16264474  1
  Ca2+  Ca13  1  0.07822392  0.32310709  0.49078355  1
  Ca2+  Ca14  1  0.08154776  0.33254188  0.83211157  1
  Ca2+  Ca15  1  0.08439285  0.83327858  0.16166890  1
  Ca2+  Ca16  1  0.07561301  0.82827425  0.49228723  1
  Ca2+  Ca17  1  0.07089744  0.84147827  0.83025131  1
  Ca2+  Ca18  1  0.57664572  0.32313817  0.15374624  1
  Ca2+  Ca19  1  0.58598759  0.33602894  0.49793740  1
  Ca2+  Ca20  1  0.58119567  0.33230590  0.83251241  1
  Ca2+  Ca21  1  0.59019945  0.82555027  0.16123016  1
  Ca2+  Ca22  1  0.58950179  0.82667143  0.49765166  1
  Ca2+  Ca23  1  0.58581096  0.82431075  0.82624826  1
  Ca2+  Ca24  1  0.33310344  0.41762215  0.16270044  1
  Ca2+  Ca25  1  0.33107803  0.41945885  0.50433824  1
  Ca2+  Ca26  1  0.32956107  0.42188284  0.84605869  1
  Ca2+  Ca27  1  0.32265833  0.92215581  0.17506959  1
  Ca2+  Ca28  1  0.32926737  0.91708929  0.50034158  1
  Ca2+  Ca29  1  0.32667954  0.91182991  0.84012284  1
  Ca2+  Ca30  1  0.83842180  0.42004943  0.17444683  1
  Ca2+  Ca31  1  0.83395073  0.42772845  0.50512858  1
  Ca2+  Ca32  1  0.83137799  0.42184828  0.83596491  1
  Ca2+  Ca33  1  0.82369516  0.90918684  0.16698395  1
  Ca2+  Ca34  1  0.82355564  0.90900496  0.50514952  1
  Ca2+  Ca35  1  0.82585206  0.90904311  0.83783540  1
  Ca2+  Ca36  1  0.41822849  0.16748764  0.16111463  1
  Ca2+  Ca37  1  0.41567858  0.16581795  0.49488985  1
  Ca2+  Ca38  1  0.42013952  0.16926974  0.83610580  1
  Ca2+  Ca39  1  0.42998932  0.66314610  0.15903610  1
  Ca2+  Ca40  1  0.42975168  0.67339061  0.49745983  1
  Ca2+  Ca41  1  0.42493240  0.66959850  0.82810103  1
  Ca2+  Ca42  1  0.91701870  0.17731705  0.16258324  1
  Ca2+  Ca43  1  0.92672037  0.17148829  0.49247448  1
  Ca2+  Ca44  1  0.92207422  0.17246865  0.82907619  1
  Ca2+  Ca45  1  0.92167682  0.66938107  0.16526256  1
  Ca2+  Ca46  1  0.91269250  0.66743242  0.49548397  1
  Ca2+  Ca47  1  0.91293182  0.67754620  0.82927369  1
  Al0+  Al48  1  -0.00174511  0.00068521  0.00119619  1
  Al0+  Al49  1  -0.00188897  0.00010027  0.33297211  1
  Al0+  Al50  1  0.00005819  0.00030291  0.65685015  1
  Al0+  Al51  1  0.00071785  0.50015617  -0.00139095  1
  Al0+  Al52  1  0.00045291  0.50242195  0.33145632  1
  Al0+  Al53  1  0.00007875  0.49986226  0.67290883  1
  Al0+  Al54  1  0.49973180  -0.00214283  0.00117106  1
  Al0+  Al55  1  0.49789972  -0.00047870  0.34200214  1
  Al0+  Al56  1  0.49755837  0.00170513  0.66812981  1
  Al0+  Al57  1  0.50184520  0.49884097  -0.00371554  1
  Al0+  Al58  1  0.49980886  0.50060925  0.32974427  1
  Al0+  Al59  1  0.49959313  0.49990439  0.66565751  1
  Al0+  Al60  1  0.24970332  0.25090505  0.00082810  1
  Al0+  Al61  1  0.24944322  0.25005254  0.33280393  1
  Al0+  Al62  1  0.25114825  0.24905725  0.66405830  1
  Al0+  Al63  1  0.25228522  0.74853374  0.00971294  1
  Al0+  Al64  1  0.25031552  0.75034152  0.33445104  1
  Al0+  Al65  1  0.25037438  0.75138950  0.66439263  1
  Al0+  Al66  1  0.75183501  0.24909153  -0.00945808  1
  Al0+  Al67  1  0.74770948  0.24891210  0.33004345  1
  Al0+  Al68  1  0.74976489  0.25067565  0.66878529  1
  Al0+  Al69  1  0.75122825  0.74954681  -0.00311730  1
  Al0+  Al70  1  0.74991642  0.74777329  0.33686363  1
  Al0+  Al71  1  0.75071536  0.74949363  0.66720639  1
  Al0+  Al72  1  0.57237226  0.67960989  0.98554295  1
  Al0+  Al73  1  0.17576883  0.92729894  0.35130519  1
  Al0+  Al74  1  0.57160867  0.17513888  0.98445283  1
  Al0+  Al75  1  0.17666703  0.92962036  0.01235966  1
  Al0+  Al76  1  0.32481379  0.57059486  0.01665153  1
  Al0+  Al77  1  0.42853706  0.31993678  0.98443019  1
  Al0+  Al78  1  0.67705715  0.42775402  0.68328363  1
  Al0+  Al79  1  0.68066548  0.92899379  0.34759448  1
  Al0+  Al80  1  0.82210770  0.57141555  0.68507252  1
  Al0+  Al81  1  0.92821348  0.32132737  0.31989009  1
  Al0+  Al82  1  0.92931527  0.81939151  0.65169094  1
  Al0+  Al83  1  0.93164448  0.82060111  0.98767278  1
  Al0+  Al84  1  0.31883143  0.07214616  0.34985371  1
  Al0+  Al85  1  0.07179062  0.17754815  0.31525266  1
  Al0+  Al86  1  0.67909605  0.93075293  0.68175075  1
  Al0+  Al87  1  0.57109952  0.68060168  0.31855316  1
  Al0+  Al88  1  0.82129612  0.56830032  0.34558417  1
  Al0+  Al89  1  0.42608240  0.82414072  0.65104060  1
  Al0+  Al90  1  0.67981009  0.92837007  0.01340080  1
  Al0+  Al91  1  0.57012410  0.67934131  0.65001607  1
  Al0+  Al92  1  0.92920828  0.32392735  0.98344931  1
  Al0+  Al93  1  0.07150056  0.18064623  0.65267346  1
  Al0+  Al94  1  0.07270224  0.68035552  0.31940019  1
  Al0+  Al95  1  0.17743071  0.42842798  0.01676951  1
  Si0+  Si96  1  0.18102688  0.42699567  0.67998566  1
  Si0+  Si97  1  0.42965727  0.31997763  0.65080363  1
  Si0+  Si98  1  0.42845275  0.32226208  0.31876310  1
  Si0+  Si99  1  0.31953761  0.57151710  0.67963377  1
  Si0+  Si100  1  0.57156788  0.17854012  0.65083009  1
  Si0+  Si101  1  0.07296802  0.67663546  0.65321742  1
  Si0+  Si102  1  0.68052338  0.42649371  0.01438810  1
  Si0+  Si103  1  0.07095073  0.17835496  0.98427236  1
  Si0+  Si104  1  0.92666315  0.82125522  0.31677426  1
  Si0+  Si105  1  0.42670595  0.82104625  0.98639562  1
  Si0+  Si106  1  0.92761852  0.32383197  0.65005039  1
  Si0+  Si107  1  0.32002088  0.07353954  0.68447726  1
  Si0+  Si108  1  0.32423033  0.57070177  0.35013611  1
  Si0+  Si109  1  0.82407726  0.07199838  0.68226186  1
  Si0+  Si110  1  0.17851000  0.92981688  0.68068997  1
  Si0+  Si111  1  0.42878855  0.82312644  0.31595824  1
  Si0+  Si112  1  0.67588145  0.42615078  0.34625048  1
  Si0+  Si113  1  0.81986331  0.57058369  0.01564023  1
  Si0+  Si114  1  0.82176886  0.07385840  0.01603654  1
  Si0+  Si115  1  0.07472504  0.67885483  0.98441305  1
  Si0+  Si116  1  0.82057388  0.07559637  0.34976961  1
  Si0+  Si117  1  0.56898690  0.17716044  0.32074133  1
  Si0+  Si118  1  0.32172336  0.07149652  0.01551157  1
  Si0+  Si119  1  0.17998712  0.43126917  0.34894138  1
  O2-  O120  1  0.25195181  0.00382305  0.05861169  1
  O2-  O121  1  0.24561362  0.00193326  0.40137518  1
  O2-  O122  1  0.25057001  -0.00028501  0.72440420  1
  O2-  O123  1  0.25021575  0.50033222  0.06630510  1
  O2-  O124  1  0.25115085  0.50164143  0.39315042  1
  O2-  O125  1  0.24684514  0.50243942  0.72189780  1
  O2-  O126  1  0.75117759  0.00666162  0.06002527  1
  O2-  O127  1  0.75585938  0.00338221  0.39433662  1
  O2-  O128  1  0.75458012  0.00530252  0.72825104  1
  O2-  O129  1  0.75128803  0.49689033  0.05802812  1
  O2-  O130  1  0.74686541  0.49204856  0.39010381  1
  O2-  O131  1  0.74923907  0.49918582  0.73395895  1
  O2-  O132  1  -0.00218985  0.24834767  0.26727649  1
  O2-  O133  1  -0.00397784  0.25489926  0.60648657  1
  O2-  O134  1  0.00532116  0.24932299  0.93878876  1
  O2-  O135  1  0.00190049  0.75920780  0.27340173  1
  O2-  O136  1  0.00215595  0.74173444  0.60762847  1
  O2-  O137  1  0.00981406  0.75006928  0.93920857  1
  O2-  O138  1  0.49956153  0.25011529  0.27909782  1
  O2-  O139  1  0.50358234  0.25256961  0.60766660  1
  O2-  O140  1  0.50087394  0.24854926  0.93378104  1
  O2-  O141  1  0.49730815  0.75531564  0.27045060  1
  O2-  O142  1  0.50170683  0.75578607  0.60096426  1
  O2-  O143  1  0.49559879  0.75343509  0.94128547  1
  O2-  O144  1  0.06844101  0.17756362  0.08929831  1
  O2-  O145  1  0.07184448  0.18287600  0.42922157  1
  O2-  O146  1  0.07218619  0.18199795  0.76600317  1
  O2-  O147  1  0.07176765  0.67824075  0.09000271  1
  O2-  O148  1  0.07023636  0.67817298  0.43286335  1
  O2-  O149  1  0.07671156  0.67902419  0.75860087  1
  O2-  O150  1  0.56923463  0.17602465  0.09879354  1
  O2-  O151  1  0.56922985  0.17914781  0.42611750  1
  O2-  O152  1  0.56822703  0.17708568  0.75540020  1
  O2-  O153  1  0.57449736  0.68143378  0.09898764  1
  O2-  O154  1  0.57016183  0.67896085  0.43118087  1
  O2-  O155  1  0.56656898  0.67900184  0.76362627  1
  O2-  O156  1  0.18127037  0.43185725  0.24442801  1
  O2-  O157  1  0.18351644  0.42619540  0.57452788  1
  O2-  O158  1  0.17897821  0.43045585  0.90215392  1
  O2-  O159  1  0.17970936  0.92749879  0.23749910  1
  O2-  O160  1  0.17946293  0.92978083  0.57621481  1
  O2-  O161  1  0.17708136  0.93214118  0.89839692  1
  O2-  O162  1  0.67381961  0.42614711  0.24064732  1
  O2-  O163  1  0.67796691  0.42679028  0.56914322  1
  O2-  O164  1  0.68141220  0.42770902  0.90955520  1
  O2-  O165  1  0.68127417  0.92975080  0.23431245  1
  O2-  O166  1  0.68064125  0.93260725  0.56840075  1
  O2-  O167  1  0.68179687  0.92768656  0.90042945  1
  O2-  O168  1  0.43079880  0.31804645  0.09851163  1
  O2-  O169  1  0.42923690  0.32460128  0.42439800  1
  O2-  O170  1  0.42602677  0.31772479  0.75515812  1
  O2-  O171  1  0.42784231  0.82173773  0.09188340  1
  O2-  O172  1  0.42969591  0.82108760  0.42157602  1
  O2-  O173  1  0.42080929  0.81942300  0.76467234  1
  O2-  O174  1  0.92801054  0.32294090  0.09635671  1
  O2-  O175  1  0.93069250  0.32101499  0.43375028  1
  O2-  O176  1  0.93018729  0.32325385  0.75566345  1
  O2-  O177  1  0.92987624  0.81714325  0.10058001  1
  O2-  O178  1  0.92510424  0.81716312  0.42247234  1
  O2-  O179  1  0.93227767  0.82186147  0.76497189  1
  O2-  O180  1  0.32132985  0.07078779  0.23624220  1
  O2-  O181  1  0.31876542  0.07835516  0.57994051  1
  O2-  O182  1  0.32099243  0.07095311  0.90946032  1
  O2-  O183  1  0.32719664  0.56694091  0.24569808  1
  O2-  O184  1  0.31869116  0.56886463  0.57412194  1
  O2-  O185  1  0.32193659  0.57084869  0.90220174  1
  O2-  O186  1  0.81621426  0.07971692  0.24441281  1
  O2-  O187  1  0.82150615  0.07228285  0.57653336  1
  O2-  O188  1  0.82421771  0.07229600  0.91036686  1
  O2-  O189  1  0.82006864  0.56949575  0.23207549  1
  O2-  O190  1  0.82420775  0.56841984  0.57127262  1
  O2-  O191  1  0.81871934  0.57130710  0.91083241  1
  O2-  O192  1  0.04567943  0.07744073  0.26533440  1
  O2-  O193  1  0.04231878  0.08562800  0.59554990  1
  O2-  O194  1  0.04219110  0.08622921  0.93642403  1
  O2-  O195  1  0.03928649  0.58575547  0.26377855  1
  O2-  O196  1  0.05144127  0.58060585  0.60934594  1
  O2-  O197  1  0.04751147  0.58632978  0.93752875  1
  O2-  O198  1  0.53838885  0.08574547  0.27451000  1
  O2-  O199  1  0.53933165  0.08889369  0.60207680  1
  O2-  O200  1  0.53991195  0.07758043  0.93099531  1
  O2-  O201  1  0.53976052  0.58358759  0.26469908  1
  O2-  O202  1  0.53803342  0.58134132  0.59728649  1
  O2-  O203  1  0.54450527  0.58243585  0.93250664  1
  O2-  O204  1  0.17034677  0.20794340  0.26432793  1
  O2-  O205  1  0.16738570  0.21360269  0.59785044  1
  O2-  O206  1  0.16573261  0.20080998  0.93916850  1
  O2-  O207  1  0.17133575  0.70533804  0.26622662  1
  O2-  O208  1  0.16484056  0.70393785  0.60432476  1
  O2-  O209  1  0.17101359  0.70039065  0.94250604  1
  O2-  O210  1  0.66028721  0.20155207  0.27116729  1
  O2-  O211  1  0.66479511  0.20320559  0.60428372  1
  O2-  O212  1  0.66944852  0.20092988  0.93012739  1
  O2-  O213  1  0.66817342  0.71150934  0.26576618  1
  O2-  O214  1  0.66972004  0.70579293  0.59996923  1
  O2-  O215  1  0.66692241  0.71296834  0.93009008  1
  O2-  O216  1  0.07912362  0.45839205  0.06914077  1
  O2-  O217  1  0.08919603  0.46065633  0.39708883  1
  O2-  O218  1  0.08782609  0.44804593  0.72700609  1
  O2-  O219  1  0.08092060  0.96049961  0.06762832  1
  O2-  O220  1  0.07485002  0.95178610  0.40124999  1
  O2-  O221  1  0.08635837  0.96081227  0.72582483  1
  O2-  O222  1  0.58797783  0.45227811  0.06066666  1
  O2-  O223  1  0.58283710  0.45358333  0.39343967  1
  O2-  O224  1  0.57700651  0.45476739  0.73436125  1
  O2-  O225  1  0.58205917  0.95571929  0.06745261  1
  O2-  O226  1  0.58507065  0.96017448  0.40287322  1
  O2-  O227  1  0.58139510  0.96215397  0.73367621  1
  O2-  O228  1  0.20541773  0.32962190  0.06908443  1
  O2-  O229  1  0.20910991  0.33976351  0.39650971  1
  O2-  O230  1  0.21468933  0.33757797  0.72824115  1
  O2-  O231  1  0.20565733  0.83358381  0.06761767  1
  O2-  O232  1  0.20661514  0.82877330  0.40400130  1
  O2-  O233  1  0.20478186  0.83738615  0.72824706  1
  O2-  O234  1  0.70718577  0.33287670  0.05897435  1
  O2-  O235  1  0.69704234  0.33119309  0.39220630  1
  O2-  O236  1  0.70314547  0.32802115  0.73593842  1
  O2-  O237  1  0.71644268  0.83309894  0.06719087  1
  O2-  O238  1  0.71310472  0.83349897  0.40214939  1
  O2-  O239  1  0.71020488  0.83389751  0.73347506  1
  O2-  O240  1  0.45630553  0.41267917  0.26931188  1
  O2-  O241  1  0.45346554  0.41248813  0.60249248  1
  O2-  O242  1  0.45766370  0.41721133  0.93040899  1
  O2-  O243  1  0.45349114  0.91822346  0.27305196  1
  O2-  O244  1  0.44821171  0.92544108  0.60141317  1
  O2-  O245  1  0.44881095  0.91504064  0.93995447  1
  O2-  O246  1  0.95987668  0.41842759  0.26687846  1
  O2-  O247  1  0.95505580  0.41781442  0.60586297  1
  O2-  O248  1  0.96075466  0.41992843  0.92849276  1
  O2-  O249  1  0.94217253  0.91797859  0.27401176  1
  O2-  O250  1  0.96020178  0.91425626  0.59487451  1
  O2-  O251  1  0.95844556  0.91846294  0.93330579  1
  O2-  O252  1  0.33703306  0.29498259  0.27166968  1
  O2-  O253  1  0.33987351  0.28861880  0.60062097  1
  O2-  O254  1  0.32944742  0.29273510  0.93131801  1
  O2-  O255  1  0.33468155  0.79762299  0.27180047  1
  O2-  O256  1  0.32945609  0.79182894  0.59548266  1
  O2-  O257  1  0.33273192  0.79438991  0.94073153  1
  O2-  O258  1  0.82832501  0.29559942  0.26694205  1
  O2-  O259  1  0.83303064  0.29975580  0.60572332  1
  O2-  O260  1  0.83485959  0.29236591  0.92621502  1
  O2-  O261  1  0.83615929  0.78723961  0.26980661  1
  O2-  O262  1  0.83316838  0.78907973  0.59796009  1
  O2-  O263  1  0.83775895  0.78505967  0.93191857  1
  O2-  O264  1  0.41451194  0.04531611  0.06274399  1
  O2-  O265  1  0.41590940  0.04345551  0.40651444  1
  O2-  O266  1  0.41241608  0.04956948  0.73193371  1
  O2-  O267  1  0.42272981  0.53776246  0.06881954  1
  O2-  O268  1  0.41432664  0.53834130  0.39929557  1
  O2-  O269  1  0.41013520  0.54125895  0.72671771  1
  O2-  O270  1  0.91380816  0.04704241  0.06431617  1
  O2-  O271  1  0.91589172  0.05419816  0.39350087  1
  O2-  O272  1  0.91856554  0.04532977  0.72597658  1
  O2-  O273  1  0.91337749  0.54534059  0.06053196  1
  O2-  O274  1  0.91799212  0.53961636  0.40103206  1
  O2-  O275  1  0.92106880  0.54430388  0.73967212  1
  O2-  O276  1  0.29869290  0.16570028  0.06080233  1
  O2-  O277  1  0.29330838  0.17234372  0.40301696  1
  O2-  O278  1  0.28877577  0.16414986  0.73323211  1
  O2-  O279  1  0.29967699  0.66794754  0.07305720  1
  O2-  O280  1  0.29802192  0.66304107  0.39640717  1
  O2-  O281  1  0.29307195  0.66362040  0.72703308  1
  O2-  O282  1  0.79748176  0.16873463  0.06021458  1
  O2-  O283  1  0.79086867  0.16720536  0.39893958  1
  O2-  O284  1  0.80146377  0.16671825  0.72755400  1
  O2-  O285  1  0.78902801  0.66104422  0.06345933  1
  O2-  O286  1  0.78842858  0.66280202  0.40165964  1
  O2-  O287  1  0.79323047  0.66970685  0.73705045  1
