# generated using pymatgen
data_Ca2Al2SiO7
_symmetry_space_group_name_H-M   'P 1'
_cell_length_a   15.46005522
_cell_length_b   15.45978396
_cell_length_c   15.28431411
_cell_angle_alpha   89.99352652
_cell_angle_beta   90.00409639
_cell_angle_gamma   89.99995506
_symmetry_Int_Tables_number   1
_chemical_formula_structural   Ca2Al2SiO7
_chemical_formula_sum   'Ca48 Al48 Si24 O168'
_cell_volume   3653.09033687
_cell_formula_units_Z   24
loop_
 _symmetry_equiv_pos_site_id
 _symmetry_equiv_pos_as_xyz
  1  'x, y, z'
loop_
 _atom_type_symbol
 _atom_type_oxidation_number
  Ca2+  2.0
  Al0+  0.0
  Si0+  0.0
  O2-  -2.0
loop_
 _atom_site_type_symbol
 _atom_site_label
 _atom_site_symmetry_multiplicity
 _atom_site_fract_x
 _atom_site_fract_y
 _atom_site_fract_z
 _atom_site_occupancy
  Ca2+  Ca0  1  0.16719430  0.08160148  0.17131875  1
  Ca2+  Ca1  1  0.17132860  0.08714498  0.49831720  1
  Ca2+  Ca2  1  0.16378589  0.07447473  0.84550506  1
  Ca2+  Ca3  1  0.17373057  0.58201421  0.16465154  1
  Ca2+  Ca4  1  0.17396448  0.58197407  0.50831979  1
  Ca2+  Ca5  1  0.16862126  0.57617491  0.84058142  1
  Ca2+  Ca6  1  0.66897370  0.09236954  0.16739284  1
  Ca2+  Ca7  1  0.67040484  0.08707357  0.50708707  1
  Ca2+  Ca8  1  0.67513742  0.09443633  0.83731436  1
  Ca2+  Ca9  1  0.66777811  0.57760240  0.16563538  1
  Ca2+  Ca10  1  0.67018595  0.57398799  0.50811031  1
  Ca2+  Ca11  1  0.67172962  0.57175835  0.84337396  1
  Ca2+  Ca12  1  0.08716890  0.32378069  0.15960206  1
  Ca2+  Ca13  1  0.07715303  0.33236006  0.49232761  1
  Ca2+  Ca14  1  0.08785187  0.33409510  0.83260167  1
  Ca2+  Ca15  1  0.08202184  0.82961318  0.15865105  1
  Ca2+  Ca16  1  0.07791473  0.82725992  0.49683079  1
  Ca2+  Ca17  1  0.08907629  0.82012246  0.83320995  1
  Ca2+  Ca18  1  0.57715920  0.32575088  0.15714427  1
  Ca2+  Ca19  1  0.58840026  0.32362121  0.49731735  1
  Ca2+  Ca20  1  0.58561248  0.33291158  0.83261517  1
  Ca2+  Ca21  1  0.56808138  0.83306962  0.16060225  1
  Ca2+  Ca22  1  0.57696599  0.82875524  0.49135901  1
  Ca2+  Ca23  1  0.57617042  0.83187698  0.83398391  1
  Ca2+  Ca24  1  0.33336653  0.42094024  0.16791666  1
  Ca2+  Ca25  1  0.32614486  0.42758709  0.50867767  1
  Ca2+  Ca26  1  0.32671488  0.42563831  0.84396373  1
  Ca2+  Ca27  1  0.33045557  0.91689681  0.17048800  1
  Ca2+  Ca28  1  0.33919712  0.92254350  0.49633481  1
  Ca2+  Ca29  1  0.32762388  0.91694753  0.84259877  1
  Ca2+  Ca30  1  0.83197465  0.41514529  0.16415433  1
  Ca2+  Ca31  1  0.82872027  0.40897249  0.50465424  1
  Ca2+  Ca32  1  0.82120074  0.41691084  0.84190584  1
  Ca2+  Ca33  1  0.83660011  0.92275283  0.16976456  1
  Ca2+  Ca34  1  0.83544134  0.92284802  0.50395753  1
  Ca2+  Ca35  1  0.83364115  0.92975125  0.84049711  1
  Ca2+  Ca36  1  0.42493718  0.16691888  0.15688238  1
  Ca2+  Ca37  1  0.42788925  0.16525349  0.49090211  1
  Ca2+  Ca38  1  0.42643819  0.17759531  0.83251216  1
  Ca2+  Ca39  1  0.40304595  0.67413503  0.16170709  1
  Ca2+  Ca40  1  0.41154616  0.66777555  0.49480519  1
  Ca2+  Ca41  1  0.40134471  0.67035639  0.83409136  1
  Ca2+  Ca42  1  0.92566681  0.17072468  0.16200657  1
  Ca2+  Ca43  1  0.92226408  0.17158391  0.49176836  1
  Ca2+  Ca44  1  0.91850784  0.16100424  0.83353115  1
  Ca2+  Ca45  1  0.91959988  0.67126935  0.15712915  1
  Ca2+  Ca46  1  0.92474659  0.66973398  0.49338521  1
  Ca2+  Ca47  1  0.92995144  0.65315106  0.83386063  1
  Al0+  Al48  1  -0.00125347  0.00000481  0.00518493  1
  Al0+  Al49  1  -0.00000772  -0.00099207  0.32974200  1
  Al0+  Al50  1  -0.00002758  0.00041076  0.66888466  1
  Al0+  Al51  1  0.00006207  0.49881277  0.00449292  1
  Al0+  Al52  1  -0.00172074  0.50047547  0.32966502  1
  Al0+  Al53  1  0.00150371  0.49931608  0.66148336  1
  Al0+  Al54  1  0.50125017  -0.00066035  -0.01179089  1
  Al0+  Al55  1  0.50055077  -0.00285178  0.32963900  1
  Al0+  Al56  1  0.50078685  0.00012490  0.66328839  1
  Al0+  Al57  1  0.50007737  0.50187246  0.00569771  1
  Al0+  Al58  1  0.50197889  0.49848212  0.34054772  1
  Al0+  Al59  1  0.49917469  0.50222185  0.67344995  1
  Al0+  Al60  1  0.25182926  0.24886677  -0.00679573  1
  Al0+  Al61  1  0.25141529  0.24968762  0.33717155  1
  Al0+  Al62  1  0.25165463  0.25005848  0.66788540  1
  Al0+  Al63  1  0.24641702  0.75118279  -0.00052664  1
  Al0+  Al64  1  0.24911540  0.75017746  0.33629634  1
  Al0+  Al65  1  0.24806858  0.75257866  0.66136690  1
  Al0+  Al66  1  0.75195427  0.24976253  0.00645916  1
  Al0+  Al67  1  0.75128732  0.24957870  0.32654290  1
  Al0+  Al68  1  0.75077487  0.24931667  0.67021208  1
  Al0+  Al69  1  0.74786724  0.75290768  0.00195523  1
  Al0+  Al70  1  0.75014007  0.74941815  0.33122652  1
  Al0+  Al71  1  0.74814528  0.75233920  0.66636839  1
  Al0+  Al72  1  0.92780698  0.82014072  0.31957714  1
  Al0+  Al73  1  0.07091118  0.17766521  0.98537957  1
  Al0+  Al74  1  0.42764851  0.81885976  0.98513694  1
  Al0+  Al75  1  0.31915613  0.57386415  0.68283129  1
  Al0+  Al76  1  0.67793392  0.42856243  0.01827440  1
  Al0+  Al77  1  0.17709610  0.42740258  0.68133330  1
  Al0+  Al78  1  0.42937771  0.81773168  0.31988148  1
  Al0+  Al79  1  0.82033536  0.06906162  0.67872420  1
  Al0+  Al80  1  0.17955231  0.92963232  0.01354378  1
  Al0+  Al81  1  0.56993257  0.17809354  0.31962960  1
  Al0+  Al82  1  0.42847937  0.32469278  0.98501499  1
  Al0+  Al83  1  0.92845514  0.32230912  0.31675240  1
  Al0+  Al84  1  0.31994325  0.57081056  0.34890476  1
  Al0+  Al85  1  0.06944160  0.67889980  0.65154424  1
  Al0+  Al86  1  0.57075458  0.18212286  0.65151715  1
  Al0+  Al87  1  0.81994202  0.07011500  0.01728480  1
  Al0+  Al88  1  0.32285630  0.07069775  0.34515073  1
  Al0+  Al89  1  0.68070852  0.42946638  0.67971438  1
  Al0+  Al90  1  0.57345002  0.18039712  0.98285674  1
  Al0+  Al91  1  0.82179187  0.57254148  0.01487745  1
  Al0+  Al92  1  0.17931301  0.42503856  0.01642605  1
  Al0+  Al93  1  0.07393173  0.17999863  0.31923438  1
  Al0+  Al94  1  0.31946107  0.57206675  0.01581740  1
  Al0+  Al95  1  0.06804454  0.67888796  0.98730498  1
  Si0+  Si96  1  0.67523570  0.92669272  0.68339505  1
  Si0+  Si97  1  0.42904421  0.32336109  0.32049375  1
  Si0+  Si98  1  0.42886840  0.82071172  0.64919737  1
  Si0+  Si99  1  0.57251284  0.67485021  0.31790631  1
  Si0+  Si100  1  0.17627985  0.42730150  0.35009081  1
  Si0+  Si101  1  0.07175687  0.67868267  0.31566016  1
  Si0+  Si102  1  0.92544801  0.82291382  0.98266536  1
  Si0+  Si103  1  0.68199914  0.42800181  0.34996966  1
  Si0+  Si104  1  0.93018962  0.31859100  0.65409591  1
  Si0+  Si105  1  0.42758278  0.32455829  0.64879388  1
  Si0+  Si106  1  0.32393273  0.07031851  0.01248355  1
  Si0+  Si107  1  0.82133509  0.57329045  0.34940255  1
  Si0+  Si108  1  0.32461884  0.07113076  0.68145010  1
  Si0+  Si109  1  0.57365487  0.67855641  0.98326070  1
  Si0+  Si110  1  0.67914665  0.92776713  0.34797272  1
  Si0+  Si111  1  0.57244767  0.67825667  0.65203287  1
  Si0+  Si112  1  0.92985178  0.32094607  0.98191619  1
  Si0+  Si113  1  0.07292497  0.17553413  0.65248587  1
  Si0+  Si114  1  0.67520572  0.92830467  0.01755951  1
  Si0+  Si115  1  0.82234576  0.57501525  0.67974041  1
  Si0+  Si116  1  0.82053469  0.07024313  0.34866911  1
  Si0+  Si117  1  0.17656003  0.92862126  0.35216929  1
  Si0+  Si118  1  0.92734776  0.82453091  0.65197114  1
  Si0+  Si119  1  0.17973621  0.93277237  0.68009724  1
  O2-  O120  1  0.25359812  0.00505162  0.05910697  1
  O2-  O121  1  0.24548383  -0.00135227  0.39478107  1
  O2-  O122  1  0.24930671  0.00458773  0.72296873  1
  O2-  O123  1  0.25277519  0.49550444  0.06638322  1
  O2-  O124  1  0.24436030  0.49659129  0.39486792  1
  O2-  O125  1  0.24964238  0.49891119  0.73067073  1
  O2-  O126  1  0.74301724  -0.00304552  0.06304595  1
  O2-  O127  1  0.74955013  -0.00082322  0.39163647  1
  O2-  O128  1  0.74580971  -0.00587330  0.72554496  1
  O2-  O129  1  0.74953998  0.50219462  0.06716364  1
  O2-  O130  1  0.75335506  0.49939419  0.39244466  1
  O2-  O131  1  0.75255346  0.50804242  0.72381020  1
  O2-  O132  1  0.00522627  0.25455918  0.26892104  1
  O2-  O133  1  0.00538893  0.25100606  0.61237780  1
  O2-  O134  1  -0.00066517  0.25401785  0.93586180  1
  O2-  O135  1  0.00173580  0.74618561  0.27226210  1
  O2-  O136  1  -0.00979148  0.75079986  0.60706048  1
  O2-  O137  1  -0.01046735  0.75001762  0.93864879  1
  O2-  O138  1  0.49211043  0.24998974  0.27571685  1
  O2-  O139  1  0.49581134  0.25566431  0.60290103  1
  O2-  O140  1  0.50403521  0.25578838  0.93458241  1
  O2-  O141  1  0.49999325  0.73922042  0.27381755  1
  O2-  O142  1  0.49987092  0.74806976  0.60925899  1
  O2-  O143  1  0.50070682  0.74251406  0.93779223  1
  O2-  O144  1  0.06935641  0.17666962  0.09812553  1
  O2-  O145  1  0.07043157  0.17990471  0.43404659  1
  O2-  O146  1  0.07034248  0.17045199  0.75695983  1
  O2-  O147  1  0.06837696  0.68331037  0.10030699  1
  O2-  O148  1  0.06981221  0.68007982  0.42190238  1
  O2-  O149  1  0.06971016  0.68002957  0.76421678  1
  O2-  O150  1  0.56937811  0.17848319  0.09665213  1
  O2-  O151  1  0.57285934  0.17996850  0.43340604  1
  O2-  O152  1  0.57088418  0.18312813  0.76361733  1
  O2-  O153  1  0.57701339  0.68315076  0.08885045  1
  O2-  O154  1  0.57473507  0.67752407  0.42422497  1
  O2-  O155  1  0.57765965  0.68113577  0.75623810  1
  O2-  O156  1  0.17744851  0.42641862  0.24512824  1
  O2-  O157  1  0.17646684  0.42827685  0.56713854  1
  O2-  O158  1  0.17830281  0.42802744  0.90284823  1
  O2-  O159  1  0.17656247  0.92668661  0.24706453  1
  O2-  O160  1  0.17864675  0.93387327  0.57482765  1
  O2-  O161  1  0.18108786  0.92919843  0.89951529  1
  O2-  O162  1  0.68018394  0.42952093  0.24584949  1
  O2-  O163  1  0.68458904  0.42846282  0.56587654  1
  O2-  O164  1  0.68137527  0.42916701  0.90419511  1
  O2-  O165  1  0.67955561  0.92708639  0.24350300  1
  O2-  O166  1  0.67437936  0.92537743  0.57734729  1
  O2-  O167  1  0.67721973  0.92626120  0.91168841  1
  O2-  O168  1  0.42849754  0.32045849  0.09927599  1
  O2-  O169  1  0.43323119  0.32420897  0.42642249  1
  O2-  O170  1  0.42773424  0.32227979  0.75372994  1
  O2-  O171  1  0.42882164  0.81976593  0.09825869  1
  O2-  O172  1  0.43327325  0.81862530  0.43365025  1
  O2-  O173  1  0.42799034  0.82205415  0.75398208  1
  O2-  O174  1  0.93032510  0.31857457  0.08740822  1
  O2-  O175  1  0.92609374  0.31851664  0.43157856  1
  O2-  O176  1  0.92808288  0.31796455  0.75856686  1
  O2-  O177  1  0.92771314  0.82275160  0.08854005  1
  O2-  O178  1  0.92853026  0.81886032  0.43348267  1
  O2-  O179  1  0.92987824  0.82885519  0.75667927  1
  O2-  O180  1  0.32428289  0.06700913  0.23264191  1
  O2-  O181  1  0.32574326  0.06844261  0.57596296  1
  O2-  O182  1  0.32209636  0.06640241  0.90627658  1
  O2-  O183  1  0.31888060  0.57147706  0.23673599  1
  O2-  O184  1  0.31791884  0.57349571  0.56861871  1
  O2-  O185  1  0.31414834  0.57402147  0.90246981  1
  O2-  O186  1  0.81968839  0.06874808  0.24417296  1
  O2-  O187  1  0.82098894  0.06788282  0.56500787  1
  O2-  O188  1  0.82061334  0.06805170  0.90365302  1
  O2-  O189  1  0.81836033  0.57672940  0.24517932  1
  O2-  O190  1  0.81988156  0.57532854  0.57351349  1
  O2-  O191  1  0.82034153  0.56942838  0.90049402  1
  O2-  O192  1  0.04409007  0.08165587  0.26831066  1
  O2-  O193  1  0.04071381  0.08603066  0.60243387  1
  O2-  O194  1  0.03492945  0.08125833  0.93262144  1
  O2-  O195  1  0.04820634  0.58477690  0.27116642  1
  O2-  O196  1  0.04117245  0.58290100  0.59409276  1
  O2-  O197  1  0.03882745  0.58115014  0.93396096  1
  O2-  O198  1  0.54334986  0.08076860  0.26659711  1
  O2-  O199  1  0.54167218  0.08352389  0.59857289  1
  O2-  O200  1  0.54574073  0.08306367  0.92705810  1
  O2-  O201  1  0.55166175  0.57914511  0.27577353  1
  O2-  O202  1  0.54613030  0.58575425  0.60461525  1
  O2-  O203  1  0.55403432  0.58276519  0.94114325  1
  O2-  O204  1  0.17460812  0.20288436  0.26880977  1
  O2-  O205  1  0.16717470  0.19814709  0.60685043  1
  O2-  O206  1  0.16845005  0.20136240  0.93024875  1
  O2-  O207  1  0.16465819  0.70715015  0.27172651  1
  O2-  O208  1  0.16279040  0.71697394  0.59456802  1
  O2-  O209  1  0.16129432  0.71563249  0.93128282  1
  O2-  O210  1  0.66494412  0.21073497  0.26570250  1
  O2-  O211  1  0.66849839  0.21354519  0.59848998  1
  O2-  O212  1  0.67405213  0.20836319  0.93459168  1
  O2-  O213  1  0.66419111  0.70402574  0.27107909  1
  O2-  O214  1  0.66345601  0.70700852  0.60099434  1
  O2-  O215  1  0.66490818  0.70957029  0.93405656  1
  O2-  O216  1  0.08117982  0.45291462  0.06908579  1
  O2-  O217  1  0.08094694  0.45292555  0.39411119  1
  O2-  O218  1  0.07748630  0.45526233  0.73189853  1
  O2-  O219  1  0.08362661  0.95865472  0.06847280  1
  O2-  O220  1  0.08277406  0.95463067  0.39897541  1
  O2-  O221  1  0.08848674  0.95865881  0.72889029  1
  O2-  O222  1  0.58060453  0.45669135  0.07289459  1
  O2-  O223  1  0.59133535  0.45450805  0.40106569  1
  O2-  O224  1  0.58416904  0.45786170  0.73332687  1
  O2-  O225  1  0.58032173  0.95448483  0.06024211  1
  O2-  O226  1  0.58772340  0.95478447  0.39666933  1
  O2-  O227  1  0.58210800  0.95351077  0.72919952  1
  O2-  O228  1  0.20786692  0.32488196  0.06578408  1
  O2-  O229  1  0.20064984  0.33408745  0.39822579  1
  O2-  O230  1  0.20172148  0.32679732  0.73186220  1
  O2-  O231  1  0.21115425  0.83517072  0.06930337  1
  O2-  O232  1  0.20387717  0.83612860  0.40023636  1
  O2-  O233  1  0.20992467  0.84112539  0.72559983  1
  O2-  O234  1  0.70927461  0.33192716  0.07209533  1
  O2-  O235  1  0.71324980  0.33593444  0.39621154  1
  O2-  O236  1  0.71570738  0.33567543  0.73486468  1
  O2-  O237  1  0.69865935  0.83533846  0.06547504  1
  O2-  O238  1  0.70727627  0.83577627  0.39671875  1
  O2-  O239  1  0.69816872  0.83284439  0.73036302  1
  O2-  O240  1  0.46051010  0.41506756  0.27429753  1
  O2-  O241  1  0.45289288  0.41981937  0.60566887  1
  O2-  O242  1  0.45404313  0.42535599  0.93528701  1
  O2-  O243  1  0.46387902  0.91155426  0.26431539  1
  O2-  O244  1  0.45958163  0.91155144  0.60075418  1
  O2-  O245  1  0.46027401  0.91267828  0.92613121  1
  O2-  O246  1  0.94737558  0.42357662  0.26647331  1
  O2-  O247  1  0.95279940  0.41067915  0.60364491  1
  O2-  O248  1  0.95220340  0.41560570  0.93728992  1
  O2-  O249  1  0.95699102  0.91641776  0.26569650  1
  O2-  O250  1  0.96008057  0.91516071  0.60214996  1
  O2-  O251  1  0.95626910  0.91507312  0.93745941  1
  O2-  O252  1  0.33317342  0.30441254  0.27838527  1
  O2-  O253  1  0.33362272  0.29836099  0.60239961  1
  O2-  O254  1  0.33345707  0.29267087  0.92722927  1
  O2-  O255  1  0.33033890  0.79205146  0.26917705  1
  O2-  O256  1  0.33732166  0.79545295  0.59990784  1
  O2-  O257  1  0.33110277  0.78936085  0.93050214  1
  O2-  O258  1  0.83345774  0.28914456  0.26139789  1
  O2-  O259  1  0.84060535  0.28595588  0.60452122  1
  O2-  O260  1  0.83631094  0.29222946  0.93785567  1
  O2-  O261  1  0.83126003  0.79094272  0.26517650  1
  O2-  O262  1  0.83090202  0.80603925  0.60744598  1
  O2-  O263  1  0.82934765  0.80481083  0.93886997  1
  O2-  O264  1  0.41759482  0.04115542  0.05573697  1
  O2-  O265  1  0.41800644  0.03374467  0.40107906  1
  O2-  O266  1  0.41431144  0.03803997  0.72890008  1
  O2-  O267  1  0.42056451  0.55460581  0.06708713  1
  O2-  O268  1  0.41809999  0.54209663  0.40317411  1
  O2-  O269  1  0.41953171  0.55321841  0.73413629  1
  O2-  O270  1  0.91427022  0.03597411  0.07289265  1
  O2-  O271  1  0.91263721  0.04142893  0.39578676  1
  O2-  O272  1  0.91638989  0.03821065  0.73429991  1
  O2-  O273  1  0.91861179  0.54428683  0.06986530  1
  O2-  O274  1  0.91498008  0.54884536  0.39567743  1
  O2-  O275  1  0.91590904  0.54674754  0.72232852  1
  O2-  O276  1  0.30271284  0.16513075  0.05571983  1
  O2-  O277  1  0.29680350  0.16750746  0.40313563  1
  O2-  O278  1  0.30257991  0.16483770  0.72630929  1
  O2-  O279  1  0.28312789  0.66830979  0.06835002  1
  O2-  O280  1  0.28911268  0.66785469  0.40366350  1
  O2-  O281  1  0.28793821  0.67376221  0.73075813  1
  O2-  O282  1  0.79245503  0.16605266  0.07274497  1
  O2-  O283  1  0.79178504  0.16277527  0.39445642  1
  O2-  O284  1  0.78960193  0.16400473  0.73438866  1
  O2-  O285  1  0.79444530  0.67269208  0.06570093  1
  O2-  O286  1  0.79091491  0.66384898  0.39922275  1
  O2-  O287  1  0.80016882  0.66961871  0.72478762  1
