# generated using pymatgen
data_Ca2Al2SiO7
_symmetry_space_group_name_H-M   'P 1'
_cell_length_a   15.45636923
_cell_length_b   15.45493735
_cell_length_c   15.28163023
_cell_angle_alpha   90.00070762
_cell_angle_beta   90.01493736
_cell_angle_gamma   89.99384040
_symmetry_Int_Tables_number   1
_chemical_formula_structural   Ca2Al2SiO7
_chemical_formula_sum   'Ca48 Al48 Si24 O168'
_cell_volume   3650.43317251
_cell_formula_units_Z   24
loop_
 _symmetry_equiv_pos_site_id
 _symmetry_equiv_pos_as_xyz
  1  'x, y, z'
loop_
 _atom_type_symbol
 _atom_type_oxidation_number
  Ca2+  2.0
  Al0+  0.0
  Si0+  0.0
  O2-  -2.0
loop_
 _atom_site_type_symbol
 _atom_site_label
 _atom_site_symmetry_multiplicity
 _atom_site_fract_x
 _atom_site_fract_y
 _atom_site_fract_z
 _atom_site_occupancy
  Ca2+  Ca0  1  0.16810409  0.08292258  0.17856787  1
  Ca2+  Ca1  1  0.16598003  0.07367551  0.49860347  1
  Ca2+  Ca2  1  0.16312288  0.08131228  0.83658423  1
  Ca2+  Ca3  1  0.15889661  0.57157265  0.17314461  1
  Ca2+  Ca4  1  0.16084406  0.58265844  0.50453652  1
  Ca2+  Ca5  1  0.16420607  0.57743540  0.83755063  1
  Ca2+  Ca6  1  0.67467958  0.07315332  0.17208440  1
  Ca2+  Ca7  1  0.65946100  0.07606720  0.50306749  1
  Ca2+  Ca8  1  0.67129321  0.07982576  0.84267836  1
  Ca2+  Ca9  1  0.67087007  0.58594499  0.17087870  1
  Ca2+  Ca10  1  0.66767063  0.58335484  0.50480096  1
  Ca2+  Ca11  1  0.67634093  0.58859866  0.83914673  1
  Ca2+  Ca12  1  0.08600801  0.32499799  0.15921082  1
  Ca2+  Ca13  1  0.07635546  0.33311641  0.49192999  1
  Ca2+  Ca14  1  0.07461771  0.33325466  0.83508044  1
  Ca2+  Ca15  1  0.08031468  0.83078862  0.16327699  1
  Ca2+  Ca16  1  0.09059845  0.82518062  0.49334038  1
  Ca2+  Ca17  1  0.07501411  0.83119109  0.82625464  1
  Ca2+  Ca18  1  0.58393028  0.33683340  0.16559137  1
  Ca2+  Ca19  1  0.58020902  0.33122331  0.49673871  1
  Ca2+  Ca20  1  0.57779510  0.32660310  0.82183471  1
  Ca2+  Ca21  1  0.58759702  0.83001986  0.16404060  1
  Ca2+  Ca22  1  0.58212586  0.82367912  0.48877012  1
  Ca2+  Ca23  1  0.59224554  0.82350885  0.83282137  1
  Ca2+  Ca24  1  0.32022601  0.41683094  0.17231893  1
  Ca2+  Ca25  1  0.32693562  0.41405199  0.50182177  1
  Ca2+  Ca26  1  0.32948678  0.41500516  0.83862623  1
  Ca2+  Ca27  1  0.32900612  0.92317556  0.18024797  1
  Ca2+  Ca28  1  0.32704525  0.91417990  0.49918528  1
  Ca2+  Ca29  1  0.32482882  0.91402171  0.83350634  1
  Ca2+  Ca30  1  0.83318851  0.42196204  0.16918669  1
  Ca2+  Ca31  1  0.82949468  0.42125263  0.50612348  1
  Ca2+  Ca32  1  0.84366660  0.42612865  0.83732446  1
  Ca2+  Ca33  1  0.82800808  0.91430345  0.16467661  1
  Ca2+  Ca34  1  0.82825400  0.91623400  0.50035653  1
  Ca2+  Ca35  1  0.82923647  0.92243491  0.84676731  1
  Ca2+  Ca36  1  0.41412722  0.16399866  0.16584127  1
  Ca2+  Ca37  1  0.41531962  0.16790510  0.49982330  1
  Ca2+  Ca38  1  0.42396134  0.17333764  0.82571046  1
  Ca2+  Ca39  1  0.42819086  0.67155911  0.16638426  1
  Ca2+  Ca40  1  0.42642941  0.67288033  0.49090424  1
  Ca2+  Ca41  1  0.43218935  0.66402910  0.82781257  1
  Ca2+  Ca42  1  0.92776408  0.16957507  0.15619020  1
  Ca2+  Ca43  1  0.92146820  0.17349151  0.49493341  1
  Ca2+  Ca44  1  0.91344944  0.17724966  0.83245060  1
  Ca2+  Ca45  1  0.91787089  0.67061082  0.16218343  1
  Ca2+  Ca46  1  0.92564290  0.66275018  0.49922422  1
  Ca2+  Ca47  1  0.91477804  0.66890911  0.82963945  1
  Al0+  Al48  1  0.00045586  -0.00086002  -0.00428116  1
  Al0+  Al49  1  0.00020941  0.00147616  0.33420053  1
  Al0+  Al50  1  -0.00202740  0.00004205  0.67096363  1
  Al0+  Al51  1  0.00060512  0.49860667  0.00699293  1
  Al0+  Al52  1  -0.00148560  0.50113870  0.33348878  1
  Al0+  Al53  1  -0.00120443  0.50007495  0.66364132  1
  Al0+  Al54  1  0.49749685  -0.00150926  0.00180140  1
  Al0+  Al55  1  0.50060212  0.00147896  0.33840743  1
  Al0+  Al56  1  0.49761800  -0.00038721  0.66724962  1
  Al0+  Al57  1  0.49986884  0.50159217  -0.00442879  1
  Al0+  Al58  1  0.50042820  0.49913353  0.33245000  1
  Al0+  Al59  1  0.49870850  0.49906746  0.65935664  1
  Al0+  Al60  1  0.24972511  0.24929060  -0.00150297  1
  Al0+  Al61  1  0.24940366  0.25099642  0.33933607  1
  Al0+  Al62  1  0.24949534  0.24803598  0.66512761  1
  Al0+  Al63  1  0.25300314  0.74929575  0.00070883  1
  Al0+  Al64  1  0.25156583  0.74872918  0.32551016  1
  Al0+  Al65  1  0.24952023  0.74841201  0.67077186  1
  Al0+  Al66  1  0.75076873  0.25034146  0.00024253  1
  Al0+  Al67  1  0.74901516  0.25263317  0.33666547  1
  Al0+  Al68  1  0.74937229  0.24919057  0.65794461  1
  Al0+  Al69  1  0.75114515  0.74885932  0.00038581  1
  Al0+  Al70  1  0.75243977  0.75063005  0.33560080  1
  Al0+  Al71  1  0.75140229  0.74992494  0.66566920  1
  Al0+  Al72  1  0.57068517  0.68043664  0.98518132  1
  Al0+  Al73  1  0.43014727  0.82345384  0.31794542  1
  Al0+  Al74  1  0.93055428  0.81897710  0.98653745  1
  Al0+  Al75  1  0.17756333  0.92661882  0.34644704  1
  Al0+  Al76  1  0.07158369  0.67839596  0.31866731  1
  Al0+  Al77  1  0.42666919  0.32128381  0.65007131  1
  Al0+  Al78  1  0.07010685  0.68072169  0.65543680  1
  Al0+  Al79  1  0.57330158  0.68075215  0.65205894  1
  Al0+  Al80  1  0.17857498  0.92751958  0.68188406  1
  Al0+  Al81  1  0.57337354  0.67810487  0.31705554  1
  Al0+  Al82  1  0.92786767  0.32224238  0.98619523  1
  Al0+  Al83  1  0.93071767  0.32146335  0.65142332  1
  Al0+  Al84  1  0.07309925  0.17794882  0.98358152  1
  Al0+  Al85  1  0.57104392  0.17720085  0.65115289  1
  Al0+  Al86  1  0.17799846  0.43085589  0.34869109  1
  Al0+  Al87  1  0.82078432  0.57000035  0.01437015  1
  Al0+  Al88  1  0.18130622  0.43036364  0.01294825  1
  Al0+  Al89  1  0.82017846  0.56917817  0.68082877  1
  Al0+  Al90  1  0.67788406  0.42945619  0.34781603  1
  Al0+  Al91  1  0.68108255  0.92949062  0.34830045  1
  Al0+  Al92  1  0.07025701  0.18103011  0.32149067  1
  Al0+  Al93  1  0.67858675  0.92903121  0.01468224  1
  Al0+  Al94  1  0.32186596  0.07248390  0.35035603  1
  Al0+  Al95  1  0.82296624  0.07374403  0.01505357  1
  Si0+  Si96  1  0.92796710  0.82435417  0.64948851  1
  Si0+  Si97  1  0.42671807  0.82024350  0.65141743  1
  Si0+  Si98  1  0.32097365  0.07191575  0.68656603  1
  Si0+  Si99  1  0.32201497  0.57028787  0.68157128  1
  Si0+  Si100  1  0.07372785  0.67688497  0.98463057  1
  Si0+  Si101  1  0.67472217  0.42748687  0.01339423  1
  Si0+  Si102  1  0.57048759  0.17744907  0.98872737  1
  Si0+  Si103  1  0.42865239  0.32017298  0.31694448  1
  Si0+  Si104  1  0.82142944  0.57255720  0.35188475  1
  Si0+  Si105  1  0.82227342  0.07387786  0.35116870  1
  Si0+  Si106  1  0.42932376  0.32032949  0.98718549  1
  Si0+  Si107  1  0.92623865  0.32242314  0.31578100  1
  Si0+  Si108  1  0.32560005  0.57254493  0.01724964  1
  Si0+  Si109  1  0.17850876  0.92719169  0.01415753  1
  Si0+  Si110  1  0.42679533  0.82413984  0.98088514  1
  Si0+  Si111  1  0.67674331  0.42727965  0.68237313  1
  Si0+  Si112  1  0.07113498  0.17557134  0.64893889  1
  Si0+  Si113  1  0.57209586  0.17933232  0.31699972  1
  Si0+  Si114  1  0.17843726  0.42829502  0.68150286  1
  Si0+  Si115  1  0.31930523  0.07018352  0.01374008  1
  Si0+  Si116  1  0.67845487  0.92918130  0.68148616  1
  Si0+  Si117  1  0.32218956  0.57095390  0.34916549  1
  Si0+  Si118  1  0.82006150  0.07256162  0.68149712  1
  Si0+  Si119  1  0.92885167  0.82354867  0.31723898  1
  O2-  O120  1  0.24859115  -0.00072583  0.05555243  1
  O2-  O121  1  0.25108478  -0.00279292  0.39706871  1
  O2-  O122  1  0.25124375  0.00408153  0.73051412  1
  O2-  O123  1  0.25344921  0.50740150  0.06064089  1
  O2-  O124  1  0.24960392  0.50801409  0.39644470  1
  O2-  O125  1  0.25245952  0.49691465  0.72345882  1
  O2-  O126  1  0.75013894  0.00202419  0.06423915  1
  O2-  O127  1  0.75375569  0.00548883  0.39675016  1
  O2-  O128  1  0.74746795  0.00241647  0.72300051  1
  O2-  O129  1  0.74523494  0.49408216  0.05754210  1
  O2-  O130  1  0.75025558  0.50567669  0.39473098  1
  O2-  O131  1  0.74388946  0.49576792  0.72872326  1
  O2-  O132  1  -0.00441372  0.25442603  0.27272767  1
  O2-  O133  1  0.00526588  0.24658705  0.60478829  1
  O2-  O134  1  -0.00210688  0.24798362  0.93562741  1
  O2-  O135  1  0.00004109  0.75675531  0.27391613  1
  O2-  O136  1  -0.00078972  0.75795465  0.60666750  1
  O2-  O137  1  0.00723567  0.74640263  0.93891160  1
  O2-  O138  1  0.49992285  0.24926052  0.27403635  1
  O2-  O139  1  0.49996257  0.25015402  0.60086624  1
  O2-  O140  1  0.50365039  0.25235629  0.94601823  1
  O2-  O141  1  0.50447718  0.75365752  0.26779748  1
  O2-  O142  1  0.49928310  0.75646536  0.60682760  1
  O2-  O143  1  0.49612851  0.75568720  0.93764393  1
  O2-  O144  1  0.07722010  0.18054029  0.09714159  1
  O2-  O145  1  0.06704841  0.18185094  0.43480817  1
  O2-  O146  1  0.07003433  0.17582504  0.75448720  1
  O2-  O147  1  0.07302374  0.67890268  0.09011914  1
  O2-  O148  1  0.06878047  0.67718553  0.43212117  1
  O2-  O149  1  0.06889514  0.68032171  0.76867633  1
  O2-  O150  1  0.56736320  0.17679920  0.09381625  1
  O2-  O151  1  0.57243072  0.18098344  0.42180035  1
  O2-  O152  1  0.56988081  0.17814545  0.76578400  1
  O2-  O153  1  0.56881551  0.67881713  0.09767262  1
  O2-  O154  1  0.57111383  0.67868943  0.43087778  1
  O2-  O155  1  0.57338707  0.68187180  0.76548418  1
  O2-  O156  1  0.18086043  0.42900073  0.23554002  1
  O2-  O157  1  0.17833098  0.43040447  0.57646668  1
  O2-  O158  1  0.18390607  0.43088855  0.89914548  1
  O2-  O159  1  0.17710533  0.93013241  0.23244054  1
  O2-  O160  1  0.18106244  0.92653057  0.56932903  1
  O2-  O161  1  0.18145892  0.92604415  0.90881538  1
  O2-  O162  1  0.68001874  0.42763805  0.23435595  1
  O2-  O163  1  0.67813466  0.42916628  0.57684467  1
  O2-  O164  1  0.66978593  0.42793551  0.90802415  1
  O2-  O165  1  0.68282672  0.93052181  0.23553638  1
  O2-  O166  1  0.67996215  0.92922951  0.57638373  1
  O2-  O167  1  0.67882306  0.93184445  0.90029008  1
  O2-  O168  1  0.42802712  0.31931508  0.09231896  1
  O2-  O169  1  0.42933607  0.32023018  0.42168508  1
  O2-  O170  1  0.42741381  0.31992551  0.76470177  1
  O2-  O171  1  0.42482925  0.82565087  0.08579702  1
  O2-  O172  1  0.43087646  0.81989710  0.43208515  1
  O2-  O173  1  0.42636472  0.81787121  0.75733071  1
  O2-  O174  1  0.92983499  0.32235986  0.09955705  1
  O2-  O175  1  0.92714199  0.32149726  0.42181435  1
  O2-  O176  1  0.93247239  0.32210236  0.76434447  1
  O2-  O177  1  0.93233765  0.81784786  0.09968013  1
  O2-  O178  1  0.92706743  0.82271106  0.42307337  1
  O2-  O179  1  0.92705838  0.82416372  0.75512743  1
  O2-  O180  1  0.31986014  0.07397701  0.23585242  1
  O2-  O181  1  0.32187448  0.07206060  0.58169872  1
  O2-  O182  1  0.32109569  0.07025343  0.90867155  1
  O2-  O183  1  0.32339972  0.56510472  0.24355935  1
  O2-  O184  1  0.32051206  0.57267230  0.57677343  1
  O2-  O185  1  0.32760075  0.56995662  0.91122530  1
  O2-  O186  1  0.82070286  0.07466022  0.24590259  1
  O2-  O187  1  0.82233464  0.07009855  0.57638894  1
  O2-  O188  1  0.81781155  0.07415895  0.90078627  1
  O2-  O189  1  0.82224662  0.57184995  0.24616356  1
  O2-  O190  1  0.82064104  0.56775629  0.56797865  1
  O2-  O191  1  0.82058376  0.57016608  0.90100492  1
  O2-  O192  1  0.04160523  0.08369143  0.26763330  1
  O2-  O193  1  0.04142823  0.08260075  0.60386256  1
  O2-  O194  1  0.04863436  0.07886387  0.93102985  1
  O2-  O195  1  0.03563500  0.58318613  0.26419412  1
  O2-  O196  1  0.03765126  0.58581262  0.59971830  1
  O2-  O197  1  0.04733006  0.58283650  0.94123476  1
  O2-  O198  1  0.54526522  0.08733141  0.27060916  1
  O2-  O199  1  0.54025005  0.07856321  0.59927941  1
  O2-  O200  1  0.53824668  0.08756974  0.93955402  1
  O2-  O201  1  0.54187894  0.57999936  0.26473459  1
  O2-  O202  1  0.54255246  0.58411745  0.59958414  1
  O2-  O203  1  0.53876156  0.58433028  0.92880475  1
  O2-  O204  1  0.16774867  0.21263699  0.26962586  1
  O2-  O205  1  0.16641734  0.19690980  0.60573930  1
  O2-  O206  1  0.17030890  0.20986581  0.92838546  1
  O2-  O207  1  0.16884471  0.70107202  0.26282151  1
  O2-  O208  1  0.16833136  0.70784652  0.60282423  1
  O2-  O209  1  0.16976057  0.69884674  0.94062258  1
  O2-  O210  1  0.66370931  0.20948693  0.27016145  1
  O2-  O211  1  0.66838253  0.20175981  0.59505203  1
  O2-  O212  1  0.66297861  0.20096280  0.94122120  1
  O2-  O213  1  0.67376006  0.70515136  0.26817099  1
  O2-  O214  1  0.66933415  0.71164356  0.59772096  1
  O2-  O215  1  0.66673411  0.71201765  0.93113946  1
  O2-  O216  1  0.08620255  0.45809862  0.07029036  1
  O2-  O217  1  0.08016446  0.45978838  0.40116259  1
  O2-  O218  1  0.08835648  0.46058825  0.72881344  1
  O2-  O219  1  0.08598107  0.95201500  0.05943918  1
  O2-  O220  1  0.07974171  0.95583224  0.40104004  1
  O2-  O221  1  0.08089836  0.95729297  0.73545970  1
  O2-  O222  1  0.58169641  0.45486554  0.06096765  1
  O2-  O223  1  0.57999058  0.45632711  0.40122336  1
  O2-  O224  1  0.58074743  0.45011384  0.72542124  1
  O2-  O225  1  0.57894289  0.95593854  0.06608357  1
  O2-  O226  1  0.58539456  0.96039427  0.40336549  1
  O2-  O227  1  0.58491808  0.95306755  0.72784460  1
  O2-  O228  1  0.21663237  0.33429047  0.06608056  1
  O2-  O229  1  0.21173801  0.33685398  0.40487102  1
  O2-  O230  1  0.20387021  0.33481220  0.72728700  1
  O2-  O231  1  0.20655548  0.83490125  0.06109123  1
  O2-  O232  1  0.20635335  0.82633775  0.39594563  1
  O2-  O233  1  0.21160242  0.83228557  0.73867656  1
  O2-  O234  1  0.69648934  0.33301483  0.05951155  1
  O2-  O235  1  0.70832223  0.33353592  0.40430270  1
  O2-  O236  1  0.70154326  0.33151910  0.72465790  1
  O2-  O237  1  0.71000062  0.83186961  0.06678587  1
  O2-  O238  1  0.71364958  0.83375069  0.40363597  1
  O2-  O239  1  0.70964683  0.83846498  0.72871400  1
  O2-  O240  1  0.45683827  0.41113903  0.26820052  1
  O2-  O241  1  0.45123680  0.41919937  0.59520820  1
  O2-  O242  1  0.45293234  0.41256356  0.93841037  1
  O2-  O243  1  0.45616008  0.92409526  0.26815413  1
  O2-  O244  1  0.44605169  0.91627786  0.60879542  1
  O2-  O245  1  0.45034856  0.91818880  0.93363435  1
  O2-  O246  1  0.95046662  0.41686857  0.27216183  1
  O2-  O247  1  0.96299826  0.41609271  0.59535555  1
  O2-  O248  1  0.96228392  0.41990320  0.93402693  1
  O2-  O249  1  0.95097593  0.91792115  0.27162999  1
  O2-  O250  1  0.95024870  0.91913986  0.60457089  1
  O2-  O251  1  0.95874636  0.91523852  0.93026851  1
  O2-  O252  1  0.33682992  0.29113808  0.27050909  1
  O2-  O253  1  0.32835078  0.29124823  0.59738268  1
  O2-  O254  1  0.34036909  0.28849466  0.93699237  1
  O2-  O255  1  0.33356976  0.79437975  0.26149739  1
  O2-  O256  1  0.33500156  0.78954001  0.60546875  1
  O2-  O257  1  0.33339311  0.79643637  0.93385748  1
  O2-  O258  1  0.83191950  0.29727555  0.27121648  1
  O2-  O259  1  0.83445291  0.29184721  0.59648256  1
  O2-  O260  1  0.82805856  0.29779477  0.93214233  1
  O2-  O261  1  0.83698521  0.79390932  0.27021874  1
  O2-  O262  1  0.83597676  0.79592739  0.60222186  1
  O2-  O263  1  0.83482983  0.78753456  0.93158562  1
  O2-  O264  1  0.41062845  0.04331083  0.06303268  1
  O2-  O265  1  0.42070163  0.04826162  0.40394173  1
  O2-  O266  1  0.41442474  0.04523767  0.73415209  1
  O2-  O267  1  0.41729037  0.54254431  0.06437798  1
  O2-  O268  1  0.41376203  0.54052972  0.39664120  1
  O2-  O269  1  0.41437710  0.54157179  0.72879141  1
  O2-  O270  1  0.92206728  0.04355250  0.06506688  1
  O2-  O271  1  0.91503278  0.04750941  0.39834239  1
  O2-  O272  1  0.91074379  0.04524586  0.73128781  1
  O2-  O273  1  0.91627473  0.54067344  0.07111483  1
  O2-  O274  1  0.91344771  0.54293559  0.39885262  1
  O2-  O275  1  0.91689218  0.53663697  0.73444435  1
  O2-  O276  1  0.29326250  0.16228229  0.06133031  1
  O2-  O277  1  0.29147837  0.16906475  0.40530140  1
  O2-  O278  1  0.29576885  0.16617697  0.73296861  1
  O2-  O279  1  0.30513191  0.66799353  0.06158611  1
  O2-  O280  1  0.30213534  0.66695053  0.39123296  1
  O2-  O281  1  0.29360777  0.65991504  0.73295531  1
  O2-  O282  1  0.79548103  0.17211775  0.06876132  1
  O2-  O283  1  0.79619229  0.16738223  0.39732758  1
  O2-  O284  1  0.79179448  0.16536418  0.72685745  1
  O2-  O285  1  0.78860282  0.66508534  0.06933574  1
  O2-  O286  1  0.79998884  0.66655646  0.39853428  1
  O2-  O287  1  0.79148998  0.66778049  0.73315387  1
