# generated using pymatgen
data_Ca2Al2SiO7
_symmetry_space_group_name_H-M   'P 1'
_cell_length_a   15.46398638
_cell_length_b   15.46417733
_cell_length_c   15.28824995
_cell_angle_alpha   90.01764952
_cell_angle_beta   90.00040301
_cell_angle_gamma   90.01028319
_symmetry_Int_Tables_number   1
_chemical_formula_structural   Ca2Al2SiO7
_chemical_formula_sum   'Ca48 Al48 Si24 O168'
_cell_volume   3655.99864830
_cell_formula_units_Z   24
loop_
 _symmetry_equiv_pos_site_id
 _symmetry_equiv_pos_as_xyz
  1  'x, y, z'
loop_
 _atom_type_symbol
 _atom_type_oxidation_number
  Ca2+  2.0
  Al0+  0.0
  Si0+  0.0
  O2-  -2.0
loop_
 _atom_site_type_symbol
 _atom_site_label
 _atom_site_symmetry_multiplicity
 _atom_site_fract_x
 _atom_site_fract_y
 _atom_site_fract_z
 _atom_site_occupancy
  Ca2+  Ca0  1  0.16613271  0.07727916  0.17270730  1
  Ca2+  Ca1  1  0.15840363  0.06979126  0.50103155  1
  Ca2+  Ca2  1  0.15934861  0.07603693  0.83297442  1
  Ca2+  Ca3  1  0.16649110  0.57978705  0.17169860  1
  Ca2+  Ca4  1  0.16975251  0.58061779  0.50358921  1
  Ca2+  Ca5  1  0.17167729  0.57628756  0.84101282  1
  Ca2+  Ca6  1  0.67766997  0.07622132  0.17240441  1
  Ca2+  Ca7  1  0.67010858  0.07565119  0.49831329  1
  Ca2+  Ca8  1  0.67447669  0.07179433  0.84187936  1
  Ca2+  Ca9  1  0.66740372  0.57651034  0.16506013  1
  Ca2+  Ca10  1  0.67624448  0.58447937  0.50605407  1
  Ca2+  Ca11  1  0.67789825  0.57991071  0.83695112  1
  Ca2+  Ca12  1  0.08108858  0.33623094  0.15872809  1
  Ca2+  Ca13  1  0.08094774  0.34209812  0.49889121  1
  Ca2+  Ca14  1  0.07796111  0.33890286  0.82971756  1
  Ca2+  Ca15  1  0.08042762  0.82529668  0.16091598  1
  Ca2+  Ca16  1  0.07500606  0.83244685  0.48940285  1
  Ca2+  Ca17  1  0.07259424  0.82940105  0.82845474  1
  Ca2+  Ca18  1  0.57986866  0.32912437  0.15708787  1
  Ca2+  Ca19  1  0.58087623  0.32461878  0.49005135  1
  Ca2+  Ca20  1  0.57793179  0.34231004  0.83325401  1
  Ca2+  Ca21  1  0.58497650  0.83773158  0.16377669  1
  Ca2+  Ca22  1  0.58380022  0.83773936  0.49516418  1
  Ca2+  Ca23  1  0.58596336  0.83654417  0.82855721  1
  Ca2+  Ca24  1  0.32419414  0.42415461  0.17063237  1
  Ca2+  Ca25  1  0.32116321  0.42675238  0.50525003  1
  Ca2+  Ca26  1  0.32451340  0.42331779  0.84265449  1
  Ca2+  Ca27  1  0.32557507  0.91638806  0.17255250  1
  Ca2+  Ca28  1  0.31668299  0.91223045  0.50249132  1
  Ca2+  Ca29  1  0.32531512  0.91538928  0.83346177  1
  Ca2+  Ca30  1  0.82953611  0.40915524  0.16651417  1
  Ca2+  Ca31  1  0.83720930  0.42552335  0.50885946  1
  Ca2+  Ca32  1  0.83699283  0.41880556  0.83915947  1
  Ca2+  Ca33  1  0.83455898  0.92221934  0.17306607  1
  Ca2+  Ca34  1  0.82804773  0.91206750  0.50483497  1
  Ca2+  Ca35  1  0.82889452  0.91450710  0.84212185  1
  Ca2+  Ca36  1  0.42512630  0.17112027  0.15902646  1
  Ca2+  Ca37  1  0.42461906  0.16569441  0.49125080  1
  Ca2+  Ca38  1  0.41657718  0.17501173  0.83066648  1
  Ca2+  Ca39  1  0.41363906  0.66110583  0.16281409  1
  Ca2+  Ca40  1  0.41430112  0.66195418  0.49721976  1
  Ca2+  Ca41  1  0.41658752  0.65833649  0.83260907  1
  Ca2+  Ca42  1  0.91321120  0.16670674  0.16081525  1
  Ca2+  Ca43  1  0.91223447  0.17312865  0.49799194  1
  Ca2+  Ca44  1  0.90847758  0.17768210  0.83413055  1
  Ca2+  Ca45  1  0.92929386  0.67775503  0.16126425  1
  Ca2+  Ca46  1  0.92075625  0.67602857  0.49406165  1
  Ca2+  Ca47  1  0.91958109  0.67197955  0.82872692  1
  Al0+  Al48  1  -0.00005859  -0.00049668  -0.00028650  1
  Al0+  Al49  1  -0.00191114  0.00533944  0.33760104  1
  Al0+  Al50  1  -0.00231116  0.00210106  0.66778303  1
  Al0+  Al51  1  0.00142518  0.50064982  -0.00343344  1
  Al0+  Al52  1  -0.00143355  0.50126882  0.33162736  1
  Al0+  Al53  1  0.00011814  0.50158061  0.66956382  1
  Al0+  Al54  1  0.50032112  -0.00049944  0.00079988  1
  Al0+  Al55  1  0.50245445  0.00008793  0.32972389  1
  Al0+  Al56  1  0.50027534  -0.00080623  0.66845255  1
  Al0+  Al57  1  0.50087386  0.49984135  0.00222996  1
  Al0+  Al58  1  0.49898316  0.49992965  0.33634659  1
  Al0+  Al59  1  0.49982173  0.49991008  0.66476778  1
  Al0+  Al60  1  0.25135520  0.24991855  -0.00216187  1
  Al0+  Al61  1  0.24935907  0.25236020  0.33681100  1
  Al0+  Al62  1  0.25054595  0.24921174  0.66557760  1
  Al0+  Al63  1  0.25224028  0.74961859  -0.00225923  1
  Al0+  Al64  1  0.25118064  0.74972672  0.33691459  1
  Al0+  Al65  1  0.25134354  0.75107355  0.67470384  1
  Al0+  Al66  1  0.75053339  0.24714647  0.00216232  1
  Al0+  Al67  1  0.74809898  0.24729801  0.33279382  1
  Al0+  Al68  1  0.74862738  0.24881838  0.66062700  1
  Al0+  Al69  1  0.74769309  0.74833861  0.00122330  1
  Al0+  Al70  1  0.74805202  0.74952584  0.33073310  1
  Al0+  Al71  1  0.74923346  0.74850873  0.67072433  1
  Al0+  Al72  1  0.82167656  0.07302467  0.35180163  1
  Al0+  Al73  1  0.92832114  0.82122454  0.98488426  1
  Al0+  Al74  1  0.07378374  0.67902919  0.98257106  1
  Al0+  Al75  1  0.67971951  0.92971513  0.68089071  1
  Al0+  Al76  1  0.82226494  0.06904958  0.01509512  1
  Al0+  Al77  1  0.17622051  0.93023821  0.68136464  1
  Al0+  Al78  1  0.67999249  0.92757414  0.34955089  1
  Al0+  Al79  1  0.82079724  0.57064232  0.67951103  1
  Al0+  Al80  1  0.07267520  0.67955568  0.31923609  1
  Al0+  Al81  1  0.43033511  0.32111235  0.98581661  1
  Al0+  Al82  1  0.92759600  0.82115631  0.65283437  1
  Al0+  Al83  1  0.92977885  0.32207873  0.65272201  1
  Al0+  Al84  1  0.17744273  0.42769757  0.01599937  1
  Al0+  Al85  1  0.57073254  0.17807180  0.31655662  1
  Al0+  Al86  1  0.17893344  0.93028190  0.34424279  1
  Al0+  Al87  1  0.92872462  0.31944229  0.98817871  1
  Al0+  Al88  1  0.67762901  0.92628670  0.01627318  1
  Al0+  Al89  1  0.17555859  0.42876889  0.34958117  1
  Al0+  Al90  1  0.92743341  0.82395184  0.31874266  1
  Al0+  Al91  1  0.32106161  0.57121193  0.01688326  1
  Al0+  Al92  1  0.32177966  0.57146971  0.35007877  1
  Al0+  Al93  1  0.68121390  0.42927693  0.01186089  1
  Al0+  Al94  1  0.32284050  0.57089757  0.68413571  1
  Al0+  Al95  1  0.17868232  0.42789676  0.68368853  1
  Si0+  Si96  1  0.07322023  0.17824174  0.64854246  1
  Si0+  Si97  1  0.42831205  0.32206897  0.31632721  1
  Si0+  Si98  1  0.57105785  0.67662900  0.31795758  1
  Si0+  Si99  1  0.42982376  0.82288196  0.98412308  1
  Si0+  Si100  1  0.82368172  0.57241953  0.01808343  1
  Si0+  Si101  1  0.32190784  0.07163709  0.01366406  1
  Si0+  Si102  1  0.18063450  0.92982754  0.01372096  1
  Si0+  Si103  1  0.56882128  0.17736700  0.65054175  1
  Si0+  Si104  1  0.92883484  0.32163876  0.31931771  1
  Si0+  Si105  1  0.07350313  0.68066871  0.65053290  1
  Si0+  Si106  1  0.81911512  0.56995990  0.34609764  1
  Si0+  Si107  1  0.42921258  0.82227479  0.65140432  1
  Si0+  Si108  1  0.07431731  0.17687732  0.98378322  1
  Si0+  Si109  1  0.42869273  0.32170273  0.64902882  1
  Si0+  Si110  1  0.57021882  0.67889298  0.65180070  1
  Si0+  Si111  1  0.32278964  0.07246253  0.34725704  1
  Si0+  Si112  1  0.67878236  0.42590353  0.67987271  1
  Si0+  Si113  1  0.57127729  0.17742043  0.98066623  1
  Si0+  Si114  1  0.07238127  0.18037255  0.31964161  1
  Si0+  Si115  1  0.82067197  0.07449723  0.68450720  1
  Si0+  Si116  1  0.67869978  0.42811598  0.34757963  1
  Si0+  Si117  1  0.32337014  0.07068266  0.68212025  1
  Si0+  Si118  1  0.57016266  0.67781432  0.98458065  1
  Si0+  Si119  1  0.42963747  0.82034258  0.31930312  1
  O2-  O120  1  0.25018771  0.00221071  0.05648561  1
  O2-  O121  1  0.25342760  0.00548248  0.39241667  1
  O2-  O122  1  0.25068882  0.00669716  0.72698398  1
  O2-  O123  1  0.24658692  0.50213011  0.06605638  1
  O2-  O124  1  0.24682689  0.50210284  0.39820695  1
  O2-  O125  1  0.25076935  0.49957290  0.73327025  1
  O2-  O126  1  0.75360487  -0.00612417  0.06484993  1
  O2-  O127  1  0.75503948  -0.00469790  0.40079478  1
  O2-  O128  1  0.75689458  0.00095781  0.72751205  1
  O2-  O129  1  0.75887235  0.49910293  0.06180405  1
  O2-  O130  1  0.74966920  0.49788465  0.39047801  1
  O2-  O131  1  0.75010005  0.49083722  0.72419991  1
  O2-  O132  1  0.00269072  0.25298679  0.27847710  1
  O2-  O133  1  0.00670590  0.24977163  0.60494371  1
  O2-  O134  1  0.00625659  0.24715334  0.94143516  1
  O2-  O135  1  0.00396058  0.75570703  0.27045517  1
  O2-  O136  1  0.00657755  0.75103041  0.60575614  1
  O2-  O137  1  -0.00130255  0.74854433  0.93334671  1
  O2-  O138  1  0.49508964  0.25232327  0.27092500  1
  O2-  O139  1  0.49932657  0.24988203  0.60726359  1
  O2-  O140  1  0.50516471  0.24784403  0.93488610  1
  O2-  O141  1  0.49962465  0.74807446  0.27712386  1
  O2-  O142  1  0.49835046  0.74920019  0.60947280  1
  O2-  O143  1  0.50212884  0.75247451  0.94331902  1
  O2-  O144  1  0.07641594  0.17536691  0.08954463  1
  O2-  O145  1  0.07318319  0.17949253  0.42453192  1
  O2-  O146  1  0.07363581  0.17680935  0.75399209  1
  O2-  O147  1  0.07511090  0.68287198  0.09631345  1
  O2-  O148  1  0.06993893  0.67931611  0.43321210  1
  O2-  O149  1  0.07198713  0.68232705  0.75587074  1
  O2-  O150  1  0.56743134  0.17764284  0.08608194  1
  O2-  O151  1  0.56809342  0.18019555  0.43053888  1
  O2-  O152  1  0.56692834  0.17715603  0.75534971  1
  O2-  O153  1  0.56897825  0.67563026  0.08983323  1
  O2-  O154  1  0.57212318  0.67521061  0.42317486  1
  O2-  O155  1  0.57008410  0.67795061  0.75675401  1
  O2-  O156  1  0.17672014  0.42561081  0.23662506  1
  O2-  O157  1  0.18008143  0.42978480  0.57005178  1
  O2-  O158  1  0.18039696  0.42567791  0.90274210  1
  O2-  O159  1  0.18281214  0.93231221  0.23092132  1
  O2-  O160  1  0.17863593  0.93028024  0.56813968  1
  O2-  O161  1  0.18242688  0.93204698  0.90852498  1
  O2-  O162  1  0.67843963  0.42891248  0.24256464  1
  O2-  O163  1  0.67778896  0.42785208  0.57376930  1
  O2-  O164  1  0.68003201  0.43336264  0.89858603  1
  O2-  O165  1  0.67759996  0.92906145  0.23677140  1
  O2-  O166  1  0.67627478  0.93148053  0.56824842  1
  O2-  O167  1  0.67489253  0.93010046  0.90241926  1
  O2-  O168  1  0.43251573  0.31709174  0.09877253  1
  O2-  O169  1  0.43186066  0.32028795  0.42240298  1
  O2-  O170  1  0.43051960  0.32154941  0.75403131  1
  O2-  O171  1  0.42824334  0.82516363  0.08927860  1
  O2-  O172  1  0.43051493  0.82199696  0.42453642  1
  O2-  O173  1  0.43158391  0.82614464  0.75640286  1
  O2-  O174  1  0.92774919  0.31617715  0.10167165  1
  O2-  O175  1  0.92779635  0.32238643  0.42455159  1
  O2-  O176  1  0.92619072  0.31841952  0.76537622  1
  O2-  O177  1  0.93237030  0.82241841  0.09831250  1
  O2-  O178  1  0.92662400  0.81905300  0.43280155  1
  O2-  O179  1  0.92687423  0.81883480  0.76558471  1
  O2-  O180  1  0.32138915  0.07124895  0.24136993  1
  O2-  O181  1  0.32697465  0.06757120  0.57659371  1
  O2-  O182  1  0.32340732  0.06955778  0.90848476  1
  O2-  O183  1  0.32625222  0.56838087  0.23728530  1
  O2-  O184  1  0.32480933  0.56921662  0.57079192  1
  O2-  O185  1  0.32259691  0.56871592  0.90360767  1
  O2-  O186  1  0.81928504  0.07655832  0.23883066  1
  O2-  O187  1  0.81749719  0.07751814  0.57927006  1
  O2-  O188  1  0.81871716  0.07142477  0.90128705  1
  O2-  O189  1  0.81694746  0.56736814  0.24130086  1
  O2-  O190  1  0.81700871  0.57082323  0.56574205  1
  O2-  O191  1  0.81925715  0.57329995  0.91232960  1
  O2-  O192  1  0.04423509  0.08977253  0.26996903  1
  O2-  O193  1  0.04322792  0.08600501  0.60160625  1
  O2-  O194  1  0.04732673  0.08407949  0.93661200  1
  O2-  O195  1  0.03897293  0.58278545  0.26518002  1
  O2-  O196  1  0.04571612  0.58722600  0.60585296  1
  O2-  O197  1  0.04763689  0.58010077  0.93049901  1
  O2-  O198  1  0.53988809  0.08244610  0.26116209  1
  O2-  O199  1  0.53709541  0.08676697  0.60235508  1
  O2-  O200  1  0.54088286  0.08470258  0.93467107  1
  O2-  O201  1  0.54291232  0.58451262  0.27038858  1
  O2-  O202  1  0.54438830  0.58694733  0.60199433  1
  O2-  O203  1  0.53962042  0.58807448  0.93493205  1
  O2-  O204  1  0.16581503  0.20434700  0.27226062  1
  O2-  O205  1  0.16871971  0.19769176  0.60261320  1
  O2-  O206  1  0.16810971  0.19873386  0.93601204  1
  O2-  O207  1  0.17286484  0.70537705  0.26864564  1
  O2-  O208  1  0.16922557  0.70521174  0.60799727  1
  O2-  O209  1  0.17158827  0.71062466  0.92969903  1
  O2-  O210  1  0.66613861  0.21171215  0.26281746  1
  O2-  O211  1  0.65994296  0.20387831  0.60123892  1
  O2-  O212  1  0.66559091  0.20096136  0.93686655  1
  O2-  O213  1  0.66145644  0.70302395  0.26765750  1
  O2-  O214  1  0.66119871  0.70766629  0.60363287  1
  O2-  O215  1  0.66245530  0.70174156  0.93614813  1
  O2-  O216  1  0.07732667  0.45327672  0.06652419  1
  O2-  O217  1  0.07599840  0.45674906  0.40077576  1
  O2-  O218  1  0.07980032  0.45491929  0.73450150  1
  O2-  O219  1  0.08929876  0.95661459  0.06096366  1
  O2-  O220  1  0.08432330  0.96328430  0.39975055  1
  O2-  O221  1  0.08071946  0.96307019  0.73623984  1
  O2-  O222  1  0.58732239  0.46398246  0.06842266  1
  O2-  O223  1  0.58774571  0.45622516  0.39639186  1
  O2-  O224  1  0.58627773  0.45535910  0.72534819  1
  O2-  O225  1  0.57927812  0.95814561  0.06825160  1
  O2-  O226  1  0.58097890  0.96014904  0.40084751  1
  O2-  O227  1  0.58332864  0.96230004  0.73489922  1
  O2-  O228  1  0.20796341  0.32816880  0.06661988  1
  O2-  O229  1  0.20466545  0.33047516  0.40402400  1
  O2-  O230  1  0.20606616  0.32721237  0.73248930  1
  O2-  O231  1  0.21322895  0.83977534  0.06032597  1
  O2-  O232  1  0.21176098  0.83605854  0.40057911  1
  O2-  O233  1  0.21114663  0.83689348  0.73775345  1
  O2-  O234  1  0.70723193  0.33176077  0.06591956  1
  O2-  O235  1  0.70489151  0.33620332  0.39464238  1
  O2-  O236  1  0.69886065  0.33070828  0.72398336  1
  O2-  O237  1  0.69609841  0.82466050  0.06575742  1
  O2-  O238  1  0.70170351  0.82610961  0.40028729  1
  O2-  O239  1  0.70528694  0.83194327  0.73391019  1
  O2-  O240  1  0.45752407  0.41501560  0.27165611  1
  O2-  O241  1  0.45873258  0.41241664  0.60056946  1
  O2-  O242  1  0.46443958  0.41685082  0.93189847  1
  O2-  O243  1  0.45730498  0.91128489  0.26956947  1
  O2-  O244  1  0.45904701  0.91293512  0.60240530  1
  O2-  O245  1  0.45647677  0.91463640  0.93497490  1
  O2-  O246  1  0.95197731  0.41368574  0.27077288  1
  O2-  O247  1  0.95798208  0.42022325  0.59931478  1
  O2-  O248  1  0.95382466  0.41737410  0.93474127  1
  O2-  O249  1  0.95166753  0.92591649  0.27227744  1
  O2-  O250  1  0.95327393  0.92089143  0.60244695  1
  O2-  O251  1  0.95810745  0.91960266  0.93177817  1
  O2-  O252  1  0.33331320  0.29835599  0.27297384  1
  O2-  O253  1  0.33724882  0.29337351  0.60134338  1
  O2-  O254  1  0.33542794  0.28704528  0.92994894  1
  O2-  O255  1  0.33800155  0.79423261  0.27103694  1
  O2-  O256  1  0.33610508  0.79557776  0.60580149  1
  O2-  O257  1  0.33944061  0.79493892  0.93429342  1
  O2-  O258  1  0.83707991  0.29136661  0.27331210  1
  O2-  O259  1  0.83270750  0.29116501  0.59709974  1
  O2-  O260  1  0.83247942  0.28685397  0.93295777  1
  O2-  O261  1  0.83009799  0.79114707  0.26611948  1
  O2-  O262  1  0.83118395  0.78537378  0.60067035  1
  O2-  O263  1  0.82755034  0.79348046  0.93586744  1
  O2-  O264  1  0.41238313  0.04196468  0.06245279  1
  O2-  O265  1  0.41596355  0.04487086  0.39242193  1
  O2-  O266  1  0.41383106  0.04065795  0.73192228  1
  O2-  O267  1  0.41921297  0.54092725  0.06883416  1
  O2-  O268  1  0.42004795  0.54083041  0.40455904  1
  O2-  O269  1  0.42259667  0.54105304  0.73443460  1
  O2-  O270  1  0.92257974  0.04575096  0.06737595  1
  O2-  O271  1  0.92211358  0.05616977  0.40447401  1
  O2-  O272  1  0.91613074  0.05634954  0.72823727  1
  O2-  O273  1  0.91863848  0.55142969  0.06105507  1
  O2-  O274  1  0.91013084  0.54293022  0.39457965  1
  O2-  O275  1  0.91677814  0.54412652  0.73459709  1
  O2-  O276  1  0.29628888  0.16298325  0.06190493  1
  O2-  O277  1  0.30057718  0.16634144  0.39393373  1
  O2-  O278  1  0.30240472  0.16603108  0.72611950  1
  O2-  O279  1  0.29849643  0.67292631  0.06620399  1
  O2-  O280  1  0.29896974  0.67112298  0.40280756  1
  O2-  O281  1  0.30115436  0.67101460  0.73584607  1
  O2-  O282  1  0.79085458  0.16580125  0.06951062  1
  O2-  O283  1  0.78488337  0.16938362  0.40588731  1
  O2-  O284  1  0.78762266  0.16638065  0.73044885  1
  O2-  O285  1  0.79058104  0.66264017  0.06587126  1
  O2-  O286  1  0.78791631  0.66031538  0.39391323  1
  O2-  O287  1  0.78301981  0.66237911  0.73728419  1
