# generated using pymatgen
data_Ca2Al2SiO7
_symmetry_space_group_name_H-M   'P 1'
_cell_length_a   15.45698542
_cell_length_b   15.45600237
_cell_length_c   15.28192946
_cell_angle_alpha   90.00053635
_cell_angle_beta   90.01606370
_cell_angle_gamma   90.01271855
_symmetry_Int_Tables_number   1
_chemical_formula_structural   Ca2Al2SiO7
_chemical_formula_sum   'Ca48 Al48 Si24 O168'
_cell_volume   3650.90166565
_cell_formula_units_Z   24
loop_
 _symmetry_equiv_pos_site_id
 _symmetry_equiv_pos_as_xyz
  1  'x, y, z'
loop_
 _atom_type_symbol
 _atom_type_oxidation_number
  Ca2+  2.0
  Al0+  0.0
  Si0+  0.0
  O2-  -2.0
loop_
 _atom_site_type_symbol
 _atom_site_label
 _atom_site_symmetry_multiplicity
 _atom_site_fract_x
 _atom_site_fract_y
 _atom_site_fract_z
 _atom_site_occupancy
  Ca2+  Ca0  1  0.16936058  0.07999937  0.16756567  1
  Ca2+  Ca1  1  0.17473703  0.08295231  0.50961084  1
  Ca2+  Ca2  1  0.15330908  0.07420321  0.83731478  1
  Ca2+  Ca3  1  0.16549332  0.57531236  0.16541430  1
  Ca2+  Ca4  1  0.16681917  0.57231488  0.50670615  1
  Ca2+  Ca5  1  0.16664122  0.57351146  0.84455843  1
  Ca2+  Ca6  1  0.66713514  0.08391122  0.16372300  1
  Ca2+  Ca7  1  0.67252829  0.07639612  0.51491109  1
  Ca2+  Ca8  1  0.67514919  0.08154390  0.83939538  1
  Ca2+  Ca9  1  0.66909047  0.58382910  0.16549125  1
  Ca2+  Ca10  1  0.66080351  0.57274168  0.50749393  1
  Ca2+  Ca11  1  0.66894941  0.58329556  0.83902456  1
  Ca2+  Ca12  1  0.08896369  0.32991552  0.15746565  1
  Ca2+  Ca13  1  0.08203319  0.33517469  0.50093534  1
  Ca2+  Ca14  1  0.08159476  0.32499102  0.82496859  1
  Ca2+  Ca15  1  0.08326628  0.82716130  0.15509562  1
  Ca2+  Ca16  1  0.07735612  0.84189734  0.50278838  1
  Ca2+  Ca17  1  0.08158618  0.83228991  0.82685343  1
  Ca2+  Ca18  1  0.58267257  0.33032242  0.15972408  1
  Ca2+  Ca19  1  0.59321485  0.32765571  0.49944468  1
  Ca2+  Ca20  1  0.58872354  0.32321707  0.82533576  1
  Ca2+  Ca21  1  0.57511434  0.83315913  0.15660369  1
  Ca2+  Ca22  1  0.58308715  0.82886882  0.49767533  1
  Ca2+  Ca23  1  0.59565409  0.82421900  0.82888221  1
  Ca2+  Ca24  1  0.32383531  0.41983598  0.16621848  1
  Ca2+  Ca25  1  0.32142276  0.41318101  0.50592688  1
  Ca2+  Ca26  1  0.32326069  0.42089741  0.83864757  1
  Ca2+  Ca27  1  0.33055567  0.91887598  0.16989778  1
  Ca2+  Ca28  1  0.33165924  0.91860048  0.50187408  1
  Ca2+  Ca29  1  0.32081227  0.91596771  0.83680862  1
  Ca2+  Ca30  1  0.82947045  0.42464752  0.16800037  1
  Ca2+  Ca31  1  0.82566415  0.41554559  0.50785624  1
  Ca2+  Ca32  1  0.83220415  0.41774249  0.83423100  1
  Ca2+  Ca33  1  0.82784808  0.92226527  0.16170136  1
  Ca2+  Ca34  1  0.83030604  0.92248178  0.51460375  1
  Ca2+  Ca35  1  0.82862592  0.92469744  0.83585081  1
  Ca2+  Ca36  1  0.41949916  0.16702343  0.15995496  1
  Ca2+  Ca37  1  0.42219516  0.16168161  0.49828348  1
  Ca2+  Ca38  1  0.42979219  0.16404364  0.83068846  1
  Ca2+  Ca39  1  0.41869988  0.66976808  0.15766471  1
  Ca2+  Ca40  1  0.42094327  0.67325333  0.49793932  1
  Ca2+  Ca41  1  0.42583034  0.66199775  0.83054737  1
  Ca2+  Ca42  1  0.92168309  0.17096120  0.15569631  1
  Ca2+  Ca43  1  0.91907041  0.16855111  0.50674249  1
  Ca2+  Ca44  1  0.92173279  0.16508643  0.82515009  1
  Ca2+  Ca45  1  0.92087248  0.66619667  0.15626730  1
  Ca2+  Ca46  1  0.91551903  0.67453158  0.50210631  1
  Ca2+  Ca47  1  0.91738725  0.67135001  0.83079801  1
  Al0+  Al48  1  -0.00168836  0.00093296  0.00731144  1
  Al0+  Al49  1  -0.00047702  0.00054028  0.33055560  1
  Al0+  Al50  1  0.00103423  0.00019040  0.66373763  1
  Al0+  Al51  1  -0.00230294  0.50064477  0.00418053  1
  Al0+  Al52  1  -0.00152290  0.50037166  0.33788263  1
  Al0+  Al53  1  -0.00022427  0.49945620  0.66590182  1
  Al0+  Al54  1  0.49871157  0.00026348  -0.00282662  1
  Al0+  Al55  1  0.50018926  -0.00144763  0.33227387  1
  Al0+  Al56  1  0.49935255  -0.00221409  0.66641127  1
  Al0+  Al57  1  0.49721968  0.50126125  -0.00016699  1
  Al0+  Al58  1  0.50017172  0.49835851  0.33593055  1
  Al0+  Al59  1  0.49976977  0.49916875  0.66521878  1
  Al0+  Al60  1  0.24937068  0.24892919  -0.00317095  1
  Al0+  Al61  1  0.25204589  0.24874478  0.34096187  1
  Al0+  Al62  1  0.25231413  0.24981884  0.66883385  1
  Al0+  Al63  1  0.24919915  0.74946943  0.00294767  1
  Al0+  Al64  1  0.24969206  0.74988534  0.32980221  1
  Al0+  Al65  1  0.25214359  0.75009396  0.66829082  1
  Al0+  Al66  1  0.74996853  0.25011468  0.00086181  1
  Al0+  Al67  1  0.75285978  0.25009687  0.33420397  1
  Al0+  Al68  1  0.75159019  0.25063747  0.66543498  1
  Al0+  Al69  1  0.74824481  0.75087215  0.00627616  1
  Al0+  Al70  1  0.75160286  0.75042572  0.33101859  1
  Al0+  Al71  1  0.75066473  0.74868504  0.65775293  1
  Al0+  Al72  1  0.92957990  0.32284252  0.65092423  1
  Al0+  Al73  1  0.32196953  0.57144218  0.01518377  1
  Al0+  Al74  1  0.17962157  0.42944324  0.34872170  1
  Al0+  Al75  1  0.82075778  0.07112569  0.68096797  1
  Al0+  Al76  1  0.18020346  0.93033165  0.67879492  1
  Al0+  Al77  1  0.17777831  0.92910139  0.01399931  1
  Al0+  Al78  1  0.42989183  0.82062089  0.31825669  1
  Al0+  Al79  1  0.81943172  0.57183970  0.01221153  1
  Al0+  Al80  1  0.67723465  0.92922066  0.01555203  1
  Al0+  Al81  1  0.67885674  0.42943958  0.68079076  1
  Al0+  Al82  1  0.17801939  0.42746023  0.01385979  1
  Al0+  Al83  1  0.57133054  0.67827144  0.65183434  1
  Al0+  Al84  1  0.07044134  0.17894439  0.98778770  1
  Al0+  Al85  1  0.57036399  0.68025402  0.98694165  1
  Al0+  Al86  1  0.07286959  0.17826117  0.65023516  1
  Al0+  Al87  1  0.57131212  0.17827772  0.65262453  1
  Al0+  Al88  1  0.67981384  0.42950866  0.34641449  1
  Al0+  Al89  1  0.17788047  0.42890252  0.68215537  1
  Al0+  Al90  1  0.57120089  0.17972164  0.98657874  1
  Al0+  Al91  1  0.32163968  0.06914679  0.34665481  1
  Al0+  Al92  1  0.82073519  0.07338457  0.01661969  1
  Al0+  Al93  1  0.93084725  0.82019119  0.65465209  1
  Al0+  Al94  1  0.07084520  0.67846788  0.98713628  1
  Al0+  Al95  1  0.67742864  0.92574938  0.67989078  1
  Si0+  Si96  1  0.82225291  0.07071384  0.34951936  1
  Si0+  Si97  1  0.57170543  0.67606721  0.31557623  1
  Si0+  Si98  1  0.06879280  0.67805637  0.31884756  1
  Si0+  Si99  1  0.57227733  0.17955769  0.31876627  1
  Si0+  Si100  1  0.92712503  0.32338168  0.98501419  1
  Si0+  Si101  1  0.17690805  0.92687507  0.34944050  1
  Si0+  Si102  1  0.32382418  0.07270382  0.68553693  1
  Si0+  Si103  1  0.92802246  0.82189684  0.98504326  1
  Si0+  Si104  1  0.42553923  0.82130966  0.64955389  1
  Si0+  Si105  1  0.42934382  0.32137834  0.64863607  1
  Si0+  Si106  1  0.32220409  0.57366597  0.35098171  1
  Si0+  Si107  1  0.92935740  0.32135367  0.31705513  1
  Si0+  Si108  1  0.07468332  0.67775284  0.65045898  1
  Si0+  Si109  1  0.42638598  0.82300317  0.98123904  1
  Si0+  Si110  1  0.32231782  0.07123562  0.01492800  1
  Si0+  Si111  1  0.42724365  0.32250003  0.98292154  1
  Si0+  Si112  1  0.82195759  0.57394673  0.35238070  1
  Si0+  Si113  1  0.07287500  0.18075611  0.31854554  1
  Si0+  Si114  1  0.67659833  0.42779207  0.01484024  1
  Si0+  Si115  1  0.32162540  0.57214129  0.68263608  1
  Si0+  Si116  1  0.82162781  0.57281973  0.68183458  1
  Si0+  Si117  1  0.67992221  0.92969180  0.34789939  1
  Si0+  Si118  1  0.42774364  0.32025784  0.31902179  1
  Si0+  Si119  1  0.92873897  0.82301530  0.31540454  1
  O2-  O120  1  0.25293696  0.00376023  0.06010706  1
  O2-  O121  1  0.24587444  -0.00479936  0.39297156  1
  O2-  O122  1  0.25153062  0.00690500  0.72772625  1
  O2-  O123  1  0.24859326  0.50047998  0.06507145  1
  O2-  O124  1  0.25396574  0.50484424  0.39563452  1
  O2-  O125  1  0.25005101  0.50662356  0.72634116  1
  O2-  O126  1  0.74598466  0.00394535  0.06706279  1
  O2-  O127  1  0.75214389  -0.00132703  0.39097864  1
  O2-  O128  1  0.74580488  0.00115799  0.72913848  1
  O2-  O129  1  0.74385363  0.49774859  0.05922727  1
  O2-  O130  1  0.75004661  0.50795145  0.39443018  1
  O2-  O131  1  0.75333119  0.50425431  0.72647804  1
  O2-  O132  1  0.00336799  0.25312157  0.27529445  1
  O2-  O133  1  0.00366207  0.25293370  0.59938795  1
  O2-  O134  1  -0.00363101  0.25465906  0.94280290  1
  O2-  O135  1  -0.00005298  0.75121426  0.27557114  1
  O2-  O136  1  0.00733518  0.74747920  0.60530687  1
  O2-  O137  1  -0.00202024  0.75473030  0.94056863  1
  O2-  O138  1  0.50134059  0.25128927  0.27689987  1
  O2-  O139  1  0.49787043  0.25301303  0.60279614  1
  O2-  O140  1  0.49883114  0.25642827  0.93968756  1
  O2-  O141  1  0.50327280  0.74462765  0.27131582  1
  O2-  O142  1  0.49814447  0.75552403  0.60657618  1
  O2-  O143  1  0.49644489  0.75496185  0.93847327  1
  O2-  O144  1  0.07113773  0.18082089  0.10209405  1
  O2-  O145  1  0.07138877  0.17953234  0.42307783  1
  O2-  O146  1  0.06980905  0.17762738  0.76361134  1
  O2-  O147  1  0.06773744  0.67922294  0.10117920  1
  O2-  O148  1  0.06717754  0.67814198  0.42396587  1
  O2-  O149  1  0.07421517  0.67801857  0.75574696  1
  O2-  O150  1  0.56848489  0.18242754  0.10085855  1
  O2-  O151  1  0.57242374  0.17923414  0.42367478  1
  O2-  O152  1  0.56982873  0.17942953  0.76542679  1
  O2-  O153  1  0.56884673  0.68117031  0.10054127  1
  O2-  O154  1  0.57112233  0.67705441  0.42117921  1
  O2-  O155  1  0.57094941  0.67764227  0.76474931  1
  O2-  O156  1  0.18025756  0.42894523  0.23598204  1
  O2-  O157  1  0.18039273  0.43112171  0.56831555  1
  O2-  O158  1  0.17974293  0.42774331  0.90071949  1
  O2-  O159  1  0.17579812  0.92784903  0.24394639  1
  O2-  O160  1  0.18354146  0.93020454  0.56505191  1
  O2-  O161  1  0.17727508  0.92953709  0.90103632  1
  O2-  O162  1  0.68222448  0.42849229  0.23316704  1
  O2-  O163  1  0.67997180  0.43096887  0.56718048  1
  O2-  O164  1  0.67812015  0.42698639  0.90959150  1
  O2-  O165  1  0.68014440  0.93145162  0.24307821  1
  O2-  O166  1  0.67983879  0.92724635  0.56499995  1
  O2-  O167  1  0.68127518  0.92712406  0.90274367  1
  O2-  O168  1  0.42696034  0.32080738  0.08934013  1
  O2-  O169  1  0.42660955  0.31906216  0.42374086  1
  O2-  O170  1  0.43035558  0.32128470  0.75407271  1
  O2-  O171  1  0.42788361  0.82323058  0.08747868  1
  O2-  O172  1  0.43226027  0.81988441  0.43137920  1
  O2-  O173  1  0.41900723  0.81883533  0.75435491  1
  O2-  O174  1  0.92657560  0.32243476  0.09155780  1
  O2-  O175  1  0.92738959  0.32013392  0.42152139  1
  O2-  O176  1  0.93078399  0.32458014  0.76424900  1
  O2-  O177  1  0.92996013  0.81965027  0.09160401  1
  O2-  O178  1  0.92822108  0.82462185  0.42035885  1
  O2-  O179  1  0.93103656  0.81813938  0.76738248  1
  O2-  O180  1  0.31988523  0.07016663  0.23354898  1
  O2-  O181  1  0.32475929  0.07072770  0.57934298  1
  O2-  O182  1  0.32443163  0.06959551  0.90980687  1
  O2-  O183  1  0.32160606  0.57281294  0.24577353  1
  O2-  O184  1  0.32034565  0.57219482  0.57644538  1
  O2-  O185  1  0.32314348  0.56825537  0.90170288  1
  O2-  O186  1  0.82203775  0.07155427  0.24465754  1
  O2-  O187  1  0.81984402  0.06823426  0.56615915  1
  O2-  O188  1  0.82196047  0.07259107  0.90387098  1
  O2-  O189  1  0.82406286  0.57353201  0.24676197  1
  O2-  O190  1  0.82052490  0.57267468  0.57573456  1
  O2-  O191  1  0.81904427  0.57232877  0.89946378  1
  O2-  O192  1  0.04399996  0.08845778  0.27136141  1
  O2-  O193  1  0.04327584  0.08135863  0.59437311  1
  O2-  O194  1  0.03738738  0.08162395  0.93723859  1
  O2-  O195  1  0.03787606  0.58670875  0.27169159  1
  O2-  O196  1  0.04631899  0.58553858  0.60278451  1
  O2-  O197  1  0.03774452  0.58207682  0.93474175  1
  O2-  O198  1  0.54355345  0.08805138  0.27171967  1
  O2-  O199  1  0.53963893  0.08100912  0.59851412  1
  O2-  O200  1  0.53903867  0.08402653  0.93218516  1
  O2-  O201  1  0.54729753  0.58133957  0.27097795  1
  O2-  O202  1  0.53630976  0.58294770  0.59644638  1
  O2-  O203  1  0.54093155  0.58263839  0.93379652  1
  O2-  O204  1  0.16608897  0.20757149  0.27358150  1
  O2-  O205  1  0.17382650  0.20463451  0.60055121  1
  O2-  O206  1  0.16740367  0.20493652  0.93264539  1
  O2-  O207  1  0.16162920  0.70260039  0.27210098  1
  O2-  O208  1  0.16880405  0.70184224  0.60418845  1
  O2-  O209  1  0.16843537  0.70630776  0.93466327  1
  O2-  O210  1  0.66451627  0.20809687  0.27194235  1
  O2-  O211  1  0.66718393  0.20940892  0.59750174  1
  O2-  O212  1  0.66835063  0.20924697  0.93389605  1
  O2-  O213  1  0.66709515  0.70109127  0.27212642  1
  O2-  O214  1  0.66637016  0.70602676  0.59291124  1
  O2-  O215  1  0.66808733  0.71081579  0.93516735  1
  O2-  O216  1  0.08001733  0.45502789  0.06822792  1
  O2-  O217  1  0.08243484  0.46050187  0.40185426  1
  O2-  O218  1  0.08033914  0.45778735  0.73368296  1
  O2-  O219  1  0.08308297  0.95927049  0.07197080  1
  O2-  O220  1  0.08243936  0.95373193  0.39371929  1
  O2-  O221  1  0.08316653  0.95812736  0.73165746  1
  O2-  O222  1  0.58258285  0.45194183  0.06057434  1
  O2-  O223  1  0.58158029  0.45436947  0.40082697  1
  O2-  O224  1  0.58119335  0.45811424  0.73283235  1
  O2-  O225  1  0.57735603  0.95718406  0.06676973  1
  O2-  O226  1  0.58857756  0.95770543  0.39506467  1
  O2-  O227  1  0.57641749  0.94572931  0.72950263  1
  O2-  O228  1  0.21015786  0.32942821  0.06694181  1
  O2-  O229  1  0.21213442  0.33421682  0.40385606  1
  O2-  O230  1  0.21145861  0.33276289  0.73439268  1
  O2-  O231  1  0.20846066  0.83337972  0.06949292  1
  O2-  O232  1  0.20142084  0.83258879  0.39437208  1
  O2-  O233  1  0.21087029  0.83331778  0.73236893  1
  O2-  O234  1  0.70346363  0.33572952  0.06344608  1
  O2-  O235  1  0.71475422  0.33352385  0.39987984  1
  O2-  O236  1  0.71035527  0.33341109  0.73360034  1
  O2-  O237  1  0.70776994  0.83363428  0.07351198  1
  O2-  O238  1  0.70617724  0.83575937  0.39233242  1
  O2-  O239  1  0.71079637  0.82746573  0.72861151  1
  O2-  O240  1  0.45375926  0.41305948  0.27200093  1
  O2-  O241  1  0.45228850  0.41509413  0.60143761  1
  O2-  O242  1  0.44945394  0.41676505  0.93782264  1
  O2-  O243  1  0.46249418  0.91652755  0.26298007  1
  O2-  O244  1  0.44768320  0.91565697  0.60343862  1
  O2-  O245  1  0.44853411  0.91704109  0.93547106  1
  O2-  O246  1  0.95324117  0.41588177  0.27258791  1
  O2-  O247  1  0.95576996  0.42192932  0.59567201  1
  O2-  O248  1  0.95045016  0.41733586  0.94012316  1
  O2-  O249  1  0.95628379  0.91465135  0.26682268  1
  O2-  O250  1  0.96240418  0.91469753  0.59608984  1
  O2-  O251  1  0.95269989  0.91646078  0.94264187  1
  O2-  O252  1  0.33707040  0.28894363  0.27098551  1
  O2-  O253  1  0.33617555  0.29394897  0.60206262  1
  O2-  O254  1  0.33571887  0.29368819  0.93487104  1
  O2-  O255  1  0.33150173  0.79350734  0.26479569  1
  O2-  O256  1  0.33468787  0.79102598  0.59837039  1
  O2-  O257  1  0.33268755  0.79602348  0.93709374  1
  O2-  O258  1  0.83926705  0.28978119  0.26763373  1
  O2-  O259  1  0.83257833  0.29196100  0.59551587  1
  O2-  O260  1  0.83329368  0.29903198  0.93952672  1
  O2-  O261  1  0.83685244  0.79502738  0.26755030  1
  O2-  O262  1  0.83766575  0.78744938  0.59364148  1
  O2-  O263  1  0.83459127  0.79392352  0.94190060  1
  O2-  O264  1  0.41484303  0.04533421  0.06336077  1
  O2-  O265  1  0.41812919  0.03705441  0.40102508  1
  O2-  O266  1  0.41561694  0.04265331  0.73210612  1
  O2-  O267  1  0.41915533  0.54162595  0.07150742  1
  O2-  O268  1  0.41623651  0.54858652  0.39635189  1
  O2-  O269  1  0.41385395  0.54241310  0.72829350  1
  O2-  O270  1  0.91589827  0.04151532  0.07487303  1
  O2-  O271  1  0.91481399  0.04245128  0.39526112  1
  O2-  O272  1  0.91876183  0.03990571  0.73109999  1
  O2-  O273  1  0.91329922  0.53962138  0.07150244  1
  O2-  O274  1  0.91366254  0.54598331  0.40054423  1
  O2-  O275  1  0.91578786  0.54913894  0.72692418  1
  O2-  O276  1  0.29751496  0.16525026  0.06069580  1
  O2-  O277  1  0.29300877  0.16415712  0.40451207  1
  O2-  O278  1  0.30447053  0.16758077  0.73022524  1
  O2-  O279  1  0.29526400  0.66949224  0.06912985  1
  O2-  O280  1  0.29543108  0.66753477  0.39650869  1
  O2-  O281  1  0.30125396  0.66643809  0.72847135  1
  O2-  O282  1  0.79288060  0.17207621  0.07127615  1
  O2-  O283  1  0.79463980  0.16258657  0.39603036  1
  O2-  O284  1  0.79589607  0.17012764  0.73191131  1
  O2-  O285  1  0.78926103  0.66601622  0.07154775  1
  O2-  O286  1  0.79969408  0.66973336  0.39626347  1
  O2-  O287  1  0.79499841  0.66620376  0.72593853  1
