# generated using pymatgen
data_Ca2Al2SiO7
_symmetry_space_group_name_H-M   'P 1'
_cell_length_a   15.46202806
_cell_length_b   15.46217136
_cell_length_c   15.28657379
_cell_angle_alpha   90.01942477
_cell_angle_beta   90.00224218
_cell_angle_gamma   89.98436596
_symmetry_Int_Tables_number   1
_chemical_formula_structural   Ca2Al2SiO7
_chemical_formula_sum   'Ca48 Al48 Si24 O168'
_cell_volume   3654.66063050
_cell_formula_units_Z   24
loop_
 _symmetry_equiv_pos_site_id
 _symmetry_equiv_pos_as_xyz
  1  'x, y, z'
loop_
 _atom_type_symbol
 _atom_type_oxidation_number
  Ca2+  2.0
  Al0+  0.0
  Si0+  0.0
  O2-  -2.0
loop_
 _atom_site_type_symbol
 _atom_site_label
 _atom_site_symmetry_multiplicity
 _atom_site_fract_x
 _atom_site_fract_y
 _atom_site_fract_z
 _atom_site_occupancy
  Ca2+  Ca0  1  0.16997700  0.08144268  0.17688735  1
  Ca2+  Ca1  1  0.16206928  0.08286342  0.49914177  1
  Ca2+  Ca2  1  0.16658315  0.08559208  0.83523429  1
  Ca2+  Ca3  1  0.17213143  0.57701181  0.17676520  1
  Ca2+  Ca4  1  0.16631111  0.57532014  0.49962363  1
  Ca2+  Ca5  1  0.17075652  0.58291094  0.83835334  1
  Ca2+  Ca6  1  0.67103382  0.07952416  0.17337794  1
  Ca2+  Ca7  1  0.66716265  0.07542778  0.50404386  1
  Ca2+  Ca8  1  0.67711429  0.07885194  0.83597378  1
  Ca2+  Ca9  1  0.65749532  0.57718351  0.17074010  1
  Ca2+  Ca10  1  0.66728219  0.57489470  0.50168424  1
  Ca2+  Ca11  1  0.66535067  0.57581457  0.83508270  1
  Ca2+  Ca12  1  0.07228556  0.33466912  0.16766084  1
  Ca2+  Ca13  1  0.07644755  0.32276063  0.48868050  1
  Ca2+  Ca14  1  0.07255185  0.32662823  0.82758222  1
  Ca2+  Ca15  1  0.07274521  0.84263000  0.16751800  1
  Ca2+  Ca16  1  0.07515752  0.83358994  0.49056398  1
  Ca2+  Ca17  1  0.07569169  0.83404749  0.83326229  1
  Ca2+  Ca18  1  0.57963115  0.33720149  0.16261067  1
  Ca2+  Ca19  1  0.58587171  0.33034299  0.48840048  1
  Ca2+  Ca20  1  0.58370229  0.34056845  0.83418264  1
  Ca2+  Ca21  1  0.58480920  0.82243246  0.16266976  1
  Ca2+  Ca22  1  0.57982836  0.83480194  0.48776235  1
  Ca2+  Ca23  1  0.57601275  0.83696165  0.82694839  1
  Ca2+  Ca24  1  0.33222077  0.41161280  0.17581618  1
  Ca2+  Ca25  1  0.32947652  0.40964980  0.49724358  1
  Ca2+  Ca26  1  0.33257992  0.41576773  0.84203062  1
  Ca2+  Ca27  1  0.32954597  0.91015314  0.17602805  1
  Ca2+  Ca28  1  0.33121440  0.91084084  0.50198727  1
  Ca2+  Ca29  1  0.33533382  0.91221414  0.83763189  1
  Ca2+  Ca30  1  0.82556758  0.41304423  0.17249506  1
  Ca2+  Ca31  1  0.82356650  0.41727264  0.50484013  1
  Ca2+  Ca32  1  0.82213665  0.41689910  0.84059698  1
  Ca2+  Ca33  1  0.83466360  0.92049696  0.17411770  1
  Ca2+  Ca34  1  0.82082369  0.91820800  0.50417971  1
  Ca2+  Ca35  1  0.83496501  0.92725010  0.83863360  1
  Ca2+  Ca36  1  0.42526250  0.17448905  0.16987139  1
  Ca2+  Ca37  1  0.42802446  0.17257463  0.48976943  1
  Ca2+  Ca38  1  0.41849143  0.17335233  0.83123635  1
  Ca2+  Ca39  1  0.42788912  0.67401018  0.16487232  1
  Ca2+  Ca40  1  0.42674765  0.67698355  0.49200458  1
  Ca2+  Ca41  1  0.42597067  0.67503432  0.83282957  1
  Ca2+  Ca42  1  0.91504454  0.17580102  0.16477063  1
  Ca2+  Ca43  1  0.92283015  0.16539746  0.49379699  1
  Ca2+  Ca44  1  0.91281386  0.16630998  0.83075881  1
  Ca2+  Ca45  1  0.91252372  0.68125240  0.16493034  1
  Ca2+  Ca46  1  0.90928081  0.67093749  0.49461259  1
  Ca2+  Ca47  1  0.90933199  0.67046069  0.83163924  1
  Al0+  Al48  1  0.00135118  -0.00004261  0.00010053  1
  Al0+  Al49  1  0.00304815  0.00023463  0.33137494  1
  Al0+  Al50  1  0.00141652  -0.00159724  0.66645722  1
  Al0+  Al51  1  -0.00058936  0.49870373  -0.00378188  1
  Al0+  Al52  1  0.00163468  0.50044191  0.33548678  1
  Al0+  Al53  1  0.00073889  0.49978504  0.67037735  1
  Al0+  Al54  1  0.50018985  0.00158665  -0.00194466  1
  Al0+  Al55  1  0.49898264  0.00245909  0.32880814  1
  Al0+  Al56  1  0.49654408  0.00301777  0.66697503  1
  Al0+  Al57  1  0.49829676  0.50102759  -0.00435842  1
  Al0+  Al58  1  0.49984282  0.50212423  0.33341417  1
  Al0+  Al59  1  0.49646224  0.50287717  0.66919672  1
  Al0+  Al60  1  0.25059142  0.24823368  -0.00226598  1
  Al0+  Al61  1  0.25055049  0.24905706  0.33263976  1
  Al0+  Al62  1  0.24801225  0.24836742  0.66376472  1
  Al0+  Al63  1  0.25067521  0.74902277  -0.00077955  1
  Al0+  Al64  1  0.24981559  0.74933307  0.33754288  1
  Al0+  Al65  1  0.24922680  0.74958047  0.66362527  1
  Al0+  Al66  1  0.75077876  0.24958409  0.00417256  1
  Al0+  Al67  1  0.75217344  0.24949298  0.33182460  1
  Al0+  Al68  1  0.74823938  0.24979734  0.67390575  1
  Al0+  Al69  1  0.75125430  0.74868602  -0.01049976  1
  Al0+  Al70  1  0.75002893  0.75102717  0.32885234  1
  Al0+  Al71  1  0.74713452  0.74777318  0.67303205  1
  Al0+  Al72  1  0.67658775  0.42870502  0.68217773  1
  Al0+  Al73  1  0.57274787  0.67998163  0.31918554  1
  Al0+  Al74  1  0.82303873  0.57087669  0.68241323  1
  Al0+  Al75  1  0.06981386  0.17847578  0.65191847  1
  Al0+  Al76  1  0.43124397  0.32201350  0.32062771  1
  Al0+  Al77  1  0.17968440  0.92875213  0.34810040  1
  Al0+  Al78  1  0.67920895  0.43243357  0.01615527  1
  Al0+  Al79  1  0.67479748  0.92917477  0.68122200  1
  Al0+  Al80  1  0.07118276  0.17844547  0.31696163  1
  Al0+  Al81  1  0.57184070  0.67798110  0.98136849  1
  Al0+  Al82  1  0.42745642  0.82262506  0.31936413  1
  Al0+  Al83  1  0.82300628  0.06855693  0.68070629  1
  Al0+  Al84  1  0.93049711  0.82211267  0.98475370  1
  Al0+  Al85  1  0.42874978  0.82214497  0.98494077  1
  Al0+  Al86  1  0.67919571  0.42865399  0.34506058  1
  Al0+  Al87  1  0.57488152  0.17792113  0.31879301  1
  Al0+  Al88  1  0.67907823  0.92936322  0.34313710  1
  Al0+  Al89  1  0.92754355  0.32101003  0.98461028  1
  Al0+  Al90  1  0.42914069  0.31903175  0.98601672  1
  Al0+  Al91  1  0.92847477  0.32343846  0.32018927  1
  Al0+  Al92  1  0.42968901  0.82226263  0.65078872  1
  Al0+  Al93  1  0.17883420  0.42761266  0.34725302  1
  Al0+  Al94  1  0.82204503  0.06928834  0.01667662  1
  Al0+  Al95  1  0.92957932  0.82033040  0.32271446  1
  Si0+  Si96  1  0.31904911  0.57022326  0.01547823  1
  Si0+  Si97  1  0.92894889  0.81872411  0.65284715  1
  Si0+  Si98  1  0.57350782  0.17819268  0.98153738  1
  Si0+  Si99  1  0.57042156  0.18133841  0.65372778  1
  Si0+  Si100  1  0.07245674  0.67712401  0.98417015  1
  Si0+  Si101  1  0.31902775  0.07234099  0.68228942  1
  Si0+  Si102  1  0.32213471  0.07227432  0.35135751  1
  Si0+  Si103  1  0.67777842  0.92676420  0.01549993  1
  Si0+  Si104  1  0.07218457  0.67750595  0.65154676  1
  Si0+  Si105  1  0.17848696  0.42729102  0.01408917  1
  Si0+  Si106  1  0.82250878  0.57313954  0.34676414  1
  Si0+  Si107  1  0.07299653  0.67721717  0.31867244  1
  Si0+  Si108  1  0.18174618  0.92897686  0.01408760  1
  Si0+  Si109  1  0.18001352  0.92747813  0.68279146  1
  Si0+  Si110  1  0.18056011  0.42670345  0.68314641  1
  Si0+  Si111  1  0.32223162  0.07309866  0.01527873  1
  Si0+  Si112  1  0.57126933  0.67756233  0.64822053  1
  Si0+  Si113  1  0.92637908  0.32211842  0.65135826  1
  Si0+  Si114  1  0.32222409  0.57197612  0.35250280  1
  Si0+  Si115  1  0.42760837  0.32288276  0.65250693  1
  Si0+  Si116  1  0.82472017  0.57333139  0.01797659  1
  Si0+  Si117  1  0.82350641  0.07163758  0.34913027  1
  Si0+  Si118  1  0.07158585  0.17869939  0.98286856  1
  Si0+  Si119  1  0.31747745  0.57212493  0.68300835  1
  O2-  O120  1  0.25622701  -0.00349577  0.05536273  1
  O2-  O121  1  0.25602176  0.00089688  0.39630849  1
  O2-  O122  1  0.25054032  -0.00118923  0.72516719  1
  O2-  O123  1  0.24856249  0.49845561  0.05708385  1
  O2-  O124  1  0.25454237  0.50095027  0.39579365  1
  O2-  O125  1  0.24990522  0.49828574  0.72716510  1
  O2-  O126  1  0.74813025  -0.00720017  0.06104848  1
  O2-  O127  1  0.75200952  0.00509685  0.39201144  1
  O2-  O128  1  0.75137875  -0.00374793  0.73159474  1
  O2-  O129  1  0.75419387  0.50741870  0.06266408  1
  O2-  O130  1  0.75644679  0.50167113  0.39046876  1
  O2-  O131  1  0.75185733  0.49783244  0.73182077  1
  O2-  O132  1  -0.00036571  0.25096012  0.26868690  1
  O2-  O133  1  -0.00758458  0.25089500  0.60719256  1
  O2-  O134  1  0.00210702  0.24578988  0.93805033  1
  O2-  O135  1  0.00529232  0.74644403  0.27491552  1
  O2-  O136  1  -0.00464794  0.74269977  0.61096466  1
  O2-  O137  1  0.00258519  0.74385642  0.93873828  1
  O2-  O138  1  0.50754415  0.25540487  0.26996200  1
  O2-  O139  1  0.50440120  0.25797302  0.61233624  1
  O2-  O140  1  0.50451935  0.24702398  0.93662179  1
  O2-  O141  1  0.50257088  0.75454714  0.27008626  1
  O2-  O142  1  0.50923277  0.75290745  0.60497048  1
  O2-  O143  1  0.50507565  0.75645366  0.93290769  1
  O2-  O144  1  0.07442506  0.17968131  0.08773395  1
  O2-  O145  1  0.06834993  0.17832808  0.43094773  1
  O2-  O146  1  0.07442309  0.18216915  0.76510448  1
  O2-  O147  1  0.07493130  0.67712627  0.08934354  1
  O2-  O148  1  0.07179928  0.67719651  0.42472551  1
  O2-  O149  1  0.07767700  0.68054333  0.75657262  1
  O2-  O150  1  0.57120402  0.17738211  0.08668474  1
  O2-  O151  1  0.57221721  0.17772909  0.43327706  1
  O2-  O152  1  0.56655404  0.17943230  0.75872985  1
  O2-  O153  1  0.56798565  0.67732894  0.09469540  1
  O2-  O154  1  0.57225909  0.67963605  0.43302453  1
  O2-  O155  1  0.56593121  0.67434842  0.75342271  1
  O2-  O156  1  0.17952554  0.43145413  0.23377005  1
  O2-  O157  1  0.18179960  0.42691358  0.57837324  1
  O2-  O158  1  0.18078436  0.42853773  0.90833137  1
  O2-  O159  1  0.17985503  0.92989690  0.23463334  1
  O2-  O160  1  0.17957135  0.92630729  0.57812918  1
  O2-  O161  1  0.18107422  0.92964579  0.90840725  1
  O2-  O162  1  0.67803192  0.43113734  0.23224786  1
  O2-  O163  1  0.67561853  0.42875289  0.56854200  1
  O2-  O164  1  0.67935229  0.43351924  0.90295797  1
  O2-  O165  1  0.68339630  0.92786691  0.23018218  1
  O2-  O166  1  0.67495318  0.93158736  0.56735127  1
  O2-  O167  1  0.67719730  0.93138053  0.90978671  1
  O2-  O168  1  0.42580421  0.31720516  0.09817726  1
  O2-  O169  1  0.43094874  0.31895377  0.43500803  1
  O2-  O170  1  0.42385515  0.31994846  0.75775251  1
  O2-  O171  1  0.42341423  0.81812325  0.09746841  1
  O2-  O172  1  0.42803163  0.81935467  0.43331217  1
  O2-  O173  1  0.42691878  0.81891490  0.76379272  1
  O2-  O174  1  0.93090019  0.32285227  0.09708318  1
  O2-  O175  1  0.92917155  0.32307253  0.43415206  1
  O2-  O176  1  0.93007780  0.32190259  0.75712829  1
  O2-  O177  1  0.93364706  0.82328054  0.09769007  1
  O2-  O178  1  0.92895135  0.81809148  0.43627566  1
  O2-  O179  1  0.93486855  0.82024888  0.75791973  1
  O2-  O180  1  0.31961807  0.07354756  0.24557544  1
  O2-  O181  1  0.31864507  0.07479662  0.57787507  1
  O2-  O182  1  0.31860646  0.07648941  0.90974944  1
  O2-  O183  1  0.31922397  0.57368742  0.24679690  1
  O2-  O184  1  0.31504675  0.57180604  0.57841680  1
  O2-  O185  1  0.31529060  0.57031473  0.90976311  1
  O2-  O186  1  0.82443364  0.06917357  0.24348675  1
  O2-  O187  1  0.82348951  0.06658307  0.56728597  1
  O2-  O188  1  0.82236081  0.06765731  0.90333456  1
  O2-  O189  1  0.82381584  0.57468040  0.24143301  1
  O2-  O190  1  0.82408962  0.57024087  0.56861003  1
  O2-  O191  1  0.82687509  0.56925283  0.91248391  1
  O2-  O192  1  0.04538504  0.08027353  0.26347147  1
  O2-  O193  1  0.04387699  0.07958480  0.59991931  1
  O2-  O194  1  0.04741202  0.08476882  0.93665836  1
  O2-  O195  1  0.04944184  0.58414952  0.27158046  1
  O2-  O196  1  0.05109106  0.58272924  0.60658564  1
  O2-  O197  1  0.05033228  0.58332035  0.93633972  1
  O2-  O198  1  0.54015980  0.08396704  0.26121604  1
  O2-  O199  1  0.53607803  0.09251962  0.60462272  1
  O2-  O200  1  0.54644023  0.08544266  0.93408924  1
  O2-  O201  1  0.53893584  0.58394715  0.26575970  1
  O2-  O202  1  0.53641068  0.58653312  0.60128407  1
  O2-  O203  1  0.53298884  0.58393796  0.92617598  1
  O2-  O204  1  0.16992521  0.20585860  0.26587085  1
  O2-  O205  1  0.16552360  0.21147519  0.59693452  1
  O2-  O206  1  0.16443800  0.20568445  0.93484892  1
  O2-  O207  1  0.16678806  0.70145477  0.27353980  1
  O2-  O208  1  0.16053157  0.71034980  0.60082709  1
  O2-  O209  1  0.16461882  0.70569268  0.93563795  1
  O2-  O210  1  0.67457356  0.19829942  0.26747544  1
  O2-  O211  1  0.66414745  0.20348818  0.60799719  1
  O2-  O212  1  0.66674255  0.20477679  0.93656889  1
  O2-  O213  1  0.66968167  0.70608331  0.26305257  1
  O2-  O214  1  0.66836216  0.69438627  0.60687299  1
  O2-  O215  1  0.67223662  0.69613307  0.92910893  1
  O2-  O216  1  0.08621276  0.45512510  0.05980107  1
  O2-  O217  1  0.08426507  0.46123806  0.40476271  1
  O2-  O218  1  0.08876287  0.45377475  0.73097187  1
  O2-  O219  1  0.09141604  0.95996101  0.06168831  1
  O2-  O220  1  0.08372623  0.96118279  0.40348023  1
  O2-  O221  1  0.08903782  0.95577321  0.73149772  1
  O2-  O222  1  0.57992581  0.46293735  0.06541675  1
  O2-  O223  1  0.58283018  0.46016182  0.39988061  1
  O2-  O224  1  0.57734284  0.45962021  0.73415779  1
  O2-  O225  1  0.58371782  0.95334956  0.06046347  1
  O2-  O226  1  0.58112434  0.95916565  0.39530087  1
  O2-  O227  1  0.57783424  0.96360180  0.73465404  1
  O2-  O228  1  0.20761038  0.33536327  0.05948860  1
  O2-  O229  1  0.21021968  0.33150189  0.40213840  1
  O2-  O230  1  0.21051656  0.33555055  0.73082747  1
  O2-  O231  1  0.20543946  0.83572576  0.06054426  1
  O2-  O232  1  0.20566414  0.83105793  0.40365567  1
  O2-  O233  1  0.20836440  0.83562528  0.73049081  1
  O2-  O234  1  0.70853566  0.33449714  0.06722410  1
  O2-  O235  1  0.70876978  0.33127863  0.39911161  1
  O2-  O236  1  0.70024016  0.33006251  0.73722093  1
  O2-  O237  1  0.70195004  0.83021739  0.05491694  1
  O2-  O238  1  0.71153175  0.83339596  0.39840133  1
  O2-  O239  1  0.69536963  0.82857927  0.73158712  1
  O2-  O240  1  0.45118145  0.42221080  0.26943677  1
  O2-  O241  1  0.44665992  0.41787754  0.60850357  1
  O2-  O242  1  0.45539956  0.41619436  0.93127026  1
  O2-  O243  1  0.44637415  0.92282940  0.26865981  1
  O2-  O244  1  0.45105062  0.92290531  0.60096076  1
  O2-  O245  1  0.45014922  0.92360295  0.93362881  1
  O2-  O246  1  0.95948558  0.42131760  0.26718622  1
  O2-  O247  1  0.95588255  0.41539370  0.60714399  1
  O2-  O248  1  0.96007581  0.41662621  0.92882822  1
  O2-  O249  1  0.96345780  0.91472631  0.26739057  1
  O2-  O250  1  0.96266881  0.90793157  0.60496300  1
  O2-  O251  1  0.96862246  0.91613948  0.92955604  1
  O2-  O252  1  0.33412010  0.28989116  0.26790579  1
  O2-  O253  1  0.33800594  0.28901370  0.60456328  1
  O2-  O254  1  0.33323201  0.28585463  0.92959352  1
  O2-  O255  1  0.32906065  0.78979089  0.26882455  1
  O2-  O256  1  0.33324251  0.78654747  0.59860423  1
  O2-  O257  1  0.33091123  0.78891679  0.93103047  1
  O2-  O258  1  0.83176782  0.29506436  0.26541703  1
  O2-  O259  1  0.83039141  0.30000474  0.60963299  1
  O2-  O260  1  0.83125379  0.28841065  0.93195095  1
  O2-  O261  1  0.83616924  0.78946127  0.26425869  1
  O2-  O262  1  0.83432121  0.79486014  0.60958416  1
  O2-  O263  1  0.83485680  0.79565534  0.92775284  1
  O2-  O264  1  0.41631081  0.05208592  0.06041779  1
  O2-  O265  1  0.41676464  0.05034718  0.39664004  1
  O2-  O266  1  0.41031291  0.04787679  0.73200542  1
  O2-  O267  1  0.41035954  0.54211984  0.06131847  1
  O2-  O268  1  0.41499027  0.54730165  0.39994204  1
  O2-  O269  1  0.40922431  0.54727357  0.73150580  1
  O2-  O270  1  0.91998879  0.03874556  0.06848375  1
  O2-  O271  1  0.91629845  0.04265593  0.39458663  1
  O2-  O272  1  0.92147501  0.03892282  0.73496285  1
  O2-  O273  1  0.91925020  0.54751908  0.06264199  1
  O2-  O274  1  0.91721339  0.55265145  0.39351430  1
  O2-  O275  1  0.92379033  0.54837966  0.73572279  1
  O2-  O276  1  0.28820069  0.16199409  0.06458868  1
  O2-  O277  1  0.29364804  0.16415257  0.39967062  1
  O2-  O278  1  0.28718897  0.16284472  0.73169786  1
  O2-  O279  1  0.28894242  0.66096689  0.06369182  1
  O2-  O280  1  0.29273639  0.66316081  0.40179629  1
  O2-  O281  1  0.28405675  0.66205098  0.73132124  1
  O2-  O282  1  0.79103531  0.16544038  0.07014152  1
  O2-  O283  1  0.80226719  0.16597209  0.39496606  1
  O2-  O284  1  0.79471745  0.16667130  0.73455046  1
  O2-  O285  1  0.80243249  0.67025654  0.05851049  1
  O2-  O286  1  0.79334603  0.66519594  0.39441285  1
  O2-  O287  1  0.79518301  0.66859965  0.73731979  1
