# generated using pymatgen
data_Ca2Al2SiO7
_symmetry_space_group_name_H-M   'P 1'
_cell_length_a   15.46582784
_cell_length_b   15.46398453
_cell_length_c   15.28947179
_cell_angle_alpha   89.98456118
_cell_angle_beta   89.99863153
_cell_angle_gamma   89.98013768
_symmetry_Int_Tables_number   1
_chemical_formula_structural   Ca2Al2SiO7
_chemical_formula_sum   'Ca48 Al48 Si24 O168'
_cell_volume   3656.68052091
_cell_formula_units_Z   24
loop_
 _symmetry_equiv_pos_site_id
 _symmetry_equiv_pos_as_xyz
  1  'x, y, z'
loop_
 _atom_type_symbol
 _atom_type_oxidation_number
  Ca2+  2.0
  Al0+  0.0
  Si0+  0.0
  O2-  -2.0
loop_
 _atom_site_type_symbol
 _atom_site_label
 _atom_site_symmetry_multiplicity
 _atom_site_fract_x
 _atom_site_fract_y
 _atom_site_fract_z
 _atom_site_occupancy
  Ca2+  Ca0  1  0.16510096  0.07820845  0.17297535  1
  Ca2+  Ca1  1  0.16031502  0.07783069  0.50530582  1
  Ca2+  Ca2  1  0.16457672  0.09028012  0.83549243  1
  Ca2+  Ca3  1  0.17227567  0.58857147  0.17052989  1
  Ca2+  Ca4  1  0.17521352  0.59092339  0.50588555  1
  Ca2+  Ca5  1  0.16060986  0.58570476  0.83917695  1
  Ca2+  Ca6  1  0.67292605  0.07489330  0.16844873  1
  Ca2+  Ca7  1  0.67622009  0.07769938  0.50674968  1
  Ca2+  Ca8  1  0.67457266  0.08580377  0.84060222  1
  Ca2+  Ca9  1  0.67149368  0.58533517  0.16869440  1
  Ca2+  Ca10  1  0.66631420  0.58072212  0.51239863  1
  Ca2+  Ca11  1  0.67660065  0.58007630  0.83172973  1
  Ca2+  Ca12  1  0.07635879  0.32453472  0.15523967  1
  Ca2+  Ca13  1  0.07565042  0.32902006  0.50411180  1
  Ca2+  Ca14  1  0.06945812  0.32340491  0.83040686  1
  Ca2+  Ca15  1  0.07841874  0.83263065  0.16583829  1
  Ca2+  Ca16  1  0.07084944  0.83372531  0.49948550  1
  Ca2+  Ca17  1  0.07421020  0.82212206  0.82640910  1
  Ca2+  Ca18  1  0.58208822  0.32445161  0.16065665  1
  Ca2+  Ca19  1  0.59073423  0.32940655  0.50410611  1
  Ca2+  Ca20  1  0.58510060  0.32501720  0.82454346  1
  Ca2+  Ca21  1  0.58449796  0.83583679  0.16222915  1
  Ca2+  Ca22  1  0.59350909  0.82003761  0.49423423  1
  Ca2+  Ca23  1  0.58172692  0.83537693  0.83059171  1
  Ca2+  Ca24  1  0.32924284  0.42409875  0.17548573  1
  Ca2+  Ca25  1  0.33498045  0.41893903  0.50668360  1
  Ca2+  Ca26  1  0.33337655  0.41320445  0.83379128  1
  Ca2+  Ca27  1  0.32688998  0.91157616  0.17004064  1
  Ca2+  Ca28  1  0.32207120  0.91202884  0.50205323  1
  Ca2+  Ca29  1  0.33214259  0.91441760  0.83989500  1
  Ca2+  Ca30  1  0.83904255  0.42155057  0.16290141  1
  Ca2+  Ca31  1  0.82794556  0.42509378  0.51387323  1
  Ca2+  Ca32  1  0.84333481  0.42378467  0.83453819  1
  Ca2+  Ca33  1  0.82930597  0.92762269  0.17442544  1
  Ca2+  Ca34  1  0.83814899  0.92326123  0.50394621  1
  Ca2+  Ca35  1  0.83187047  0.92699962  0.83753403  1
  Ca2+  Ca36  1  0.42535781  0.16278364  0.15801542  1
  Ca2+  Ca37  1  0.42282252  0.17214096  0.50354384  1
  Ca2+  Ca38  1  0.43307193  0.16877054  0.82614596  1
  Ca2+  Ca39  1  0.42210775  0.67086136  0.16514660  1
  Ca2+  Ca40  1  0.43017589  0.65987179  0.49551283  1
  Ca2+  Ca41  1  0.42480832  0.67429198  0.82880828  1
  Ca2+  Ca42  1  0.91462202  0.16851535  0.15764452  1
  Ca2+  Ca43  1  0.90892095  0.16681644  0.50051411  1
  Ca2+  Ca44  1  0.91629457  0.16984838  0.82437031  1
  Ca2+  Ca45  1  0.91749822  0.67530488  0.15896015  1
  Ca2+  Ca46  1  0.90581893  0.68193838  0.49928983  1
  Ca2+  Ca47  1  0.91960181  0.66665914  0.82413334  1
  Al0+  Al48  1  0.00193732  -0.00170923  0.00112370  1
  Al0+  Al49  1  0.00120138  0.00024334  0.33608407  1
  Al0+  Al50  1  0.00027128  -0.00294480  0.66735642  1
  Al0+  Al51  1  0.00192420  0.49884282  0.00074627  1
  Al0+  Al52  1  0.00105521  0.49843042  0.33374019  1
  Al0+  Al53  1  0.00514223  0.49787976  0.66206422  1
  Al0+  Al54  1  0.49807821  -0.00002944  -0.00441481  1
  Al0+  Al55  1  0.49981848  -0.00063276  0.33778097  1
  Al0+  Al56  1  0.49657016  0.00115565  0.66098262  1
  Al0+  Al57  1  0.50008226  0.50183431  0.00174782  1
  Al0+  Al58  1  0.49973111  0.50009288  0.33065403  1
  Al0+  Al59  1  0.49822899  0.50160362  0.66759165  1
  Al0+  Al60  1  0.24909862  0.25104789  0.00037875  1
  Al0+  Al61  1  0.24954148  0.25143797  0.33323087  1
  Al0+  Al62  1  0.25074921  0.24974052  0.66034529  1
  Al0+  Al63  1  0.25184935  0.75022571  -0.00633161  1
  Al0+  Al64  1  0.25161757  0.74950891  0.34374007  1
  Al0+  Al65  1  0.24912588  0.75045073  0.66674481  1
  Al0+  Al66  1  0.74911853  0.25290120  -0.00249764  1
  Al0+  Al67  1  0.74987510  0.25095585  0.33347544  1
  Al0+  Al68  1  0.74905914  0.24926144  0.66477232  1
  Al0+  Al69  1  0.74911221  0.74862055  0.00655991  1
  Al0+  Al70  1  0.75088558  0.75024925  0.32340742  1
  Al0+  Al71  1  0.74882517  0.75022706  0.66474829  1
  Al0+  Al72  1  0.92854001  0.32032323  0.98562997  1
  Al0+  Al73  1  0.07188840  0.17555476  0.98680062  1
  Al0+  Al74  1  0.93045898  0.82201093  0.31668037  1
  Al0+  Al75  1  0.06985091  0.17771963  0.65051972  1
  Al0+  Al76  1  0.67708552  0.42931321  0.68169190  1
  Al0+  Al77  1  0.82009808  0.07177936  0.34914360  1
  Al0+  Al78  1  0.57133326  0.67829773  0.31710567  1
  Al0+  Al79  1  0.07278688  0.67674620  0.65061026  1
  Al0+  Al80  1  0.56978149  0.17991298  0.98796163  1
  Al0+  Al81  1  0.92785856  0.81906671  0.65335996  1
  Al0+  Al82  1  0.18013636  0.93024337  0.34787567  1
  Al0+  Al83  1  0.07029496  0.68098443  0.98948507  1
  Al0+  Al84  1  0.57364629  0.17719673  0.64933977  1
  Al0+  Al85  1  0.82323362  0.57159812  0.67948691  1
  Al0+  Al86  1  0.67628804  0.92980911  0.01354312  1
  Al0+  Al87  1  0.82053670  0.06888530  0.68109420  1
  Al0+  Al88  1  0.32068666  0.56896868  0.34809474  1
  Al0+  Al89  1  0.82269814  0.07265597  0.01376880  1
  Al0+  Al90  1  0.43084179  0.81948789  0.98755051  1
  Al0+  Al91  1  0.82322044  0.56964369  0.01425785  1
  Al0+  Al92  1  0.43000113  0.32144153  0.65242592  1
  Al0+  Al93  1  0.56890646  0.68231627  0.65569701  1
  Al0+  Al94  1  0.92745810  0.32096678  0.64991312  1
  Al0+  Al95  1  0.67799827  0.92650820  0.34905294  1
  Si0+  Si96  1  0.92799211  0.32198755  0.31715428  1
  Si0+  Si97  1  0.18110432  0.42937865  0.01576408  1
  Si0+  Si98  1  0.42599165  0.82341269  0.64793405  1
  Si0+  Si99  1  0.82242719  0.57058399  0.34569310  1
  Si0+  Si100  1  0.31929130  0.07139363  0.01295105  1
  Si0+  Si101  1  0.31982588  0.07170451  0.68249230  1
  Si0+  Si102  1  0.17755530  0.42633607  0.35219511  1
  Si0+  Si103  1  0.67941546  0.43018180  0.34628258  1
  Si0+  Si104  1  0.31991242  0.57193974  0.68527866  1
  Si0+  Si105  1  0.42730861  0.32462829  0.98630840  1
  Si0+  Si106  1  0.42659810  0.82179107  0.31884434  1
  Si0+  Si107  1  0.32159185  0.57285207  0.01481883  1
  Si0+  Si108  1  0.18070401  0.92624697  0.01360085  1
  Si0+  Si109  1  0.32307091  0.07546899  0.35091120  1
  Si0+  Si110  1  0.18119586  0.42643606  0.68346603  1
  Si0+  Si111  1  0.67533732  0.42907239  0.01802056  1
  Si0+  Si112  1  0.57064843  0.17876702  0.31782106  1
  Si0+  Si113  1  0.67459126  0.92768504  0.68181167  1
  Si0+  Si114  1  0.57433033  0.67591783  0.98224697  1
  Si0+  Si115  1  0.92561285  0.82190277  0.98458649  1
  Si0+  Si116  1  0.17997145  0.92860764  0.68542815  1
  Si0+  Si117  1  0.42819741  0.32040516  0.31710534  1
  Si0+  Si118  1  0.07359102  0.67785827  0.31840596  1
  Si0+  Si119  1  0.07125591  0.18020764  0.31851811  1
  O2-  O120  1  0.24574185  0.00341794  0.05570615  1
  O2-  O121  1  0.25486109  0.00596775  0.39423631  1
  O2-  O122  1  0.25045104  0.00042775  0.72719858  1
  O2-  O123  1  0.25279293  0.50008454  0.05801628  1
  O2-  O124  1  0.24431205  0.49673867  0.39615496  1
  O2-  O125  1  0.24799284  0.50168548  0.72696068  1
  O2-  O126  1  0.75172648  -0.00117243  0.06327250  1
  O2-  O127  1  0.74999698  -0.00208477  0.39905580  1
  O2-  O128  1  0.74115884  -0.00204613  0.72612038  1
  O2-  O129  1  0.74557443  0.49698568  0.06144938  1
  O2-  O130  1  0.74965797  0.50179273  0.38761487  1
  O2-  O131  1  0.75478714  0.49617145  0.73054866  1
  O2-  O132  1  -0.00083930  0.25001805  0.27658057  1
  O2-  O133  1  -0.00510148  0.24495998  0.59840332  1
  O2-  O134  1  -0.00736351  0.23974116  0.93809748  1
  O2-  O135  1  0.00432167  0.74425649  0.27227533  1
  O2-  O136  1  -0.00449525  0.74282450  0.60179527  1
  O2-  O137  1  -0.00799264  0.75034578  0.94165527  1
  O2-  O138  1  0.49566413  0.24635749  0.27478221  1
  O2-  O139  1  0.50468959  0.25369240  0.60059556  1
  O2-  O140  1  0.49743289  0.25816702  0.94322796  1
  O2-  O141  1  0.49889835  0.75756357  0.27373491  1
  O2-  O142  1  0.49764976  0.75830702  0.60476259  1
  O2-  O143  1  0.50911442  0.74919494  0.94064586  1
  O2-  O144  1  0.07816289  0.18015836  0.10077691  1
  O2-  O145  1  0.07422496  0.18229860  0.42291258  1
  O2-  O146  1  0.07187826  0.18083137  0.76384293  1
  O2-  O147  1  0.07405172  0.68453531  0.10284538  1
  O2-  O148  1  0.07275819  0.67784784  0.42331212  1
  O2-  O149  1  0.07554367  0.68147171  0.76447290  1
  O2-  O150  1  0.56540744  0.18025196  0.10191040  1
  O2-  O151  1  0.57071331  0.18194030  0.42219229  1
  O2-  O152  1  0.56925285  0.17412169  0.76287933  1
  O2-  O153  1  0.56965151  0.67194256  0.08783652  1
  O2-  O154  1  0.56904717  0.67412250  0.43002767  1
  O2-  O155  1  0.56648475  0.68368581  0.76874492  1
  O2-  O156  1  0.17992265  0.42434002  0.24624580  1
  O2-  O157  1  0.18492600  0.42488285  0.57831335  1
  O2-  O158  1  0.18339453  0.42857744  0.91103862  1
  O2-  O159  1  0.18239339  0.93066183  0.23399066  1
  O2-  O160  1  0.18239336  0.92833367  0.58024630  1
  O2-  O161  1  0.18477404  0.92262068  0.90896194  1
  O2-  O162  1  0.67971841  0.42821809  0.24102583  1
  O2-  O163  1  0.67612798  0.43439907  0.56712566  1
  O2-  O164  1  0.66827341  0.43159740  0.91354945  1
  O2-  O165  1  0.67670630  0.93144357  0.23558141  1
  O2-  O166  1  0.67550917  0.92739859  0.57632345  1
  O2-  O167  1  0.67511871  0.93180706  0.89997064  1
  O2-  O168  1  0.42644453  0.32389519  0.09248882  1
  O2-  O169  1  0.42778022  0.32106787  0.42141036  1
  O2-  O170  1  0.42795890  0.31727681  0.76631061  1
  O2-  O171  1  0.42526401  0.81621590  0.10050100  1
  O2-  O172  1  0.42396700  0.81892565  0.42401077  1
  O2-  O173  1  0.42435993  0.82218791  0.75386182  1
  O2-  O174  1  0.93416253  0.32200099  0.10018015  1
  O2-  O175  1  0.92775988  0.32443062  0.42152330  1
  O2-  O176  1  0.93192694  0.32204628  0.76309462  1
  O2-  O177  1  0.92990661  0.82232792  0.09036238  1
  O2-  O178  1  0.93060110  0.82136583  0.42929402  1
  O2-  O179  1  0.93048359  0.82035148  0.76712062  1
  O2-  O180  1  0.32205099  0.07741000  0.24476729  1
  O2-  O181  1  0.31887514  0.07023475  0.57736337  1
  O2-  O182  1  0.31948962  0.07140169  0.90811467  1
  O2-  O183  1  0.31884053  0.56808205  0.23424050  1
  O2-  O184  1  0.32004437  0.57154612  0.58010547  1
  O2-  O185  1  0.32169755  0.57250944  0.91003115  1
  O2-  O186  1  0.81873159  0.07487395  0.23546931  1
  O2-  O187  1  0.82117859  0.06590149  0.56813062  1
  O2-  O188  1  0.82232868  0.07100016  0.90040061  1
  O2-  O189  1  0.82397024  0.56679117  0.24044278  1
  O2-  O190  1  0.81791705  0.57313701  0.56530029  1
  O2-  O191  1  0.82471017  0.56929894  0.90177096  1
  O2-  O192  1  0.04656403  0.08755833  0.27218170  1
  O2-  O193  1  0.04727547  0.07686851  0.60160620  1
  O2-  O194  1  0.05676107  0.07331988  0.93744006  1
  O2-  O195  1  0.05189635  0.58202416  0.27367741  1
  O2-  O196  1  0.06052983  0.57504054  0.60065237  1
  O2-  O197  1  0.04559383  0.58246412  0.93785615  1
  O2-  O198  1  0.54387004  0.08565209  0.27238060  1
  O2-  O199  1  0.53755866  0.08179896  0.59390483  1
  O2-  O200  1  0.53356634  0.08696686  0.93207448  1
  O2-  O201  1  0.53532494  0.58327421  0.26167668  1
  O2-  O202  1  0.53402425  0.58729114  0.60148231  1
  O2-  O203  1  0.54226810  0.58449944  0.93560039  1
  O2-  O204  1  0.16345274  0.20877426  0.27035302  1
  O2-  O205  1  0.16674088  0.20950968  0.59627774  1
  O2-  O206  1  0.16859891  0.21134134  0.93345496  1
  O2-  O207  1  0.16833677  0.70579237  0.27528069  1
  O2-  O208  1  0.16928231  0.71315164  0.59777353  1
  O2-  O209  1  0.16496269  0.71269019  0.93257592  1
  O2-  O210  1  0.66040008  0.21231832  0.26971914  1
  O2-  O211  1  0.67078553  0.20323904  0.59438818  1
  O2-  O212  1  0.66558226  0.20926186  0.93402694  1
  O2-  O213  1  0.66718279  0.70489909  0.26030974  1
  O2-  O214  1  0.66489465  0.70874273  0.59909182  1
  O2-  O215  1  0.66991164  0.69654926  0.93984155  1
  O2-  O216  1  0.09117267  0.45777987  0.06581202  1
  O2-  O217  1  0.08282200  0.44894741  0.39667955  1
  O2-  O218  1  0.08867835  0.45019583  0.73052361  1
  O2-  O219  1  0.08794991  0.94733178  0.06188083  1
  O2-  O220  1  0.08562623  0.96265408  0.40352112  1
  O2-  O221  1  0.08851218  0.95443166  0.73302996  1
  O2-  O222  1  0.58215645  0.45591739  0.06765874  1
  O2-  O223  1  0.58689049  0.45642291  0.39195239  1
  O2-  O224  1  0.57983691  0.46176246  0.73541982  1
  O2-  O225  1  0.57747309  0.96083254  0.06639464  1
  O2-  O226  1  0.57805241  0.95063475  0.40152461  1
  O2-  O227  1  0.57799313  0.95071793  0.72390223  1
  O2-  O228  1  0.20957857  0.33836488  0.06618810  1
  O2-  O229  1  0.20625232  0.33398172  0.39899032  1
  O2-  O230  1  0.21526605  0.33633926  0.73070553  1
  O2-  O231  1  0.21706588  0.83763104  0.06264644  1
  O2-  O232  1  0.21148714  0.83578240  0.40535518  1
  O2-  O233  1  0.21119812  0.83750216  0.73306353  1
  O2-  O234  1  0.70010777  0.33560555  0.06488126  1
  O2-  O235  1  0.70784799  0.33917576  0.39435645  1
  O2-  O236  1  0.69743078  0.32761900  0.72922054  1
  O2-  O237  1  0.69681895  0.82897375  0.06517474  1
  O2-  O238  1  0.70671332  0.82548046  0.39575525  1
  O2-  O239  1  0.70021533  0.83452538  0.72812036  1
  O2-  O240  1  0.45872834  0.41042002  0.26763832  1
  O2-  O241  1  0.45192573  0.42183271  0.60140276  1
  O2-  O242  1  0.44914085  0.41955568  0.94156242  1
  O2-  O243  1  0.44528350  0.91846707  0.27509503  1
  O2-  O244  1  0.44322186  0.91830760  0.60233607  1
  O2-  O245  1  0.45490203  0.91639830  0.93112967  1
  O2-  O246  1  0.95787347  0.41335343  0.26868372  1
  O2-  O247  1  0.96232420  0.41666524  0.59470096  1
  O2-  O248  1  0.96825424  0.41480047  0.93305654  1
  O2-  O249  1  0.96586255  0.91822739  0.26410866  1
  O2-  O250  1  0.96420019  0.91398753  0.59901610  1
  O2-  O251  1  0.95493159  0.91403583  0.93854626  1
  O2-  O252  1  0.33472806  0.29654297  0.26954903  1
  O2-  O253  1  0.33493780  0.28843945  0.59512833  1
  O2-  O254  1  0.33426910  0.29828711  0.94062204  1
  O2-  O255  1  0.33401580  0.79062888  0.27262468  1
  O2-  O256  1  0.33375059  0.79316896  0.60273321  1
  O2-  O257  1  0.33793512  0.78469775  0.92843560  1
  O2-  O258  1  0.83598826  0.29523244  0.26930789  1
  O2-  O259  1  0.82794910  0.29818921  0.59782638  1
  O2-  O260  1  0.82671868  0.30735362  0.93630724  1
  O2-  O261  1  0.83571742  0.79170139  0.25947289  1
  O2-  O262  1  0.82938377  0.79517204  0.59845146  1
  O2-  O263  1  0.83049054  0.79872435  0.94225251  1
  O2-  O264  1  0.40896438  0.04000410  0.06217728  1
  O2-  O265  1  0.41645865  0.05192930  0.39730709  1
  O2-  O266  1  0.41223555  0.04398810  0.72944622  1
  O2-  O267  1  0.41360273  0.54732571  0.06365988  1
  O2-  O268  1  0.41663210  0.53379730  0.40067023  1
  O2-  O269  1  0.41036281  0.54357279  0.73428176  1
  O2-  O270  1  0.92281320  0.04578246  0.06656819  1
  O2-  O271  1  0.91990690  0.04642911  0.39939646  1
  O2-  O272  1  0.91684554  0.03535932  0.73484209  1
  O2-  O273  1  0.91874974  0.53604684  0.07049451  1
  O2-  O274  1  0.91393597  0.54250573  0.39327349  1
  O2-  O275  1  0.92505871  0.54554287  0.72749058  1
  O2-  O276  1  0.29572524  0.16422219  0.06195879  1
  O2-  O277  1  0.29626454  0.16900622  0.39643743  1
  O2-  O278  1  0.29102950  0.16357321  0.72876959  1
  O2-  O279  1  0.28969132  0.66346151  0.06229608  1
  O2-  O280  1  0.29397034  0.66432385  0.40555157  1
  O2-  O281  1  0.29234415  0.66464312  0.73171461  1
  O2-  O282  1  0.79402193  0.17252700  0.06460462  1
  O2-  O283  1  0.78932217  0.17064093  0.40071888  1
  O2-  O284  1  0.79345954  0.16760935  0.73140939  1
  O2-  O285  1  0.79389572  0.66569894  0.07077006  1
  O2-  O286  1  0.79602460  0.66417216  0.38782042  1
  O2-  O287  1  0.79140170  0.66926197  0.73280140  1
