# generated using pymatgen
data_Ca2Al2SiO7
_symmetry_space_group_name_H-M   'P 1'
_cell_length_a   15.45365293
_cell_length_b   15.45402551
_cell_length_c   15.28055387
_cell_angle_alpha   90.00719799
_cell_angle_beta   90.00508025
_cell_angle_gamma   90.00313454
_symmetry_Int_Tables_number   1
_chemical_formula_structural   Ca2Al2SiO7
_chemical_formula_sum   'Ca48 Al48 Si24 O168'
_cell_volume   3649.31935066
_cell_formula_units_Z   24
loop_
 _symmetry_equiv_pos_site_id
 _symmetry_equiv_pos_as_xyz
  1  'x, y, z'
loop_
 _atom_type_symbol
 _atom_type_oxidation_number
  Ca2+  2.0
  Al0+  0.0
  Si0+  0.0
  O2-  -2.0
loop_
 _atom_site_type_symbol
 _atom_site_label
 _atom_site_symmetry_multiplicity
 _atom_site_fract_x
 _atom_site_fract_y
 _atom_site_fract_z
 _atom_site_occupancy
  Ca2+  Ca0  1  0.16889763  0.08728406  0.16911555  1
  Ca2+  Ca1  1  0.16822553  0.07672743  0.50315901  1
  Ca2+  Ca2  1  0.17272536  0.08033505  0.83864516  1
  Ca2+  Ca3  1  0.17045307  0.57015247  0.16805070  1
  Ca2+  Ca4  1  0.16943280  0.57895830  0.50703099  1
  Ca2+  Ca5  1  0.17516697  0.58366124  0.83997669  1
  Ca2+  Ca6  1  0.67578749  0.08068630  0.16986257  1
  Ca2+  Ca7  1  0.66385041  0.07209162  0.50809178  1
  Ca2+  Ca8  1  0.66911834  0.08156248  0.83708111  1
  Ca2+  Ca9  1  0.65781519  0.57317194  0.16558834  1
  Ca2+  Ca10  1  0.66636616  0.57664132  0.50028553  1
  Ca2+  Ca11  1  0.66780181  0.57889987  0.84285239  1
  Ca2+  Ca12  1  0.08564694  0.32569938  0.15709668  1
  Ca2+  Ca13  1  0.08794636  0.32586302  0.49004798  1
  Ca2+  Ca14  1  0.08577709  0.33150927  0.83749485  1
  Ca2+  Ca15  1  0.08037873  0.83842356  0.16616134  1
  Ca2+  Ca16  1  0.07755891  0.83937618  0.49531019  1
  Ca2+  Ca17  1  0.07998119  0.82977542  0.82213096  1
  Ca2+  Ca18  1  0.57363015  0.34152674  0.16012350  1
  Ca2+  Ca19  1  0.57739023  0.32639602  0.49340770  1
  Ca2+  Ca20  1  0.57898310  0.32829965  0.83161813  1
  Ca2+  Ca21  1  0.57942522  0.82792410  0.15792239  1
  Ca2+  Ca22  1  0.58571776  0.83569448  0.49483727  1
  Ca2+  Ca23  1  0.57853579  0.83309821  0.83234640  1
  Ca2+  Ca24  1  0.32758533  0.41166191  0.16840721  1
  Ca2+  Ca25  1  0.33101240  0.41857476  0.50068659  1
  Ca2+  Ca26  1  0.33167999  0.42722975  0.84463577  1
  Ca2+  Ca27  1  0.33101625  0.92206953  0.16870314  1
  Ca2+  Ca28  1  0.31922865  0.92109947  0.51041626  1
  Ca2+  Ca29  1  0.33349961  0.92702686  0.83841124  1
  Ca2+  Ca30  1  0.82178425  0.40907536  0.16751557  1
  Ca2+  Ca31  1  0.82725463  0.41476286  0.50135994  1
  Ca2+  Ca32  1  0.82736019  0.41258664  0.84466830  1
  Ca2+  Ca33  1  0.83158587  0.92069983  0.17272300  1
  Ca2+  Ca34  1  0.82652219  0.90818230  0.50348192  1
  Ca2+  Ca35  1  0.83081227  0.91890045  0.83607647  1
  Ca2+  Ca36  1  0.41296509  0.17801975  0.15935256  1
  Ca2+  Ca37  1  0.41844987  0.16613248  0.49795057  1
  Ca2+  Ca38  1  0.41200327  0.16993206  0.83003563  1
  Ca2+  Ca39  1  0.41975101  0.67310821  0.15390677  1
  Ca2+  Ca40  1  0.41283236  0.66642814  0.49992751  1
  Ca2+  Ca41  1  0.41581446  0.66545287  0.83440054  1
  Ca2+  Ca42  1  0.92869397  0.16684979  0.15734178  1
  Ca2+  Ca43  1  0.92592243  0.16559234  0.49378758  1
  Ca2+  Ca44  1  0.91752571  0.16809295  0.83824520  1
  Ca2+  Ca45  1  0.91542385  0.67306371  0.16495616  1
  Ca2+  Ca46  1  0.92309567  0.67796838  0.49907211  1
  Ca2+  Ca47  1  0.92626975  0.67148916  0.82241908  1
  Al0+  Al48  1  -0.00069622  0.00089355  -0.00143486  1
  Al0+  Al49  1  0.00119102  0.00051345  0.32778252  1
  Al0+  Al50  1  -0.00262065  0.00205854  0.66598104  1
  Al0+  Al51  1  -0.00100459  0.50081146  0.00069609  1
  Al0+  Al52  1  0.00033882  0.50086187  0.33801239  1
  Al0+  Al53  1  -0.00176031  0.50046060  0.66094342  1
  Al0+  Al54  1  0.49898965  -0.00089622  0.00229612  1
  Al0+  Al55  1  0.50223968  0.00052153  0.33492434  1
  Al0+  Al56  1  0.50095504  -0.00029834  0.66999211  1
  Al0+  Al57  1  0.50087871  0.50155522  -0.00220399  1
  Al0+  Al58  1  0.50101458  0.50003036  0.33570159  1
  Al0+  Al59  1  0.49881031  0.49921143  0.66858068  1
  Al0+  Al60  1  0.25048851  0.24826291  -0.00360728  1
  Al0+  Al61  1  0.25184382  0.25140540  0.33098373  1
  Al0+  Al62  1  0.24879946  0.25173268  0.66765342  1
  Al0+  Al63  1  0.24946733  0.75157779  0.00078848  1
  Al0+  Al64  1  0.24970587  0.75056041  0.33551083  1
  Al0+  Al65  1  0.25075704  0.74758620  0.66953921  1
  Al0+  Al66  1  0.75113852  0.24869324  0.00676936  1
  Al0+  Al67  1  0.75049523  0.24954939  0.33988262  1
  Al0+  Al68  1  0.74777156  0.24791133  0.66052987  1
  Al0+  Al69  1  0.74946623  0.74894355  -0.00419311  1
  Al0+  Al70  1  0.75145843  0.74973629  0.33174131  1
  Al0+  Al71  1  0.74942164  0.74845697  0.66751558  1
  Al0+  Al72  1  0.17931485  0.42809959  0.34714495  1
  Al0+  Al73  1  0.32175631  0.57304797  0.01655460  1
  Al0+  Al74  1  0.57083564  0.67916197  0.98342923  1
  Al0+  Al75  1  0.17582699  0.92924306  0.68165850  1
  Al0+  Al76  1  0.92795003  0.32152759  0.98711921  1
  Al0+  Al77  1  0.42691874  0.82306749  0.98410447  1
  Al0+  Al78  1  0.92997666  0.81938855  0.31746825  1
  Al0+  Al79  1  0.67984031  0.42919995  0.01196088  1
  Al0+  Al80  1  0.17971029  0.92959001  0.34605579  1
  Al0+  Al81  1  0.43242100  0.32011367  0.31959191  1
  Al0+  Al82  1  0.67985115  0.92702598  0.68210533  1
  Al0+  Al83  1  0.57008752  0.17800016  0.65300664  1
  Al0+  Al84  1  0.07197326  0.17817385  0.98204944  1
  Al0+  Al85  1  0.67825753  0.42918814  0.34915214  1
  Al0+  Al86  1  0.82114982  0.06958092  0.01415593  1
  Al0+  Al87  1  0.32064663  0.07176667  0.68142907  1
  Al0+  Al88  1  0.32109529  0.56927899  0.68124452  1
  Al0+  Al89  1  0.07436442  0.67872459  0.65038844  1
  Al0+  Al90  1  0.42930360  0.32053177  0.98540840  1
  Al0+  Al91  1  0.17865760  0.42924001  0.01403711  1
  Al0+  Al92  1  0.32183663  0.07090214  0.01496650  1
  Al0+  Al93  1  0.68040804  0.92893633  0.34577939  1
  Al0+  Al94  1  0.07044409  0.18064438  0.31953418  1
  Al0+  Al95  1  0.92881349  0.82249714  0.65153175  1
  Si0+  Si96  1  0.82318394  0.07084222  0.35103765  1
  Si0+  Si97  1  0.57323618  0.17734649  0.98627306  1
  Si0+  Si98  1  0.92871746  0.82150911  0.98461460  1
  Si0+  Si99  1  0.82105214  0.07446337  0.68317646  1
  Si0+  Si100  1  0.32179140  0.57229109  0.34982854  1
  Si0+  Si101  1  0.57062860  0.67999097  0.31999437  1
  Si0+  Si102  1  0.67879081  0.92634014  0.01663477  1
  Si0+  Si103  1  0.07410261  0.67654787  0.31506977  1
  Si0+  Si104  1  0.82016940  0.56917644  0.68066463  1
  Si0+  Si105  1  0.07006714  0.67903536  0.98687455  1
  Si0+  Si106  1  0.43062698  0.82081040  0.65115901  1
  Si0+  Si107  1  0.32266634  0.07291803  0.34927503  1
  Si0+  Si108  1  0.82261374  0.57315936  0.35183673  1
  Si0+  Si109  1  0.68020339  0.42768028  0.68110677  1
  Si0+  Si110  1  0.42791499  0.32285571  0.64956928  1
  Si0+  Si111  1  0.42775371  0.82206729  0.32112872  1
  Si0+  Si112  1  0.92628361  0.32138436  0.65011096  1
  Si0+  Si113  1  0.57419641  0.17589480  0.31591541  1
  Si0+  Si114  1  0.92639712  0.32428140  0.31800952  1
  Si0+  Si115  1  0.17675591  0.92850777  0.01669693  1
  Si0+  Si116  1  0.07118888  0.18121270  0.65087597  1
  Si0+  Si117  1  0.82299338  0.57423335  0.01611176  1
  Si0+  Si118  1  0.17463390  0.42793405  0.68308311  1
  Si0+  Si119  1  0.57093817  0.67691275  0.64994398  1
  O2-  O120  1  0.24643552  -0.00368339  0.06060326  1
  O2-  O121  1  0.25622155  0.00205476  0.39312637  1
  O2-  O122  1  0.24824061  0.00032825  0.73187872  1
  O2-  O123  1  0.25310966  0.49794025  0.06614470  1
  O2-  O124  1  0.25164183  0.50508394  0.39399666  1
  O2-  O125  1  0.24294859  0.49733113  0.72571859  1
  O2-  O126  1  0.74731304  -0.00561275  0.06135562  1
  O2-  O127  1  0.75274519  0.00424785  0.39560726  1
  O2-  O128  1  0.75526244  0.00218040  0.72619015  1
  O2-  O129  1  0.75494145  0.50429736  0.05904832  1
  O2-  O130  1  0.75635498  0.50099993  0.39555748  1
  O2-  O131  1  0.75187917  0.49676856  0.72440986  1
  O2-  O132  1  -0.00335404  0.25741825  0.27467636  1
  O2-  O133  1  0.00081503  0.25362872  0.60876631  1
  O2-  O134  1  0.00094852  0.25281677  0.93357730  1
  O2-  O135  1  0.00563099  0.74553921  0.27027496  1
  O2-  O136  1  0.00633271  0.75576615  0.60152900  1
  O2-  O137  1  -0.00046682  0.75032072  0.94395110  1
  O2-  O138  1  0.50784564  0.24629349  0.27182438  1
  O2-  O139  1  0.49315191  0.25048312  0.60600663  1
  O2-  O140  1  0.50335743  0.24392831  0.94039823  1
  O2-  O141  1  0.49986990  0.75180918  0.27945256  1
  O2-  O142  1  0.50114034  0.74900636  0.60724002  1
  O2-  O143  1  0.49841514  0.75057080  0.93328958  1
  O2-  O144  1  0.07006924  0.17717036  0.09574437  1
  O2-  O145  1  0.06901968  0.18096599  0.43355215  1
  O2-  O146  1  0.07133659  0.18187850  0.75534235  1
  O2-  O147  1  0.06792349  0.67958695  0.09214696  1
  O2-  O148  1  0.07366455  0.67679937  0.42045613  1
  O2-  O149  1  0.06908980  0.67614566  0.76438229  1
  O2-  O150  1  0.57300131  0.17852225  0.09204935  1
  O2-  O151  1  0.57139147  0.17466910  0.42177227  1
  O2-  O152  1  0.57544712  0.18334481  0.76569164  1
  O2-  O153  1  0.57270626  0.68205127  0.09779113  1
  O2-  O154  1  0.57043086  0.67946340  0.42560939  1
  O2-  O155  1  0.57175410  0.67506167  0.75426240  1
  O2-  O156  1  0.17993361  0.42773260  0.23477024  1
  O2-  O157  1  0.17621613  0.42632300  0.57702877  1
  O2-  O158  1  0.17758706  0.43425382  0.90018734  1
  O2-  O159  1  0.18226754  0.92848934  0.23318874  1
  O2-  O160  1  0.17660375  0.93287637  0.56758789  1
  O2-  O161  1  0.17494867  0.92834291  0.91126241  1
  O2-  O162  1  0.67681270  0.43207331  0.23648017  1
  O2-  O163  1  0.68120424  0.42996234  0.57575504  1
  O2-  O164  1  0.68243721  0.42887172  0.89825609  1
  O2-  O165  1  0.68112006  0.92894793  0.23292886  1
  O2-  O166  1  0.68052610  0.92703907  0.56856938  1
  O2-  O167  1  0.68064278  0.92620579  0.91099064  1
  O2-  O168  1  0.43060285  0.32023212  0.09881466  1
  O2-  O169  1  0.43316881  0.31948533  0.43312335  1
  O2-  O170  1  0.43064081  0.32524094  0.75480917  1
  O2-  O171  1  0.42989570  0.82289696  0.09874947  1
  O2-  O172  1  0.42771540  0.82075483  0.42644297  1
  O2-  O173  1  0.43266531  0.82074643  0.75569984  1
  O2-  O174  1  0.92661642  0.31895155  0.10054685  1
  O2-  O175  1  0.92633896  0.32155246  0.42438247  1
  O2-  O176  1  0.92245550  0.32166274  0.75464902  1
  O2-  O177  1  0.92798425  0.82081605  0.08996736  1
  O2-  O178  1  0.92860915  0.81778129  0.43017276  1
  O2-  O179  1  0.92717209  0.81770056  0.76546779  1
  O2-  O180  1  0.32271936  0.07198676  0.24376391  1
  O2-  O181  1  0.31917653  0.07057416  0.56714687  1
  O2-  O182  1  0.32116478  0.06983881  0.90209689  1
  O2-  O183  1  0.32257939  0.57340990  0.24485841  1
  O2-  O184  1  0.32437138  0.56532620  0.56761517  1
  O2-  O185  1  0.31838763  0.57241742  0.90288410  1
  O2-  O186  1  0.82173298  0.06970742  0.24547473  1
  O2-  O187  1  0.82003245  0.07769874  0.57754783  1
  O2-  O188  1  0.81944076  0.06768273  0.90083399  1
  O2-  O189  1  0.82188545  0.57553277  0.24642759  1
  O2-  O190  1  0.81768041  0.56804271  0.57556447  1
  O2-  O191  1  0.82252905  0.57534873  0.91019223  1
  O2-  O192  1  0.03913491  0.08591132  0.26305549  1
  O2-  O193  1  0.04121399  0.09018683  0.60288941  1
  O2-  O194  1  0.03840152  0.08097995  0.92875240  1
  O2-  O195  1  0.04613135  0.58268861  0.27037176  1
  O2-  O196  1  0.03967527  0.58201222  0.59513550  1
  O2-  O197  1  0.04198259  0.58850290  0.93769039  1
  O2-  O198  1  0.54943111  0.08225657  0.26912772  1
  O2-  O199  1  0.54091230  0.08049801  0.59903818  1
  O2-  O200  1  0.55075256  0.08249412  0.94190329  1
  O2-  O201  1  0.54170965  0.58861863  0.27296321  1
  O2-  O202  1  0.54098980  0.58523662  0.60188559  1
  O2-  O203  1  0.54508224  0.58124555  0.92884628  1
  O2-  O204  1  0.16743695  0.21030702  0.26697818  1
  O2-  O205  1  0.16274876  0.20898904  0.60200264  1
  O2-  O206  1  0.16944014  0.20529220  0.92789518  1
  O2-  O207  1  0.16795721  0.70258838  0.26978318  1
  O2-  O208  1  0.17534228  0.69895801  0.59924800  1
  O2-  O209  1  0.16159455  0.70690698  0.93963905  1
  O2-  O210  1  0.67024279  0.19983048  0.27468639  1
  O2-  O211  1  0.66449164  0.21030279  0.59402055  1
  O2-  O212  1  0.66628818  0.20490147  0.94064384  1
  O2-  O213  1  0.66211615  0.70635688  0.27218974  1
  O2-  O214  1  0.66304338  0.70339947  0.60222004  1
  O2-  O215  1  0.66970800  0.70672336  0.92888016  1
  O2-  O216  1  0.08033563  0.45933535  0.06742379  1
  O2-  O217  1  0.08164331  0.45488571  0.40228923  1
  O2-  O218  1  0.07913724  0.45172765  0.72563624  1
  O2-  O219  1  0.08344800  0.95543906  0.06279452  1
  O2-  O220  1  0.08283871  0.96262881  0.39789626  1
  O2-  O221  1  0.07646709  0.95696121  0.73288565  1
  O2-  O222  1  0.58489639  0.46330987  0.06658271  1
  O2-  O223  1  0.58434975  0.46494622  0.40607493  1
  O2-  O224  1  0.58844632  0.45603741  0.72695265  1
  O2-  O225  1  0.58521493  0.95062476  0.06255743  1
  O2-  O226  1  0.58311747  0.95725659  0.40135896  1
  O2-  O227  1  0.58440929  0.95869969  0.73628804  1
  O2-  O228  1  0.20547058  0.32928101  0.06294490  1
  O2-  O229  1  0.21440317  0.33311298  0.40253172  1
  O2-  O230  1  0.19981060  0.33474115  0.72913292  1
  O2-  O231  1  0.20050783  0.83506347  0.06377352  1
  O2-  O232  1  0.20795774  0.83243464  0.40113753  1
  O2-  O233  1  0.20217962  0.82929205  0.73097991  1
  O2-  O234  1  0.70948290  0.33439099  0.06966817  1
  O2-  O235  1  0.70647530  0.33197278  0.40465265  1
  O2-  O236  1  0.70824425  0.33506581  0.72555288  1
  O2-  O237  1  0.70590585  0.83246697  0.06162454  1
  O2-  O238  1  0.71145510  0.83192215  0.39946373  1
  O2-  O239  1  0.70916076  0.82975261  0.73564701  1
  O2-  O240  1  0.46367484  0.41772836  0.26772477  1
  O2-  O241  1  0.45910512  0.41436676  0.60157612  1
  O2-  O242  1  0.46181785  0.41634520  0.93173116  1
  O2-  O243  1  0.45530849  0.91433987  0.27432190  1
  O2-  O244  1  0.45914399  0.91201817  0.60329485  1
  O2-  O245  1  0.45825217  0.92082204  0.93102847  1
  O2-  O246  1  0.94704762  0.42025472  0.27592480  1
  O2-  O247  1  0.94943843  0.41390767  0.60152349  1
  O2-  O248  1  0.95120603  0.42194847  0.93433058  1
  O2-  O249  1  0.96017154  0.91555863  0.26287257  1
  O2-  O250  1  0.94854367  0.92372892  0.59989209  1
  O2-  O251  1  0.95625812  0.91257586  0.93676532  1
  O2-  O252  1  0.33668022  0.28910755  0.26515629  1
  O2-  O253  1  0.33237489  0.30102280  0.60509627  1
  O2-  O254  1  0.33392636  0.29076348  0.92967704  1
  O2-  O255  1  0.33668521  0.79393198  0.27260724  1
  O2-  O256  1  0.33869901  0.79176468  0.60431861  1
  O2-  O257  1  0.32747688  0.79701259  0.93242755  1
  O2-  O258  1  0.83171484  0.29746834  0.27469693  1
  O2-  O259  1  0.83661384  0.29034331  0.59945925  1
  O2-  O260  1  0.83018593  0.28829803  0.93409247  1
  O2-  O261  1  0.83409263  0.78628879  0.26224473  1
  O2-  O262  1  0.83183972  0.78541627  0.59898816  1
  O2-  O263  1  0.83714549  0.79444679  0.93675461  1
  O2-  O264  1  0.41815703  0.04074772  0.07090923  1
  O2-  O265  1  0.41746285  0.04937568  0.39418880  1
  O2-  O266  1  0.41879339  0.04374473  0.73396700  1
  O2-  O267  1  0.42259142  0.54960488  0.06531794  1
  O2-  O268  1  0.41464533  0.54531233  0.39732036  1
  O2-  O269  1  0.41724615  0.53680852  0.73604201  1
  O2-  O270  1  0.91717219  0.03740699  0.06845328  1
  O2-  O271  1  0.91651324  0.04306175  0.39562119  1
  O2-  O272  1  0.91511338  0.05267794  0.72911954  1
  O2-  O273  1  0.91606106  0.55166657  0.06374822  1
  O2-  O274  1  0.91638110  0.55100596  0.39941561  1
  O2-  O275  1  0.91323941  0.54366855  0.72662877  1
  O2-  O276  1  0.29050160  0.16726954  0.06810779  1
  O2-  O277  1  0.29521543  0.16533051  0.39590655  1
  O2-  O278  1  0.29348367  0.17171894  0.73183507  1
  O2-  O279  1  0.29118136  0.67125512  0.06920742  1
  O2-  O280  1  0.29725435  0.66592200  0.39729037  1
  O2-  O281  1  0.29581960  0.66663000  0.73538999  1
  O2-  O282  1  0.79063210  0.16379622  0.07225248  1
  O2-  O283  1  0.80171897  0.16510170  0.39810953  1
  O2-  O284  1  0.79025463  0.16669856  0.72961867  1
  O2-  O285  1  0.79554579  0.66752554  0.06275418  1
  O2-  O286  1  0.79091974  0.66427884  0.39951101  1
  O2-  O287  1  0.79083060  0.65948980  0.72945067  1
