# generated using pymatgen
data_Ca2Al2SiO7
_symmetry_space_group_name_H-M   'P 1'
_cell_length_a   15.45913474
_cell_length_b   15.45862409
_cell_length_c   15.28467276
_cell_angle_alpha   89.98750538
_cell_angle_beta   89.99965595
_cell_angle_gamma   89.97634018
_symmetry_Int_Tables_number   1
_chemical_formula_structural   Ca2Al2SiO7
_chemical_formula_sum   'Ca48 Al48 Si24 O168'
_cell_volume   3652.68412226
_cell_formula_units_Z   24
loop_
 _symmetry_equiv_pos_site_id
 _symmetry_equiv_pos_as_xyz
  1  'x, y, z'
loop_
 _atom_type_symbol
 _atom_type_oxidation_number
  Ca2+  2.0
  Al0+  0.0
  Si0+  0.0
  O2-  -2.0
loop_
 _atom_site_type_symbol
 _atom_site_label
 _atom_site_symmetry_multiplicity
 _atom_site_fract_x
 _atom_site_fract_y
 _atom_site_fract_z
 _atom_site_occupancy
  Ca2+  Ca0  1  0.15740751  0.07493004  0.17331296  1
  Ca2+  Ca1  1  0.17186251  0.08068064  0.50176607  1
  Ca2+  Ca2  1  0.17133571  0.07904780  0.84144995  1
  Ca2+  Ca3  1  0.17179859  0.58613480  0.17256287  1
  Ca2+  Ca4  1  0.17661505  0.58669005  0.50026789  1
  Ca2+  Ca5  1  0.16638116  0.58428278  0.84044296  1
  Ca2+  Ca6  1  0.67338386  0.08654949  0.17100995  1
  Ca2+  Ca7  1  0.65795677  0.08399389  0.50554774  1
  Ca2+  Ca8  1  0.66931661  0.08326116  0.83800618  1
  Ca2+  Ca9  1  0.67326116  0.58336860  0.17671303  1
  Ca2+  Ca10  1  0.66774534  0.57715001  0.50555151  1
  Ca2+  Ca11  1  0.67439387  0.58494061  0.83705960  1
  Ca2+  Ca12  1  0.07988479  0.32077590  0.15777898  1
  Ca2+  Ca13  1  0.07760906  0.32771112  0.49541470  1
  Ca2+  Ca14  1  0.06707653  0.33346447  0.83124771  1
  Ca2+  Ca15  1  0.08282656  0.83229242  0.16430682  1
  Ca2+  Ca16  1  0.07675407  0.83573132  0.49134425  1
  Ca2+  Ca17  1  0.08606132  0.83123770  0.83825172  1
  Ca2+  Ca18  1  0.58211248  0.33929233  0.17272787  1
  Ca2+  Ca19  1  0.58846632  0.32721179  0.49291884  1
  Ca2+  Ca20  1  0.58774543  0.32733433  0.82619395  1
  Ca2+  Ca21  1  0.57993594  0.82001524  0.16578022  1
  Ca2+  Ca22  1  0.57299418  0.82277175  0.49370597  1
  Ca2+  Ca23  1  0.58345364  0.82196322  0.82490828  1
  Ca2+  Ca24  1  0.33334461  0.42117780  0.17776814  1
  Ca2+  Ca25  1  0.34088924  0.42013117  0.49686717  1
  Ca2+  Ca26  1  0.33030196  0.41776373  0.83665817  1
  Ca2+  Ca27  1  0.32098421  0.91087156  0.17467628  1
  Ca2+  Ca28  1  0.33444401  0.91543817  0.50444383  1
  Ca2+  Ca29  1  0.33369853  0.91960817  0.83542963  1
  Ca2+  Ca30  1  0.83288546  0.42772482  0.17316230  1
  Ca2+  Ca31  1  0.82423404  0.42501066  0.50677855  1
  Ca2+  Ca32  1  0.83174188  0.41999182  0.83568602  1
  Ca2+  Ca33  1  0.84005771  0.92277499  0.17131217  1
  Ca2+  Ca34  1  0.83236841  0.91655318  0.49988750  1
  Ca2+  Ca35  1  0.83147343  0.92573488  0.84085622  1
  Ca2+  Ca36  1  0.42106961  0.17110085  0.17001953  1
  Ca2+  Ca37  1  0.42534617  0.16951545  0.49370423  1
  Ca2+  Ca38  1  0.42077439  0.16516637  0.82357980  1
  Ca2+  Ca39  1  0.42814980  0.66007402  0.16683170  1
  Ca2+  Ca40  1  0.42574942  0.66970078  0.49066303  1
  Ca2+  Ca41  1  0.43068252  0.67312904  0.82568357  1
  Ca2+  Ca42  1  0.92466071  0.17070112  0.15806086  1
  Ca2+  Ca43  1  0.91873218  0.17677204  0.49334275  1
  Ca2+  Ca44  1  0.91324516  0.17624922  0.83297757  1
  Ca2+  Ca45  1  0.91430004  0.66979037  0.16117608  1
  Ca2+  Ca46  1  0.91148377  0.66903911  0.49419650  1
  Ca2+  Ca47  1  0.92018246  0.65550095  0.83219236  1
  Al0+  Al48  1  0.00114844  0.00004508  0.00234567  1
  Al0+  Al49  1  0.00009138  -0.00103163  0.33295575  1
  Al0+  Al50  1  0.00163209  -0.00116480  0.66876101  1
  Al0+  Al51  1  -0.00028569  0.49993766  -0.00166072  1
  Al0+  Al52  1  0.00103676  0.50034579  0.33883400  1
  Al0+  Al53  1  0.00040884  0.49944738  0.66292665  1
  Al0+  Al54  1  0.49826895  0.00078320  0.00243805  1
  Al0+  Al55  1  0.49966420  -0.00015622  0.32334943  1
  Al0+  Al56  1  0.49872511  -0.00020340  0.66595132  1
  Al0+  Al57  1  0.50038043  0.50038439  -0.00674755  1
  Al0+  Al58  1  0.50032135  0.49849221  0.33477307  1
  Al0+  Al59  1  0.49983884  0.49851595  0.67018207  1
  Al0+  Al60  1  0.25081864  0.24945863  -0.00340674  1
  Al0+  Al61  1  0.25046340  0.24753447  0.32661897  1
  Al0+  Al62  1  0.24944847  0.24869312  0.67245553  1
  Al0+  Al63  1  0.24984229  0.75134722  -0.00092827  1
  Al0+  Al64  1  0.24790970  0.75031738  0.34135301  1
  Al0+  Al65  1  0.24791518  0.75036939  0.66609147  1
  Al0+  Al66  1  0.74800352  0.25022145  0.00237993  1
  Al0+  Al67  1  0.75220220  0.25124382  0.33185909  1
  Al0+  Al68  1  0.75102212  0.25155460  0.66140777  1
  Al0+  Al69  1  0.74910999  0.75015270  -0.00122489  1
  Al0+  Al70  1  0.75089053  0.75450975  0.32855308  1
  Al0+  Al71  1  0.75213308  0.74999225  0.66783884  1
  Al0+  Al72  1  0.42524603  0.82061513  0.31707333  1
  Al0+  Al73  1  0.42822995  0.82054893  0.65216331  1
  Al0+  Al74  1  0.92930699  0.82012172  0.31990744  1
  Al0+  Al75  1  0.32077471  0.06957378  0.67942238  1
  Al0+  Al76  1  0.32010562  0.56984498  0.34650713  1
  Al0+  Al77  1  0.18180437  0.93013956  0.01497600  1
  Al0+  Al78  1  0.07172616  0.17615167  0.98229420  1
  Al0+  Al79  1  0.82233460  0.57527483  0.34852555  1
  Al0+  Al80  1  0.57438535  0.17798603  0.31608729  1
  Al0+  Al81  1  0.17863971  0.93001197  0.34933352  1
  Al0+  Al82  1  0.57020469  0.18060521  0.65537249  1
  Al0+  Al83  1  0.57110158  0.67829240  0.31885632  1
  Al0+  Al84  1  0.68025821  0.42926513  0.34891565  1
  Al0+  Al85  1  0.67801012  0.42726757  0.68347867  1
  Al0+  Al86  1  0.07096163  0.68008593  0.98812157  1
  Al0+  Al87  1  0.42957893  0.32083390  0.31914191  1
  Al0+  Al88  1  0.92957648  0.32111052  0.65017648  1
  Al0+  Al89  1  0.57305679  0.67721169  0.65059829  1
  Al0+  Al90  1  0.81900009  0.07118784  0.01349885  1
  Al0+  Al91  1  0.92750403  0.32109043  0.98579173  1
  Al0+  Al92  1  0.06981204  0.17934976  0.32127681  1
  Al0+  Al93  1  0.82151712  0.57193230  0.68358377  1
  Al0+  Al94  1  0.57214293  0.67888815  0.98405525  1
  Al0+  Al95  1  0.82115950  0.57010024  0.01461745  1
  Si0+  Si96  1  0.42406071  0.32196420  0.65198435  1
  Si0+  Si97  1  0.67954694  0.93011137  0.67980642  1
  Si0+  Si98  1  0.82286256  0.07131698  0.67924147  1
  Si0+  Si99  1  0.92942659  0.32416231  0.31631410  1
  Si0+  Si100  1  0.42779513  0.82174982  0.98353990  1
  Si0+  Si101  1  0.17606058  0.92677724  0.68610226  1
  Si0+  Si102  1  0.07174902  0.67682908  0.31934910  1
  Si0+  Si103  1  0.42881224  0.32184786  0.98325770  1
  Si0+  Si104  1  0.67551324  0.42803356  0.01744777  1
  Si0+  Si105  1  0.32337685  0.07195089  0.34895499  1
  Si0+  Si106  1  0.56936274  0.17838493  0.98494010  1
  Si0+  Si107  1  0.17895981  0.42913408  0.68221115  1
  Si0+  Si108  1  0.92757068  0.82238358  0.98276222  1
  Si0+  Si109  1  0.67614378  0.92762243  0.01723757  1
  Si0+  Si110  1  0.82117527  0.07031836  0.34863460  1
  Si0+  Si111  1  0.32088249  0.56956905  0.01263862  1
  Si0+  Si112  1  0.17816247  0.42394839  0.34935984  1
  Si0+  Si113  1  0.93030232  0.82357959  0.65329387  1
  Si0+  Si114  1  0.17929121  0.42867540  0.01394424  1
  Si0+  Si115  1  0.32011997  0.57238330  0.68335939  1
  Si0+  Si116  1  0.32379631  0.07496858  0.01999307  1
  Si0+  Si117  1  0.67712671  0.93127554  0.34733021  1
  Si0+  Si118  1  0.07069498  0.67846436  0.65080737  1
  Si0+  Si119  1  0.07261723  0.17688164  0.65084579  1
  O2-  O120  1  0.25350105  0.00741522  0.06256489  1
  O2-  O121  1  0.25697741  0.00162238  0.39443878  1
  O2-  O122  1  0.24660574  -0.00519283  0.72760762  1
  O2-  O123  1  0.25069595  0.49870740  0.05659886  1
  O2-  O124  1  0.24639470  0.49322880  0.39382250  1
  O2-  O125  1  0.25044689  0.49965190  0.72577923  1
  O2-  O126  1  0.74585930  -0.00466552  0.06143180  1
  O2-  O127  1  0.74479079  0.00540542  0.39153057  1
  O2-  O128  1  0.75048331  0.00173330  0.72190261  1
  O2-  O129  1  0.74484132  0.49672140  0.06011376  1
  O2-  O130  1  0.74981448  0.50400192  0.39832013  1
  O2-  O131  1  0.74733337  0.50197833  0.73366787  1
  O2-  O132  1  -0.00010916  0.25721511  0.27293057  1
  O2-  O133  1  0.00312647  0.24372183  0.60563890  1
  O2-  O134  1  -0.00155868  0.24775335  0.93408791  1
  O2-  O135  1  -0.00079529  0.74055061  0.27467484  1
  O2-  O136  1  -0.00075081  0.75020848  0.61174347  1
  O2-  O137  1  -0.00637071  0.75099574  0.93840405  1
  O2-  O138  1  0.50300152  0.25131054  0.26712535  1
  O2-  O139  1  0.49643169  0.25649016  0.60994150  1
  O2-  O140  1  0.49781588  0.24850703  0.94217258  1
  O2-  O141  1  0.49598517  0.74725453  0.26762696  1
  O2-  O142  1  0.49715984  0.74606289  0.60234283  1
  O2-  O143  1  0.50015082  0.75740898  0.93902904  1
  O2-  O144  1  0.07079727  0.17825091  0.09594244  1
  O2-  O145  1  0.06758084  0.18078335  0.43494574  1
  O2-  O146  1  0.07152406  0.17725514  0.75617394  1
  O2-  O147  1  0.07384486  0.68115103  0.10065218  1
  O2-  O148  1  0.07270540  0.67901471  0.42536779  1
  O2-  O149  1  0.07298668  0.67786192  0.75613281  1
  O2-  O150  1  0.56910141  0.17802587  0.08929769  1
  O2-  O151  1  0.57162612  0.17663659  0.42977172  1
  O2-  O152  1  0.56915779  0.17922894  0.76915343  1
  O2-  O153  1  0.56967913  0.67620525  0.09666728  1
  O2-  O154  1  0.57078550  0.68021039  0.43212476  1
  O2-  O155  1  0.57269264  0.68123618  0.76475588  1
  O2-  O156  1  0.17801654  0.42524271  0.24353756  1
  O2-  O157  1  0.17981261  0.42923175  0.57733689  1
  O2-  O158  1  0.18147174  0.43028907  0.90830727  1
  O2-  O159  1  0.17709142  0.93117923  0.23625643  1
  O2-  O160  1  0.17137923  0.92755542  0.58103269  1
  O2-  O161  1  0.18586862  0.92891444  0.90153428  1
  O2-  O162  1  0.68306471  0.42951676  0.23477196  1
  O2-  O163  1  0.68036599  0.42541979  0.57056183  1
  O2-  O164  1  0.67428746  0.42684374  0.91192652  1
  O2-  O165  1  0.68005003  0.93130379  0.24226731  1
  O2-  O166  1  0.68077766  0.93087039  0.57476908  1
  O2-  O167  1  0.67619031  0.93043526  0.91088586  1
  O2-  O168  1  0.42790703  0.32478348  0.08762691  1
  O2-  O169  1  0.42678849  0.31758109  0.43263590  1
  O2-  O170  1  0.42112040  0.31909522  0.75817032  1
  O2-  O171  1  0.42643633  0.81867682  0.08856258  1
  O2-  O172  1  0.42862527  0.82035189  0.43067500  1
  O2-  O173  1  0.43058323  0.81950560  0.76637891  1
  O2-  O174  1  0.93169320  0.32097634  0.09919135  1
  O2-  O175  1  0.93022156  0.32123753  0.42214182  1
  O2-  O176  1  0.93026942  0.32007639  0.76325820  1
  O2-  O177  1  0.92892823  0.82255712  0.08808611  1
  O2-  O178  1  0.93128411  0.82367062  0.43361745  1
  O2-  O179  1  0.93191820  0.82910789  0.75810566  1
  O2-  O180  1  0.32094124  0.07293468  0.24339552  1
  O2-  O181  1  0.31849855  0.07114643  0.56673730  1
  O2-  O182  1  0.32642119  0.07374223  0.91398953  1
  O2-  O183  1  0.31755291  0.56898535  0.23271789  1
  O2-  O184  1  0.31790622  0.57289261  0.57855715  1
  O2-  O185  1  0.31912449  0.56699523  0.90709986  1
  O2-  O186  1  0.82218135  0.06755676  0.24353390  1
  O2-  O187  1  0.82543406  0.06815334  0.57420019  1
  O2-  O188  1  0.81516185  0.07049484  0.89949936  1
  O2-  O189  1  0.82339489  0.57290543  0.23459254  1
  O2-  O190  1  0.82254423  0.57272910  0.57059602  1
  O2-  O191  1  0.82146179  0.56830583  0.90172954  1
  O2-  O192  1  0.03344522  0.08529917  0.26727134  1
  O2-  O193  1  0.04899104  0.08192165  0.60660403  1
  O2-  O194  1  0.04451634  0.07711435  0.93069847  1
  O2-  O195  1  0.05399599  0.58048146  0.27569076  1
  O2-  O196  1  0.04557012  0.58727725  0.60183890  1
  O2-  O197  1  0.04404736  0.58302655  0.93255892  1
  O2-  O198  1  0.54596447  0.08141455  0.25970892  1
  O2-  O199  1  0.53868962  0.08455979  0.60149599  1
  O2-  O200  1  0.54283846  0.08551006  0.93773515  1
  O2-  O201  1  0.54349402  0.57968803  0.26689204  1
  O2-  O202  1  0.54495936  0.57673656  0.60305121  1
  O2-  O203  1  0.53780665  0.58429551  0.92779945  1
  O2-  O204  1  0.16638087  0.20367964  0.26498498  1
  O2-  O205  1  0.16584524  0.20562187  0.60607216  1
  O2-  O206  1  0.17122873  0.20480696  0.93109882  1
  O2-  O207  1  0.16379760  0.70679436  0.27371573  1
  O2-  O208  1  0.16181823  0.70714384  0.60265995  1
  O2-  O209  1  0.16629316  0.71318170  0.93081779  1
  O2-  O210  1  0.67369027  0.20567575  0.26427879  1
  O2-  O211  1  0.66695663  0.20606065  0.59984856  1
  O2-  O212  1  0.66101508  0.20627326  0.93753622  1
  O2-  O213  1  0.66698189  0.71281694  0.26473155  1
  O2-  O214  1  0.67132466  0.70949643  0.60064357  1
  O2-  O215  1  0.66848750  0.71020941  0.92960534  1
  O2-  O216  1  0.08846192  0.45642504  0.06156164  1
  O2-  O217  1  0.08543225  0.44871867  0.39782484  1
  O2-  O218  1  0.08817968  0.46010394  0.72955846  1
  O2-  O219  1  0.08352790  0.95630823  0.06754949  1
  O2-  O220  1  0.08327584  0.96546787  0.40411920  1
  O2-  O221  1  0.08364583  0.95403213  0.73490803  1
  O2-  O222  1  0.58096892  0.45556976  0.06108321  1
  O2-  O223  1  0.58008590  0.45107279  0.40027680  1
  O2-  O224  1  0.57669014  0.44769021  0.73582004  1
  O2-  O225  1  0.58265089  0.95369741  0.06289769  1
  O2-  O226  1  0.58385006  0.95687267  0.39293529  1
  O2-  O227  1  0.58873697  0.95794547  0.72889508  1
  O2-  O228  1  0.20756771  0.33617231  0.05970740  1
  O2-  O229  1  0.20460944  0.33020568  0.39481812  1
  O2-  O230  1  0.20516491  0.33799900  0.73220126  1
  O2-  O231  1  0.21390038  0.83337809  0.06880370  1
  O2-  O232  1  0.20369954  0.83346172  0.40598290  1
  O2-  O233  1  0.20041998  0.83222923  0.73167369  1
  O2-  O234  1  0.69799549  0.33389099  0.06316124  1
  O2-  O235  1  0.71088030  0.33012780  0.40063034  1
  O2-  O236  1  0.71112677  0.32855624  0.73538719  1
  O2-  O237  1  0.70061214  0.83368458  0.06196524  1
  O2-  O238  1  0.70933995  0.84170100  0.39604974  1
  O2-  O239  1  0.70975626  0.84004307  0.72939739  1
  O2-  O240  1  0.45577954  0.41907336  0.26470873  1
  O2-  O241  1  0.44443119  0.41771873  0.60961617  1
  O2-  O242  1  0.45662238  0.41204729  0.93223276  1
  O2-  O243  1  0.45243393  0.91784875  0.26194292  1
  O2-  O244  1  0.45825567  0.91793048  0.59959787  1
  O2-  O245  1  0.44955033  0.91817349  0.94047207  1
  O2-  O246  1  0.95413338  0.41899178  0.27309790  1
  O2-  O247  1  0.96500519  0.41558911  0.59537638  1
  O2-  O248  1  0.96057248  0.41723387  0.93094947  1
  O2-  O249  1  0.96517606  0.91444325  0.26490940  1
  O2-  O250  1  0.96023228  0.91397903  0.60308690  1
  O2-  O251  1  0.95696866  0.91462507  0.93597439  1
  O2-  O252  1  0.33240739  0.29213346  0.26249705  1
  O2-  O253  1  0.33122372  0.29414966  0.60598817  1
  O2-  O254  1  0.33673355  0.29600955  0.93468611  1
  O2-  O255  1  0.32464264  0.79254465  0.26934649  1
  O2-  O256  1  0.32705664  0.79681493  0.60284182  1
  O2-  O257  1  0.33652737  0.79248941  0.93500235  1
  O2-  O258  1  0.83749749  0.29671197  0.26959379  1
  O2-  O259  1  0.83519119  0.28900449  0.59426371  1
  O2-  O260  1  0.82816492  0.29201010  0.93415975  1
  O2-  O261  1  0.83277971  0.79869186  0.26221983  1
  O2-  O262  1  0.83799263  0.79867931  0.60611486  1
  O2-  O263  1  0.83250375  0.80226197  0.93760962  1
  O2-  O264  1  0.41723044  0.04940262  0.06642427  1
  O2-  O265  1  0.41905473  0.04835548  0.39146599  1
  O2-  O266  1  0.41675890  0.03837801  0.73633127  1
  O2-  O267  1  0.41293524  0.53999498  0.05802684  1
  O2-  O268  1  0.41541112  0.53863828  0.40210494  1
  O2-  O269  1  0.41167785  0.54608286  0.73195063  1
  O2-  O270  1  0.91592065  0.04091338  0.06661103  1
  O2-  O271  1  0.90962279  0.03593758  0.39815798  1
  O2-  O272  1  0.91341725  0.04155831  0.72878313  1
  O2-  O273  1  0.91889288  0.54044941  0.06757047  1
  O2-  O274  1  0.92167628  0.54827390  0.40186726  1
  O2-  O275  1  0.92164253  0.54033687  0.73292763  1
  O2-  O276  1  0.30051049  0.17036603  0.06313628  1
  O2-  O277  1  0.29506236  0.16511056  0.39482731  1
  O2-  O278  1  0.29084089  0.16542940  0.73734005  1
  O2-  O279  1  0.29280702  0.66124655  0.05841433  1
  O2-  O280  1  0.28628357  0.66322796  0.40506515  1
  O2-  O281  1  0.28854077  0.66313443  0.73126555  1
  O2-  O282  1  0.78706541  0.16653593  0.06923039  1
  O2-  O283  1  0.80008889  0.16455283  0.39370821  1
  O2-  O284  1  0.79537716  0.16328244  0.72517206  1
  O2-  O285  1  0.79313206  0.66948960  0.06464481  1
  O2-  O286  1  0.79738835  0.67676416  0.39675322  1
  O2-  O287  1  0.79895985  0.67276745  0.73615504  1
