# generated using pymatgen
data_Ca2Al2SiO7
_symmetry_space_group_name_H-M   'P 1'
_cell_length_a   15.45938487
_cell_length_b   15.45979288
_cell_length_c   15.28530932
_cell_angle_alpha   90.00869226
_cell_angle_beta   89.99951733
_cell_angle_gamma   89.98403657
_symmetry_Int_Tables_number   1
_chemical_formula_structural   Ca2Al2SiO7
_chemical_formula_sum   'Ca48 Al48 Si24 O168'
_cell_volume   3653.17175006
_cell_formula_units_Z   24
loop_
 _symmetry_equiv_pos_site_id
 _symmetry_equiv_pos_as_xyz
  1  'x, y, z'
loop_
 _atom_type_symbol
 _atom_type_oxidation_number
  Ca2+  2.0
  Al0+  0.0
  Si0+  0.0
  O2-  -2.0
loop_
 _atom_site_type_symbol
 _atom_site_label
 _atom_site_symmetry_multiplicity
 _atom_site_fract_x
 _atom_site_fract_y
 _atom_site_fract_z
 _atom_site_occupancy
  Ca2+  Ca0  1  0.16205832  0.07622800  0.17203915  1
  Ca2+  Ca1  1  0.16492502  0.08547496  0.50161105  1
  Ca2+  Ca2  1  0.16916351  0.07661684  0.83962241  1
  Ca2+  Ca3  1  0.17960062  0.58004409  0.17484806  1
  Ca2+  Ca4  1  0.17596368  0.57384840  0.50632835  1
  Ca2+  Ca5  1  0.17269425  0.58350864  0.83226769  1
  Ca2+  Ca6  1  0.65710796  0.08136523  0.16795243  1
  Ca2+  Ca7  1  0.66924878  0.08996938  0.50719542  1
  Ca2+  Ca8  1  0.66947440  0.08410785  0.83710370  1
  Ca2+  Ca9  1  0.66793630  0.57978439  0.17697545  1
  Ca2+  Ca10  1  0.66026922  0.57073072  0.50148073  1
  Ca2+  Ca11  1  0.66549875  0.57542545  0.83301270  1
  Ca2+  Ca12  1  0.08523491  0.33417847  0.17083959  1
  Ca2+  Ca13  1  0.07630721  0.33979893  0.49265413  1
  Ca2+  Ca14  1  0.07725601  0.33620602  0.82240023  1
  Ca2+  Ca15  1  0.07866874  0.83343187  0.15747294  1
  Ca2+  Ca16  1  0.08050554  0.82631795  0.50213589  1
  Ca2+  Ca17  1  0.07763479  0.83062130  0.82707414  1
  Ca2+  Ca18  1  0.58293450  0.32816732  0.16869683  1
  Ca2+  Ca19  1  0.57836432  0.33319432  0.49422967  1
  Ca2+  Ca20  1  0.58070894  0.32469276  0.82241133  1
  Ca2+  Ca21  1  0.57264298  0.82958217  0.16190299  1
  Ca2+  Ca22  1  0.57611039  0.82319736  0.48947263  1
  Ca2+  Ca23  1  0.58001869  0.83516783  0.83402117  1
  Ca2+  Ca24  1  0.33333402  0.42594801  0.17921311  1
  Ca2+  Ca25  1  0.33226142  0.41996082  0.50882291  1
  Ca2+  Ca26  1  0.33468230  0.42515036  0.83277049  1
  Ca2+  Ca27  1  0.33370263  0.91171090  0.16869215  1
  Ca2+  Ca28  1  0.33663500  0.91742129  0.50149912  1
  Ca2+  Ca29  1  0.32791630  0.91560379  0.84346434  1
  Ca2+  Ca30  1  0.82791614  0.41490868  0.17582832  1
  Ca2+  Ca31  1  0.82376126  0.40380754  0.50425160  1
  Ca2+  Ca32  1  0.82751436  0.40921730  0.83079768  1
  Ca2+  Ca33  1  0.82650711  0.91432444  0.16778745  1
  Ca2+  Ca34  1  0.83266166  0.92526278  0.50952851  1
  Ca2+  Ca35  1  0.83254865  0.91917309  0.83887183  1
  Ca2+  Ca36  1  0.42506078  0.17371228  0.16472735  1
  Ca2+  Ca37  1  0.42649091  0.18028509  0.49407762  1
  Ca2+  Ca38  1  0.42977503  0.16986951  0.82536733  1
  Ca2+  Ca39  1  0.41518707  0.66768223  0.16666647  1
  Ca2+  Ca40  1  0.41614767  0.66573166  0.49246525  1
  Ca2+  Ca41  1  0.40571254  0.66922799  0.83311781  1
  Ca2+  Ca42  1  0.92005475  0.17213383  0.17161087  1
  Ca2+  Ca43  1  0.91928664  0.17592760  0.49748468  1
  Ca2+  Ca44  1  0.91700143  0.16870127  0.82455049  1
  Ca2+  Ca45  1  0.91945286  0.67159755  0.15885529  1
  Ca2+  Ca46  1  0.92213286  0.66596570  0.50084888  1
  Ca2+  Ca47  1  0.92241476  0.67949154  0.82343080  1
  Al0+  Al48  1  -0.00089451  0.00189982  0.00141399  1
  Al0+  Al49  1  -0.00112537  0.00054280  0.33229981  1
  Al0+  Al50  1  -0.00142546  0.00029253  0.66755776  1
  Al0+  Al51  1  -0.00048751  0.49958905  -0.00092527  1
  Al0+  Al52  1  0.00024682  0.50268175  0.33052953  1
  Al0+  Al53  1  -0.00005411  0.50158372  0.66230205  1
  Al0+  Al54  1  0.50096633  -0.00053386  -0.00445838  1
  Al0+  Al55  1  0.49820678  -0.00167250  0.32888463  1
  Al0+  Al56  1  0.50063983  -0.00085108  0.66396627  1
  Al0+  Al57  1  0.50064074  0.49978834  0.00458858  1
  Al0+  Al58  1  0.50271645  0.50112153  0.33302614  1
  Al0+  Al59  1  0.49991184  0.50116350  0.67489804  1
  Al0+  Al60  1  0.25003271  0.25075210  -0.00109356  1
  Al0+  Al61  1  0.24892542  0.24699894  0.32838874  1
  Al0+  Al62  1  0.25167704  0.24957491  0.67046184  1
  Al0+  Al63  1  0.24987885  0.74913410  0.00486258  1
  Al0+  Al64  1  0.24733372  0.75051457  0.33509081  1
  Al0+  Al65  1  0.24852308  0.75018015  0.66517034  1
  Al0+  Al66  1  0.75098689  0.24911635  -0.00183870  1
  Al0+  Al67  1  0.75233687  0.24894453  0.32876888  1
  Al0+  Al68  1  0.75270427  0.24710291  0.67054333  1
  Al0+  Al69  1  0.74971879  0.75069101  -0.00062509  1
  Al0+  Al70  1  0.74922561  0.75122948  0.33249860  1
  Al0+  Al71  1  0.74809780  0.75091891  0.66284511  1
  Al0+  Al72  1  0.17869781  0.93091489  0.01330428  1
  Al0+  Al73  1  0.82047942  0.06918525  0.68047860  1
  Al0+  Al74  1  0.32107072  0.57235631  0.68356771  1
  Al0+  Al75  1  0.42894189  0.81800125  0.98545896  1
  Al0+  Al76  1  0.67882367  0.92903531  0.01437777  1
  Al0+  Al77  1  0.32171749  0.57081361  0.34990427  1
  Al0+  Al78  1  0.57261637  0.17885634  0.31810496  1
  Al0+  Al79  1  0.93070068  0.32077387  0.65450654  1
  Al0+  Al80  1  0.17875148  0.42652370  0.34803891  1
  Al0+  Al81  1  0.32019260  0.56949330  0.01626097  1
  Al0+  Al82  1  0.07199483  0.67945428  0.65021206  1
  Al0+  Al83  1  0.42643638  0.82007144  0.31811005  1
  Al0+  Al84  1  0.17687111  0.42716390  0.68192072  1
  Al0+  Al85  1  0.07158914  0.17727248  0.31848309  1
  Al0+  Al86  1  0.92797846  0.82179743  0.98653507  1
  Al0+  Al87  1  0.68107994  0.42889542  0.68076393  1
  Al0+  Al88  1  0.92715930  0.82307752  0.65048736  1
  Al0+  Al89  1  0.42963606  0.32288757  0.65348523  1
  Al0+  Al90  1  0.57203456  0.67824470  0.31853621  1
  Al0+  Al91  1  0.93021473  0.32304732  0.31774050  1
  Al0+  Al92  1  0.57018257  0.18023509  0.98423381  1
  Al0+  Al93  1  0.42809145  0.32291453  0.31914207  1
  Al0+  Al94  1  0.57228494  0.17827773  0.65148409  1
  Al0+  Al95  1  0.68230495  0.42850540  0.34603679  1
  Si0+  Si96  1  0.06968070  0.68045228  0.31647860  1
  Si0+  Si97  1  0.57109650  0.67860314  0.65341584  1
  Si0+  Si98  1  0.32276680  0.07241871  0.01637498  1
  Si0+  Si99  1  0.93018963  0.32108624  0.98391899  1
  Si0+  Si100  1  0.07407011  0.17726513  0.65311821  1
  Si0+  Si101  1  0.32352842  0.07061253  0.68149836  1
  Si0+  Si102  1  0.82172176  0.07337701  0.02011057  1
  Si0+  Si103  1  0.07133141  0.67819882  0.98389134  1
  Si0+  Si104  1  0.82305399  0.57577994  0.34974592  1
  Si0+  Si105  1  0.57310992  0.67615922  0.98200493  1
  Si0+  Si106  1  0.17527665  0.42672181  0.01722755  1
  Si0+  Si107  1  0.17617942  0.92966307  0.35018126  1
  Si0+  Si108  1  0.18023991  0.93065358  0.68062526  1
  Si0+  Si109  1  0.82066123  0.06831151  0.34844522  1
  Si0+  Si110  1  0.07181043  0.17908869  0.98439318  1
  Si0+  Si111  1  0.68119411  0.42772282  0.01544513  1
  Si0+  Si112  1  0.92921530  0.82216089  0.31796674  1
  Si0+  Si113  1  0.82190920  0.57502806  0.68268948  1
  Si0+  Si114  1  0.42735472  0.32432861  0.98266940  1
  Si0+  Si115  1  0.82119512  0.57081366  0.01278665  1
  Si0+  Si116  1  0.67698185  0.92888853  0.34856426  1
  Si0+  Si117  1  0.32203095  0.06949015  0.34793580  1
  Si0+  Si118  1  0.67631602  0.92615978  0.68296928  1
  Si0+  Si119  1  0.42807420  0.82051028  0.65305835  1
  O2-  O120  1  0.25280726  0.00536601  0.06177957  1
  O2-  O121  1  0.24899776  -0.00045758  0.39096538  1
  O2-  O122  1  0.25099442  0.00103436  0.72393469  1
  O2-  O123  1  0.24692055  0.49210810  0.06051248  1
  O2-  O124  1  0.25547424  0.49284264  0.39867265  1
  O2-  O125  1  0.24933645  0.49873304  0.73220570  1
  O2-  O126  1  0.75295795  0.00399110  0.06309421  1
  O2-  O127  1  0.74548803  0.00177613  0.39088100  1
  O2-  O128  1  0.74626039  -0.00630365  0.72660221  1
  O2-  O129  1  0.75032629  0.50103700  0.05666667  1
  O2-  O130  1  0.75686718  0.50437842  0.39258735  1
  O2-  O131  1  0.75668778  0.50350886  0.72841009  1
  O2-  O132  1  0.00541646  0.25427304  0.26750325  1
  O2-  O133  1  0.01156645  0.25161973  0.60998452  1
  O2-  O134  1  0.00398560  0.25279295  0.94239261  1
  O2-  O135  1  -0.00298542  0.74966042  0.27385992  1
  O2-  O136  1  -0.00335370  0.74914090  0.60037846  1
  O2-  O137  1  0.00321695  0.74788473  0.94023851  1
  O2-  O138  1  0.50106790  0.25157535  0.26850620  1
  O2-  O139  1  0.50282591  0.25264970  0.60300258  1
  O2-  O140  1  0.49479883  0.25441066  0.93859409  1
  O2-  O141  1  0.49759780  0.74738051  0.26850259  1
  O2-  O142  1  0.49875062  0.74910410  0.61262224  1
  O2-  O143  1  0.50279781  0.74304883  0.93703833  1
  O2-  O144  1  0.07078589  0.17772791  0.08900675  1
  O2-  O145  1  0.06558404  0.16891826  0.43147441  1
  O2-  O146  1  0.07131132  0.17386227  0.75919671  1
  O2-  O147  1  0.06778933  0.67779037  0.08981403  1
  O2-  O148  1  0.06927428  0.68270128  0.42113107  1
  O2-  O149  1  0.07246707  0.68446022  0.76433378  1
  O2-  O150  1  0.56965398  0.18270008  0.09707560  1
  O2-  O151  1  0.57189830  0.17821890  0.43124475  1
  O2-  O152  1  0.56977040  0.17712389  0.76535311  1
  O2-  O153  1  0.57524847  0.67707207  0.08715128  1
  O2-  O154  1  0.57497586  0.68224674  0.43243943  1
  O2-  O155  1  0.57421349  0.68072842  0.75861027  1
  O2-  O156  1  0.17821523  0.43272353  0.23382052  1
  O2-  O157  1  0.17736670  0.42708571  0.56894370  1
  O2-  O158  1  0.17126533  0.42726271  0.91200509  1
  O2-  O159  1  0.17301722  0.93011062  0.24508309  1
  O2-  O160  1  0.18118036  0.93148754  0.57528285  1
  O2-  O161  1  0.17934960  0.93299244  0.89977009  1
  O2-  O162  1  0.68574949  0.42956147  0.23217385  1
  O2-  O163  1  0.68117427  0.42978573  0.56804689  1
  O2-  O164  1  0.68300630  0.42720847  0.91025575  1
  O2-  O165  1  0.67961494  0.92762398  0.24346248  1
  O2-  O166  1  0.67504219  0.92600540  0.57729375  1
  O2-  O167  1  0.68089800  0.92918324  0.90125347  1
  O2-  O168  1  0.42765581  0.32361158  0.08807279  1
  O2-  O169  1  0.42883001  0.32084227  0.43253689  1
  O2-  O170  1  0.43148758  0.31949636  0.76761171  1
  O2-  O171  1  0.42929388  0.81713586  0.09778574  1
  O2-  O172  1  0.42942136  0.82245321  0.43234305  1
  O2-  O173  1  0.42748931  0.82231023  0.75818559  1
  O2-  O174  1  0.92905269  0.32175606  0.08859299  1
  O2-  O175  1  0.92808114  0.31853888  0.43094337  1
  O2-  O176  1  0.93015223  0.31660803  0.76844212  1
  O2-  O177  1  0.92899769  0.81826850  0.10024909  1
  O2-  O178  1  0.93097973  0.82339421  0.42271842  1
  O2-  O179  1  0.93008945  0.82326107  0.76425966  1
  O2-  O180  1  0.32239207  0.06678872  0.24286490  1
  O2-  O181  1  0.32407622  0.06810845  0.57645434  1
  O2-  O182  1  0.31985743  0.07088569  0.91026806  1
  O2-  O183  1  0.31720144  0.57301703  0.23611529  1
  O2-  O184  1  0.32147990  0.57480373  0.57073469  1
  O2-  O185  1  0.31752426  0.56989568  0.90336700  1
  O2-  O186  1  0.82387416  0.06462775  0.24333209  1
  O2-  O187  1  0.82135136  0.06810923  0.56715998  1
  O2-  O188  1  0.82269422  0.07430935  0.91457404  1
  O2-  O189  1  0.82212699  0.57820593  0.24340676  1
  O2-  O190  1  0.81799559  0.57804622  0.57746407  1
  O2-  O191  1  0.82216468  0.56943044  0.90795491  1
  O2-  O192  1  0.03462234  0.08140484  0.26249566  1
  O2-  O193  1  0.04321375  0.08612394  0.60545474  1
  O2-  O194  1  0.04120443  0.08855006  0.93601026  1
  O2-  O195  1  0.04348362  0.58990234  0.26629333  1
  O2-  O196  1  0.04510852  0.58207808  0.59589179  1
  O2-  O197  1  0.04412044  0.58494504  0.93770435  1
  O2-  O198  1  0.54140094  0.08090376  0.26563059  1
  O2-  O199  1  0.54273801  0.07978643  0.59884971  1
  O2-  O200  1  0.54092305  0.08364803  0.92988774  1
  O2-  O201  1  0.54954204  0.57980850  0.26450561  1
  O2-  O202  1  0.54320197  0.58658967  0.60813132  1
  O2-  O203  1  0.54921468  0.58091391  0.93820214  1
  O2-  O204  1  0.17069852  0.19537055  0.26314568  1
  O2-  O205  1  0.17033487  0.19406585  0.61018632  1
  O2-  O206  1  0.16543953  0.20147792  0.93715869  1
  O2-  O207  1  0.15980518  0.71215214  0.26876586  1
  O2-  O208  1  0.16725985  0.71507256  0.59500534  1
  O2-  O209  1  0.16447875  0.70505820  0.93965943  1
  O2-  O210  1  0.67078409  0.20440212  0.26371187  1
  O2-  O211  1  0.67243158  0.20365918  0.60340305  1
  O2-  O212  1  0.66815632  0.21098220  0.93217308  1
  O2-  O213  1  0.67014629  0.70963218  0.26451068  1
  O2-  O214  1  0.66106010  0.70610594  0.60278088  1
  O2-  O215  1  0.66590787  0.70337588  0.93498594  1
  O2-  O216  1  0.08178922  0.45424887  0.06380585  1
  O2-  O217  1  0.08032524  0.46108753  0.39789695  1
  O2-  O218  1  0.07742662  0.45745140  0.73371251  1
  O2-  O219  1  0.08241850  0.96281553  0.06849840  1
  O2-  O220  1  0.08532130  0.96005341  0.39854019  1
  O2-  O221  1  0.08864088  0.95851973  0.72823188  1
  O2-  O222  1  0.58884911  0.45253772  0.06231271  1
  O2-  O223  1  0.58628653  0.45928063  0.40023516  1
  O2-  O224  1  0.58703727  0.46167843  0.73880176  1
  O2-  O225  1  0.58163931  0.96029405  0.06698308  1
  O2-  O226  1  0.58364393  0.95302540  0.39437519  1
  O2-  O227  1  0.58279757  0.95288506  0.72963609  1
  O2-  O228  1  0.19727273  0.33084695  0.06083075  1
  O2-  O229  1  0.19470118  0.32244567  0.39364095  1
  O2-  O230  1  0.20258441  0.32766955  0.73638996  1
  O2-  O231  1  0.20681316  0.83435095  0.06800654  1
  O2-  O232  1  0.20275931  0.83826249  0.39838790  1
  O2-  O233  1  0.20859174  0.83962099  0.72828921  1
  O2-  O234  1  0.71351072  0.33725215  0.06252155  1
  O2-  O235  1  0.71479714  0.33133816  0.39832477  1
  O2-  O236  1  0.71439531  0.33368505  0.73650504  1
  O2-  O237  1  0.71044159  0.83221215  0.06862756  1
  O2-  O238  1  0.70789971  0.83819385  0.39694850  1
  O2-  O239  1  0.70029378  0.83213156  0.72918078  1
  O2-  O240  1  0.45753748  0.42046663  0.26620221  1
  O2-  O241  1  0.45706324  0.42303904  0.60520733  1
  O2-  O242  1  0.45600837  0.41759943  0.93799479  1
  O2-  O243  1  0.45591061  0.91692998  0.26330590  1
  O2-  O244  1  0.45610663  0.91144744  0.60396840  1
  O2-  O245  1  0.45861831  0.91476946  0.93081758  1
  O2-  O246  1  0.95299606  0.42317050  0.26449653  1
  O2-  O247  1  0.95036348  0.41943065  0.60114633  1
  O2-  O248  1  0.95441600  0.41403892  0.93644268  1
  O2-  O249  1  0.95975134  0.91202280  0.26919023  1
  O2-  O250  1  0.96019769  0.92004359  0.59734106  1
  O2-  O251  1  0.95754031  0.91990629  0.93542887  1
  O2-  O252  1  0.33081200  0.29311084  0.26459899  1
  O2-  O253  1  0.33093753  0.29227490  0.60286480  1
  O2-  O254  1  0.33209751  0.30149817  0.93791318  1
  O2-  O255  1  0.32590235  0.79566184  0.26785443  1
  O2-  O256  1  0.33649272  0.79522976  0.60477425  1
  O2-  O257  1  0.33076227  0.78808014  0.93293998  1
  O2-  O258  1  0.83569736  0.28766750  0.26095443  1
  O2-  O259  1  0.83685709  0.28248970  0.60145969  1
  O2-  O260  1  0.83954356  0.29013929  0.93622695  1
  O2-  O261  1  0.83628800  0.79697061  0.27162192  1
  O2-  O262  1  0.82765333  0.79799312  0.59828343  1
  O2-  O263  1  0.83230839  0.79001136  0.93198732  1
  O2-  O264  1  0.41576195  0.04476203  0.06080263  1
  O2-  O265  1  0.41219150  0.03798457  0.39711920  1
  O2-  O266  1  0.41409140  0.03902693  0.72984680  1
  O2-  O267  1  0.41880792  0.54270852  0.06899432  1
  O2-  O268  1  0.42366860  0.55144364  0.39771764  1
  O2-  O269  1  0.41883310  0.54724660  0.74009016  1
  O2-  O270  1  0.91516786  0.04777081  0.06621390  1
  O2-  O271  1  0.91012088  0.03490443  0.39733271  1
  O2-  O272  1  0.91715081  0.03902335  0.73674284  1
  O2-  O273  1  0.91292200  0.54288760  0.06166852  1
  O2-  O274  1  0.91799036  0.55369402  0.39327160  1
  O2-  O275  1  0.91707382  0.55389960  0.72654243  1
  O2-  O276  1  0.29884110  0.16746061  0.06053690  1
  O2-  O277  1  0.29486058  0.16111505  0.39524438  1
  O2-  O278  1  0.29820073  0.16125464  0.73203695  1
  O2-  O279  1  0.28725963  0.66479933  0.07113424  1
  O2-  O280  1  0.28726704  0.66878166  0.40152060  1
  O2-  O281  1  0.28814230  0.67119122  0.73567107  1
  O2-  O282  1  0.79489917  0.16699333  0.06577250  1
  O2-  O283  1  0.79680456  0.16186761  0.39307522  1
  O2-  O284  1  0.79101025  0.16346353  0.73944590  1
  O2-  O285  1  0.79490577  0.66257883  0.06106299  1
  O2-  O286  1  0.79675520  0.66903015  0.39686805  1
  O2-  O287  1  0.79186624  0.66765014  0.73011995  1
