# generated using pymatgen
data_Ca2Al2SiO7
_symmetry_space_group_name_H-M   'P 1'
_cell_length_a   15.46495152
_cell_length_b   15.46412035
_cell_length_c   15.28889160
_cell_angle_alpha   89.99141254
_cell_angle_beta   89.99392556
_cell_angle_gamma   90.00244724
_symmetry_Int_Tables_number   1
_chemical_formula_structural   Ca2Al2SiO7
_chemical_formula_sum   'Ca48 Al48 Si24 O168'
_cell_volume   3656.36697529
_cell_formula_units_Z   24
loop_
 _symmetry_equiv_pos_site_id
 _symmetry_equiv_pos_as_xyz
  1  'x, y, z'
loop_
 _atom_type_symbol
 _atom_type_oxidation_number
  Ca2+  2.0
  Al0+  0.0
  Si0+  0.0
  O2-  -2.0
loop_
 _atom_site_type_symbol
 _atom_site_label
 _atom_site_symmetry_multiplicity
 _atom_site_fract_x
 _atom_site_fract_y
 _atom_site_fract_z
 _atom_site_occupancy
  Ca2+  Ca0  1  0.17305557  0.09036883  0.17297834  1
  Ca2+  Ca1  1  0.18110078  0.08718815  0.50496981  1
  Ca2+  Ca2  1  0.17193758  0.08518834  0.83658993  1
  Ca2+  Ca3  1  0.16708731  0.57694483  0.17716492  1
  Ca2+  Ca4  1  0.16373505  0.57579159  0.50549213  1
  Ca2+  Ca5  1  0.16587378  0.58327308  0.83025607  1
  Ca2+  Ca6  1  0.66584124  0.08061090  0.17866178  1
  Ca2+  Ca7  1  0.67309947  0.07522632  0.50061390  1
  Ca2+  Ca8  1  0.66610589  0.07908729  0.83255190  1
  Ca2+  Ca9  1  0.67996380  0.57544617  0.17714999  1
  Ca2+  Ca10  1  0.66794930  0.58131066  0.50182668  1
  Ca2+  Ca11  1  0.66926807  0.58490692  0.83831081  1
  Ca2+  Ca12  1  0.07351390  0.33159141  0.16629662  1
  Ca2+  Ca13  1  0.08088401  0.33793884  0.49210006  1
  Ca2+  Ca14  1  0.07986034  0.33347446  0.83302666  1
  Ca2+  Ca15  1  0.07561401  0.83017046  0.16938420  1
  Ca2+  Ca16  1  0.08022152  0.82006612  0.49208541  1
  Ca2+  Ca17  1  0.08007859  0.82545333  0.82351157  1
  Ca2+  Ca18  1  0.59259062  0.32053682  0.16927233  1
  Ca2+  Ca19  1  0.57606877  0.32717117  0.48572933  1
  Ca2+  Ca20  1  0.58697443  0.32455379  0.82984852  1
  Ca2+  Ca21  1  0.58000093  0.83682536  0.16409874  1
  Ca2+  Ca22  1  0.58601106  0.83623089  0.50147024  1
  Ca2+  Ca23  1  0.57555065  0.82964798  0.82302548  1
  Ca2+  Ca24  1  0.32536082  0.41032590  0.17692022  1
  Ca2+  Ca25  1  0.32156747  0.41663087  0.50655783  1
  Ca2+  Ca26  1  0.32864177  0.42359897  0.83134926  1
  Ca2+  Ca27  1  0.33366989  0.92215456  0.17254969  1
  Ca2+  Ca28  1  0.33964155  0.92763432  0.50518881  1
  Ca2+  Ca29  1  0.34220941  0.91767339  0.83347421  1
  Ca2+  Ca30  1  0.83731976  0.42111524  0.17539252  1
  Ca2+  Ca31  1  0.83119925  0.41739785  0.49524874  1
  Ca2+  Ca32  1  0.83585626  0.42397897  0.84035754  1
  Ca2+  Ca33  1  0.82689467  0.92464948  0.18195118  1
  Ca2+  Ca34  1  0.82864876  0.92224382  0.50220464  1
  Ca2+  Ca35  1  0.82774623  0.91910540  0.83343250  1
  Ca2+  Ca36  1  0.42587851  0.16850307  0.16972820  1
  Ca2+  Ca37  1  0.41923886  0.16693839  0.48899807  1
  Ca2+  Ca38  1  0.42145950  0.16480805  0.82962783  1
  Ca2+  Ca39  1  0.41897760  0.67487466  0.16094161  1
  Ca2+  Ca40  1  0.41803286  0.66774653  0.50127419  1
  Ca2+  Ca41  1  0.41853582  0.67692510  0.81948181  1
  Ca2+  Ca42  1  0.91205221  0.17926539  0.16216954  1
  Ca2+  Ca43  1  0.91263910  0.16926404  0.49112630  1
  Ca2+  Ca44  1  0.91875113  0.17061664  0.82985505  1
  Ca2+  Ca45  1  0.91540211  0.66253236  0.16985175  1
  Ca2+  Ca46  1  0.92539884  0.66780906  0.48841745  1
  Ca2+  Ca47  1  0.91934546  0.66515599  0.82656633  1
  Al0+  Al48  1  0.00057673  -0.00138835  -0.00309620  1
  Al0+  Al49  1  0.00221122  -0.00297001  0.33366792  1
  Al0+  Al50  1  0.00139301  0.00299659  0.66965932  1
  Al0+  Al51  1  0.00106227  0.50027627  0.00054085  1
  Al0+  Al52  1  0.00210113  0.49852736  0.33287789  1
  Al0+  Al53  1  -0.00160335  0.49814765  0.66700111  1
  Al0+  Al54  1  0.49920592  0.00095596  -0.00667744  1
  Al0+  Al55  1  0.49991826  0.00005845  0.33680100  1
  Al0+  Al56  1  0.50174966  0.00025500  0.67095278  1
  Al0+  Al57  1  0.49975625  0.49936910  0.00220359  1
  Al0+  Al58  1  0.49834422  0.50130125  0.33000467  1
  Al0+  Al59  1  0.49884870  0.49945291  0.66833034  1
  Al0+  Al60  1  0.25092427  0.24967671  -0.00253387  1
  Al0+  Al61  1  0.25061380  0.25095680  0.33826574  1
  Al0+  Al62  1  0.24823389  0.25013529  0.67783248  1
  Al0+  Al63  1  0.24934871  0.75170162  -0.00260607  1
  Al0+  Al64  1  0.25030967  0.74936762  0.32776666  1
  Al0+  Al65  1  0.24978158  0.75042957  0.65941171  1
  Al0+  Al66  1  0.74982730  0.25019057  -0.01113445  1
  Al0+  Al67  1  0.75000827  0.25017224  0.33235752  1
  Al0+  Al68  1  0.75071035  0.25087894  0.66976021  1
  Al0+  Al69  1  0.75018788  0.75005391  0.00527686  1
  Al0+  Al70  1  0.75008958  0.75017158  0.33640187  1
  Al0+  Al71  1  0.74878654  0.75063755  0.66750499  1
  Al0+  Al72  1  0.32090632  0.57206817  0.68085892  1
  Al0+  Al73  1  0.42626735  0.32310632  0.32035709  1
  Al0+  Al74  1  0.93035095  0.32224071  0.98303958  1
  Al0+  Al75  1  0.92946082  0.31831365  0.32186117  1
  Al0+  Al76  1  0.07091934  0.67793405  0.31603427  1
  Al0+  Al77  1  0.31837376  0.06915739  0.34504671  1
  Al0+  Al78  1  0.82283130  0.07363946  0.68412075  1
  Al0+  Al79  1  0.82402947  0.07225919  0.34480619  1
  Al0+  Al80  1  0.57226348  0.67671872  0.65078657  1
  Al0+  Al81  1  0.82160631  0.56950510  0.35014126  1
  Al0+  Al82  1  0.68082904  0.92859572  0.68455746  1
  Al0+  Al83  1  0.18119675  0.43041101  0.34561238  1
  Al0+  Al84  1  0.42970983  0.82280653  0.64826950  1
  Al0+  Al85  1  0.92693343  0.82172393  0.31863204  1
  Al0+  Al86  1  0.07232378  0.17724140  0.98475658  1
  Al0+  Al87  1  0.57012430  0.17877804  0.32095667  1
  Al0+  Al88  1  0.82113492  0.57047756  0.01408412  1
  Al0+  Al89  1  0.67746637  0.92783253  0.34786928  1
  Al0+  Al90  1  0.32136842  0.07031540  0.68279424  1
  Al0+  Al91  1  0.17571361  0.42962701  0.68528163  1
  Al0+  Al92  1  0.67690837  0.42812777  0.34742662  1
  Al0+  Al93  1  0.56997918  0.18038459  0.98411385  1
  Al0+  Al94  1  0.06886963  0.67815995  0.65265436  1
  Al0+  Al95  1  0.42918826  0.81926758  0.98637930  1
  Si0+  Si96  1  0.81963759  0.56985075  0.67996280  1
  Si0+  Si97  1  0.92853347  0.31998582  0.65001557  1
  Si0+  Si98  1  0.17768242  0.92698208  0.01525561  1
  Si0+  Si99  1  0.57156794  0.18054236  0.65069734  1
  Si0+  Si100  1  0.42594766  0.32380681  0.98145546  1
  Si0+  Si101  1  0.92768912  0.82423234  0.65119694  1
  Si0+  Si102  1  0.43052875  0.82092236  0.31818288  1
  Si0+  Si103  1  0.32087508  0.57361497  0.01481177  1
  Si0+  Si104  1  0.07413096  0.17640471  0.32113857  1
  Si0+  Si105  1  0.57258748  0.67795244  0.98608111  1
  Si0+  Si106  1  0.67676133  0.42559326  0.01594913  1
  Si0+  Si107  1  0.67734913  0.42886103  0.68187224  1
  Si0+  Si108  1  0.18154082  0.42979666  0.01643803  1
  Si0+  Si109  1  0.42781462  0.31949624  0.65414194  1
  Si0+  Si110  1  0.67856403  0.93159948  0.01480830  1
  Si0+  Si111  1  0.17837478  0.92435414  0.34982323  1
  Si0+  Si112  1  0.32099667  0.06985345  0.01596673  1
  Si0+  Si113  1  0.92688639  0.82120643  0.98455410  1
  Si0+  Si114  1  0.82194516  0.07104578  0.01365477  1
  Si0+  Si115  1  0.07014254  0.68029322  0.98467589  1
  Si0+  Si116  1  0.32336182  0.57614213  0.34804488  1
  Si0+  Si117  1  0.07243615  0.17991830  0.65150423  1
  Si0+  Si118  1  0.57241957  0.67723919  0.31682963  1
  Si0+  Si119  1  0.17826120  0.92808650  0.68233253  1
  O2-  O120  1  0.24638782  0.00133768  0.05677270  1
  O2-  O121  1  0.24350720  -0.00402138  0.39378621  1
  O2-  O122  1  0.24899692  -0.00693088  0.72967346  1
  O2-  O123  1  0.25424479  0.49945073  0.05849010  1
  O2-  O124  1  0.25703483  0.50468693  0.39026554  1
  O2-  O125  1  0.24696114  0.50352660  0.73399574  1
  O2-  O126  1  0.74983547  0.00198102  0.05700054  1
  O2-  O127  1  0.75383464  -0.00220799  0.39360196  1
  O2-  O128  1  0.75316600  0.00004456  0.73548100  1
  O2-  O129  1  0.74574049  0.49493837  0.05806427  1
  O2-  O130  1  0.74677862  0.50054383  0.40035236  1
  O2-  O131  1  0.74499005  0.50346400  0.72355933  1
  O2-  O132  1  -0.00069181  0.23785416  0.27658876  1
  O2-  O133  1  -0.00093759  0.24785771  0.60917578  1
  O2-  O134  1  0.00015764  0.24803071  0.93272272  1
  O2-  O135  1  -0.00305172  0.74840262  0.26618019  1
  O2-  O136  1  -0.00437506  0.75476031  0.60788492  1
  O2-  O137  1  -0.00279062  0.74936372  0.94223500  1
  O2-  O138  1  0.50163302  0.25451141  0.27026445  1
  O2-  O139  1  0.49741356  0.24855571  0.61002311  1
  O2-  O140  1  0.49777565  0.25826752  0.93754238  1
  O2-  O141  1  0.50131256  0.74960105  0.27577194  1
  O2-  O142  1  0.50090329  0.74905668  0.59978619  1
  O2-  O143  1  0.50138808  0.74233063  0.94040700  1
  O2-  O144  1  0.07416465  0.17912884  0.09830310  1
  O2-  O145  1  0.07683585  0.18026231  0.42676225  1
  O2-  O146  1  0.07222214  0.18072738  0.75660484  1
  O2-  O147  1  0.07212057  0.68136389  0.08916787  1
  O2-  O148  1  0.07167916  0.67928239  0.42946384  1
  O2-  O149  1  0.06508918  0.67945510  0.76691596  1
  O2-  O150  1  0.56919850  0.17743309  0.09668971  1
  O2-  O151  1  0.56710320  0.17756278  0.43455864  1
  O2-  O152  1  0.57121584  0.18334383  0.75641538  1
  O2-  O153  1  0.57162219  0.68051156  0.09167218  1
  O2-  O154  1  0.57076789  0.67470232  0.42134171  1
  O2-  O155  1  0.57220689  0.67688629  0.76522745  1
  O2-  O156  1  0.18174275  0.43004979  0.23177844  1
  O2-  O157  1  0.17613627  0.42821754  0.57211155  1
  O2-  O158  1  0.18117932  0.43191837  0.91157952  1
  O2-  O159  1  0.18146452  0.92343538  0.24365411  1
  O2-  O160  1  0.17651966  0.93283728  0.57717010  1
  O2-  O161  1  0.17829946  0.92393657  0.91040547  1
  O2-  O162  1  0.67952257  0.42954583  0.23348494  1
  O2-  O163  1  0.67810149  0.42544214  0.57752382  1
  O2-  O164  1  0.67517849  0.42818642  0.90981357  1
  O2-  O165  1  0.67455858  0.93095465  0.23317852  1
  O2-  O166  1  0.68210352  0.93056150  0.57161419  1
  O2-  O167  1  0.68019985  0.93038410  0.91013236  1
  O2-  O168  1  0.42164855  0.32179934  0.08642448  1
  O2-  O169  1  0.42428066  0.31894136  0.43426182  1
  O2-  O170  1  0.43154943  0.31840060  0.75973024  1
  O2-  O171  1  0.43002470  0.81990468  0.09999111  1
  O2-  O172  1  0.42873819  0.82115968  0.42248508  1
  O2-  O173  1  0.43176578  0.82116603  0.76239432  1
  O2-  O174  1  0.93138045  0.32224508  0.09641304  1
  O2-  O175  1  0.93180267  0.31953791  0.43511088  1
  O2-  O176  1  0.92887744  0.32133897  0.75518042  1
  O2-  O177  1  0.92750898  0.82364063  0.08891314  1
  O2-  O178  1  0.93095160  0.82144903  0.43219279  1
  O2-  O179  1  0.92932774  0.82175314  0.75788886  1
  O2-  O180  1  0.31860722  0.06743944  0.23127426  1
  O2-  O181  1  0.31974330  0.07315805  0.56988914  1
  O2-  O182  1  0.32153490  0.06837392  0.91093054  1
  O2-  O183  1  0.32075330  0.57937308  0.24170772  1
  O2-  O184  1  0.32198747  0.56696415  0.56770435  1
  O2-  O185  1  0.31877452  0.57452531  0.91017941  1
  O2-  O186  1  0.82144382  0.07255793  0.23033184  1
  O2-  O187  1  0.82134245  0.07577896  0.57116350  1
  O2-  O188  1  0.82205398  0.06743941  0.90876651  1
  O2-  O189  1  0.82055420  0.56696463  0.23617799  1
  O2-  O190  1  0.82161001  0.56664207  0.57570787  1
  O2-  O191  1  0.81967282  0.57148244  0.90014618  1
  O2-  O192  1  0.06039585  0.07959681  0.27769034  1
  O2-  O193  1  0.04986784  0.08642121  0.60535102  1
  O2-  O194  1  0.04688312  0.07763539  0.93147457  1
  O2-  O195  1  0.04274959  0.57993512  0.26289499  1
  O2-  O196  1  0.03574957  0.58167775  0.60069685  1
  O2-  O197  1  0.04407028  0.58813799  0.93777707  1
  O2-  O198  1  0.53630118  0.08199698  0.26650649  1
  O2-  O199  1  0.54638415  0.08723873  0.60775176  1
  O2-  O200  1  0.53499575  0.08630858  0.92773522  1
  O2-  O201  1  0.54421950  0.58736464  0.26536658  1
  O2-  O202  1  0.54369660  0.57728899  0.59946474  1
  O2-  O203  1  0.55219035  0.58180275  0.94272662  1
  O2-  O204  1  0.16414519  0.21003987  0.27257802  1
  O2-  O205  1  0.16456942  0.21076772  0.60667513  1
  O2-  O206  1  0.17088935  0.20632325  0.93156347  1
  O2-  O207  1  0.16880153  0.70834738  0.26109714  1
  O2-  O208  1  0.16525402  0.70543634  0.59795646  1
  O2-  O209  1  0.16053786  0.71104965  0.93604275  1
  O2-  O210  1  0.66798188  0.20564718  0.26598995  1
  O2-  O211  1  0.66295783  0.21221385  0.60596048  1
  O2-  O212  1  0.66517330  0.20845835  0.92549397  1
  O2-  O213  1  0.66403669  0.70517402  0.26960432  1
  O2-  O214  1  0.67162473  0.70416547  0.59927230  1
  O2-  O215  1  0.66579844  0.70636537  0.94047191  1
  O2-  O216  1  0.09019922  0.45963303  0.06287401  1
  O2-  O217  1  0.08634422  0.46174650  0.40096440  1
  O2-  O218  1  0.07741766  0.45935168  0.73868597  1
  O2-  O219  1  0.08447670  0.95136534  0.06188545  1
  O2-  O220  1  0.08387248  0.94354713  0.39508541  1
  O2-  O221  1  0.08613701  0.95536329  0.73168523  1
  O2-  O222  1  0.58215759  0.44774864  0.06213930  1
  O2-  O223  1  0.57652260  0.45497533  0.39738526  1
  O2-  O224  1  0.58557228  0.45244429  0.73138905  1
  O2-  O225  1  0.58584418  0.96079559  0.05963994  1
  O2-  O226  1  0.58162064  0.95949140  0.40305662  1
  O2-  O227  1  0.58365655  0.95962416  0.73867928  1
  O2-  O228  1  0.20917522  0.33685644  0.06152415  1
  O2-  O229  1  0.21081954  0.33540988  0.40289054  1
  O2-  O230  1  0.20650255  0.33362272  0.74173945  1
  O2-  O231  1  0.20906364  0.83693798  0.06460511  1
  O2-  O232  1  0.20832617  0.83193659  0.39522714  1
  O2-  O233  1  0.19990627  0.83256876  0.72585383  1
  O2-  O234  1  0.70376515  0.33066327  0.05769464  1
  O2-  O235  1  0.70524367  0.33037092  0.40054913  1
  O2-  O236  1  0.71011500  0.33970701  0.73210943  1
  O2-  O237  1  0.70456529  0.83933634  0.06229072  1
  O2-  O238  1  0.70102822  0.82910493  0.40062175  1
  O2-  O239  1  0.70782334  0.82938531  0.73872034  1
  O2-  O240  1  0.44563770  0.42351221  0.26697920  1
  O2-  O241  1  0.45450449  0.41120955  0.60778258  1
  O2-  O242  1  0.44849109  0.41969269  0.93761323  1
  O2-  O243  1  0.45952078  0.91201235  0.26993222  1
  O2-  O244  1  0.46100913  0.92220850  0.59887869  1
  O2-  O245  1  0.46097052  0.91445307  0.93156823  1
  O2-  O246  1  0.96622435  0.41199937  0.26640441  1
  O2-  O247  1  0.95716197  0.41118523  0.60302123  1
  O2-  O248  1  0.96304902  0.42008126  0.92992917  1
  O2-  O249  1  0.95872220  0.91916312  0.26286469  1
  O2-  O250  1  0.95399876  0.91865456  0.60812943  1
  O2-  O251  1  0.95567034  0.91153325  0.93476868  1
  O2-  O252  1  0.33029854  0.28759468  0.26565493  1
  O2-  O253  1  0.33370257  0.29224826  0.61213539  1
  O2-  O254  1  0.33469840  0.29477804  0.93270622  1
  O2-  O255  1  0.33942525  0.79373794  0.26797669  1
  O2-  O256  1  0.33036647  0.79909026  0.59582437  1
  O2-  O257  1  0.33200328  0.79111880  0.93199085  1
  O2-  O258  1  0.83292569  0.29307430  0.26528062  1
  O2-  O259  1  0.83577068  0.29304788  0.60430748  1
  O2-  O260  1  0.83198432  0.29813539  0.92792554  1
  O2-  O261  1  0.82735311  0.79621254  0.26604797  1
  O2-  O262  1  0.83370279  0.79987857  0.60785379  1
  O2-  O263  1  0.83470137  0.79248394  0.93788314  1
  O2-  O264  1  0.41200560  0.03762005  0.06204810  1
  O2-  O265  1  0.41305903  0.03684914  0.40028521  1
  O2-  O266  1  0.41808026  0.04184571  0.73731191  1
  O2-  O267  1  0.41505649  0.55131100  0.06098560  1
  O2-  O268  1  0.41815545  0.55550728  0.39183485  1
  O2-  O269  1  0.41793948  0.54056304  0.73696782  1
  O2-  O270  1  0.91418654  0.04307075  0.05953374  1
  O2-  O271  1  0.92371782  0.04671741  0.39744429  1
  O2-  O272  1  0.92274117  0.04821968  0.73668303  1
  O2-  O273  1  0.91863797  0.54067442  0.06666956  1
  O2-  O274  1  0.91932664  0.53791979  0.40102803  1
  O2-  O275  1  0.90867374  0.53698436  0.73018796  1
  O2-  O276  1  0.29553573  0.16325123  0.06139821  1
  O2-  O277  1  0.28836441  0.16424108  0.40161353  1
  O2-  O278  1  0.28796222  0.16414354  0.74078547  1
  O2-  O279  1  0.28958083  0.66457214  0.06245345  1
  O2-  O280  1  0.29572746  0.66869229  0.39460099  1
  O2-  O281  1  0.29374030  0.67257190  0.73071520  1
  O2-  O282  1  0.79510060  0.16579905  0.05458786  1
  O2-  O283  1  0.79489599  0.16931130  0.39838605  1
  O2-  O284  1  0.79099559  0.17118785  0.73836210  1
  O2-  O285  1  0.79132401  0.66695034  0.06953819  1
  O2-  O286  1  0.79677386  0.66903376  0.40062068  1
  O2-  O287  1  0.79768495  0.66312786  0.72741616  1
