# generated using pymatgen
data_Ca2Al2SiO7
_symmetry_space_group_name_H-M   'P 1'
_cell_length_a   15.45287553
_cell_length_b   15.45297686
_cell_length_c   15.27996873
_cell_angle_alpha   90.00438209
_cell_angle_beta   89.98961209
_cell_angle_gamma   89.98782512
_symmetry_Int_Tables_number   1
_chemical_formula_structural   Ca2Al2SiO7
_chemical_formula_sum   'Ca48 Al48 Si24 O168'
_cell_volume   3648.74831685
_cell_formula_units_Z   24
loop_
 _symmetry_equiv_pos_site_id
 _symmetry_equiv_pos_as_xyz
  1  'x, y, z'
loop_
 _atom_type_symbol
 _atom_type_oxidation_number
  Ca2+  2.0
  Al0+  0.0
  Si0+  0.0
  O2-  -2.0
loop_
 _atom_site_type_symbol
 _atom_site_label
 _atom_site_symmetry_multiplicity
 _atom_site_fract_x
 _atom_site_fract_y
 _atom_site_fract_z
 _atom_site_occupancy
  Ca2+  Ca0  1  0.17423317  0.08271615  0.16783245  1
  Ca2+  Ca1  1  0.17018710  0.08264308  0.51056821  1
  Ca2+  Ca2  1  0.18059140  0.09492058  0.83524644  1
  Ca2+  Ca3  1  0.16320274  0.58616274  0.16931447  1
  Ca2+  Ca4  1  0.16910170  0.58715055  0.49826176  1
  Ca2+  Ca5  1  0.16573575  0.57719552  0.84147639  1
  Ca2+  Ca6  1  0.67027380  0.07827014  0.16609815  1
  Ca2+  Ca7  1  0.67686384  0.08683904  0.50507889  1
  Ca2+  Ca8  1  0.66793981  0.08635747  0.83850957  1
  Ca2+  Ca9  1  0.67286415  0.57592599  0.17210402  1
  Ca2+  Ca10  1  0.67530454  0.57848336  0.50587611  1
  Ca2+  Ca11  1  0.66489019  0.56739965  0.83908767  1
  Ca2+  Ca12  1  0.07087312  0.34112660  0.16127750  1
  Ca2+  Ca13  1  0.07385933  0.32408151  0.49855389  1
  Ca2+  Ca14  1  0.07364960  0.33242686  0.82797236  1
  Ca2+  Ca15  1  0.07137940  0.82264986  0.16222366  1
  Ca2+  Ca16  1  0.07737139  0.82800806  0.48944825  1
  Ca2+  Ca17  1  0.08186012  0.82914259  0.83537130  1
  Ca2+  Ca18  1  0.58637417  0.32552693  0.15801947  1
  Ca2+  Ca19  1  0.58707078  0.33099610  0.50604028  1
  Ca2+  Ca20  1  0.58451432  0.32467205  0.82541708  1
  Ca2+  Ca21  1  0.57599521  0.83671265  0.15891067  1
  Ca2+  Ca22  1  0.56994652  0.83947186  0.49771596  1
  Ca2+  Ca23  1  0.57529480  0.84138897  0.83279651  1
  Ca2+  Ca24  1  0.32159039  0.42423506  0.17301725  1
  Ca2+  Ca25  1  0.33661663  0.42236951  0.50637685  1
  Ca2+  Ca26  1  0.32576776  0.41023367  0.84096654  1
  Ca2+  Ca27  1  0.33884963  0.91740697  0.16690140  1
  Ca2+  Ca28  1  0.33288754  0.91742146  0.50735026  1
  Ca2+  Ca29  1  0.34183675  0.92689511  0.83813975  1
  Ca2+  Ca30  1  0.83333596  0.41645232  0.17044463  1
  Ca2+  Ca31  1  0.83472738  0.41689957  0.50380536  1
  Ca2+  Ca32  1  0.82564382  0.40617030  0.83715815  1
  Ca2+  Ca33  1  0.83165000  0.91500503  0.17370654  1
  Ca2+  Ca34  1  0.83988425  0.92806869  0.50485510  1
  Ca2+  Ca35  1  0.82881339  0.92460789  0.84213154  1
  Ca2+  Ca36  1  0.42480688  0.16370226  0.15664242  1
  Ca2+  Ca37  1  0.42032990  0.16846492  0.50374556  1
  Ca2+  Ca38  1  0.42652110  0.16464490  0.82550271  1
  Ca2+  Ca39  1  0.40984657  0.67722796  0.16441197  1
  Ca2+  Ca40  1  0.41483518  0.67607147  0.49184997  1
  Ca2+  Ca41  1  0.41491709  0.68029790  0.82912041  1
  Ca2+  Ca42  1  0.91090470  0.17609357  0.16381916  1
  Ca2+  Ca43  1  0.90708700  0.17454940  0.49798033  1
  Ca2+  Ca44  1  0.91758770  0.17677597  0.82434618  1
  Ca2+  Ca45  1  0.92172336  0.66789516  0.16114845  1
  Ca2+  Ca46  1  0.92145568  0.67073811  0.48651928  1
  Ca2+  Ca47  1  0.91858026  0.66966178  0.83653807  1
  Al0+  Al48  1  0.00316666  0.00112811  -0.00262267  1
  Al0+  Al49  1  0.00162207  0.00087297  0.33355714  1
  Al0+  Al50  1  0.00124659  -0.00156724  0.67130609  1
  Al0+  Al51  1  -0.00026647  0.49965914  -0.00587773  1
  Al0+  Al52  1  -0.00070231  0.49693995  0.33210345  1
  Al0+  Al53  1  0.00126405  0.50156753  0.66287464  1
  Al0+  Al54  1  0.50260360  0.00122917  0.00123126  1
  Al0+  Al55  1  0.50060468  0.00099118  0.33068317  1
  Al0+  Al56  1  0.49975075  0.00006956  0.65952982  1
  Al0+  Al57  1  0.49906199  0.50042294  0.00764149  1
  Al0+  Al58  1  0.49767670  0.49885360  0.33787939  1
  Al0+  Al59  1  0.50163455  0.50202901  0.66905783  1
  Al0+  Al60  1  0.24978571  0.25169488  0.01477800  1
  Al0+  Al61  1  0.25058487  0.25016606  0.33458356  1
  Al0+  Al62  1  0.24964503  0.25087682  0.66262854  1
  Al0+  Al63  1  0.24944503  0.75211691  -0.00916604  1
  Al0+  Al64  1  0.25015310  0.75040205  0.32920032  1
  Al0+  Al65  1  0.24933727  0.74997759  0.66406562  1
  Al0+  Al66  1  0.74964242  0.24917078  -0.00253450  1
  Al0+  Al67  1  0.74879260  0.24745400  0.33219440  1
  Al0+  Al68  1  0.74964823  0.25057363  0.66669281  1
  Al0+  Al69  1  0.74862453  0.74977853  -0.00058913  1
  Al0+  Al70  1  0.74589043  0.74852144  0.33748719  1
  Al0+  Al71  1  0.75074405  0.74974529  0.66800848  1
  Al0+  Al72  1  0.56900376  0.18096134  0.98692448  1
  Al0+  Al73  1  0.68076853  0.43126964  0.68091394  1
  Al0+  Al74  1  0.82160564  0.07075137  0.68200258  1
  Al0+  Al75  1  0.82066793  0.06892383  0.34590924  1
  Al0+  Al76  1  0.32004274  0.07040386  0.67876377  1
  Al0+  Al77  1  0.92834662  0.32074310  0.65034389  1
  Al0+  Al78  1  0.92570010  0.82338452  0.32070113  1
  Al0+  Al79  1  0.43170624  0.82023877  0.98547110  1
  Al0+  Al80  1  0.42771640  0.32358644  0.65370478  1
  Al0+  Al81  1  0.92915647  0.31747353  0.31851820  1
  Al0+  Al82  1  0.31876338  0.57135404  0.34747585  1
  Al0+  Al83  1  0.92550347  0.82378058  0.98411899  1
  Al0+  Al84  1  0.82105681  0.57018071  0.34576885  1
  Al0+  Al85  1  0.67848471  0.42651235  0.01443513  1
  Al0+  Al86  1  0.07176833  0.17710807  0.65332902  1
  Al0+  Al87  1  0.06973557  0.67849563  0.31854524  1
  Al0+  Al88  1  0.17749120  0.43033480  0.01379570  1
  Al0+  Al89  1  0.92996938  0.31889653  0.98596825  1
  Al0+  Al90  1  0.06977732  0.67924566  0.98255263  1
  Al0+  Al91  1  0.43036576  0.81973964  0.65202664  1
  Al0+  Al92  1  0.68070989  0.92913255  0.01291933  1
  Al0+  Al93  1  0.43090470  0.82050736  0.31778124  1
  Al0+  Al94  1  0.57143777  0.17862398  0.64976366  1
  Al0+  Al95  1  0.32157180  0.06949346  0.01425142  1
  Si0+  Si96  1  0.32075559  0.57528976  0.01551519  1
  Si0+  Si97  1  0.67751053  0.42614716  0.35094369  1
  Si0+  Si98  1  0.67823879  0.92745411  0.68214064  1
  Si0+  Si99  1  0.17987111  0.43097396  0.67999492  1
  Si0+  Si100  1  0.57115733  0.67424671  0.31709059  1
  Si0+  Si101  1  0.07062196  0.67960766  0.64952794  1
  Si0+  Si102  1  0.82082296  0.57088174  0.01526121  1
  Si0+  Si103  1  0.32325124  0.07174768  0.34974418  1
  Si0+  Si104  1  0.42691400  0.32296217  0.31711768  1
  Si0+  Si105  1  0.42634449  0.32349756  0.98882504  1
  Si0+  Si106  1  0.18123382  0.93047245  0.34681106  1
  Si0+  Si107  1  0.07631008  0.17820973  0.98576353  1
  Si0+  Si108  1  0.92775971  0.82063783  0.65229201  1
  Si0+  Si109  1  0.32127660  0.57331586  0.68209078  1
  Si0+  Si110  1  0.17712198  0.42647467  0.35369344  1
  Si0+  Si111  1  0.56890776  0.18131064  0.31660147  1
  Si0+  Si112  1  0.07585652  0.17710649  0.31498658  1
  Si0+  Si113  1  0.82533144  0.57399894  0.68487560  1
  Si0+  Si114  1  0.17775223  0.92611675  0.01773439  1
  Si0+  Si115  1  0.17816477  0.92491732  0.68495608  1
  Si0+  Si116  1  0.57285675  0.67439503  0.98400259  1
  Si0+  Si117  1  0.67551360  0.92741674  0.35101928  1
  Si0+  Si118  1  0.82453982  0.07147839  0.01586765  1
  Si0+  Si119  1  0.57347046  0.67707069  0.65010403  1
  O2-  O120  1  0.24631660  -0.00461595  0.06189771  1
  O2-  O121  1  0.25082132  0.00221140  0.39100700  1
  O2-  O122  1  0.24518622  -0.00363751  0.72721868  1
  O2-  O123  1  0.25208872  0.50625318  0.05913841  1
  O2-  O124  1  0.24564590  0.49626350  0.39699037  1
  O2-  O125  1  0.25409624  0.49861366  0.72360292  1
  O2-  O126  1  0.76196699  -0.00316659  0.05988209  1
  O2-  O127  1  0.75126423  -0.01102410  0.39370951  1
  O2-  O128  1  0.74630258  -0.00404218  0.72714279  1
  O2-  O129  1  0.75202452  0.50244961  0.06026474  1
  O2-  O130  1  0.74568714  0.49627283  0.39341943  1
  O2-  O131  1  0.75762465  0.50413841  0.72815574  1
  O2-  O132  1  0.00558214  0.24429302  0.27153518  1
  O2-  O133  1  -0.00375011  0.24400814  0.60116431  1
  O2-  O134  1  0.00467058  0.24316686  0.94146195  1
  O2-  O135  1  -0.00774453  0.74615818  0.27096800  1
  O2-  O136  1  -0.00192858  0.74950033  0.60900360  1
  O2-  O137  1  -0.00189620  0.75233580  0.93320017  1
  O2-  O138  1  0.49727831  0.25194218  0.27447840  1
  O2-  O139  1  0.49912750  0.25197667  0.60119510  1
  O2-  O140  1  0.49555486  0.25777314  0.94230197  1
  O2-  O141  1  0.50531627  0.74519130  0.27182403  1
  O2-  O142  1  0.50567816  0.74607802  0.60478883  1
  O2-  O143  1  0.50479472  0.74360593  0.93916113  1
  O2-  O144  1  0.07600685  0.17860087  0.09156368  1
  O2-  O145  1  0.07943212  0.17810557  0.42030395  1
  O2-  O146  1  0.07459641  0.18328854  0.76685646  1
  O2-  O147  1  0.06862824  0.67961171  0.09586676  1
  O2-  O148  1  0.07116587  0.68274980  0.43281521  1
  O2-  O149  1  0.07234700  0.67868068  0.75423074  1
  O2-  O150  1  0.56872730  0.18071670  0.10076446  1
  O2-  O151  1  0.56870855  0.18099484  0.42133548  1
  O2-  O152  1  0.57006190  0.17810864  0.76325562  1
  O2-  O153  1  0.57198087  0.67392532  0.08967895  1
  O2-  O154  1  0.56868287  0.67386167  0.42276564  1
  O2-  O155  1  0.57133288  0.67641497  0.75563130  1
  O2-  O156  1  0.17904812  0.42526268  0.24807687  1
  O2-  O157  1  0.17872601  0.43477648  0.57499640  1
  O2-  O158  1  0.18007420  0.42922003  0.90011563  1
  O2-  O159  1  0.18259669  0.93201957  0.24195491  1
  O2-  O160  1  0.17975610  0.92149041  0.57886588  1
  O2-  O161  1  0.17847189  0.92545616  0.91226571  1
  O2-  O162  1  0.67724668  0.42551435  0.24511990  1
  O2-  O163  1  0.68102778  0.43503185  0.56754786  1
  O2-  O164  1  0.67844417  0.42698502  0.90152451  1
  O2-  O165  1  0.67123754  0.93110933  0.24553240  1
  O2-  O166  1  0.68068754  0.92542810  0.57638308  1
  O2-  O167  1  0.67806187  0.93382988  0.89983212  1
  O2-  O168  1  0.42827425  0.32114246  0.09482583  1
  O2-  O169  1  0.42641986  0.32243590  0.42196510  1
  O2-  O170  1  0.42643100  0.32255976  0.76738976  1
  O2-  O171  1  0.43219234  0.81901215  0.09869872  1
  O2-  O172  1  0.43045187  0.82092516  0.43097518  1
  O2-  O173  1  0.43101917  0.81992477  0.76497323  1
  O2-  O174  1  0.92934242  0.31876437  0.09942010  1
  O2-  O175  1  0.92877455  0.31642723  0.43122722  1
  O2-  O176  1  0.93119054  0.32193548  0.76389665  1
  O2-  O177  1  0.92602549  0.82126062  0.09759896  1
  O2-  O178  1  0.93206977  0.82439202  0.43487407  1
  O2-  O179  1  0.92752934  0.81859483  0.75707510  1
  O2-  O180  1  0.32414715  0.07124575  0.24459258  1
  O2-  O181  1  0.31857508  0.06708045  0.56512268  1
  O2-  O182  1  0.32185029  0.07052405  0.90118747  1
  O2-  O183  1  0.31783439  0.56968482  0.23445955  1
  O2-  O184  1  0.31823088  0.57566463  0.57687839  1
  O2-  O185  1  0.32158112  0.57405776  0.90964140  1
  O2-  O186  1  0.81594635  0.07169888  0.23292506  1
  O2-  O187  1  0.82062034  0.06842364  0.56842894  1
  O2-  O188  1  0.82146841  0.07257578  0.91030681  1
  O2-  O189  1  0.81917016  0.56823364  0.23265816  1
  O2-  O190  1  0.82455610  0.57621486  0.57914731  1
  O2-  O191  1  0.81926765  0.57063459  0.90952276  1
  O2-  O192  1  0.05269670  0.08280635  0.27006224  1
  O2-  O193  1  0.05114231  0.07471219  0.60456476  1
  O2-  O194  1  0.05913950  0.08309342  0.93982574  1
  O2-  O195  1  0.04709066  0.57790903  0.26879068  1
  O2-  O196  1  0.04501718  0.58833041  0.60031734  1
  O2-  O197  1  0.04005551  0.58243504  0.92694782  1
  O2-  O198  1  0.54016902  0.08976484  0.26890514  1
  O2-  O199  1  0.54283769  0.08188425  0.59348301  1
  O2-  O200  1  0.53652021  0.08592157  0.93276694  1
  O2-  O201  1  0.54410115  0.58049564  0.27157989  1
  O2-  O202  1  0.54768246  0.58469575  0.60254143  1
  O2-  O203  1  0.54505715  0.58047202  0.93867713  1
  O2-  O204  1  0.16972568  0.20377411  0.26860983  1
  O2-  O205  1  0.16718980  0.20935980  0.59622030  1
  O2-  O206  1  0.16986715  0.20960733  0.94289743  1
  O2-  O207  1  0.16582078  0.71147139  0.26452037  1
  O2-  O208  1  0.16176169  0.70905356  0.60135056  1
  O2-  O209  1  0.16737772  0.70732335  0.92686251  1
  O2-  O210  1  0.65959367  0.20983166  0.26794067  1
  O2-  O211  1  0.66849623  0.21018316  0.59639465  1
  O2-  O212  1  0.66512935  0.21007428  0.93257744  1
  O2-  O213  1  0.66581076  0.69650203  0.27214007  1
  O2-  O214  1  0.66831189  0.70149855  0.60493531  1
  O2-  O215  1  0.66612302  0.69750030  0.93711949  1
  O2-  O216  1  0.08073107  0.46276714  0.06644288  1
  O2-  O217  1  0.08343468  0.45090626  0.39900573  1
  O2-  O218  1  0.08917809  0.46315054  0.72786997  1
  O2-  O219  1  0.08408091  0.95189651  0.06443754  1
  O2-  O220  1  0.08962701  0.95631573  0.39633055  1
  O2-  O221  1  0.08410842  0.94564433  0.73156400  1
  O2-  O222  1  0.58170593  0.45505180  0.07089805  1
  O2-  O223  1  0.58331952  0.45005597  0.39680801  1
  O2-  O224  1  0.58439822  0.46302996  0.73651278  1
  O2-  O225  1  0.58785501  0.96668801  0.07016818  1
  O2-  O226  1  0.58511702  0.96332372  0.39893838  1
  O2-  O227  1  0.58342473  0.95337439  0.72464010  1
  O2-  O228  1  0.20729706  0.33754203  0.07589182  1
  O2-  O229  1  0.20559099  0.33302602  0.39938952  1
  O2-  O230  1  0.20495013  0.33852272  0.72660975  1
  O2-  O231  1  0.20598458  0.83260853  0.06232027  1
  O2-  O232  1  0.21074115  0.83929966  0.39464048  1
  O2-  O233  1  0.20695345  0.83209535  0.73156162  1
  O2-  O234  1  0.71177854  0.33071676  0.06876409  1
  O2-  O235  1  0.70558547  0.33322362  0.39624623  1
  O2-  O236  1  0.70938678  0.33407297  0.73400341  1
  O2-  O237  1  0.70207922  0.82956834  0.06634998  1
  O2-  O238  1  0.68834775  0.83092728  0.39545310  1
  O2-  O239  1  0.70223414  0.83332710  0.72897476  1
  O2-  O240  1  0.45324534  0.41545348  0.27064458  1
  O2-  O241  1  0.45683972  0.42292642  0.60146429  1
  O2-  O242  1  0.44651126  0.41941473  0.94550750  1
  O2-  O243  1  0.46200553  0.91774982  0.26474339  1
  O2-  O244  1  0.45998910  0.91467457  0.59463868  1
  O2-  O245  1  0.46685998  0.91587336  0.93318059  1
  O2-  O246  1  0.95917705  0.41398403  0.26453348  1
  O2-  O247  1  0.96025095  0.41914392  0.59829428  1
  O2-  O248  1  0.95961812  0.41438624  0.93043614  1
  O2-  O249  1  0.95873056  0.92012086  0.26694948  1
  O2-  O250  1  0.95683526  0.91252617  0.60646593  1
  O2-  O251  1  0.95515650  0.92265951  0.93183835  1
  O2-  O252  1  0.33447003  0.29550741  0.27044029  1
  O2-  O253  1  0.33065856  0.29683809  0.59724599  1
  O2-  O254  1  0.33150337  0.29670143  0.94669917  1
  O2-  O255  1  0.33498660  0.78966471  0.26348946  1
  O2-  O256  1  0.33346453  0.78754862  0.59872014  1
  O2-  O257  1  0.33553253  0.79327637  0.92920684  1
  O2-  O258  1  0.83232059  0.28518794  0.26507026  1
  O2-  O259  1  0.82972486  0.29477760  0.59810169  1
  O2-  O260  1  0.83444793  0.28645790  0.93174404  1
  O2-  O261  1  0.82293191  0.80176962  0.27470890  1
  O2-  O262  1  0.83537870  0.79502464  0.60463454  1
  O2-  O263  1  0.82713606  0.79489979  0.93067883  1
  O2-  O264  1  0.41658861  0.03579382  0.06970844  1
  O2-  O265  1  0.41488369  0.04237539  0.39612699  1
  O2-  O266  1  0.41776249  0.03785945  0.72978763  1
  O2-  O267  1  0.41371621  0.55242955  0.06452165  1
  O2-  O268  1  0.41522647  0.54106947  0.40342093  1
  O2-  O269  1  0.41483717  0.55262118  0.72819989  1
  O2-  O270  1  0.92146818  0.05492014  0.05886598  1
  O2-  O271  1  0.91991746  0.04540495  0.39926799  1
  O2-  O272  1  0.91831222  0.04060300  0.73649271  1
  O2-  O273  1  0.91447687  0.54349879  0.05919729  1
  O2-  O274  1  0.91754823  0.53908091  0.40040393  1
  O2-  O275  1  0.92026155  0.54995728  0.72880277  1
  O2-  O276  1  0.29245644  0.16429857  0.07399298  1
  O2-  O277  1  0.29733359  0.16481774  0.39579056  1
  O2-  O278  1  0.29025083  0.16833258  0.73139898  1
  O2-  O279  1  0.29267929  0.66924249  0.05948253  1
  O2-  O280  1  0.28759657  0.66867364  0.40098380  1
  O2-  O281  1  0.28782411  0.66324095  0.73034663  1
  O2-  O282  1  0.79035520  0.16208496  0.06281582  1
  O2-  O283  1  0.78215402  0.16316171  0.40067029  1
  O2-  O284  1  0.79102425  0.16763232  0.73432725  1
  O2-  O285  1  0.79604298  0.66451764  0.06152558  1
  O2-  O286  1  0.79118158  0.66659308  0.40291570  1
  O2-  O287  1  0.79860352  0.66734281  0.73174162  1
