# generated using pymatgen
data_Ca2Al2SiO7
_symmetry_space_group_name_H-M   'P 1'
_cell_length_a   15.46765514
_cell_length_b   15.46960494
_cell_length_c   15.28957846
_cell_angle_alpha   90.00815127
_cell_angle_beta   90.00424565
_cell_angle_gamma   89.99188531
_symmetry_Int_Tables_number   1
_chemical_formula_structural   Ca2Al2SiO7
_chemical_formula_sum   'Ca48 Al48 Si24 O168'
_cell_volume   3658.46753638
_cell_formula_units_Z   24
loop_
 _symmetry_equiv_pos_site_id
 _symmetry_equiv_pos_as_xyz
  1  'x, y, z'
loop_
 _atom_type_symbol
 _atom_type_oxidation_number
  Ca2+  2.0
  Al0+  0.0
  Si0+  0.0
  O2-  -2.0
loop_
 _atom_site_type_symbol
 _atom_site_label
 _atom_site_symmetry_multiplicity
 _atom_site_fract_x
 _atom_site_fract_y
 _atom_site_fract_z
 _atom_site_occupancy
  Ca2+  Ca0  1  0.17744254  0.08756569  0.16797590  1
  Ca2+  Ca1  1  0.17853136  0.08184634  0.51229462  1
  Ca2+  Ca2  1  0.17278723  0.09166803  0.83731186  1
  Ca2+  Ca3  1  0.16252735  0.58513818  0.16595298  1
  Ca2+  Ca4  1  0.17550543  0.57854902  0.51292086  1
  Ca2+  Ca5  1  0.16312574  0.58076755  0.83454977  1
  Ca2+  Ca6  1  0.66204431  0.07301853  0.16538991  1
  Ca2+  Ca7  1  0.66387127  0.07213440  0.50795913  1
  Ca2+  Ca8  1  0.66099041  0.07519442  0.83847926  1
  Ca2+  Ca9  1  0.66993400  0.58274844  0.16554189  1
  Ca2+  Ca10  1  0.66366520  0.56906817  0.50735664  1
  Ca2+  Ca11  1  0.67195745  0.57791781  0.84081648  1
  Ca2+  Ca12  1  0.07617869  0.32732398  0.15357108  1
  Ca2+  Ca13  1  0.08712181  0.33166721  0.50451878  1
  Ca2+  Ca14  1  0.07571395  0.32638293  0.82770526  1
  Ca2+  Ca15  1  0.07391889  0.82521291  0.15407106  1
  Ca2+  Ca16  1  0.07803316  0.84403662  0.50320202  1
  Ca2+  Ca17  1  0.07319841  0.83618275  0.82614657  1
  Ca2+  Ca18  1  0.58352156  0.32702767  0.16099392  1
  Ca2+  Ca19  1  0.58949036  0.32861335  0.50021114  1
  Ca2+  Ca20  1  0.58774511  0.31945258  0.82479167  1
  Ca2+  Ca21  1  0.57727518  0.83784529  0.15762963  1
  Ca2+  Ca22  1  0.57895711  0.83807271  0.49524872  1
  Ca2+  Ca23  1  0.58150089  0.83501166  0.83352914  1
  Ca2+  Ca24  1  0.33193405  0.41952828  0.16861700  1
  Ca2+  Ca25  1  0.32880056  0.42613084  0.51319173  1
  Ca2+  Ca26  1  0.32944236  0.42075299  0.83129382  1
  Ca2+  Ca27  1  0.34301412  0.92489708  0.16821827  1
  Ca2+  Ca28  1  0.33127165  0.92429705  0.50745073  1
  Ca2+  Ca29  1  0.32729126  0.92514216  0.83733414  1
  Ca2+  Ca30  1  0.83157888  0.42010818  0.16662816  1
  Ca2+  Ca31  1  0.82554283  0.41411568  0.50734990  1
  Ca2+  Ca32  1  0.83506742  0.41469294  0.83890274  1
  Ca2+  Ca33  1  0.82092546  0.90802432  0.16533057  1
  Ca2+  Ca34  1  0.82217070  0.91397133  0.50899527  1
  Ca2+  Ca35  1  0.82429599  0.90652969  0.83855553  1
  Ca2+  Ca36  1  0.41957995  0.16198425  0.15871455  1
  Ca2+  Ca37  1  0.41996283  0.15608855  0.50138807  1
  Ca2+  Ca38  1  0.42472309  0.15506670  0.83110367  1
  Ca2+  Ca39  1  0.42591969  0.68176631  0.15636333  1
  Ca2+  Ca40  1  0.41521369  0.67302435  0.49455549  1
  Ca2+  Ca41  1  0.42001420  0.66959407  0.83099373  1
  Ca2+  Ca42  1  0.92348666  0.17345399  0.15467889  1
  Ca2+  Ca43  1  0.92196183  0.16941154  0.50456735  1
  Ca2+  Ca44  1  0.92296490  0.17581214  0.82338713  1
  Ca2+  Ca45  1  0.91876454  0.66893858  0.15300008  1
  Ca2+  Ca46  1  0.91586852  0.67221198  0.50353478  1
  Ca2+  Ca47  1  0.91520656  0.67388497  0.83617403  1
  Al0+  Al48  1  0.00040452  -0.00019644  -0.00513864  1
  Al0+  Al49  1  0.00025385  0.00102462  0.32997236  1
  Al0+  Al50  1  -0.00137546  0.00107376  0.65782898  1
  Al0+  Al51  1  -0.00154938  0.49994285  -0.00159177  1
  Al0+  Al52  1  -0.00066140  0.49951638  0.33461716  1
  Al0+  Al53  1  -0.00012476  0.50263622  0.66431488  1
  Al0+  Al54  1  0.49816287  0.00036420  0.00079220  1
  Al0+  Al55  1  0.50086998  0.00019968  0.33699399  1
  Al0+  Al56  1  0.50014698  -0.00168667  0.66903914  1
  Al0+  Al57  1  0.49842784  0.50025115  -0.00049232  1
  Al0+  Al58  1  0.50025352  0.49902393  0.33543880  1
  Al0+  Al59  1  0.50275980  0.49890282  0.67479071  1
  Al0+  Al60  1  0.25015567  0.25181121  0.00318099  1
  Al0+  Al61  1  0.25183279  0.25027571  0.33673115  1
  Al0+  Al62  1  0.25245878  0.25335017  0.67092001  1
  Al0+  Al63  1  0.25018106  0.74967241  -0.00515746  1
  Al0+  Al64  1  0.24913331  0.75141940  0.32767801  1
  Al0+  Al65  1  0.25129578  0.75232144  0.67328077  1
  Al0+  Al66  1  0.74811898  0.24803905  -0.00481129  1
  Al0+  Al67  1  0.75143313  0.24986806  0.33499827  1
  Al0+  Al68  1  0.74927551  0.24790833  0.65977026  1
  Al0+  Al69  1  0.74890403  0.74634314  0.00348689  1
  Al0+  Al70  1  0.75086377  0.74795653  0.33813598  1
  Al0+  Al71  1  0.74834396  0.74783393  0.66405246  1
  Al0+  Al72  1  0.31776423  0.06985178  0.01535619  1
  Al0+  Al73  1  0.57147917  0.67758742  0.98472514  1
  Al0+  Al74  1  0.32024987  0.07030946  0.34773145  1
  Al0+  Al75  1  0.07145302  0.67753528  0.98448125  1
  Al0+  Al76  1  0.68066109  0.92974723  0.01310861  1
  Al0+  Al77  1  0.43072061  0.82152528  0.32039037  1
  Al0+  Al78  1  0.92774201  0.82130408  0.98632498  1
  Al0+  Al79  1  0.17569004  0.93051756  0.68150886  1
  Al0+  Al80  1  0.92725965  0.82070661  0.65139031  1
  Al0+  Al81  1  0.92791314  0.31978408  0.98620438  1
  Al0+  Al82  1  0.07359536  0.17846537  0.98643974  1
  Al0+  Al83  1  0.32089146  0.07151784  0.68324769  1
  Al0+  Al84  1  0.68135609  0.92964441  0.34716038  1
  Al0+  Al85  1  0.07453964  0.18026369  0.64981710  1
  Al0+  Al86  1  0.17702293  0.43011369  0.68343518  1
  Al0+  Al87  1  0.81973081  0.56763133  0.01320847  1
  Al0+  Al88  1  0.67919499  0.42849918  0.34655812  1
  Al0+  Al89  1  0.32306205  0.57335600  0.68290221  1
  Al0+  Al90  1  0.92905152  0.32361231  0.64899685  1
  Al0+  Al91  1  0.67993247  0.92765241  0.68171159  1
  Al0+  Al92  1  0.56861526  0.17706429  0.65082988  1
  Al0+  Al93  1  0.42931171  0.82289736  0.98227884  1
  Al0+  Al94  1  0.56854459  0.18000708  0.98823902  1
  Al0+  Al95  1  0.68225146  0.42620107  0.68196388  1
  Si0+  Si96  1  0.17591464  0.92703192  0.34777987  1
  Si0+  Si97  1  0.57052606  0.17994316  0.31888448  1
  Si0+  Si98  1  0.06946673  0.67792653  0.31958635  1
  Si0+  Si99  1  0.42652505  0.32390226  0.98404987  1
  Si0+  Si100  1  0.82125423  0.57232004  0.68291029  1
  Si0+  Si101  1  0.43099318  0.32468766  0.65008150  1
  Si0+  Si102  1  0.18039181  0.43253707  0.01642610  1
  Si0+  Si103  1  0.82346331  0.07404123  0.01472982  1
  Si0+  Si104  1  0.82511621  0.07284461  0.34989047  1
  Si0+  Si105  1  0.82401378  0.57061682  0.35253704  1
  Si0+  Si106  1  0.07362950  0.18036272  0.31777855  1
  Si0+  Si107  1  0.17881650  0.42980355  0.34706652  1
  Si0+  Si108  1  0.17534656  0.92522724  0.01715583  1
  Si0+  Si109  1  0.92750738  0.82104162  0.31816050  1
  Si0+  Si110  1  0.31941346  0.57233659  0.34511002  1
  Si0+  Si111  1  0.42954763  0.81968289  0.65137836  1
  Si0+  Si112  1  0.57017110  0.67705927  0.65069509  1
  Si0+  Si113  1  0.82109452  0.07094326  0.68131754  1
  Si0+  Si114  1  0.32334952  0.57366168  0.01814300  1
  Si0+  Si115  1  0.67564061  0.42452680  0.01634558  1
  Si0+  Si116  1  0.07427473  0.68094651  0.64896177  1
  Si0+  Si117  1  0.92952706  0.32093546  0.31740193  1
  Si0+  Si118  1  0.57227502  0.67491864  0.31803179  1
  Si0+  Si119  1  0.42801489  0.32294309  0.31921778  1
  O2-  O120  1  0.24292119  -0.00515492  0.06279631  1
  O2-  O121  1  0.24467902  -0.00451421  0.39157757  1
  O2-  O122  1  0.24193914  0.00690287  0.73220804  1
  O2-  O123  1  0.25035163  0.50415951  0.06081352  1
  O2-  O124  1  0.24903797  0.50166839  0.38856273  1
  O2-  O125  1  0.24808182  0.50387892  0.73220824  1
  O2-  O126  1  0.75770293  0.00272640  0.06024371  1
  O2-  O127  1  0.75836117  0.00198591  0.39360781  1
  O2-  O128  1  0.75666205  -0.00006975  0.72742034  1
  O2-  O129  1  0.74436811  0.49323007  0.06053083  1
  O2-  O130  1  0.75232317  0.50428330  0.39457631  1
  O2-  O131  1  0.76064696  0.49679338  0.72686357  1
  O2-  O132  1  0.00103567  0.25016594  0.27570852  1
  O2-  O133  1  0.00388025  0.25404004  0.59852878  1
  O2-  O134  1  -0.00483334  0.24333199  0.93784513  1
  O2-  O135  1  -0.00108633  0.74949302  0.27784329  1
  O2-  O136  1  0.00639977  0.75007084  0.60329279  1
  O2-  O137  1  0.00535696  0.75536329  0.93646214  1
  O2-  O138  1  0.49922464  0.25177215  0.27764152  1
  O2-  O139  1  0.49428876  0.25229690  0.60317798  1
  O2-  O140  1  0.49735564  0.25758036  0.94136866  1
  O2-  O141  1  0.50761263  0.74775733  0.27502457  1
  O2-  O142  1  0.49814685  0.74658216  0.60775948  1
  O2-  O143  1  0.50016951  0.74907841  0.93339322  1
  O2-  O144  1  0.07432714  0.18416857  0.10139534  1
  O2-  O145  1  0.07512184  0.18193510  0.42222319  1
  O2-  O146  1  0.07099291  0.18099828  0.76275250  1
  O2-  O147  1  0.06813762  0.67727964  0.09952284  1
  O2-  O148  1  0.07056332  0.67541028  0.42416963  1
  O2-  O149  1  0.07289054  0.68052173  0.75380936  1
  O2-  O150  1  0.56729075  0.18106143  0.10245830  1
  O2-  O151  1  0.56950292  0.18003773  0.42372531  1
  O2-  O152  1  0.56770615  0.17670603  0.76356479  1
  O2-  O153  1  0.56904508  0.67688169  0.09920644  1
  O2-  O154  1  0.56841867  0.67108478  0.42367897  1
  O2-  O155  1  0.57129115  0.67753304  0.75516627  1
  O2-  O156  1  0.17846598  0.43017965  0.24183000  1
  O2-  O157  1  0.18081881  0.43337138  0.56831832  1
  O2-  O158  1  0.18193811  0.43285238  0.91212417  1
  O2-  O159  1  0.17267330  0.92722764  0.24257578  1
  O2-  O160  1  0.18140853  0.92915185  0.56682062  1
  O2-  O161  1  0.17635630  0.92476725  0.91223425  1
  O2-  O162  1  0.68043487  0.42749395  0.23362204  1
  O2-  O163  1  0.68073718  0.42992533  0.56816124  1
  O2-  O164  1  0.67561508  0.42439953  0.91130537  1
  O2-  O165  1  0.68094138  0.93110742  0.23414729  1
  O2-  O166  1  0.67944022  0.92861188  0.56783556  1
  O2-  O167  1  0.68045455  0.93073508  0.90050069  1
  O2-  O168  1  0.42635970  0.32422834  0.09074597  1
  O2-  O169  1  0.42599469  0.32696888  0.42351448  1
  O2-  O170  1  0.43507325  0.32800174  0.75524418  1
  O2-  O171  1  0.43272425  0.82259248  0.09688812  1
  O2-  O172  1  0.42949459  0.81807125  0.43367125  1
  O2-  O173  1  0.43173148  0.81996380  0.75576110  1
  O2-  O174  1  0.93067033  0.32033773  0.10115414  1
  O2-  O175  1  0.93026179  0.32242371  0.42186109  1
  O2-  O176  1  0.92793920  0.32040443  0.76205188  1
  O2-  O177  1  0.92760405  0.81724838  0.10111279  1
  O2-  O178  1  0.92751444  0.82044413  0.42310388  1
  O2-  O179  1  0.92371310  0.81580491  0.76346441  1
  O2-  O180  1  0.31958721  0.07247084  0.23468087  1
  O2-  O181  1  0.32297186  0.06610433  0.56897404  1
  O2-  O182  1  0.31789076  0.07096917  0.90332298  1
  O2-  O183  1  0.31797019  0.57047273  0.24020757  1
  O2-  O184  1  0.32228956  0.57249237  0.56761364  1
  O2-  O185  1  0.32626103  0.57051578  0.91383601  1
  O2-  O186  1  0.82626426  0.07465984  0.24443458  1
  O2-  O187  1  0.81777479  0.06917866  0.57492149  1
  O2-  O188  1  0.82041850  0.07738191  0.90986541  1
  O2-  O189  1  0.82757282  0.56982421  0.24726642  1
  O2-  O190  1  0.81664066  0.57418565  0.57662656  1
  O2-  O191  1  0.81965445  0.56635097  0.90061743  1
  O2-  O192  1  0.04748688  0.08778744  0.27041170  1
  O2-  O193  1  0.04458394  0.08340587  0.59294922  1
  O2-  O194  1  0.05701187  0.07744236  0.93715547  1
  O2-  O195  1  0.04147885  0.58580339  0.27149454  1
  O2-  O196  1  0.04783537  0.58810748  0.60066857  1
  O2-  O197  1  0.03762562  0.58208249  0.93129559  1
  O2-  O198  1  0.54116940  0.08868414  0.27201861  1
  O2-  O199  1  0.53578291  0.08040139  0.59650294  1
  O2-  O200  1  0.53460062  0.08555264  0.93448298  1
  O2-  O201  1  0.54342452  0.58294474  0.26998255  1
  O2-  O202  1  0.54197659  0.58437407  0.60441867  1
  O2-  O203  1  0.54317888  0.57852690  0.93318639  1
  O2-  O204  1  0.16512913  0.21110216  0.27083357  1
  O2-  O205  1  0.17430484  0.21037741  0.59863997  1
  O2-  O206  1  0.16887497  0.21598948  0.93485265  1
  O2-  O207  1  0.16082814  0.70390091  0.26984475  1
  O2-  O208  1  0.16918035  0.70552462  0.60414242  1
  O2-  O209  1  0.17261878  0.69459260  0.93520434  1
  O2-  O210  1  0.66322223  0.20738512  0.27270920  1
  O2-  O211  1  0.66422983  0.20698961  0.59430765  1
  O2-  O212  1  0.66483249  0.20521079  0.93238520  1
  O2-  O213  1  0.66907529  0.69612800  0.27680411  1
  O2-  O214  1  0.66027455  0.70522330  0.60020313  1
  O2-  O215  1  0.66999520  0.70328535  0.93374601  1
  O2-  O216  1  0.08880587  0.46071451  0.06464349  1
  O2-  O217  1  0.08703378  0.45683998  0.39456206  1
  O2-  O218  1  0.07779050  0.45864499  0.73348403  1
  O2-  O219  1  0.08017155  0.94804703  0.06285669  1
  O2-  O220  1  0.08198385  0.95324498  0.39382789  1
  O2-  O221  1  0.07273947  0.95072179  0.72674502  1
  O2-  O222  1  0.58153276  0.45048127  0.06274897  1
  O2-  O223  1  0.58184867  0.45731735  0.40139275  1
  O2-  O224  1  0.58802344  0.45885209  0.73717630  1
  O2-  O225  1  0.58533645  0.96503077  0.06767841  1
  O2-  O226  1  0.58640100  0.96311755  0.40222326  1
  O2-  O227  1  0.58456088  0.95999835  0.73458529  1
  O2-  O228  1  0.21032855  0.34243721  0.06704386  1
  O2-  O229  1  0.20804190  0.33926673  0.39515107  1
  O2-  O230  1  0.20674700  0.33360400  0.73732054  1
  O2-  O231  1  0.20130245  0.83062588  0.06265465  1
  O2-  O232  1  0.20052462  0.83244039  0.39263485  1
  O2-  O233  1  0.20623943  0.83414348  0.73540498  1
  O2-  O234  1  0.70175452  0.33097274  0.06301919  1
  O2-  O235  1  0.71129780  0.33235228  0.40084996  1
  O2-  O236  1  0.70899549  0.32715280  0.73137904  1
  O2-  O237  1  0.70945589  0.83308166  0.06875261  1
  O2-  O238  1  0.70757594  0.83111765  0.40074468  1
  O2-  O239  1  0.70894878  0.82937445  0.73189116  1
  O2-  O240  1  0.45580712  0.41430566  0.26947802  1
  O2-  O241  1  0.46143843  0.41712700  0.60264446  1
  O2-  O242  1  0.44754599  0.41817412  0.93892470  1
  O2-  O243  1  0.46321567  0.91820660  0.26749066  1
  O2-  O244  1  0.46155789  0.90959969  0.60288663  1
  O2-  O245  1  0.45953531  0.91999447  0.93060463  1
  O2-  O246  1  0.95788363  0.41341947  0.27068894  1
  O2-  O247  1  0.95332784  0.42395831  0.59644571  1
  O2-  O248  1  0.96075793  0.41562878  0.93398112  1
  O2-  O249  1  0.95338558  0.91352708  0.27092496  1
  O2-  O250  1  0.95257672  0.91708366  0.59322948  1
  O2-  O251  1  0.94671440  0.92145199  0.93425631  1
  O2-  O252  1  0.33603341  0.29546151  0.27077050  1
  O2-  O253  1  0.33493919  0.30578867  0.60668002  1
  O2-  O254  1  0.33369924  0.29727054  0.93933577  1
  O2-  O255  1  0.33399226  0.79185007  0.26512817  1
  O2-  O256  1  0.33669563  0.79398281  0.60439322  1
  O2-  O257  1  0.33047230  0.79647986  0.93175052  1
  O2-  O258  1  0.83767035  0.29289067  0.27018196  1
  O2-  O259  1  0.83271912  0.28953075  0.59374579  1
  O2-  O260  1  0.82832640  0.29769430  0.93486056  1
  O2-  O261  1  0.83539624  0.79149659  0.27207685  1
  O2-  O262  1  0.83277929  0.78295830  0.59485575  1
  O2-  O263  1  0.83173886  0.78504370  0.93563326  1
  O2-  O264  1  0.41406338  0.03774601  0.07030533  1
  O2-  O265  1  0.41610176  0.03887688  0.40180157  1
  O2-  O266  1  0.41635226  0.03463928  0.73535809  1
  O2-  O267  1  0.41348227  0.54248826  0.06843373  1
  O2-  O268  1  0.41109954  0.54499749  0.39261736  1
  O2-  O269  1  0.41900426  0.54114348  0.73717860  1
  O2-  O270  1  0.91899295  0.05266845  0.05981271  1
  O2-  O271  1  0.91972722  0.04896750  0.39531961  1
  O2-  O272  1  0.91701802  0.05091979  0.72234626  1
  O2-  O273  1  0.91585849  0.53612082  0.06998520  1
  O2-  O274  1  0.91626924  0.54195567  0.40059681  1
  O2-  O275  1  0.91821098  0.55721010  0.72381535  1
  O2-  O276  1  0.28889671  0.16800097  0.07059895  1
  O2-  O277  1  0.29217022  0.16796372  0.40178218  1
  O2-  O278  1  0.30424641  0.17343989  0.73189615  1
  O2-  O279  1  0.29663597  0.66619064  0.06494122  1
  O2-  O280  1  0.29086119  0.66419966  0.39208478  1
  O2-  O281  1  0.29833780  0.67137129  0.73580038  1
  O2-  O282  1  0.79362226  0.16602504  0.06400497  1
  O2-  O283  1  0.79802096  0.16553619  0.39667747  1
  O2-  O284  1  0.79280615  0.16380664  0.72541042  1
  O2-  O285  1  0.78819441  0.66196580  0.07220357  1
  O2-  O286  1  0.80159202  0.66482232  0.39869709  1
  O2-  O287  1  0.78657843  0.66189564  0.72983037  1
