# generated using pymatgen
data_Ca2Al2SiO7
_symmetry_space_group_name_H-M   'P 1'
_cell_length_a   15.46816599
_cell_length_b   15.46625376
_cell_length_c   15.29053623
_cell_angle_alpha   89.97739383
_cell_angle_beta   90.01392118
_cell_angle_gamma   90.02654417
_symmetry_Int_Tables_number   1
_chemical_formula_structural   Ca2Al2SiO7
_chemical_formula_sum   'Ca48 Al48 Si24 O168'
_cell_volume   3658.02423395
_cell_formula_units_Z   24
loop_
 _symmetry_equiv_pos_site_id
 _symmetry_equiv_pos_as_xyz
  1  'x, y, z'
loop_
 _atom_type_symbol
 _atom_type_oxidation_number
  Ca2+  2.0
  Al0+  0.0
  Si0+  0.0
  O2-  -2.0
loop_
 _atom_site_type_symbol
 _atom_site_label
 _atom_site_symmetry_multiplicity
 _atom_site_fract_x
 _atom_site_fract_y
 _atom_site_fract_z
 _atom_site_occupancy
  Ca2+  Ca0  1  0.17710766  0.08337247  0.16756872  1
  Ca2+  Ca1  1  0.17509533  0.08143200  0.51155097  1
  Ca2+  Ca2  1  0.18001173  0.08834172  0.83506452  1
  Ca2+  Ca3  1  0.16744841  0.57801197  0.16620941  1
  Ca2+  Ca4  1  0.17265851  0.57194816  0.50804158  1
  Ca2+  Ca5  1  0.17649287  0.57944525  0.84078374  1
  Ca2+  Ca6  1  0.65456762  0.07903114  0.16682283  1
  Ca2+  Ca7  1  0.66682769  0.08673133  0.50790550  1
  Ca2+  Ca8  1  0.66149545  0.08004286  0.83900667  1
  Ca2+  Ca9  1  0.66859039  0.58111523  0.17603724  1
  Ca2+  Ca10  1  0.66876486  0.57817382  0.50767976  1
  Ca2+  Ca11  1  0.67103761  0.57464022  0.84615693  1
  Ca2+  Ca12  1  0.08320080  0.34386015  0.16040479  1
  Ca2+  Ca13  1  0.08950243  0.33283324  0.49832243  1
  Ca2+  Ca14  1  0.08675483  0.33410442  0.82599247  1
  Ca2+  Ca15  1  0.07616945  0.82385733  0.15759590  1
  Ca2+  Ca16  1  0.07861433  0.83110858  0.49666900  1
  Ca2+  Ca17  1  0.08282327  0.82618569  0.83137307  1
  Ca2+  Ca18  1  0.59642803  0.32513640  0.16162743  1
  Ca2+  Ca19  1  0.59635968  0.32532660  0.49769671  1
  Ca2+  Ca20  1  0.59252035  0.32505289  0.82872886  1
  Ca2+  Ca21  1  0.58301913  0.82111363  0.16357340  1
  Ca2+  Ca22  1  0.57139341  0.82604703  0.49488475  1
  Ca2+  Ca23  1  0.58216130  0.82702717  0.83256467  1
  Ca2+  Ca24  1  0.32517229  0.42064505  0.16541876  1
  Ca2+  Ca25  1  0.32527432  0.41881761  0.50720906  1
  Ca2+  Ca26  1  0.32458331  0.42389128  0.83653372  1
  Ca2+  Ca27  1  0.34465461  0.92222061  0.16704957  1
  Ca2+  Ca28  1  0.34113419  0.91890779  0.50764652  1
  Ca2+  Ca29  1  0.34584798  0.92766501  0.83451481  1
  Ca2+  Ca30  1  0.82186296  0.42712337  0.16654596  1
  Ca2+  Ca31  1  0.82153259  0.42618412  0.50264750  1
  Ca2+  Ca32  1  0.82279226  0.42222694  0.83315140  1
  Ca2+  Ca33  1  0.82342677  0.91533952  0.16496063  1
  Ca2+  Ca34  1  0.82850822  0.92461423  0.50772334  1
  Ca2+  Ca35  1  0.82735186  0.92584621  0.83720791  1
  Ca2+  Ca36  1  0.42448630  0.17141655  0.15963326  1
  Ca2+  Ca37  1  0.42665265  0.16738928  0.49835349  1
  Ca2+  Ca38  1  0.42266519  0.16581840  0.82777893  1
  Ca2+  Ca39  1  0.42580260  0.66523123  0.16007623  1
  Ca2+  Ca40  1  0.41485750  0.67513022  0.49496373  1
  Ca2+  Ca41  1  0.41750187  0.66508787  0.82826634  1
  Ca2+  Ca42  1  0.92086489  0.17314510  0.15972721  1
  Ca2+  Ca43  1  0.92064139  0.16749049  0.49980488  1
  Ca2+  Ca44  1  0.92334369  0.16917794  0.82102305  1
  Ca2+  Ca45  1  0.91934327  0.65427449  0.15832614  1
  Ca2+  Ca46  1  0.91321894  0.65754013  0.49773258  1
  Ca2+  Ca47  1  0.91959915  0.65392517  0.83306245  1
  Al0+  Al48  1  0.00109478  0.00045799  -0.00038306  1
  Al0+  Al49  1  0.00201416  -0.00020690  0.33081581  1
  Al0+  Al50  1  0.00019819  -0.00059548  0.66545718  1
  Al0+  Al51  1  -0.00177413  0.49936195  -0.00142286  1
  Al0+  Al52  1  -0.00039940  0.49802355  0.34077617  1
  Al0+  Al53  1  -0.00253188  0.49768139  0.66898573  1
  Al0+  Al54  1  0.50143255  0.00132090  0.00539876  1
  Al0+  Al55  1  0.50097103  0.00138218  0.32832273  1
  Al0+  Al56  1  0.50047838  -0.00114311  0.66209029  1
  Al0+  Al57  1  0.49733406  0.49634107  0.00302103  1
  Al0+  Al58  1  0.49740635  0.49778314  0.33490996  1
  Al0+  Al59  1  0.49876127  0.49674575  0.67246179  1
  Al0+  Al60  1  0.25112902  0.24880603  0.00796268  1
  Al0+  Al61  1  0.25241852  0.24711873  0.33620339  1
  Al0+  Al62  1  0.25149536  0.24722239  0.66834679  1
  Al0+  Al63  1  0.24822876  0.75162942  -0.00139982  1
  Al0+  Al64  1  0.24579455  0.75300010  0.32809541  1
  Al0+  Al65  1  0.24792970  0.74989600  0.66365795  1
  Al0+  Al66  1  0.75395858  0.25072419  -0.00260388  1
  Al0+  Al67  1  0.75482990  0.25091420  0.33000299  1
  Al0+  Al68  1  0.75443871  0.25020134  0.66798450  1
  Al0+  Al69  1  0.74990648  0.75378444  0.00183676  1
  Al0+  Al70  1  0.74999997  0.75432820  0.33557628  1
  Al0+  Al71  1  0.75125896  0.75131567  0.66851721  1
  Al0+  Al72  1  0.32117512  0.06924773  0.01521614  1
  Al0+  Al73  1  0.57086213  0.67645462  0.98734014  1
  Al0+  Al74  1  0.42673577  0.82142606  0.31673799  1
  Al0+  Al75  1  0.06885562  0.67891082  0.98526476  1
  Al0+  Al76  1  0.18065818  0.42893013  0.34814468  1
  Al0+  Al77  1  0.67733291  0.42651827  0.01471985  1
  Al0+  Al78  1  0.32216177  0.57482661  0.01625378  1
  Al0+  Al79  1  0.67932641  0.93115932  0.01435807  1
  Al0+  Al80  1  0.32242780  0.06786008  0.67881605  1
  Al0+  Al81  1  0.82247499  0.07056738  0.67851841  1
  Al0+  Al82  1  0.81791153  0.57152903  0.01378659  1
  Al0+  Al83  1  0.17885628  0.43032494  0.01400417  1
  Al0+  Al84  1  0.67758896  0.42778374  0.68209866  1
  Al0+  Al85  1  0.67646230  0.42717470  0.34805888  1
  Al0+  Al86  1  0.57070173  0.67749149  0.32126749  1
  Al0+  Al87  1  0.81884862  0.57333213  0.34833490  1
  Al0+  Al88  1  0.57290926  0.18349719  0.31907251  1
  Al0+  Al89  1  0.81883636  0.57369612  0.68349161  1
  Al0+  Al90  1  0.07279917  0.17883347  0.65269951  1
  Al0+  Al91  1  0.32076861  0.57421014  0.68023116  1
  Al0+  Al92  1  0.42913637  0.81877840  0.65519222  1
  Al0+  Al93  1  0.57052036  0.18099024  0.98541891  1
  Al0+  Al94  1  0.57214343  0.18077163  0.65383475  1
  Al0+  Al95  1  0.17960100  0.42746036  0.68102516  1
  Si0+  Si96  1  0.42733440  0.32158026  0.65043715  1
  Si0+  Si97  1  0.92850113  0.82209632  0.65087879  1
  Si0+  Si98  1  0.07330334  0.17751261  0.31695405  1
  Si0+  Si99  1  0.67864259  0.93224836  0.35016318  1
  Si0+  Si100  1  0.92979143  0.32199230  0.64591440  1
  Si0+  Si101  1  0.82486318  0.07251087  0.01678440  1
  Si0+  Si102  1  0.42374072  0.32108828  0.31655162  1
  Si0+  Si103  1  0.42374462  0.32033445  0.98229140  1
  Si0+  Si104  1  0.92727391  0.82534895  0.98122699  1
  Si0+  Si105  1  0.32184917  0.06754534  0.35026879  1
  Si0+  Si106  1  0.17568289  0.92837478  0.01752211  1
  Si0+  Si107  1  0.93162754  0.31998811  0.98231308  1
  Si0+  Si108  1  0.93331246  0.32020279  0.31647749  1
  Si0+  Si109  1  0.17657591  0.92959936  0.34867974  1
  Si0+  Si110  1  0.57288284  0.67567831  0.65377108  1
  Si0+  Si111  1  0.17630701  0.92689460  0.68275631  1
  Si0+  Si112  1  0.82434465  0.07064583  0.34666696  1
  Si0+  Si113  1  0.42895066  0.82202978  0.98395141  1
  Si0+  Si114  1  0.32035322  0.57582483  0.34877394  1
  Si0+  Si115  1  0.06846683  0.67773128  0.65044679  1
  Si0+  Si116  1  0.06623277  0.67825472  0.31958829  1
  Si0+  Si117  1  0.07294981  0.17791237  0.98528224  1
  Si0+  Si118  1  0.67773286  0.92975759  0.68235504  1
  Si0+  Si119  1  0.92872589  0.82473227  0.31808900  1
  O2-  O120  1  0.24726228  -0.00656491  0.06255583  1
  O2-  O121  1  0.25194783  -0.00510767  0.39175520  1
  O2-  O122  1  0.24741431  -0.00680007  0.72586886  1
  O2-  O123  1  0.24868374  0.50335655  0.06520084  1
  O2-  O124  1  0.25591049  0.50317813  0.39356868  1
  O2-  O125  1  0.24871568  0.50203612  0.72963283  1
  O2-  O126  1  0.75406963  0.00684866  0.06157850  1
  O2-  O127  1  0.74994794  0.00420585  0.39041747  1
  O2-  O128  1  0.74543179  -0.00028303  0.72603645  1
  O2-  O129  1  0.73862578  0.50835041  0.06431765  1
  O2-  O130  1  0.74011799  0.50781341  0.39671919  1
  O2-  O131  1  0.74130878  0.50742560  0.73140368  1
  O2-  O132  1  0.00664565  0.25117747  0.27313440  1
  O2-  O133  1  0.00119240  0.25466322  0.60253160  1
  O2-  O134  1  0.00331524  0.24850213  0.94179357  1
  O2-  O135  1  -0.00785551  0.74652919  0.27715909  1
  O2-  O136  1  -0.00433582  0.74755027  0.60787429  1
  O2-  O137  1  -0.00673492  0.75356374  0.93815544  1
  O2-  O138  1  0.50145102  0.26184516  0.27320305  1
  O2-  O139  1  0.50099912  0.25801538  0.60556892  1
  O2-  O140  1  0.49838689  0.25740868  0.93856436  1
  O2-  O141  1  0.49482393  0.74498414  0.26925844  1
  O2-  O142  1  0.49997130  0.74009018  0.60922812  1
  O2-  O143  1  0.49203146  0.74806608  0.94037635  1
  O2-  O144  1  0.06991639  0.17604196  0.09090377  1
  O2-  O145  1  0.07110530  0.17437823  0.42171529  1
  O2-  O146  1  0.07070641  0.17794831  0.76585347  1
  O2-  O147  1  0.06592476  0.68022058  0.09910778  1
  O2-  O148  1  0.06714724  0.68137200  0.42484238  1
  O2-  O149  1  0.06898588  0.68028279  0.75522319  1
  O2-  O150  1  0.56854397  0.18100132  0.09880339  1
  O2-  O151  1  0.57195383  0.18022430  0.43229019  1
  O2-  O152  1  0.56948890  0.17805188  0.76659480  1
  O2-  O153  1  0.57233367  0.68036905  0.10032755  1
  O2-  O154  1  0.57146365  0.68251528  0.43516032  1
  O2-  O155  1  0.57479164  0.68013973  0.75913904  1
  O2-  O156  1  0.17861687  0.43135700  0.23550914  1
  O2-  O157  1  0.18201871  0.42904143  0.56694920  1
  O2-  O158  1  0.18011437  0.42871358  0.90103725  1
  O2-  O159  1  0.17057152  0.93362944  0.24421349  1
  O2-  O160  1  0.17440430  0.92823193  0.57660928  1
  O2-  O161  1  0.17125184  0.93132509  0.91229797  1
  O2-  O162  1  0.68399535  0.42336257  0.23515323  1
  O2-  O163  1  0.68174459  0.42696273  0.56838487  1
  O2-  O164  1  0.68376741  0.42302723  0.90175697  1
  O2-  O165  1  0.68024335  0.93203541  0.24518472  1
  O2-  O166  1  0.67980302  0.92974305  0.57630846  1
  O2-  O167  1  0.67997516  0.93312008  0.90110192  1
  O2-  O168  1  0.41763025  0.31497802  0.08783651  1
  O2-  O169  1  0.41519567  0.31374712  0.42148704  1
  O2-  O170  1  0.42353031  0.31758619  0.75554092  1
  O2-  O171  1  0.43204959  0.82309543  0.08952718  1
  O2-  O172  1  0.42844335  0.82256202  0.43058170  1
  O2-  O173  1  0.43291690  0.82230976  0.76789844  1
  O2-  O174  1  0.93253854  0.31775960  0.08797349  1
  O2-  O175  1  0.93322424  0.31656903  0.42116890  1
  O2-  O176  1  0.92958180  0.31982334  0.75150324  1
  O2-  O177  1  0.93128499  0.83080087  0.08703523  1
  O2-  O178  1  0.93354656  0.83160050  0.42291806  1
  O2-  O179  1  0.93101871  0.82697225  0.75525595  1
  O2-  O180  1  0.31943337  0.06809438  0.24517152  1
  O2-  O181  1  0.32189854  0.06601617  0.56533778  1
  O2-  O182  1  0.32080587  0.06846038  0.90218899  1
  O2-  O183  1  0.31627822  0.57746458  0.24360797  1
  O2-  O184  1  0.31696591  0.57585397  0.56607919  1
  O2-  O185  1  0.31901117  0.57525686  0.90290667  1
  O2-  O186  1  0.82863084  0.06742455  0.24179591  1
  O2-  O187  1  0.82295151  0.06723102  0.56476282  1
  O2-  O188  1  0.82847598  0.06990279  0.91147354  1
  O2-  O189  1  0.82296599  0.56996809  0.23533686  1
  O2-  O190  1  0.81816272  0.57326668  0.56969037  1
  O2-  O191  1  0.81959831  0.56680341  0.90080711  1
  O2-  O192  1  0.04154654  0.08743511  0.26756599  1
  O2-  O193  1  0.03992817  0.08224421  0.59793224  1
  O2-  O194  1  0.04556413  0.08610386  0.93789772  1
  O2-  O195  1  0.03991630  0.58517872  0.27445330  1
  O2-  O196  1  0.04063013  0.58542690  0.60371369  1
  O2-  O197  1  0.03715932  0.58306445  0.93076102  1
  O2-  O198  1  0.53793298  0.08796532  0.26551289  1
  O2-  O199  1  0.53992626  0.08490189  0.59823282  1
  O2-  O200  1  0.53760123  0.08332660  0.93463731  1
  O2-  O201  1  0.54894506  0.57609939  0.27119332  1
  O2-  O202  1  0.55247214  0.57962680  0.61116795  1
  O2-  O203  1  0.54415567  0.57736261  0.93625768  1
  O2-  O204  1  0.16708507  0.20097604  0.27190661  1
  O2-  O205  1  0.17013657  0.20621414  0.59788611  1
  O2-  O206  1  0.16594095  0.20501916  0.94117815  1
  O2-  O207  1  0.15583803  0.70922652  0.26999285  1
  O2-  O208  1  0.15839952  0.70780780  0.60034031  1
  O2-  O209  1  0.16473562  0.71235005  0.93064790  1
  O2-  O210  1  0.67205596  0.20714474  0.26550914  1
  O2-  O211  1  0.67109632  0.20810255  0.60144150  1
  O2-  O212  1  0.67051867  0.20602863  0.93464864  1
  O2-  O213  1  0.66853153  0.71314624  0.26947516  1
  O2-  O214  1  0.66508055  0.70673217  0.60673885  1
  O2-  O215  1  0.66659439  0.71360715  0.93444638  1
  O2-  O216  1  0.08039753  0.45944371  0.06620516  1
  O2-  O217  1  0.08519874  0.45922711  0.40408955  1
  O2-  O218  1  0.07932874  0.45133400  0.72996007  1
  O2-  O219  1  0.08377546  0.95786078  0.06645634  1
  O2-  O220  1  0.08695459  0.96209197  0.39890600  1
  O2-  O221  1  0.08405253  0.95388449  0.72955095  1
  O2-  O222  1  0.57447698  0.43802527  0.06236744  1
  O2-  O223  1  0.57315839  0.44034567  0.39700799  1
  O2-  O224  1  0.57611768  0.44180359  0.73270598  1
  O2-  O225  1  0.58564526  0.96334605  0.07212719  1
  O2-  O226  1  0.58690973  0.96168365  0.39628115  1
  O2-  O227  1  0.58511347  0.95592259  0.72806279  1
  O2-  O228  1  0.20597473  0.33221602  0.06915686  1
  O2-  O229  1  0.20940021  0.32997578  0.39938018  1
  O2-  O230  1  0.20813425  0.32925602  0.73282075  1
  O2-  O231  1  0.19689886  0.83393145  0.06273048  1
  O2-  O232  1  0.19724855  0.83538649  0.39469646  1
  O2-  O233  1  0.19831270  0.83244787  0.72697730  1
  O2-  O234  1  0.71944347  0.33190131  0.06797282  1
  O2-  O235  1  0.71809632  0.33142865  0.40022769  1
  O2-  O236  1  0.71627346  0.33269126  0.73480386  1
  O2-  O237  1  0.71264475  0.83712959  0.07180825  1
  O2-  O238  1  0.70766969  0.84230092  0.39997738  1
  O2-  O239  1  0.70533450  0.83734184  0.72885012  1
  O2-  O240  1  0.43628411  0.41885296  0.27581556  1
  O2-  O241  1  0.44558922  0.41756249  0.60558452  1
  O2-  O242  1  0.44069098  0.41655064  0.93967835  1
  O2-  O243  1  0.46107965  0.91808528  0.26399966  1
  O2-  O244  1  0.46404365  0.91254373  0.59706850  1
  O2-  O245  1  0.46226490  0.91420544  0.93932036  1
  O2-  O246  1  0.96208539  0.41249137  0.27089822  1
  O2-  O247  1  0.95358568  0.41588978  0.59924032  1
  O2-  O248  1  0.95981693  0.41034699  0.93387751  1
  O2-  O249  1  0.96463564  0.91224668  0.26646503  1
  O2-  O250  1  0.96064480  0.91111811  0.59929041  1
  O2-  O251  1  0.95812427  0.91757652  0.93352823  1
  O2-  O252  1  0.33509595  0.28424255  0.26587948  1
  O2-  O253  1  0.33669335  0.28909879  0.60160015  1
  O2-  O254  1  0.33272216  0.28601659  0.93540696  1
  O2-  O255  1  0.32454471  0.80384389  0.26598960  1
  O2-  O256  1  0.33036586  0.79506351  0.59970726  1
  O2-  O257  1  0.33195166  0.80720088  0.94107376  1
  O2-  O258  1  0.84438770  0.28892714  0.26574346  1
  O2-  O259  1  0.83872226  0.29091538  0.59797996  1
  O2-  O260  1  0.84184998  0.29001520  0.93281017  1
  O2-  O261  1  0.83408937  0.80638854  0.27352284  1
  O2-  O262  1  0.83527051  0.79941294  0.60281448  1
  O2-  O263  1  0.83232594  0.80602167  0.93712306  1
  O2-  O264  1  0.41604531  0.03850613  0.07176957  1
  O2-  O265  1  0.41447226  0.04027584  0.39582698  1
  O2-  O266  1  0.41834104  0.03519464  0.73263203  1
  O2-  O267  1  0.41857869  0.54351094  0.07085508  1
  O2-  O268  1  0.41531685  0.55560279  0.39357145  1
  O2-  O269  1  0.41896386  0.54814420  0.73301209  1
  O2-  O270  1  0.91759754  0.04453574  0.06482459  1
  O2-  O271  1  0.91495633  0.03846984  0.39489217  1
  O2-  O272  1  0.91732620  0.03602213  0.73347352  1
  O2-  O273  1  0.91367257  0.53374880  0.06632018  1
  O2-  O274  1  0.91451346  0.53734922  0.40343037  1
  O2-  O275  1  0.91599437  0.53939248  0.73423805  1
  O2-  O276  1  0.28708520  0.16246373  0.07345667  1
  O2-  O277  1  0.29206352  0.15805308  0.39810904  1
  O2-  O278  1  0.29101827  0.16271599  0.73398675  1
  O2-  O279  1  0.29360699  0.67428008  0.06735108  1
  O2-  O280  1  0.28879205  0.66896599  0.39355517  1
  O2-  O281  1  0.29038341  0.67218521  0.73275845  1
  O2-  O282  1  0.80278837  0.16695450  0.06120995  1
  O2-  O283  1  0.80130653  0.16389200  0.39199794  1
  O2-  O284  1  0.79925011  0.16769071  0.73227241  1
  O2-  O285  1  0.80449269  0.67473381  0.06169368  1
  O2-  O286  1  0.80255348  0.67641602  0.39777655  1
  O2-  O287  1  0.80250781  0.67591539  0.73338906  1
