# generated using pymatgen
data_Ca2Al2SiO7
_symmetry_space_group_name_H-M   'P 1'
_cell_length_a   15.45438114
_cell_length_b   15.45454310
_cell_length_c   15.28143866
_cell_angle_alpha   90.00153797
_cell_angle_beta   89.99946402
_cell_angle_gamma   89.98969325
_symmetry_Int_Tables_number   1
_chemical_formula_structural   Ca2Al2SiO7
_chemical_formula_sum   'Ca48 Al48 Si24 O168'
_cell_volume   3649.82485112
_cell_formula_units_Z   24
loop_
 _symmetry_equiv_pos_site_id
 _symmetry_equiv_pos_as_xyz
  1  'x, y, z'
loop_
 _atom_type_symbol
 _atom_type_oxidation_number
  Ca2+  2.0
  Al0+  0.0
  Si0+  0.0
  O2-  -2.0
loop_
 _atom_site_type_symbol
 _atom_site_label
 _atom_site_symmetry_multiplicity
 _atom_site_fract_x
 _atom_site_fract_y
 _atom_site_fract_z
 _atom_site_occupancy
  Ca2+  Ca0  1  0.16627282  0.08655550  0.16626216  1
  Ca2+  Ca1  1  0.15989508  0.08472065  0.50420699  1
  Ca2+  Ca2  1  0.17105588  0.08223938  0.84340222  1
  Ca2+  Ca3  1  0.15669408  0.57827581  0.16652784  1
  Ca2+  Ca4  1  0.17210998  0.58352785  0.50591197  1
  Ca2+  Ca5  1  0.17120183  0.57834883  0.84285276  1
  Ca2+  Ca6  1  0.66213378  0.07448506  0.16744020  1
  Ca2+  Ca7  1  0.67395408  0.07679744  0.50515790  1
  Ca2+  Ca8  1  0.67009369  0.08431383  0.84259188  1
  Ca2+  Ca9  1  0.68010091  0.58067361  0.16836424  1
  Ca2+  Ca10  1  0.67123425  0.58609188  0.50391985  1
  Ca2+  Ca11  1  0.67064345  0.57727442  0.84185432  1
  Ca2+  Ca12  1  0.08097066  0.32546532  0.15572516  1
  Ca2+  Ca13  1  0.08009061  0.32146678  0.49784915  1
  Ca2+  Ca14  1  0.07636548  0.32831043  0.83307299  1
  Ca2+  Ca15  1  0.08032383  0.82260065  0.16027709  1
  Ca2+  Ca16  1  0.07416823  0.82686691  0.48951172  1
  Ca2+  Ca17  1  0.09127621  0.82808212  0.83519721  1
  Ca2+  Ca18  1  0.57913843  0.33084364  0.15886878  1
  Ca2+  Ca19  1  0.57011108  0.33797492  0.49811032  1
  Ca2+  Ca20  1  0.58378000  0.33017946  0.83078115  1
  Ca2+  Ca21  1  0.58115256  0.84036122  0.15753659  1
  Ca2+  Ca22  1  0.58248917  0.83150362  0.49949756  1
  Ca2+  Ca23  1  0.57312848  0.83371650  0.83075762  1
  Ca2+  Ca24  1  0.32571843  0.41092709  0.16913188  1
  Ca2+  Ca25  1  0.33572321  0.41967034  0.50887326  1
  Ca2+  Ca26  1  0.33107969  0.42000366  0.83697408  1
  Ca2+  Ca27  1  0.33050434  0.92145269  0.16063843  1
  Ca2+  Ca28  1  0.32960305  0.91665904  0.50623172  1
  Ca2+  Ca29  1  0.33140591  0.91863825  0.84554648  1
  Ca2+  Ca30  1  0.83742459  0.42294112  0.16407789  1
  Ca2+  Ca31  1  0.83772410  0.42134493  0.50420489  1
  Ca2+  Ca32  1  0.83361992  0.41755888  0.84551578  1
  Ca2+  Ca33  1  0.82188370  0.90967132  0.17290578  1
  Ca2+  Ca34  1  0.83194655  0.91825326  0.50306755  1
  Ca2+  Ca35  1  0.82666051  0.92538348  0.83896442  1
  Ca2+  Ca36  1  0.42075335  0.16783719  0.15930213  1
  Ca2+  Ca37  1  0.41183640  0.18167184  0.49595918  1
  Ca2+  Ca38  1  0.42101713  0.16726235  0.83421555  1
  Ca2+  Ca39  1  0.41978055  0.67670482  0.15806019  1
  Ca2+  Ca40  1  0.42166755  0.66594593  0.50316642  1
  Ca2+  Ca41  1  0.41887836  0.67705397  0.82409895  1
  Ca2+  Ca42  1  0.92729492  0.17122158  0.15645907  1
  Ca2+  Ca43  1  0.92293793  0.16482033  0.50013442  1
  Ca2+  Ca44  1  0.92182770  0.17540664  0.82561784  1
  Ca2+  Ca45  1  0.91918614  0.66387380  0.16410412  1
  Ca2+  Ca46  1  0.92035978  0.67106422  0.48770383  1
  Ca2+  Ca47  1  0.92134334  0.66153445  0.83668301  1
  Al0+  Al48  1  0.00068359  -0.00226788  0.00036450  1
  Al0+  Al49  1  -0.00095019  -0.00125104  0.32467492  1
  Al0+  Al50  1  -0.00097518  -0.00124237  0.66965644  1
  Al0+  Al51  1  0.00231103  0.50113528  -0.00059020  1
  Al0+  Al52  1  0.00098866  0.49818123  0.33837182  1
  Al0+  Al53  1  0.00065852  0.49843465  0.66353574  1
  Al0+  Al54  1  0.49934575  0.00210672  -0.00130423  1
  Al0+  Al55  1  0.49906642  0.00090687  0.34243497  1
  Al0+  Al56  1  0.49863312  -0.00104812  0.66160201  1
  Al0+  Al57  1  0.50130366  0.50125403  0.00496168  1
  Al0+  Al58  1  0.49878221  0.50102941  0.32742756  1
  Al0+  Al59  1  0.50088336  0.50163238  0.66468898  1
  Al0+  Al60  1  0.25145246  0.25132309  0.00381930  1
  Al0+  Al61  1  0.24980948  0.25077902  0.32738696  1
  Al0+  Al62  1  0.24920835  0.24878743  0.66080734  1
  Al0+  Al63  1  0.24998374  0.75204548  -0.00338610  1
  Al0+  Al64  1  0.25091587  0.75006809  0.33128613  1
  Al0+  Al65  1  0.25117193  0.74962847  0.66607423  1
  Al0+  Al66  1  0.74854619  0.25058661  -0.00097065  1
  Al0+  Al67  1  0.74800929  0.24915677  0.33577258  1
  Al0+  Al68  1  0.75134464  0.25043499  0.66457227  1
  Al0+  Al69  1  0.75074894  0.75003781  0.00576179  1
  Al0+  Al70  1  0.74831405  0.74891354  0.34022587  1
  Al0+  Al71  1  0.74987242  0.74925823  0.66633602  1
  Al0+  Al72  1  0.43014782  0.32222448  0.31746851  1
  Al0+  Al73  1  0.06929713  0.17917125  0.31719258  1
  Al0+  Al74  1  0.82057574  0.07077875  0.68092289  1
  Al0+  Al75  1  0.82064977  0.56739665  0.34978397  1
  Al0+  Al76  1  0.67990047  0.93168097  0.01102515  1
  Al0+  Al77  1  0.06971801  0.68040427  0.98492881  1
  Al0+  Al78  1  0.82230950  0.57040892  0.01463970  1
  Al0+  Al79  1  0.67715168  0.42608817  0.01555350  1
  Al0+  Al80  1  0.92608314  0.81950648  0.31790459  1
  Al0+  Al81  1  0.43060011  0.31956605  0.65580890  1
  Al0+  Al82  1  0.43125810  0.82063081  0.98753827  1
  Al0+  Al83  1  0.92994879  0.32070573  0.98633763  1
  Al0+  Al84  1  0.32056765  0.07159107  0.01456778  1
  Al0+  Al85  1  0.42714718  0.82221748  0.64922170  1
  Al0+  Al86  1  0.18149454  0.43070685  0.01272380  1
  Al0+  Al87  1  0.32147258  0.57056697  0.68056639  1
  Al0+  Al88  1  0.57201990  0.67948148  0.65199846  1
  Al0+  Al89  1  0.07264549  0.67755551  0.31894511  1
  Al0+  Al90  1  0.56964095  0.18024743  0.98771310  1
  Al0+  Al91  1  0.17699527  0.92706604  0.01635180  1
  Al0+  Al92  1  0.92716950  0.32248432  0.64965013  1
  Al0+  Al93  1  0.07007353  0.17710125  0.65220869  1
  Al0+  Al94  1  0.07352517  0.17654361  0.98389342  1
  Al0+  Al95  1  0.67781503  0.92935951  0.35015382  1
  Si0+  Si96  1  0.18093742  0.42780185  0.35032571  1
  Si0+  Si97  1  0.92935168  0.81979009  0.65384260  1
  Si0+  Si98  1  0.42798524  0.32515515  0.98367260  1
  Si0+  Si99  1  0.32218176  0.57233407  0.34801669  1
  Si0+  Si100  1  0.57390813  0.17648309  0.64878238  1
  Si0+  Si101  1  0.82289580  0.07308130  0.01647107  1
  Si0+  Si102  1  0.31895841  0.07173326  0.35065309  1
  Si0+  Si103  1  0.57028993  0.68010692  0.31704533  1
  Si0+  Si104  1  0.42936470  0.82334787  0.31830804  1
  Si0+  Si105  1  0.17837535  0.42708263  0.68262304  1
  Si0+  Si106  1  0.67727095  0.92768252  0.68440110  1
  Si0+  Si107  1  0.32097321  0.07253805  0.67936317  1
  Si0+  Si108  1  0.92423175  0.82192940  0.98199806  1
  Si0+  Si109  1  0.92576722  0.32216444  0.31741742  1
  Si0+  Si110  1  0.67918517  0.43019842  0.67969918  1
  Si0+  Si111  1  0.32282145  0.57413378  0.01686114  1
  Si0+  Si112  1  0.07134904  0.67849601  0.65246158  1
  Si0+  Si113  1  0.17931802  0.92891427  0.68001139  1
  Si0+  Si114  1  0.17897461  0.92860191  0.34768779  1
  Si0+  Si115  1  0.82393587  0.07236828  0.34899062  1
  Si0+  Si116  1  0.67507990  0.42735714  0.35137686  1
  Si0+  Si117  1  0.57095626  0.17685377  0.31909315  1
  Si0+  Si118  1  0.57415487  0.67738429  0.98548650  1
  Si0+  Si119  1  0.82311524  0.57148519  0.68149493  1
  O2-  O120  1  0.24424738  0.00422192  0.06585301  1
  O2-  O121  1  0.24692981  0.00139043  0.39282412  1
  O2-  O122  1  0.25218280  -0.00098691  0.72029516  1
  O2-  O123  1  0.25694906  0.50378339  0.06258809  1
  O2-  O124  1  0.25072397  0.50144452  0.39080729  1
  O2-  O125  1  0.24654990  0.49637356  0.72677352  1
  O2-  O126  1  0.75682804  0.00204521  0.06122320  1
  O2-  O127  1  0.75509401  0.00329795  0.39372972  1
  O2-  O128  1  0.74145428  0.00055045  0.72794262  1
  O2-  O129  1  0.75017885  0.49779022  0.06403218  1
  O2-  O130  1  0.74708873  0.49146161  0.39766765  1
  O2-  O131  1  0.75403534  0.49781290  0.72155239  1
  O2-  O132  1  -0.00860587  0.25115760  0.27316904  1
  O2-  O133  1  -0.00191535  0.24864354  0.60119591  1
  O2-  O134  1  -0.00175090  0.24558701  0.93530680  1
  O2-  O135  1  -0.00152866  0.74724520  0.26943036  1
  O2-  O136  1  -0.00182365  0.74698862  0.61055670  1
  O2-  O137  1  -0.00390119  0.75621451  0.93724203  1
  O2-  O138  1  0.50673379  0.24879174  0.27379836  1
  O2-  O139  1  0.50333193  0.24415205  0.60569176  1
  O2-  O140  1  0.49877908  0.25847934  0.94019477  1
  O2-  O141  1  0.50155097  0.75384453  0.27570865  1
  O2-  O142  1  0.50126079  0.75209825  0.59969723  1
  O2-  O143  1  0.50384431  0.74393412  0.94113649  1
  O2-  O144  1  0.07163380  0.18070512  0.09775352  1
  O2-  O145  1  0.07027178  0.17977298  0.43051958  1
  O2-  O146  1  0.07142569  0.17721346  0.76479754  1
  O2-  O147  1  0.06866224  0.67977836  0.09764250  1
  O2-  O148  1  0.07414640  0.68113213  0.43355020  1
  O2-  O149  1  0.07160112  0.67883669  0.75728045  1
  O2-  O150  1  0.56648445  0.17824138  0.10100886  1
  O2-  O151  1  0.56808480  0.17712933  0.42489433  1
  O2-  O152  1  0.57363466  0.17669866  0.75426496  1
  O2-  O153  1  0.57262155  0.67932027  0.09152157  1
  O2-  O154  1  0.56796758  0.67834347  0.42214835  1
  O2-  O155  1  0.57234594  0.68026758  0.76535713  1
  O2-  O156  1  0.18148479  0.42722905  0.24537486  1
  O2-  O157  1  0.17945414  0.42879795  0.57646990  1
  O2-  O158  1  0.18310302  0.43211185  0.89937919  1
  O2-  O159  1  0.18280369  0.92701755  0.24352593  1
  O2-  O160  1  0.17838514  0.92856519  0.57429529  1
  O2-  O161  1  0.18246029  0.92459278  0.90210997  1
  O2-  O162  1  0.67377873  0.42928875  0.24647930  1
  O2-  O163  1  0.67768045  0.43283378  0.57437092  1
  O2-  O164  1  0.67509363  0.42884553  0.90133014  1
  O2-  O165  1  0.67461642  0.93174639  0.23716400  1
  O2-  O166  1  0.68052938  0.92729413  0.57853980  1
  O2-  O167  1  0.68022622  0.93310406  0.89785994  1
  O2-  O168  1  0.42868376  0.32363907  0.08944811  1
  O2-  O169  1  0.42951856  0.32248703  0.43114262  1
  O2-  O170  1  0.43171768  0.31882108  0.76835238  1
  O2-  O171  1  0.43328312  0.82036354  0.10137763  1
  O2-  O172  1  0.42780323  0.82151899  0.42319504  1
  O2-  O173  1  0.42671320  0.82262362  0.76242514  1
  O2-  O174  1  0.93217934  0.32011751  0.10037844  1
  O2-  O175  1  0.92836594  0.32187868  0.42315900  1
  O2-  O176  1  0.92779628  0.32486646  0.76256908  1
  O2-  O177  1  0.92137885  0.81909147  0.08719091  1
  O2-  O178  1  0.92984327  0.81956265  0.43274773  1
  O2-  O179  1  0.92935404  0.81954723  0.75860247  1
  O2-  O180  1  0.32211271  0.07026407  0.24613417  1
  O2-  O181  1  0.31893035  0.07320616  0.57385182  1
  O2-  O182  1  0.32272120  0.06934307  0.90039783  1
  O2-  O183  1  0.32361801  0.57321268  0.24328545  1
  O2-  O184  1  0.31881440  0.56935321  0.56666050  1
  O2-  O185  1  0.32191817  0.57258902  0.91106803  1
  O2-  O186  1  0.82195076  0.07403971  0.24381207  1
  O2-  O187  1  0.82125769  0.06554915  0.56740143  1
  O2-  O188  1  0.81976805  0.07215843  0.91056407  1
  O2-  O189  1  0.81990082  0.56690487  0.23739564  1
  O2-  O190  1  0.82274634  0.57261255  0.57642435  1
  O2-  O191  1  0.82009674  0.57040508  0.90024765  1
  O2-  O192  1  0.04406870  0.08186470  0.26304848  1
  O2-  O193  1  0.03978203  0.07809861  0.59946328  1
  O2-  O194  1  0.05145217  0.07483440  0.93524736  1
  O2-  O195  1  0.04611836  0.57680053  0.27118544  1
  O2-  O196  1  0.04679646  0.58623192  0.60452444  1
  O2-  O197  1  0.03907510  0.58512023  0.92867641  1
  O2-  O198  1  0.53952883  0.08414674  0.27446101  1
  O2-  O199  1  0.55019611  0.08257509  0.60264870  1
  O2-  O200  1  0.53508546  0.08697698  0.92981571  1
  O2-  O201  1  0.54048509  0.59017502  0.26773754  1
  O2-  O202  1  0.54165192  0.58290279  0.59583961  1
  O2-  O203  1  0.55044165  0.58271820  0.94079110  1
  O2-  O204  1  0.16490435  0.21287171  0.26403350  1
  O2-  O205  1  0.16734014  0.20560462  0.59578445  1
  O2-  O206  1  0.17257819  0.20813066  0.93447537  1
  O2-  O207  1  0.17071909  0.70680317  0.26600652  1
  O2-  O208  1  0.16206903  0.70831260  0.60437554  1
  O2-  O209  1  0.16614115  0.71132807  0.92987238  1
  O2-  O210  1  0.66663143  0.19603529  0.27492874  1
  O2-  O211  1  0.66634266  0.20321256  0.60151640  1
  O2-  O212  1  0.66626091  0.20726825  0.93220199  1
  O2-  O213  1  0.66310299  0.70633511  0.27280706  1
  O2-  O214  1  0.67070879  0.70778773  0.59753220  1
  O2-  O215  1  0.66754846  0.70364507  0.94026485  1
  O2-  O216  1  0.08672856  0.46371687  0.06816214  1
  O2-  O217  1  0.08930011  0.45248223  0.39967293  1
  O2-  O218  1  0.08462327  0.45391616  0.72754410  1
  O2-  O219  1  0.07582796  0.94616578  0.06751387  1
  O2-  O220  1  0.08494483  0.95425719  0.39255096  1
  O2-  O221  1  0.08835180  0.95513452  0.72898329  1
  O2-  O222  1  0.57949811  0.45518443  0.07111085  1
  O2-  O223  1  0.58206713  0.45959580  0.39648827  1
  O2-  O224  1  0.58939261  0.46105283  0.72853683  1
  O2-  O225  1  0.58524693  0.96610475  0.06618525  1
  O2-  O226  1  0.58286948  0.96216841  0.40816097  1
  O2-  O227  1  0.58043368  0.94906403  0.72520390  1
  O2-  O228  1  0.21162585  0.33566524  0.07009937  1
  O2-  O229  1  0.21298110  0.33680268  0.39741898  1
  O2-  O230  1  0.20546797  0.33312090  0.72620216  1
  O2-  O231  1  0.21228463  0.83070370  0.06985938  1
  O2-  O232  1  0.20961883  0.83760998  0.39694849  1
  O2-  O233  1  0.20706924  0.83697265  0.72705794  1
  O2-  O234  1  0.70299266  0.32758928  0.06952058  1
  O2-  O235  1  0.69373365  0.33127677  0.39637971  1
  O2-  O236  1  0.70198958  0.33624040  0.72475734  1
  O2-  O237  1  0.70636868  0.83475695  0.06697668  1
  O2-  O238  1  0.70652251  0.83297717  0.40561126  1
  O2-  O239  1  0.70703502  0.83514555  0.72995876  1
  O2-  O240  1  0.45728650  0.41887329  0.26228520  1
  O2-  O241  1  0.46281303  0.41503469  0.59994011  1
  O2-  O242  1  0.45116113  0.42060317  0.94008026  1
  O2-  O243  1  0.45697659  0.91684644  0.27501399  1
  O2-  O244  1  0.45246307  0.92106612  0.59438250  1
  O2-  O245  1  0.46412558  0.91544593  0.93246105  1
  O2-  O246  1  0.95517621  0.41508319  0.27354829  1
  O2-  O247  1  0.95847579  0.42011981  0.59493599  1
  O2-  O248  1  0.96176174  0.41778888  0.93315937  1
  O2-  O249  1  0.95122035  0.91717232  0.26375784  1
  O2-  O250  1  0.95967226  0.91001999  0.60518528  1
  O2-  O251  1  0.94650579  0.91683044  0.93738921  1
  O2-  O252  1  0.33523678  0.28862805  0.26351350  1
  O2-  O253  1  0.33502606  0.28993196  0.59812639  1
  O2-  O254  1  0.33533310  0.29805924  0.93785442  1
  O2-  O255  1  0.33847604  0.79419727  0.27049451  1
  O2-  O256  1  0.32941075  0.79083134  0.59520240  1
  O2-  O257  1  0.33531737  0.79146448  0.93249021  1
  O2-  O258  1  0.82941354  0.30173481  0.27506447  1
  O2-  O259  1  0.82850391  0.29638407  0.59564666  1
  O2-  O260  1  0.82975963  0.29704327  0.93523514  1
  O2-  O261  1  0.82644509  0.79003760  0.26918737  1
  O2-  O262  1  0.83734778  0.79395257  0.60582687  1
  O2-  O263  1  0.83193416  0.79287931  0.93431360  1
  O2-  O264  1  0.41615118  0.03660878  0.06965858  1
  O2-  O265  1  0.40917125  0.04406090  0.40162904  1
  O2-  O266  1  0.41503376  0.04792205  0.72404711  1
  O2-  O267  1  0.41734811  0.55333002  0.06329182  1
  O2-  O268  1  0.41410318  0.54296609  0.39506369  1
  O2-  O269  1  0.41843356  0.54058018  0.73351631  1
  O2-  O270  1  0.91761476  0.05031135  0.06044586  1
  O2-  O271  1  0.91785149  0.04470537  0.39418858  1
  O2-  O272  1  0.91494748  0.03553831  0.73661892  1
  O2-  O273  1  0.92016927  0.54180387  0.06738471  1
  O2-  O274  1  0.91812216  0.53912889  0.40556240  1
  O2-  O275  1  0.91654857  0.54576167  0.72699892  1
  O2-  O276  1  0.29887525  0.17087087  0.06862577  1
  O2-  O277  1  0.28962977  0.16458093  0.39587421  1
  O2-  O278  1  0.29231559  0.16370738  0.72713769  1
  O2-  O279  1  0.29530415  0.66721777  0.06190651  1
  O2-  O280  1  0.29503707  0.66446662  0.39632302  1
  O2-  O281  1  0.29035438  0.66752503  0.73367867  1
  O2-  O282  1  0.79506909  0.16536527  0.06285166  1
  O2-  O283  1  0.79822000  0.16577632  0.39733024  1
  O2-  O284  1  0.79330207  0.16948051  0.73237735  1
  O2-  O285  1  0.79292327  0.66743710  0.07006589  1
  O2-  O286  1  0.78755889  0.66307154  0.40514383  1
  O2-  O287  1  0.79460521  0.66295156  0.72914898  1
