# generated using pymatgen
data_Ca2Al2SiO7
_symmetry_space_group_name_H-M   'P 1'
_cell_length_a   15.46213601
_cell_length_b   15.46339894
_cell_length_c   15.28699014
_cell_angle_alpha   90.00379502
_cell_angle_beta   90.00970655
_cell_angle_gamma   90.00756566
_symmetry_Int_Tables_number   1
_chemical_formula_structural   Ca2Al2SiO7
_chemical_formula_sum   'Ca48 Al48 Si24 O168'
_cell_volume   3655.07610483
_cell_formula_units_Z   24
loop_
 _symmetry_equiv_pos_site_id
 _symmetry_equiv_pos_as_xyz
  1  'x, y, z'
loop_
 _atom_type_symbol
 _atom_type_oxidation_number
  Ca2+  2.0
  Al0+  0.0
  Si0+  0.0
  O2-  -2.0
loop_
 _atom_site_type_symbol
 _atom_site_label
 _atom_site_symmetry_multiplicity
 _atom_site_fract_x
 _atom_site_fract_y
 _atom_site_fract_z
 _atom_site_occupancy
  Ca2+  Ca0  1  0.16748963  0.08413711  0.17093441  1
  Ca2+  Ca1  1  0.16778866  0.07867368  0.50823586  1
  Ca2+  Ca2  1  0.17425072  0.08590313  0.83339301  1
  Ca2+  Ca3  1  0.17211818  0.58162221  0.17787289  1
  Ca2+  Ca4  1  0.17216176  0.57706233  0.50378563  1
  Ca2+  Ca5  1  0.16379385  0.57590025  0.83165799  1
  Ca2+  Ca6  1  0.67743840  0.08540021  0.17297105  1
  Ca2+  Ca7  1  0.67131304  0.08692298  0.50575084  1
  Ca2+  Ca8  1  0.66625015  0.07109172  0.83835478  1
  Ca2+  Ca9  1  0.67126006  0.56923586  0.17651559  1
  Ca2+  Ca10  1  0.66463147  0.57272997  0.50557138  1
  Ca2+  Ca11  1  0.65758126  0.57379514  0.83415016  1
  Ca2+  Ca12  1  0.07537160  0.32285150  0.16255432  1
  Ca2+  Ca13  1  0.08230584  0.32279556  0.49362506  1
  Ca2+  Ca14  1  0.08345394  0.32185060  0.82391364  1
  Ca2+  Ca15  1  0.08420861  0.83619863  0.16759380  1
  Ca2+  Ca16  1  0.07998161  0.84367029  0.49687587  1
  Ca2+  Ca17  1  0.07466838  0.83948793  0.82375287  1
  Ca2+  Ca18  1  0.59268342  0.32970140  0.16870235  1
  Ca2+  Ca19  1  0.59238061  0.32479260  0.49645201  1
  Ca2+  Ca20  1  0.58493009  0.32860719  0.82587878  1
  Ca2+  Ca21  1  0.57996204  0.83540955  0.16434086  1
  Ca2+  Ca22  1  0.57041831  0.83893815  0.49895313  1
  Ca2+  Ca23  1  0.58451123  0.83220130  0.81771864  1
  Ca2+  Ca24  1  0.33237152  0.42489847  0.17392284  1
  Ca2+  Ca25  1  0.33218122  0.42262973  0.50568500  1
  Ca2+  Ca26  1  0.32657206  0.41265612  0.83202593  1
  Ca2+  Ca27  1  0.32837503  0.92202357  0.17417382  1
  Ca2+  Ca28  1  0.32491083  0.91648948  0.50711038  1
  Ca2+  Ca29  1  0.33892651  0.93000234  0.83099166  1
  Ca2+  Ca30  1  0.82673367  0.41525286  0.17783207  1
  Ca2+  Ca31  1  0.82825945  0.41575517  0.49957232  1
  Ca2+  Ca32  1  0.82010270  0.41456073  0.83568677  1
  Ca2+  Ca33  1  0.82939992  0.92784507  0.16837538  1
  Ca2+  Ca34  1  0.83078102  0.92365704  0.50671445  1
  Ca2+  Ca35  1  0.82447474  0.91836569  0.83563910  1
  Ca2+  Ca36  1  0.42308610  0.16403500  0.16464957  1
  Ca2+  Ca37  1  0.42983985  0.15729033  0.49978828  1
  Ca2+  Ca38  1  0.42028325  0.16167013  0.82419506  1
  Ca2+  Ca39  1  0.41156735  0.67313120  0.16761020  1
  Ca2+  Ca40  1  0.41842078  0.67475105  0.49557585  1
  Ca2+  Ca41  1  0.42610413  0.67878346  0.82103406  1
  Ca2+  Ca42  1  0.92220642  0.16009346  0.16731485  1
  Ca2+  Ca43  1  0.92736899  0.16766853  0.48955168  1
  Ca2+  Ca44  1  0.92779083  0.15633680  0.83083451  1
  Ca2+  Ca45  1  0.91358398  0.66479913  0.16630089  1
  Ca2+  Ca46  1  0.91283812  0.67249523  0.49773620  1
  Ca2+  Ca47  1  0.91574786  0.67651852  0.82406479  1
  Al0+  Al48  1  0.00024779  -0.00208045  -0.00191308  1
  Al0+  Al49  1  -0.00105467  -0.00118430  0.33450523  1
  Al0+  Al50  1  0.00125625  0.00037587  0.66156552  1
  Al0+  Al51  1  -0.00057498  0.49828470  -0.00233826  1
  Al0+  Al52  1  -0.00088180  0.50008438  0.33326536  1
  Al0+  Al53  1  -0.00025543  0.50130946  0.67175325  1
  Al0+  Al54  1  0.49727741  -0.00001201  0.00746058  1
  Al0+  Al55  1  0.49886329  -0.00017140  0.32153698  1
  Al0+  Al56  1  0.50113207  0.00034662  0.66489694  1
  Al0+  Al57  1  0.49869569  0.50035581  0.00358163  1
  Al0+  Al58  1  0.49991982  0.50064213  0.34113011  1
  Al0+  Al59  1  0.50031057  0.50059832  0.66863906  1
  Al0+  Al60  1  0.24979360  0.25063611  0.00146125  1
  Al0+  Al61  1  0.25269375  0.24892807  0.32878680  1
  Al0+  Al62  1  0.25047809  0.25123211  0.66891613  1
  Al0+  Al63  1  0.25043689  0.74968230  -0.00471783  1
  Al0+  Al64  1  0.24949977  0.75072993  0.33656122  1
  Al0+  Al65  1  0.24824422  0.74964174  0.66942081  1
  Al0+  Al66  1  0.75036811  0.24970464  0.00523946  1
  Al0+  Al67  1  0.75161811  0.24890533  0.33342993  1
  Al0+  Al68  1  0.75217123  0.25234582  0.66970847  1
  Al0+  Al69  1  0.74913185  0.74805559  0.00276164  1
  Al0+  Al70  1  0.74835760  0.74952171  0.33321953  1
  Al0+  Al71  1  0.75162063  0.74982979  0.65996237  1
  Al0+  Al72  1  0.68028440  0.42817747  0.35110676  1
  Al0+  Al73  1  0.82319663  0.57337192  0.34978430  1
  Al0+  Al74  1  0.57216589  0.67703135  0.65013184  1
  Al0+  Al75  1  0.17673983  0.92812602  0.68270088  1
  Al0+  Al76  1  0.42740200  0.81914183  0.31726989  1
  Al0+  Al77  1  0.57098134  0.18022577  0.31852002  1
  Al0+  Al78  1  0.82232355  0.06905873  0.01435398  1
  Al0+  Al79  1  0.32021484  0.57162646  0.34748692  1
  Al0+  Al80  1  0.32158076  0.07037959  0.67916621  1
  Al0+  Al81  1  0.93032403  0.32117576  0.31852272  1
  Al0+  Al82  1  0.07091506  0.17895072  0.98388401  1
  Al0+  Al83  1  0.18024926  0.93143885  0.34583020  1
  Al0+  Al84  1  0.68063970  0.93046738  0.67559961  1
  Al0+  Al85  1  0.31983965  0.07286702  0.01581165  1
  Al0+  Al86  1  0.81966642  0.06903897  0.34846417  1
  Al0+  Al87  1  0.67791045  0.42975113  0.01480127  1
  Al0+  Al88  1  0.07287014  0.17595709  0.31725954  1
  Al0+  Al89  1  0.07169749  0.18078016  0.65240110  1
  Al0+  Al90  1  0.57239835  0.17984428  0.65638975  1
  Al0+  Al91  1  0.67699302  0.92582438  0.01541701  1
  Al0+  Al92  1  0.93034935  0.82119548  0.65174842  1
  Al0+  Al93  1  0.67919382  0.42902695  0.68232800  1
  Al0+  Al94  1  0.42839074  0.82243907  0.65164037  1
  Al0+  Al95  1  0.17875561  0.42949392  0.67958251  1
  Si0+  Si96  1  0.17849643  0.42649121  0.34768735  1
  Si0+  Si97  1  0.42953146  0.32297036  0.98569869  1
  Si0+  Si98  1  0.42818559  0.32535883  0.31708977  1
  Si0+  Si99  1  0.92656859  0.82126410  0.31644249  1
  Si0+  Si100  1  0.92850187  0.32467675  0.65138408  1
  Si0+  Si101  1  0.07281867  0.67651338  0.98484249  1
  Si0+  Si102  1  0.17896925  0.92656200  0.01544293  1
  Si0+  Si103  1  0.92660876  0.32297431  0.98081506  1
  Si0+  Si104  1  0.92897863  0.81790510  0.98601536  1
  Si0+  Si105  1  0.42825548  0.82167595  0.98382117  1
  Si0+  Si106  1  0.67513437  0.92823258  0.34941518  1
  Si0+  Si107  1  0.31828686  0.57107691  0.01392512  1
  Si0+  Si108  1  0.82338856  0.07334596  0.68225838  1
  Si0+  Si109  1  0.57074211  0.17918291  0.98586291  1
  Si0+  Si110  1  0.42797747  0.32242497  0.65149045  1
  Si0+  Si111  1  0.17760813  0.42931550  0.01598497  1
  Si0+  Si112  1  0.07153021  0.67568546  0.64972971  1
  Si0+  Si113  1  0.06998641  0.68015787  0.31999752  1
  Si0+  Si114  1  0.32234498  0.57254464  0.68595519  1
  Si0+  Si115  1  0.82342881  0.57118369  0.01539621  1
  Si0+  Si116  1  0.32431230  0.07334099  0.34929011  1
  Si0+  Si117  1  0.57113472  0.67658534  0.31498538  1
  Si0+  Si118  1  0.56926248  0.67882541  0.98699353  1
  Si0+  Si119  1  0.82171886  0.57298586  0.68453977  1
  O2-  O120  1  0.24498813  -0.00298363  0.06010958  1
  O2-  O121  1  0.25190847  0.00875986  0.39202814  1
  O2-  O122  1  0.25011315  -0.00122640  0.73203424  1
  O2-  O123  1  0.24566187  0.50298226  0.05833916  1
  O2-  O124  1  0.24941850  0.49259916  0.39224572  1
  O2-  O125  1  0.25312474  0.50371623  0.72958405  1
  O2-  O126  1  0.74645000  0.00063548  0.06438353  1
  O2-  O127  1  0.74355618  -0.00408198  0.39456314  1
  O2-  O128  1  0.75270491  0.00610101  0.72539278  1
  O2-  O129  1  0.75657382  0.50123808  0.05916467  1
  O2-  O130  1  0.75096295  0.50234279  0.39972725  1
  O2-  O131  1  0.75170973  0.50600187  0.72954281  1
  O2-  O132  1  0.00199591  0.24932136  0.26726353  1
  O2-  O133  1  -0.00344472  0.25561251  0.60773224  1
  O2-  O134  1  -0.00592249  0.25257004  0.93739049  1
  O2-  O135  1  -0.00389752  0.74729286  0.27530135  1
  O2-  O136  1  0.00780197  0.74842199  0.60548324  1
  O2-  O137  1  -0.00016303  0.74586397  0.94419341  1
  O2-  O138  1  0.49674185  0.25677286  0.27242160  1
  O2-  O139  1  0.49817253  0.25512763  0.60875184  1
  O2-  O140  1  0.49942533  0.25057846  0.94372588  1
  O2-  O141  1  0.50342956  0.74574621  0.26902935  1
  O2-  O142  1  0.49980763  0.74951783  0.60162370  1
  O2-  O143  1  0.50509993  0.75568918  0.94369589  1
  O2-  O144  1  0.07131493  0.18104491  0.09659843  1
  O2-  O145  1  0.07287073  0.17779029  0.43069835  1
  O2-  O146  1  0.07057171  0.18127739  0.76606432  1
  O2-  O147  1  0.07571603  0.67601834  0.08996145  1
  O2-  O148  1  0.07140544  0.68096195  0.42457328  1
  O2-  O149  1  0.06708610  0.67300552  0.75594307  1
  O2-  O150  1  0.56958975  0.18141052  0.09085284  1
  O2-  O151  1  0.56983756  0.17890784  0.43164220  1
  O2-  O152  1  0.57125431  0.18022526  0.77015269  1
  O2-  O153  1  0.56541960  0.67689797  0.09180304  1
  O2-  O154  1  0.56985052  0.67677143  0.41995425  1
  O2-  O155  1  0.56974388  0.67754384  0.76513128  1
  O2-  O156  1  0.17949494  0.43054185  0.24138462  1
  O2-  O157  1  0.18091410  0.43193959  0.56667406  1
  O2-  O158  1  0.17867498  0.43029198  0.91097547  1
  O2-  O159  1  0.18191286  0.92876359  0.23200908  1
  O2-  O160  1  0.17675160  0.93070075  0.56930478  1
  O2-  O161  1  0.17954075  0.92408330  0.91042547  1
  O2-  O162  1  0.68056542  0.43072806  0.23698141  1
  O2-  O163  1  0.68129692  0.42727351  0.57026126  1
  O2-  O164  1  0.67564612  0.43201737  0.90167475  1
  O2-  O165  1  0.67802136  0.92885955  0.24342739  1
  O2-  O166  1  0.68105976  0.93310048  0.56291227  1
  O2-  O167  1  0.67867213  0.92388995  0.90152864  1
  O2-  O168  1  0.42921942  0.32611098  0.09052749  1
  O2-  O169  1  0.42499676  0.32604859  0.42220540  1
  O2-  O170  1  0.42833804  0.32265808  0.75786506  1
  O2-  O171  1  0.42271565  0.81660795  0.08859922  1
  O2-  O172  1  0.42675373  0.81865264  0.42969331  1
  O2-  O173  1  0.43239799  0.82181017  0.76613682  1
  O2-  O174  1  0.93031304  0.32905809  0.08573428  1
  O2-  O175  1  0.93383080  0.32132882  0.43218475  1
  O2-  O176  1  0.92917666  0.32492417  0.75735557  1
  O2-  O177  1  0.93020413  0.81646987  0.09116939  1
  O2-  O178  1  0.92794624  0.82238107  0.42110560  1
  O2-  O179  1  0.92956286  0.81874447  0.76581057  1
  O2-  O180  1  0.32382058  0.07128092  0.24320050  1
  O2-  O181  1  0.32169594  0.07045860  0.56593265  1
  O2-  O182  1  0.32303303  0.07220231  0.90313617  1
  O2-  O183  1  0.31628275  0.57149895  0.23328351  1
  O2-  O184  1  0.32155129  0.57150108  0.58049160  1
  O2-  O185  1  0.31746244  0.56977803  0.90929792  1
  O2-  O186  1  0.82046480  0.06578175  0.23526837  1
  O2-  O187  1  0.82266692  0.07295642  0.57670047  1
  O2-  O188  1  0.82284940  0.06510190  0.90060578  1
  O2-  O189  1  0.82106054  0.57305272  0.23539742  1
  O2-  O190  1  0.82457344  0.57060817  0.57960447  1
  O2-  O191  1  0.82369148  0.57336445  0.91001861  1
  O2-  O192  1  0.04018100  0.07831456  0.26419069  1
  O2-  O193  1  0.04147142  0.08519759  0.59798266  1
  O2-  O194  1  0.04166470  0.08054816  0.93174290  1
  O2-  O195  1  0.04644283  0.58773912  0.27072424  1
  O2-  O196  1  0.04195761  0.58362607  0.60271241  1
  O2-  O197  1  0.04682676  0.58411966  0.93684506  1
  O2-  O198  1  0.53969678  0.08593974  0.25962292  1
  O2-  O199  1  0.54160956  0.08532100  0.59960839  1
  O2-  O200  1  0.54144210  0.08583923  0.94197504  1
  O2-  O201  1  0.54319937  0.58266872  0.27016048  1
  O2-  O202  1  0.54136379  0.57869182  0.59882314  1
  O2-  O203  1  0.53452935  0.58918011  0.93849353  1
  O2-  O204  1  0.17270686  0.20212149  0.26485146  1
  O2-  O205  1  0.16820329  0.21352226  0.60014690  1
  O2-  O206  1  0.16766508  0.21393769  0.93199796  1
  O2-  O207  1  0.15983673  0.71158502  0.27007160  1
  O2-  O208  1  0.16786345  0.69399487  0.60774305  1
  O2-  O209  1  0.16355311  0.70422034  0.93488065  1
  O2-  O210  1  0.66704143  0.21155200  0.26410730  1
  O2-  O211  1  0.66964932  0.21104674  0.60382218  1
  O2-  O212  1  0.66364981  0.20560840  0.94021872  1
  O2-  O213  1  0.66516400  0.70150786  0.26827895  1
  O2-  O214  1  0.67105051  0.70025756  0.59840840  1
  O2-  O215  1  0.66417413  0.69842310  0.94187666  1
  O2-  O216  1  0.08483919  0.45579577  0.06200730  1
  O2-  O217  1  0.08670805  0.45528573  0.39355472  1
  O2-  O218  1  0.08387468  0.46181150  0.73753589  1
  O2-  O219  1  0.08428303  0.94860224  0.06035984  1
  O2-  O220  1  0.08255812  0.95740174  0.39849857  1
  O2-  O221  1  0.07851271  0.95966652  0.73475017  1
  O2-  O222  1  0.58250716  0.46386425  0.06951849  1
  O2-  O223  1  0.58116133  0.45372536  0.40313394  1
  O2-  O224  1  0.58161708  0.45841356  0.73660797  1
  O2-  O225  1  0.57790241  0.95018676  0.06765526  1
  O2-  O226  1  0.57986967  0.95484690  0.39001223  1
  O2-  O227  1  0.58499802  0.95971897  0.73192812  1
  O2-  O228  1  0.20849416  0.33968490  0.06427718  1
  O2-  O229  1  0.20288211  0.33180386  0.39105988  1
  O2-  O230  1  0.21168399  0.33548081  0.73735493  1
  O2-  O231  1  0.20694595  0.83248011  0.06100468  1
  O2-  O232  1  0.21111622  0.83579213  0.40034090  1
  O2-  O233  1  0.19683635  0.82670409  0.73411876  1
  O2-  O234  1  0.70573118  0.33274146  0.06808196  1
  O2-  O235  1  0.71078981  0.33035750  0.40209102  1
  O2-  O236  1  0.71264132  0.33407945  0.73942574  1
  O2-  O237  1  0.70679377  0.82788272  0.06947913  1
  O2-  O238  1  0.69810644  0.83334267  0.39235047  1
  O2-  O239  1  0.71248722  0.83297484  0.72824997  1
  O2-  O240  1  0.45314570  0.41991677  0.27133999  1
  O2-  O241  1  0.45118802  0.41697519  0.60723064  1
  O2-  O242  1  0.45782071  0.41458555  0.93708179  1
  O2-  O243  1  0.45644766  0.91430418  0.25928846  1
  O2-  O244  1  0.45854471  0.91899073  0.59725877  1
  O2-  O245  1  0.45105402  0.91644646  0.94095797  1
  O2-  O246  1  0.95757562  0.42050556  0.26426788  1
  O2-  O247  1  0.95445927  0.41877964  0.60725657  1
  O2-  O248  1  0.95316662  0.41633723  0.93288986  1
  O2-  O249  1  0.95931778  0.91030330  0.26702577  1
  O2-  O250  1  0.95969020  0.91684393  0.59599478  1
  O2-  O251  1  0.95773266  0.90817572  0.93693752  1
  O2-  O252  1  0.33538999  0.30082710  0.26736872  1
  O2-  O253  1  0.33475482  0.29847213  0.60508134  1
  O2-  O254  1  0.33668363  0.29713248  0.93911201  1
  O2-  O255  1  0.33159223  0.78371278  0.26291591  1
  O2-  O256  1  0.32785971  0.79419868  0.60318341  1
  O2-  O257  1  0.33907553  0.78847848  0.93370099  1
  O2-  O258  1  0.83262850  0.29200141  0.26554800  1
  O2-  O259  1  0.83478707  0.30027961  0.60617954  1
  O2-  O260  1  0.83129511  0.29840571  0.93771145  1
  O2-  O261  1  0.83437734  0.79536069  0.26813844  1
  O2-  O262  1  0.83654292  0.78897243  0.59438299  1
  O2-  O263  1  0.83683857  0.78948249  0.93854602  1
  O2-  O264  1  0.41469489  0.04182115  0.07253126  1
  O2-  O265  1  0.41769013  0.04255256  0.39172260  1
  O2-  O266  1  0.41930212  0.04048667  0.73412982  1
  O2-  O267  1  0.40837489  0.54126865  0.06317470  1
  O2-  O268  1  0.41612374  0.54533056  0.40306723  1
  O2-  O269  1  0.41486400  0.54563659  0.73338472  1
  O2-  O270  1  0.91930685  0.03485748  0.06770169  1
  O2-  O271  1  0.91520214  0.03591837  0.40207849  1
  O2-  O272  1  0.91556038  0.04255149  0.72721424  1
  O2-  O273  1  0.91869673  0.54844680  0.06043797  1
  O2-  O274  1  0.92265758  0.54747036  0.40157987  1
  O2-  O275  1  0.91443610  0.54767191  0.73361913  1
  O2-  O276  1  0.29077664  0.17002193  0.06968489  1
  O2-  O277  1  0.30623324  0.16966569  0.39204176  1
  O2-  O278  1  0.29499293  0.16911032  0.73325079  1
  O2-  O279  1  0.29114832  0.66376060  0.06056655  1
  O2-  O280  1  0.28382069  0.66457512  0.40279053  1
  O2-  O281  1  0.29621904  0.66522003  0.73364953  1
  O2-  O282  1  0.79841143  0.16855039  0.06654574  1
  O2-  O283  1  0.79145739  0.16572969  0.40146949  1
  O2-  O284  1  0.80253470  0.16740556  0.72894984  1
  O2-  O285  1  0.79779902  0.66382579  0.06309519  1
  O2-  O286  1  0.79685931  0.67344226  0.40003553  1
  O2-  O287  1  0.79746514  0.66743866  0.72917168  1
