# generated using pymatgen
data_Ca2Al2SiO7
_symmetry_space_group_name_H-M   'P 1'
_cell_length_a   15.45712240
_cell_length_b   15.45706878
_cell_length_c   15.28304314
_cell_angle_alpha   89.99102851
_cell_angle_beta   90.00328210
_cell_angle_gamma   89.99177950
_symmetry_Int_Tables_number   1
_chemical_formula_structural   Ca2Al2SiO7
_chemical_formula_sum   'Ca48 Al48 Si24 O168'
_cell_volume   3651.45215001
_cell_formula_units_Z   24
loop_
 _symmetry_equiv_pos_site_id
 _symmetry_equiv_pos_as_xyz
  1  'x, y, z'
loop_
 _atom_type_symbol
 _atom_type_oxidation_number
  Ca2+  2.0
  Al0+  0.0
  Si0+  0.0
  O2-  -2.0
loop_
 _atom_site_type_symbol
 _atom_site_label
 _atom_site_symmetry_multiplicity
 _atom_site_fract_x
 _atom_site_fract_y
 _atom_site_fract_z
 _atom_site_occupancy
  Ca2+  Ca0  1  0.17230774  0.08488878  0.17503725  1
  Ca2+  Ca1  1  0.17321127  0.08296481  0.49790561  1
  Ca2+  Ca2  1  0.17751874  0.08687843  0.84230951  1
  Ca2+  Ca3  1  0.16316552  0.58437841  0.17067074  1
  Ca2+  Ca4  1  0.16126599  0.57939015  0.50648269  1
  Ca2+  Ca5  1  0.15903668  0.58019230  0.83688571  1
  Ca2+  Ca6  1  0.67652325  0.08421258  0.17096553  1
  Ca2+  Ca7  1  0.67067421  0.07775156  0.49752633  1
  Ca2+  Ca8  1  0.67140211  0.08633243  0.84620954  1
  Ca2+  Ca9  1  0.66544428  0.58197152  0.17317471  1
  Ca2+  Ca10  1  0.67284092  0.58386153  0.50046272  1
  Ca2+  Ca11  1  0.66200335  0.57141384  0.84173119  1
  Ca2+  Ca12  1  0.07573353  0.31822140  0.16061368  1
  Ca2+  Ca13  1  0.08613558  0.32876748  0.49369752  1
  Ca2+  Ca14  1  0.08107162  0.33013454  0.83500955  1
  Ca2+  Ca15  1  0.08436260  0.82880171  0.16620361  1
  Ca2+  Ca16  1  0.08114522  0.82442880  0.48783150  1
  Ca2+  Ca17  1  0.08619895  0.82174900  0.83103224  1
  Ca2+  Ca18  1  0.57301056  0.32983360  0.15639479  1
  Ca2+  Ca19  1  0.57633636  0.33459698  0.49425216  1
  Ca2+  Ca20  1  0.58479733  0.33139707  0.83634841  1
  Ca2+  Ca21  1  0.58698839  0.82600051  0.16213373  1
  Ca2+  Ca22  1  0.58516913  0.82921985  0.48938729  1
  Ca2+  Ca23  1  0.57730119  0.83442702  0.83600165  1
  Ca2+  Ca24  1  0.33688835  0.41277507  0.17029966  1
  Ca2+  Ca25  1  0.32740082  0.41658330  0.50324460  1
  Ca2+  Ca26  1  0.32804399  0.41547179  0.83844789  1
  Ca2+  Ca27  1  0.33128422  0.92566753  0.17216074  1
  Ca2+  Ca28  1  0.32879593  0.92717176  0.50109680  1
  Ca2+  Ca29  1  0.33550264  0.92531735  0.84238937  1
  Ca2+  Ca30  1  0.82996822  0.41897373  0.16770582  1
  Ca2+  Ca31  1  0.82932072  0.42482541  0.50379189  1
  Ca2+  Ca32  1  0.82307971  0.41225109  0.84312086  1
  Ca2+  Ca33  1  0.83193989  0.92384683  0.17705652  1
  Ca2+  Ca34  1  0.83486165  0.91537673  0.49198030  1
  Ca2+  Ca35  1  0.83151397  0.92401034  0.84082406  1
  Ca2+  Ca36  1  0.41573394  0.17237979  0.15876294  1
  Ca2+  Ca37  1  0.40855124  0.17173911  0.49309882  1
  Ca2+  Ca38  1  0.41710825  0.16480552  0.83566781  1
  Ca2+  Ca39  1  0.42885839  0.67472098  0.15910289  1
  Ca2+  Ca40  1  0.42485350  0.66795672  0.49114387  1
  Ca2+  Ca41  1  0.41978096  0.67148061  0.83794648  1
  Ca2+  Ca42  1  0.92308814  0.16050922  0.15898036  1
  Ca2+  Ca43  1  0.92295418  0.16786244  0.48914514  1
  Ca2+  Ca44  1  0.91496661  0.17019108  0.83757577  1
  Ca2+  Ca45  1  0.92146045  0.67000531  0.16762806  1
  Ca2+  Ca46  1  0.92456029  0.66916012  0.48812185  1
  Ca2+  Ca47  1  0.92685046  0.66322700  0.83178298  1
  Al0+  Al48  1  0.00164440  -0.00194577  -0.00256607  1
  Al0+  Al49  1  0.00163575  -0.00133166  0.33496980  1
  Al0+  Al50  1  0.00049293  -0.00019483  0.66707331  1
  Al0+  Al51  1  -0.00157920  0.49889022  -0.00552306  1
  Al0+  Al52  1  -0.00120412  0.49879525  0.33433657  1
  Al0+  Al53  1  -0.00044341  0.49920924  0.66692068  1
  Al0+  Al54  1  0.49958277  -0.00003914  -0.00158807  1
  Al0+  Al55  1  0.50091833  0.00216574  0.34225003  1
  Al0+  Al56  1  0.50131292  0.00102690  0.66872110  1
  Al0+  Al57  1  0.49816144  0.49986826  -0.00319202  1
  Al0+  Al58  1  0.49795774  0.49986561  0.32722874  1
  Al0+  Al59  1  0.49963621  0.49978579  0.66931565  1
  Al0+  Al60  1  0.24869542  0.25094001  -0.00255892  1
  Al0+  Al61  1  0.24852763  0.25213881  0.32914917  1
  Al0+  Al62  1  0.25034028  0.25107917  0.67482951  1
  Al0+  Al63  1  0.25049274  0.74880562  -0.00777557  1
  Al0+  Al64  1  0.25239785  0.74938937  0.33434546  1
  Al0+  Al65  1  0.25161393  0.75085714  0.66086703  1
  Al0+  Al66  1  0.74915817  0.25084898  0.00404521  1
  Al0+  Al67  1  0.74798373  0.25099389  0.33930861  1
  Al0+  Al68  1  0.74940123  0.25022357  0.66674906  1
  Al0+  Al69  1  0.75192089  0.74792595  -0.00666996  1
  Al0+  Al70  1  0.75198669  0.74820551  0.33391509  1
  Al0+  Al71  1  0.75047636  0.75146669  0.66915060  1
  Al0+  Al72  1  0.06981075  0.67901259  0.65095304  1
  Al0+  Al73  1  0.07021314  0.67906697  0.98595540  1
  Al0+  Al74  1  0.67977741  0.92774482  0.34704146  1
  Al0+  Al75  1  0.07378560  0.67629407  0.31818647  1
  Al0+  Al76  1  0.82135835  0.06983051  0.01309871  1
  Al0+  Al77  1  0.67746114  0.43050756  0.01632212  1
  Al0+  Al78  1  0.07124895  0.17605109  0.98371783  1
  Al0+  Al79  1  0.57383271  0.67811234  0.98348983  1
  Al0+  Al80  1  0.42714654  0.32167313  0.98200695  1
  Al0+  Al81  1  0.32018487  0.07433715  0.34764743  1
  Al0+  Al82  1  0.17868386  0.43076253  0.68134776  1
  Al0+  Al83  1  0.32039153  0.07138625  0.01541277  1
  Al0+  Al84  1  0.42962744  0.82177500  0.98608288  1
  Al0+  Al85  1  0.32003002  0.07004447  0.68296437  1
  Al0+  Al86  1  0.57063397  0.17950189  0.98726186  1
  Al0+  Al87  1  0.92820075  0.31969340  0.98595270  1
  Al0+  Al88  1  0.93003271  0.82049926  0.31790313  1
  Al0+  Al89  1  0.67885506  0.42955941  0.68070492  1
  Al0+  Al90  1  0.57142991  0.68030716  0.32140609  1
  Al0+  Al91  1  0.06910284  0.17937830  0.32196877  1
  Al0+  Al92  1  0.82117074  0.56922347  0.34616686  1
  Al0+  Al93  1  0.17945039  0.92627013  0.34806031  1
  Al0+  Al94  1  0.42925314  0.31920828  0.32110774  1
  Al0+  Al95  1  0.82318518  0.07315645  0.34880705  1
  Si0+  Si96  1  0.17941064  0.43089221  0.34588418  1
  Si0+  Si97  1  0.67921415  0.92889176  0.68345796  1
  Si0+  Si98  1  0.92675260  0.82385931  0.64887025  1
  Si0+  Si99  1  0.32289312  0.57073405  0.34644394  1
  Si0+  Si100  1  0.92693159  0.31925003  0.65042081  1
  Si0+  Si101  1  0.42883705  0.32002911  0.65207539  1
  Si0+  Si102  1  0.82128159  0.57254765  0.68461269  1
  Si0+  Si103  1  0.92492628  0.32206670  0.31929759  1
  Si0+  Si104  1  0.82343464  0.57213680  0.01648811  1
  Si0+  Si105  1  0.57261251  0.17843441  0.65004433  1
  Si0+  Si106  1  0.31931000  0.57141248  0.01509023  1
  Si0+  Si107  1  0.57350133  0.17688492  0.31885733  1
  Si0+  Si108  1  0.17934379  0.92484831  0.01523534  1
  Si0+  Si109  1  0.57033954  0.67882544  0.65154905  1
  Si0+  Si110  1  0.67850620  0.92574518  0.01480061  1
  Si0+  Si111  1  0.43136273  0.82378430  0.64905070  1
  Si0+  Si112  1  0.92767867  0.82280057  0.98141398  1
  Si0+  Si113  1  0.67427532  0.42956512  0.34993995  1
  Si0+  Si114  1  0.32289338  0.57416081  0.68330427  1
  Si0+  Si115  1  0.82155832  0.07124352  0.68169240  1
  Si0+  Si116  1  0.17711484  0.43018260  0.01643006  1
  Si0+  Si117  1  0.17796483  0.92670095  0.68389539  1
  Si0+  Si118  1  0.07226920  0.18041892  0.65210523  1
  Si0+  Si119  1  0.42892826  0.82492781  0.31936565  1
  O2-  O120  1  0.24401197  -0.00285203  0.05941367  1
  O2-  O121  1  0.25040239  0.00005312  0.39810429  1
  O2-  O122  1  0.24542513  -0.00474175  0.72964495  1
  O2-  O123  1  0.24960022  0.49968189  0.05872357  1
  O2-  O124  1  0.24713099  0.50492992  0.38899818  1
  O2-  O125  1  0.24994727  0.50967167  0.72707997  1
  O2-  O126  1  0.74766259  -0.00633368  0.05836806  1
  O2-  O127  1  0.75090085  0.00064993  0.39881476  1
  O2-  O128  1  0.75151386  -0.00081105  0.72378254  1
  O2-  O129  1  0.75001612  0.50857596  0.06066570  1
  O2-  O130  1  0.74573145  0.49529632  0.39425057  1
  O2-  O131  1  0.75184643  0.50512491  0.72881466  1
  O2-  O132  1  -0.01325397  0.24667883  0.27691256  1
  O2-  O133  1  -0.00014592  0.24982846  0.60861814  1
  O2-  O134  1  -0.00174375  0.24707292  0.93333722  1
  O2-  O135  1  0.00470727  0.75075262  0.26861492  1
  O2-  O136  1  -0.00444631  0.75462770  0.60607317  1
  O2-  O137  1  -0.00401224  0.75326970  0.93791061  1
  O2-  O138  1  0.50327155  0.24405856  0.27597030  1
  O2-  O139  1  0.49977605  0.24891587  0.60931353  1
  O2-  O140  1  0.49853078  0.24888488  0.93236072  1
  O2-  O141  1  0.50117160  0.75962104  0.27610279  1
  O2-  O142  1  0.50117217  0.75081008  0.60765198  1
  O2-  O143  1  0.50375056  0.75233253  0.93404176  1
  O2-  O144  1  0.07086098  0.17759942  0.09729422  1
  O2-  O145  1  0.07187539  0.18575830  0.43598855  1
  O2-  O146  1  0.07071097  0.18110954  0.75670082  1
  O2-  O147  1  0.07066588  0.67913564  0.09837267  1
  O2-  O148  1  0.07087454  0.67420831  0.43203005  1
  O2-  O149  1  0.06802458  0.67980532  0.76419355  1
  O2-  O150  1  0.57041072  0.18072795  0.10065091  1
  O2-  O151  1  0.57457425  0.17994286  0.42525522  1
  O2-  O152  1  0.57502565  0.17783643  0.75464233  1
  O2-  O153  1  0.57273631  0.67931665  0.09707056  1
  O2-  O154  1  0.56792679  0.67828298  0.43553705  1
  O2-  O155  1  0.56848879  0.67943453  0.75609564  1
  O2-  O156  1  0.18029341  0.43043772  0.24106334  1
  O2-  O157  1  0.18172943  0.42872454  0.56764161  1
  O2-  O158  1  0.17709196  0.43253116  0.91096550  1
  O2-  O159  1  0.18294994  0.92447764  0.23459946  1
  O2-  O160  1  0.17893195  0.92756496  0.57867621  1
  O2-  O161  1  0.18175761  0.92346710  0.90906428  1
  O2-  O162  1  0.67302658  0.43079127  0.24488945  1
  O2-  O163  1  0.67920422  0.43131082  0.56736505  1
  O2-  O164  1  0.67987126  0.43093915  0.90259765  1
  O2-  O165  1  0.67961375  0.92814417  0.23380189  1
  O2-  O166  1  0.67757173  0.92736743  0.57881340  1
  O2-  O167  1  0.68080144  0.92710473  0.90824201  1
  O2-  O168  1  0.42799914  0.32123434  0.09561658  1
  O2-  O169  1  0.42902636  0.32117799  0.43526569  1
  O2-  O170  1  0.42907429  0.32040168  0.75638584  1
  O2-  O171  1  0.42876275  0.81929377  0.09947865  1
  O2-  O172  1  0.42922194  0.82055432  0.42572040  1
  O2-  O173  1  0.43248733  0.82451761  0.75381483  1
  O2-  O174  1  0.93136399  0.32176791  0.09943516  1
  O2-  O175  1  0.92846624  0.32427362  0.42567122  1
  O2-  O176  1  0.92424471  0.31713164  0.75497197  1
  O2-  O177  1  0.92584052  0.82342798  0.08626878  1
  O2-  O178  1  0.93014739  0.81622132  0.43210664  1
  O2-  O179  1  0.92607331  0.82490557  0.75453369  1
  O2-  O180  1  0.31908302  0.07485701  0.23461400  1
  O2-  O181  1  0.31822724  0.07146562  0.57001268  1
  O2-  O182  1  0.31944270  0.06877608  0.90173016  1
  O2-  O183  1  0.32538697  0.56878920  0.24169160  1
  O2-  O184  1  0.32654936  0.57113983  0.57737114  1
  O2-  O185  1  0.31721987  0.57150456  0.90959569  1
  O2-  O186  1  0.82085063  0.07394652  0.23558514  1
  O2-  O187  1  0.82099860  0.07210910  0.57701238  1
  O2-  O188  1  0.81903732  0.06792437  0.89886079  1
  O2-  O189  1  0.82204620  0.56672071  0.23348049  1
  O2-  O190  1  0.82016591  0.57203767  0.57887858  1
  O2-  O191  1  0.82475061  0.56962182  0.91047726  1
  O2-  O192  1  0.04787706  0.08075864  0.27013449  1
  O2-  O193  1  0.04623372  0.08693775  0.60672722  1
  O2-  O194  1  0.04696813  0.07701400  0.92972354  1
  O2-  O195  1  0.04236994  0.57803509  0.26663387  1
  O2-  O196  1  0.03931779  0.58093844  0.59889731  1
  O2-  O197  1  0.03773606  0.58390028  0.92986222  1
  O2-  O198  1  0.55142406  0.08170821  0.27608005  1
  O2-  O199  1  0.54587034  0.08571401  0.60367435  1
  O2-  O200  1  0.54610179  0.08061061  0.93277102  1
  O2-  O201  1  0.53545294  0.58675122  0.26586572  1
  O2-  O202  1  0.54117261  0.58710598  0.60427715  1
  O2-  O203  1  0.53817977  0.58274085  0.92960261  1
  O2-  O204  1  0.16107461  0.21840119  0.26548095  1
  O2-  O205  1  0.16392091  0.21201044  0.60662326  1
  O2-  O206  1  0.16687228  0.21056473  0.92963720  1
  O2-  O207  1  0.17467157  0.70030757  0.26848469  1
  O2-  O208  1  0.16889968  0.70528898  0.59874531  1
  O2-  O209  1  0.16547292  0.70824156  0.92826940  1
  O2-  O210  1  0.66715473  0.20368842  0.27372760  1
  O2-  O211  1  0.66351717  0.20816106  0.60134340  1
  O2-  O212  1  0.66812447  0.21031037  0.93347324  1
  O2-  O213  1  0.66855186  0.70537505  0.26810661  1
  O2-  O214  1  0.66414698  0.70622269  0.60723030  1
  O2-  O215  1  0.67256650  0.70123978  0.92802141  1
  O2-  O216  1  0.08552831  0.46044538  0.06226446  1
  O2-  O217  1  0.08739309  0.45424079  0.39553659  1
  O2-  O218  1  0.08074590  0.45808403  0.73484768  1
  O2-  O219  1  0.08363173  0.94503738  0.05806080  1
  O2-  O220  1  0.08149336  0.95223841  0.40256310  1
  O2-  O221  1  0.08306208  0.94997480  0.72901613  1
  O2-  O222  1  0.57892923  0.46000472  0.06708707  1
  O2-  O223  1  0.58167320  0.45965214  0.39663887  1
  O2-  O224  1  0.58195949  0.45932666  0.73453375  1
  O2-  O225  1  0.58436737  0.94886088  0.05900157  1
  O2-  O226  1  0.58267354  0.95514002  0.40549127  1
  O2-  O227  1  0.58837762  0.95826677  0.73154332  1
  O2-  O228  1  0.20374609  0.33783032  0.06248115  1
  O2-  O229  1  0.21171237  0.34158751  0.39562588  1
  O2-  O230  1  0.21227602  0.33706064  0.73819751  1
  O2-  O231  1  0.20873095  0.83186139  0.06025800  1
  O2-  O232  1  0.20990214  0.82831884  0.40342525  1
  O2-  O233  1  0.20545256  0.83229922  0.72792176  1
  O2-  O234  1  0.71003182  0.33561923  0.07139767  1
  O2-  O235  1  0.69579789  0.33559645  0.39742101  1
  O2-  O236  1  0.71059462  0.33248879  0.73328696  1
  O2-  O237  1  0.70410717  0.83045403  0.05712376  1
  O2-  O238  1  0.70952012  0.83024724  0.40241736  1
  O2-  O239  1  0.70560301  0.83697031  0.73222044  1
  O2-  O240  1  0.45910768  0.41458387  0.26478236  1
  O2-  O241  1  0.45624375  0.41284607  0.60507951  1
  O2-  O242  1  0.45385442  0.42017981  0.92905673  1
  O2-  O243  1  0.45036953  0.92093039  0.27787936  1
  O2-  O244  1  0.46228492  0.91484152  0.60176830  1
  O2-  O245  1  0.45787846  0.91860694  0.92979292  1
  O2-  O246  1  0.95715919  0.41210960  0.27139864  1
  O2-  O247  1  0.95383407  0.41214611  0.60466244  1
  O2-  O248  1  0.95770841  0.41616636  0.92913030  1
  O2-  O249  1  0.95446037  0.92010529  0.26708374  1
  O2-  O250  1  0.95169417  0.91813924  0.60336157  1
  O2-  O251  1  0.95490798  0.91447225  0.93204946  1
  O2-  O252  1  0.33324869  0.29184039  0.26532982  1
  O2-  O253  1  0.33632471  0.29116366  0.60591278  1
  O2-  O254  1  0.32828362  0.29543660  0.92981461  1
  O2-  O255  1  0.33773208  0.79521872  0.27232096  1
  O2-  O256  1  0.33923268  0.79792259  0.60136907  1
  O2-  O257  1  0.33472060  0.78864396  0.92768874  1
  O2-  O258  1  0.82790376  0.30511162  0.27774924  1
  O2-  O259  1  0.83614389  0.29021757  0.60091300  1
  O2-  O260  1  0.83018229  0.29077392  0.93302490  1
  O2-  O261  1  0.83310421  0.78900238  0.26494164  1
  O2-  O262  1  0.83183418  0.79883100  0.60447512  1
  O2-  O263  1  0.83527998  0.79772658  0.93168154  1
  O2-  O264  1  0.41794503  0.04055422  0.06715732  1
  O2-  O265  1  0.41882410  0.05089168  0.40326212  1
  O2-  O266  1  0.41828617  0.03957692  0.73419324  1
  O2-  O267  1  0.41152730  0.54499288  0.06170340  1
  O2-  O268  1  0.41180008  0.53694844  0.39728497  1
  O2-  O269  1  0.41407434  0.54415753  0.73156509  1
  O2-  O270  1  0.91956476  0.03953516  0.06374123  1
  O2-  O271  1  0.92098415  0.04498567  0.40302925  1
  O2-  O272  1  0.91408553  0.04500017  0.72903823  1
  O2-  O273  1  0.91543781  0.54127479  0.06268484  1
  O2-  O274  1  0.91622842  0.53594316  0.40375681  1
  O2-  O275  1  0.91448106  0.54493370  0.72956238  1
  O2-  O276  1  0.28989202  0.16974725  0.06561135  1
  O2-  O277  1  0.28578769  0.17191480  0.40105252  1
  O2-  O278  1  0.28983272  0.16598664  0.73762098  1
  O2-  O279  1  0.29011215  0.66321755  0.06124222  1
  O2-  O280  1  0.30249014  0.66338439  0.39539521  1
  O2-  O281  1  0.30190303  0.67018989  0.72604246  1
  O2-  O282  1  0.79131847  0.16550771  0.06770950  1
  O2-  O283  1  0.79447660  0.17147486  0.40488212  1
  O2-  O284  1  0.79162631  0.16252094  0.72854439  1
  O2-  O285  1  0.80328525  0.66860422  0.05846581  1
  O2-  O286  1  0.79045913  0.66396532  0.40325938  1
  O2-  O287  1  0.79831572  0.66729282  0.72993775  1
