# generated using pymatgen
data_Ca2Al2SiO7
_symmetry_space_group_name_H-M   'P 1'
_cell_length_a   15.46249975
_cell_length_b   15.46491334
_cell_length_c   15.28634424
_cell_angle_alpha   90.02861153
_cell_angle_beta   89.99447264
_cell_angle_gamma   90.03480106
_symmetry_Int_Tables_number   1
_chemical_formula_structural   Ca2Al2SiO7
_chemical_formula_sum   'Ca48 Al48 Si24 O168'
_cell_volume   3655.36454739
_cell_formula_units_Z   24
loop_
 _symmetry_equiv_pos_site_id
 _symmetry_equiv_pos_as_xyz
  1  'x, y, z'
loop_
 _atom_type_symbol
 _atom_type_oxidation_number
  Ca2+  2.0
  Al0+  0.0
  Si0+  0.0
  O2-  -2.0
loop_
 _atom_site_type_symbol
 _atom_site_label
 _atom_site_symmetry_multiplicity
 _atom_site_fract_x
 _atom_site_fract_y
 _atom_site_fract_z
 _atom_site_occupancy
  Ca2+  Ca0  1  0.16737706  0.07683172  0.16477455  1
  Ca2+  Ca1  1  0.17331968  0.08140219  0.51339528  1
  Ca2+  Ca2  1  0.16575476  0.07750090  0.82910456  1
  Ca2+  Ca3  1  0.16866944  0.56954767  0.16912255  1
  Ca2+  Ca4  1  0.17518581  0.57093528  0.50737407  1
  Ca2+  Ca5  1  0.17138128  0.57373860  0.83365946  1
  Ca2+  Ca6  1  0.66688162  0.07856401  0.16654149  1
  Ca2+  Ca7  1  0.66933956  0.07161121  0.50855456  1
  Ca2+  Ca8  1  0.67479950  0.07575967  0.83722491  1
  Ca2+  Ca9  1  0.67194432  0.57942316  0.16719401  1
  Ca2+  Ca10  1  0.66586317  0.57390846  0.50709843  1
  Ca2+  Ca11  1  0.67653187  0.57877282  0.83018065  1
  Ca2+  Ca12  1  0.08139145  0.33519726  0.15749970  1
  Ca2+  Ca13  1  0.09130576  0.32889038  0.49993603  1
  Ca2+  Ca14  1  0.08111472  0.33187323  0.82719889  1
  Ca2+  Ca15  1  0.08396791  0.82862229  0.15768995  1
  Ca2+  Ca16  1  0.07724908  0.83702848  0.50208767  1
  Ca2+  Ca17  1  0.07848952  0.83894608  0.82287915  1
  Ca2+  Ca18  1  0.57337352  0.34048361  0.16121242  1
  Ca2+  Ca19  1  0.57408427  0.34141397  0.49567886  1
  Ca2+  Ca20  1  0.57278200  0.33831280  0.82499425  1
  Ca2+  Ca21  1  0.57648421  0.84245138  0.16164768  1
  Ca2+  Ca22  1  0.58117972  0.83593334  0.49362878  1
  Ca2+  Ca23  1  0.58591641  0.83693888  0.83047317  1
  Ca2+  Ca24  1  0.32543412  0.40538677  0.17038625  1
  Ca2+  Ca25  1  0.32957564  0.41511672  0.51072587  1
  Ca2+  Ca26  1  0.32519128  0.41017638  0.83376877  1
  Ca2+  Ca27  1  0.33372768  0.91069982  0.16876634  1
  Ca2+  Ca28  1  0.33041815  0.92373844  0.51088838  1
  Ca2+  Ca29  1  0.32574642  0.92046272  0.83954814  1
  Ca2+  Ca30  1  0.83421191  0.42111299  0.17005430  1
  Ca2+  Ca31  1  0.81847013  0.42077219  0.50943967  1
  Ca2+  Ca32  1  0.83764693  0.42457449  0.83984432  1
  Ca2+  Ca33  1  0.82119858  0.92227862  0.16813234  1
  Ca2+  Ca34  1  0.82383563  0.91777258  0.51236159  1
  Ca2+  Ca35  1  0.82946595  0.92501534  0.83533916  1
  Ca2+  Ca36  1  0.41996044  0.17711618  0.16201752  1
  Ca2+  Ca37  1  0.41336205  0.17588979  0.50043425  1
  Ca2+  Ca38  1  0.41261758  0.17502194  0.82697027  1
  Ca2+  Ca39  1  0.42046711  0.67739923  0.16062834  1
  Ca2+  Ca40  1  0.41399283  0.67159684  0.49679177  1
  Ca2+  Ca41  1  0.41409277  0.67127031  0.82860337  1
  Ca2+  Ca42  1  0.91643916  0.17364525  0.15686480  1
  Ca2+  Ca43  1  0.92339900  0.15931491  0.50273723  1
  Ca2+  Ca44  1  0.92001946  0.16282915  0.82584438  1
  Ca2+  Ca45  1  0.91770958  0.66439310  0.15914785  1
  Ca2+  Ca46  1  0.91088396  0.66935178  0.50448423  1
  Ca2+  Ca47  1  0.91232557  0.66994453  0.82508021  1
  Al0+  Al48  1  0.00074609  -0.00039722  0.00943535  1
  Al0+  Al49  1  0.00058679  -0.00040784  0.32896470  1
  Al0+  Al50  1  -0.00094394  -0.00003023  0.66148056  1
  Al0+  Al51  1  0.00186828  0.49952290  0.00370028  1
  Al0+  Al52  1  0.00246110  0.50024123  0.33900683  1
  Al0+  Al53  1  0.00025259  0.50067534  0.66862683  1
  Al0+  Al54  1  0.49862317  0.00150289  -0.00169631  1
  Al0+  Al55  1  0.49999856  0.00202608  0.33272297  1
  Al0+  Al56  1  0.49891734  0.00220873  0.67338468  1
  Al0+  Al57  1  0.50009220  0.50362586  -0.00626577  1
  Al0+  Al58  1  0.49977266  0.50332582  0.32882730  1
  Al0+  Al59  1  0.49972785  0.50340824  0.66901666  1
  Al0+  Al60  1  0.24917189  0.24762753  0.00022710  1
  Al0+  Al61  1  0.24954877  0.24696375  0.33104017  1
  Al0+  Al62  1  0.24896867  0.24881876  0.66547711  1
  Al0+  Al63  1  0.25093190  0.74812103  -0.00024038  1
  Al0+  Al64  1  0.24790068  0.74861297  0.32871262  1
  Al0+  Al65  1  0.24784076  0.74785768  0.66989518  1
  Al0+  Al66  1  0.74949281  0.25156566  -0.00058786  1
  Al0+  Al67  1  0.75208289  0.25030523  0.33752385  1
  Al0+  Al68  1  0.74731242  0.24825212  0.67139697  1
  Al0+  Al69  1  0.75044034  0.74908745  0.00865281  1
  Al0+  Al70  1  0.75063277  0.75151921  0.33440261  1
  Al0+  Al71  1  0.74808357  0.74812561  0.66674806  1
  Al0+  Al72  1  0.92881902  0.81926010  0.65399629  1
  Al0+  Al73  1  0.67787688  0.43006200  0.34482122  1
  Al0+  Al74  1  0.67668212  0.42722777  0.68173660  1
  Al0+  Al75  1  0.17972365  0.42697406  0.68142337  1
  Al0+  Al76  1  0.82165796  0.56898786  0.01451513  1
  Al0+  Al77  1  0.67821585  0.92983808  0.01628026  1
  Al0+  Al78  1  0.82206240  0.07061981  0.67998061  1
  Al0+  Al79  1  0.92953861  0.32198414  0.98770034  1
  Al0+  Al80  1  0.42944089  0.82133681  0.98409074  1
  Al0+  Al81  1  0.82217429  0.07398725  0.01636761  1
  Al0+  Al82  1  0.32124262  0.07184303  0.68194967  1
  Al0+  Al83  1  0.42934722  0.82204324  0.32145359  1
  Al0+  Al84  1  0.43113683  0.32067103  0.65277074  1
  Al0+  Al85  1  0.67876563  0.93142257  0.34778463  1
  Al0+  Al86  1  0.42860127  0.32137710  0.98467182  1
  Al0+  Al87  1  0.06812739  0.18091016  0.65288641  1
  Al0+  Al88  1  0.32237055  0.57218290  0.68135005  1
  Al0+  Al89  1  0.67727320  0.92721679  0.68162269  1
  Al0+  Al90  1  0.17846801  0.92845002  0.67836685  1
  Al0+  Al91  1  0.42957439  0.32188722  0.31987666  1
  Al0+  Al92  1  0.18116202  0.42686704  0.34792265  1
  Al0+  Al93  1  0.18248527  0.42857749  0.01375037  1
  Al0+  Al94  1  0.82044581  0.56908752  0.68011169  1
  Al0+  Al95  1  0.18024507  0.92699481  0.01463225  1
  Si0+  Si96  1  0.82365612  0.57232353  0.35081476  1
  Si0+  Si97  1  0.92845515  0.82115717  0.31575072  1
  Si0+  Si98  1  0.07123632  0.17792781  0.31576021  1
  Si0+  Si99  1  0.57247508  0.17855354  0.98219909  1
  Si0+  Si100  1  0.31933893  0.06907888  0.34709840  1
  Si0+  Si101  1  0.57388549  0.17934609  0.31780424  1
  Si0+  Si102  1  0.32391143  0.57232726  0.01827149  1
  Si0+  Si103  1  0.57423897  0.67910868  0.31507876  1
  Si0+  Si104  1  0.07033670  0.17573056  0.98320704  1
  Si0+  Si105  1  0.32149119  0.07145673  0.01909252  1
  Si0+  Si106  1  0.93013959  0.82009089  0.98767725  1
  Si0+  Si107  1  0.57474308  0.67966181  0.98089160  1
  Si0+  Si108  1  0.07087023  0.67814354  0.98480639  1
  Si0+  Si109  1  0.56979504  0.68140136  0.65063735  1
  Si0+  Si110  1  0.17805162  0.92644988  0.34748012  1
  Si0+  Si111  1  0.42671529  0.82249471  0.65361753  1
  Si0+  Si112  1  0.57306691  0.17600466  0.64948880  1
  Si0+  Si113  1  0.82473049  0.07201643  0.35099122  1
  Si0+  Si114  1  0.32095832  0.57357786  0.34718681  1
  Si0+  Si115  1  0.06951567  0.67834954  0.31701115  1
  Si0+  Si116  1  0.92512719  0.32487200  0.64973298  1
  Si0+  Si117  1  0.67573172  0.42878058  0.01527267  1
  Si0+  Si118  1  0.07345846  0.67570715  0.64800801  1
  Si0+  Si119  1  0.93017966  0.32164557  0.32073272  1
  O2-  O120  1  0.25673162  -0.00126807  0.06381764  1
  O2-  O121  1  0.25077752  -0.00482041  0.38865884  1
  O2-  O122  1  0.25302526  -0.00432458  0.73025808  1
  O2-  O123  1  0.26117721  0.49829250  0.06285566  1
  O2-  O124  1  0.26025944  0.49811680  0.39157978  1
  O2-  O125  1  0.25233482  0.49839721  0.73085526  1
  O2-  O126  1  0.74856155  0.00367174  0.06657070  1
  O2-  O127  1  0.75548169  0.00373111  0.39403154  1
  O2-  O128  1  0.74895116  0.00009850  0.72935819  1
  O2-  O129  1  0.74829411  0.49286610  0.06092528  1
  O2-  O130  1  0.75237612  0.50509452  0.39177508  1
  O2-  O131  1  0.75676311  0.49054688  0.73098534  1
  O2-  O132  1  0.00033047  0.25029022  0.27638902  1
  O2-  O133  1  -0.00636923  0.25597378  0.60432486  1
  O2-  O134  1  -0.00039123  0.24313162  0.94111318  1
  O2-  O135  1  -0.00179420  0.74877163  0.27337378  1
  O2-  O136  1  0.00379610  0.74479323  0.60501978  1
  O2-  O137  1  0.00260476  0.75191417  0.94343753  1
  O2-  O138  1  0.50988378  0.25261417  0.27312223  1
  O2-  O139  1  0.50797748  0.24830768  0.60472884  1
  O2-  O140  1  0.50606985  0.24975612  0.93865774  1
  O2-  O141  1  0.50635100  0.75003296  0.27307038  1
  O2-  O142  1  0.49867258  0.75347203  0.60960832  1
  O2-  O143  1  0.50666999  0.74957055  0.93750470  1
  O2-  O144  1  0.07130288  0.17708063  0.08971970  1
  O2-  O145  1  0.07211326  0.17477532  0.42042960  1
  O2-  O146  1  0.06723387  0.17945327  0.76570745  1
  O2-  O147  1  0.06891968  0.67859366  0.09077796  1
  O2-  O148  1  0.07070340  0.67968354  0.42151913  1
  O2-  O149  1  0.07420901  0.67532518  0.75347274  1
  O2-  O150  1  0.57017177  0.17867436  0.08852489  1
  O2-  O151  1  0.57112761  0.17684571  0.42293076  1
  O2-  O152  1  0.57130532  0.17450407  0.75473040  1
  O2-  O153  1  0.57305061  0.67729336  0.08688279  1
  O2-  O154  1  0.57411929  0.67791655  0.42056041  1
  O2-  O155  1  0.57160585  0.68201106  0.75544155  1
  O2-  O156  1  0.17911984  0.42852166  0.23464705  1
  O2-  O157  1  0.18273217  0.42789843  0.56726277  1
  O2-  O158  1  0.18089936  0.43030261  0.90164794  1
  O2-  O159  1  0.17751898  0.92726068  0.24219034  1
  O2-  O160  1  0.18071667  0.93002861  0.56378116  1
  O2-  O161  1  0.17797767  0.92832327  0.90240141  1
  O2-  O162  1  0.68030434  0.43193252  0.23156878  1
  O2-  O163  1  0.67486028  0.43243948  0.56752439  1
  O2-  O164  1  0.67509167  0.43184248  0.91032017  1
  O2-  O165  1  0.67895420  0.93377637  0.23505060  1
  O2-  O166  1  0.67722494  0.92784198  0.56735558  1
  O2-  O167  1  0.68174815  0.92886440  0.90342317  1
  O2-  O168  1  0.42937212  0.31893716  0.09856393  1
  O2-  O169  1  0.42772809  0.31978625  0.43259197  1
  O2-  O170  1  0.43057231  0.31848404  0.76572314  1
  O2-  O171  1  0.42965657  0.81816104  0.09790903  1
  O2-  O172  1  0.42795343  0.82037046  0.43466394  1
  O2-  O173  1  0.42653193  0.82008987  0.75837796  1
  O2-  O174  1  0.93350052  0.32293639  0.10193118  1
  O2-  O175  1  0.93023618  0.32082806  0.42533671  1
  O2-  O176  1  0.92857282  0.32541550  0.75521392  1
  O2-  O177  1  0.93248228  0.81691308  0.09343745  1
  O2-  O178  1  0.92926183  0.82231668  0.42060576  1
  O2-  O179  1  0.93003029  0.81863918  0.76733026  1
  O2-  O180  1  0.31736453  0.07007111  0.24196103  1
  O2-  O181  1  0.32043075  0.07032143  0.56730017  1
  O2-  O182  1  0.31927958  0.07254881  0.91408449  1
  O2-  O183  1  0.31658759  0.57726338  0.24180129  1
  O2-  O184  1  0.32101605  0.57352900  0.56698047  1
  O2-  O185  1  0.32033968  0.57504569  0.91330217  1
  O2-  O186  1  0.82586401  0.07178148  0.24554021  1
  O2-  O187  1  0.82172517  0.06660845  0.56576244  1
  O2-  O188  1  0.82480205  0.06968835  0.90358513  1
  O2-  O189  1  0.82640114  0.57086835  0.24502403  1
  O2-  O190  1  0.81533825  0.57061247  0.56608938  1
  O2-  O191  1  0.82187561  0.57071325  0.90227426  1
  O2-  O192  1  0.04322742  0.08633494  0.26630352  1
  O2-  O193  1  0.03778821  0.08552062  0.59423253  1
  O2-  O194  1  0.04532346  0.08067799  0.94032656  1
  O2-  O195  1  0.04128907  0.58579993  0.26999852  1
  O2-  O196  1  0.04682829  0.58273821  0.60000817  1
  O2-  O197  1  0.03998170  0.58782226  0.93799093  1
  O2-  O198  1  0.54163655  0.08886470  0.26843392  1
  O2-  O199  1  0.54212450  0.08344980  0.60213935  1
  O2-  O200  1  0.54449622  0.08615459  0.93580880  1
  O2-  O201  1  0.54704751  0.58771794  0.26481822  1
  O2-  O202  1  0.54010622  0.59085183  0.60115230  1
  O2-  O203  1  0.54867998  0.58755877  0.93223038  1
  O2-  O204  1  0.16230843  0.20463591  0.26644201  1
  O2-  O205  1  0.16430393  0.21109821  0.59623191  1
  O2-  O206  1  0.16367753  0.20195119  0.93838602  1
  O2-  O207  1  0.15979826  0.70656138  0.26614767  1
  O2-  O208  1  0.16628620  0.70275076  0.59987565  1
  O2-  O209  1  0.16381892  0.70219630  0.93927851  1
  O2-  O210  1  0.67011596  0.19940450  0.27407342  1
  O2-  O211  1  0.66850581  0.19545619  0.60370344  1
  O2-  O212  1  0.66727831  0.20008898  0.93761926  1
  O2-  O213  1  0.66905117  0.70288683  0.26972525  1
  O2-  O214  1  0.66028347  0.70809587  0.59981598  1
  O2-  O215  1  0.66938533  0.70622395  0.93792378  1
  O2-  O216  1  0.08850639  0.46487551  0.07006247  1
  O2-  O217  1  0.08635472  0.46096299  0.40299908  1
  O2-  O218  1  0.08100461  0.45492915  0.73226491  1
  O2-  O219  1  0.08596940  0.95858354  0.07366535  1
  O2-  O220  1  0.08572215  0.95629478  0.39235708  1
  O2-  O221  1  0.08151191  0.96097938  0.72959316  1
  O2-  O222  1  0.58349444  0.46108841  0.06169349  1
  O2-  O223  1  0.58058298  0.46201945  0.39712219  1
  O2-  O224  1  0.58332590  0.46599396  0.73597328  1
  O2-  O225  1  0.57850009  0.95931779  0.06698172  1
  O2-  O226  1  0.58184000  0.96255161  0.40094724  1
  O2-  O227  1  0.57972715  0.95443128  0.73494056  1
  O2-  O228  1  0.20883845  0.33020798  0.06772890  1
  O2-  O229  1  0.20797870  0.32786509  0.39812410  1
  O2-  O230  1  0.20746522  0.32952253  0.73400392  1
  O2-  O231  1  0.20944480  0.82931486  0.06866046  1
  O2-  O232  1  0.20167183  0.83301430  0.39248944  1
  O2-  O233  1  0.19904419  0.82892987  0.73016227  1
  O2-  O234  1  0.69418800  0.33351530  0.05986389  1
  O2-  O235  1  0.70750244  0.33354924  0.39962888  1
  O2-  O236  1  0.69193143  0.32582103  0.73110408  1
  O2-  O237  1  0.70790103  0.83280959  0.07180599  1
  O2-  O238  1  0.70749737  0.83294405  0.39918371  1
  O2-  O239  1  0.70598959  0.82941008  0.73282577  1
  O2-  O240  1  0.45383857  0.42048195  0.26559448  1
  O2-  O241  1  0.45999683  0.41957168  0.60123562  1
  O2-  O242  1  0.45461455  0.42013657  0.93301030  1
  O2-  O243  1  0.45788202  0.91928953  0.26672447  1
  O2-  O244  1  0.45275820  0.91594447  0.60819989  1
  O2-  O245  1  0.45395031  0.92031516  0.93276288  1
  O2-  O246  1  0.95896345  0.41436932  0.27472658  1
  O2-  O247  1  0.94971885  0.41888607  0.60326601  1
  O2-  O248  1  0.96557055  0.41706700  0.93432191  1
  O2-  O249  1  0.95808663  0.91220619  0.26724863  1
  O2-  O250  1  0.96049361  0.91338317  0.59520520  1
  O2-  O251  1  0.95740486  0.91354770  0.94440791  1
  O2-  O252  1  0.33503287  0.28308382  0.26538537  1
  O2-  O253  1  0.33522699  0.28666105  0.59888197  1
  O2-  O254  1  0.33219206  0.28613389  0.93339420  1
  O2-  O255  1  0.33269914  0.78994140  0.26638981  1
  O2-  O256  1  0.33489697  0.79336047  0.60590973  1
  O2-  O257  1  0.33287735  0.78733512  0.93186510  1
  O2-  O258  1  0.83782498  0.29538939  0.27264974  1
  O2-  O259  1  0.82972439  0.29965227  0.60636692  1
  O2-  O260  1  0.82963279  0.30115803  0.93650692  1
  O2-  O261  1  0.83616276  0.79438208  0.26852604  1
  O2-  O262  1  0.83292229  0.78554825  0.59824955  1
  O2-  O263  1  0.83794218  0.79023182  0.94375940  1
  O2-  O264  1  0.41620054  0.05022344  0.06424125  1
  O2-  O265  1  0.41179102  0.04523252  0.39409374  1
  O2-  O266  1  0.41876868  0.04879283  0.73693373  1
  O2-  O267  1  0.42056624  0.55375502  0.06071423  1
  O2-  O268  1  0.41794754  0.55781034  0.38871561  1
  O2-  O269  1  0.42084782  0.55040169  0.73471974  1
  O2-  O270  1  0.91883439  0.04443151  0.07312010  1
  O2-  O271  1  0.91903675  0.04367636  0.39464643  1
  O2-  O272  1  0.91913459  0.03918457  0.73181189  1
  O2-  O273  1  0.91749820  0.53849411  0.07102574  1
  O2-  O274  1  0.91619333  0.54650457  0.39821068  1
  O2-  O275  1  0.92135043  0.55137389  0.73099777  1
  O2-  O276  1  0.29004636  0.16235683  0.06792732  1
  O2-  O277  1  0.28712485  0.15877798  0.39540543  1
  O2-  O278  1  0.28698954  0.16705783  0.73499287  1
  O2-  O279  1  0.29222081  0.66309306  0.06689306  1
  O2-  O280  1  0.28719892  0.66415904  0.39548713  1
  O2-  O281  1  0.29114424  0.66842157  0.73658953  1
  O2-  O282  1  0.79447117  0.17359356  0.06904235  1
  O2-  O283  1  0.80320459  0.16626229  0.39674899  1
  O2-  O284  1  0.79892089  0.16951170  0.73283945  1
  O2-  O285  1  0.79054444  0.66358376  0.07303445  1
  O2-  O286  1  0.79996318  0.66733411  0.39421711  1
  O2-  O287  1  0.78515015  0.66442722  0.73373502  1
