# generated using pymatgen
data_Ca2Al2SiO7
_symmetry_space_group_name_H-M   'P 1'
_cell_length_a   15.46002281
_cell_length_b   15.45984867
_cell_length_c   15.28531117
_cell_angle_alpha   89.99027363
_cell_angle_beta   89.98584912
_cell_angle_gamma   89.97851840
_symmetry_Int_Tables_number   1
_chemical_formula_structural   Ca2Al2SiO7
_chemical_formula_sum   'Ca48 Al48 Si24 O168'
_cell_volume   3653.33588671
_cell_formula_units_Z   24
loop_
 _symmetry_equiv_pos_site_id
 _symmetry_equiv_pos_as_xyz
  1  'x, y, z'
loop_
 _atom_type_symbol
 _atom_type_oxidation_number
  Ca2+  2.0
  Al0+  0.0
  Si0+  0.0
  O2-  -2.0
loop_
 _atom_site_type_symbol
 _atom_site_label
 _atom_site_symmetry_multiplicity
 _atom_site_fract_x
 _atom_site_fract_y
 _atom_site_fract_z
 _atom_site_occupancy
  Ca2+  Ca0  1  0.17226400  0.08005216  0.17466742  1
  Ca2+  Ca1  1  0.17766529  0.08806114  0.50878735  1
  Ca2+  Ca2  1  0.16894207  0.08825279  0.83288191  1
  Ca2+  Ca3  1  0.16768965  0.58536097  0.17216837  1
  Ca2+  Ca4  1  0.17099729  0.58404641  0.50740861  1
  Ca2+  Ca5  1  0.16377291  0.58592772  0.83347855  1
  Ca2+  Ca6  1  0.67454847  0.09282914  0.16899597  1
  Ca2+  Ca7  1  0.67101380  0.08615182  0.49881578  1
  Ca2+  Ca8  1  0.67256023  0.08092939  0.84381461  1
  Ca2+  Ca9  1  0.66923004  0.58172204  0.16388408  1
  Ca2+  Ca10  1  0.66929870  0.57994382  0.50452040  1
  Ca2+  Ca11  1  0.67439205  0.57774103  0.84712704  1
  Ca2+  Ca12  1  0.07697410  0.33024634  0.16054664  1
  Ca2+  Ca13  1  0.08504291  0.33436455  0.50577777  1
  Ca2+  Ca14  1  0.07216720  0.33376530  0.82491034  1
  Ca2+  Ca15  1  0.07690844  0.82389050  0.16267554  1
  Ca2+  Ca16  1  0.07856717  0.82509656  0.49561971  1
  Ca2+  Ca17  1  0.07280406  0.82336078  0.82887178  1
  Ca2+  Ca18  1  0.57498756  0.32750549  0.15935973  1
  Ca2+  Ca19  1  0.57344349  0.32616855  0.48922748  1
  Ca2+  Ca20  1  0.58319915  0.33226658  0.83746188  1
  Ca2+  Ca21  1  0.58136912  0.82678284  0.16171058  1
  Ca2+  Ca22  1  0.57642425  0.83319652  0.50117836  1
  Ca2+  Ca23  1  0.58252696  0.82590674  0.83077289  1
  Ca2+  Ca24  1  0.33698021  0.41852524  0.17312822  1
  Ca2+  Ca25  1  0.32951044  0.42654966  0.50779309  1
  Ca2+  Ca26  1  0.32584457  0.41771073  0.83499590  1
  Ca2+  Ca27  1  0.33121383  0.92269625  0.17450802  1
  Ca2+  Ca28  1  0.33619239  0.92733329  0.50938699  1
  Ca2+  Ca29  1  0.33591846  0.91938031  0.83277393  1
  Ca2+  Ca30  1  0.82949679  0.41668846  0.16255853  1
  Ca2+  Ca31  1  0.83218818  0.41462530  0.50597777  1
  Ca2+  Ca32  1  0.83236869  0.41778404  0.84636217  1
  Ca2+  Ca33  1  0.84004451  0.92354112  0.17079583  1
  Ca2+  Ca34  1  0.83949154  0.91636278  0.50025271  1
  Ca2+  Ca35  1  0.84320947  0.92098239  0.84070784  1
  Ca2+  Ca36  1  0.42358679  0.17417619  0.16147307  1
  Ca2+  Ca37  1  0.41719900  0.16960510  0.48964225  1
  Ca2+  Ca38  1  0.41994304  0.16990783  0.83092489  1
  Ca2+  Ca39  1  0.42111150  0.66252244  0.16126977  1
  Ca2+  Ca40  1  0.40529821  0.66935241  0.49835157  1
  Ca2+  Ca41  1  0.42165344  0.66789439  0.82829098  1
  Ca2+  Ca42  1  0.91013840  0.16841845  0.15903946  1
  Ca2+  Ca43  1  0.92171069  0.16855907  0.49856428  1
  Ca2+  Ca44  1  0.91645027  0.17660877  0.82861427  1
  Ca2+  Ca45  1  0.92418722  0.67371049  0.15569228  1
  Ca2+  Ca46  1  0.92955153  0.67427693  0.49369727  1
  Ca2+  Ca47  1  0.92311152  0.66812431  0.82724773  1
  Al0+  Al48  1  0.00336515  -0.00171628  0.00284341  1
  Al0+  Al49  1  -0.00051340  0.00018651  0.33598030  1
  Al0+  Al50  1  0.00160644  0.00196946  0.66067458  1
  Al0+  Al51  1  0.00174426  0.49888743  -0.00099589  1
  Al0+  Al52  1  -0.00061759  0.49926421  0.33038451  1
  Al0+  Al53  1  -0.00108492  0.50020686  0.66114300  1
  Al0+  Al54  1  0.50056119  0.00154244  -0.00099816  1
  Al0+  Al55  1  0.50285579  -0.00097585  0.33289320  1
  Al0+  Al56  1  0.50200120  -0.00140895  0.66875986  1
  Al0+  Al57  1  0.49912119  0.50015171  -0.00481374  1
  Al0+  Al58  1  0.49892003  0.49989427  0.33620871  1
  Al0+  Al59  1  0.50102033  0.49864050  0.67068171  1
  Al0+  Al60  1  0.25146714  0.25140470  -0.00076123  1
  Al0+  Al61  1  0.24813551  0.25117465  0.33316761  1
  Al0+  Al62  1  0.25094247  0.25213045  0.67289947  1
  Al0+  Al63  1  0.24868221  0.75096797  -0.00195618  1
  Al0+  Al64  1  0.24897849  0.74942273  0.33262130  1
  Al0+  Al65  1  0.25181908  0.75286006  0.66461615  1
  Al0+  Al66  1  0.74831726  0.24973985  0.00041140  1
  Al0+  Al67  1  0.74935816  0.24889404  0.33649041  1
  Al0+  Al68  1  0.74913612  0.24827938  0.66344235  1
  Al0+  Al69  1  0.74909951  0.75165360  -0.00258001  1
  Al0+  Al70  1  0.74946261  0.75115446  0.33233128  1
  Al0+  Al71  1  0.74826603  0.74970351  0.66272998  1
  Al0+  Al72  1  0.17769816  0.43129888  0.68346166  1
  Al0+  Al73  1  0.92886046  0.82266952  0.98561690  1
  Al0+  Al74  1  0.42726924  0.32248213  0.98189325  1
  Al0+  Al75  1  0.07181458  0.67783889  0.31608809  1
  Al0+  Al76  1  0.57082726  0.67949757  0.98749066  1
  Al0+  Al77  1  0.32151146  0.07069732  0.34561645  1
  Al0+  Al78  1  0.07175074  0.67879704  0.65022254  1
  Al0+  Al79  1  0.32175755  0.57419419  0.68441051  1
  Al0+  Al80  1  0.67726879  0.42910339  0.01624618  1
  Al0+  Al81  1  0.57160728  0.17773882  0.31803390  1
  Al0+  Al82  1  0.57089197  0.17908788  0.98321555  1
  Al0+  Al83  1  0.07313134  0.18072213  0.65209401  1
  Al0+  Al84  1  0.32300088  0.07160056  0.68230015  1
  Al0+  Al85  1  0.92648398  0.32100629  0.65079557  1
  Al0+  Al86  1  0.92819337  0.82189338  0.31594270  1
  Al0+  Al87  1  0.92975151  0.31838870  0.98933918  1
  Al0+  Al88  1  0.82127675  0.06890147  0.01165263  1
  Al0+  Al89  1  0.43102289  0.82066443  0.65388692  1
  Al0+  Al90  1  0.32067179  0.56981500  0.34592391  1
  Al0+  Al91  1  0.42702979  0.32184884  0.32003586  1
  Al0+  Al92  1  0.82076843  0.07112150  0.34934832  1
  Al0+  Al93  1  0.07167867  0.67783405  0.98360993  1
  Al0+  Al94  1  0.82342755  0.57247765  0.01456746  1
  Al0+  Al95  1  0.92659791  0.82227892  0.65018870  1
  Si0+  Si96  1  0.67934170  0.42609299  0.68151441  1
  Si0+  Si97  1  0.18140096  0.92850440  0.01624451  1
  Si0+  Si98  1  0.17433545  0.42715826  0.34986895  1
  Si0+  Si99  1  0.57079394  0.67560367  0.64898258  1
  Si0+  Si100  1  0.17917588  0.92868807  0.35135919  1
  Si0+  Si101  1  0.07100707  0.17917296  0.31897637  1
  Si0+  Si102  1  0.17743169  0.92977321  0.68408767  1
  Si0+  Si103  1  0.31949501  0.57201825  0.01402585  1
  Si0+  Si104  1  0.32213638  0.07207602  0.01611581  1
  Si0+  Si105  1  0.57105476  0.67777463  0.31985575  1
  Si0+  Si106  1  0.42721309  0.82296690  0.98500733  1
  Si0+  Si107  1  0.17929727  0.42779154  0.01637515  1
  Si0+  Si108  1  0.67797881  0.92462199  0.35216662  1
  Si0+  Si109  1  0.67999800  0.92846217  0.68198707  1
  Si0+  Si110  1  0.81829729  0.57059056  0.67859899  1
  Si0+  Si111  1  0.82161026  0.07035265  0.68121664  1
  Si0+  Si112  1  0.67524153  0.92760312  0.01721136  1
  Si0+  Si113  1  0.67974739  0.43009074  0.34902636  1
  Si0+  Si114  1  0.42916403  0.82093851  0.31948052  1
  Si0+  Si115  1  0.92736849  0.32001181  0.31766008  1
  Si0+  Si116  1  0.07406924  0.17650217  0.98604564  1
  Si0+  Si117  1  0.57019444  0.17755598  0.65090550  1
  Si0+  Si118  1  0.82096951  0.57190068  0.34809707  1
  Si0+  Si119  1  0.43013500  0.32109876  0.65190494  1
  O2-  O120  1  0.25193659  0.00055517  0.05848295  1
  O2-  O121  1  0.24832439  -0.00326999  0.39585350  1
  O2-  O122  1  0.24605254  -0.00105097  0.72929510  1
  O2-  O123  1  0.24975231  0.50024669  0.05728587  1
  O2-  O124  1  0.24456961  0.49601083  0.39108613  1
  O2-  O125  1  0.24698611  0.50555448  0.73509677  1
  O2-  O126  1  0.74679839  -0.00592816  0.05986502  1
  O2-  O127  1  0.74712319  -0.00585683  0.39485337  1
  O2-  O128  1  0.75572066  -0.00538765  0.72320808  1
  O2-  O129  1  0.75001169  0.50142849  0.06583975  1
  O2-  O130  1  0.75089824  0.50051167  0.39236772  1
  O2-  O131  1  0.75102068  0.49669980  0.72199757  1
  O2-  O132  1  -0.00157650  0.24837242  0.27656879  1
  O2-  O133  1  0.00028579  0.25111481  0.60030247  1
  O2-  O134  1  0.00289800  0.24253967  0.94290696  1
  O2-  O135  1  -0.00214812  0.74780396  0.26686788  1
  O2-  O136  1  -0.00010207  0.75154786  0.60110684  1
  O2-  O137  1  -0.00614164  0.74463794  0.93581287  1
  O2-  O138  1  0.49651311  0.24745762  0.27030818  1
  O2-  O139  1  0.49874199  0.24804304  0.60907043  1
  O2-  O140  1  0.49874850  0.24984965  0.93174379  1
  O2-  O141  1  0.49829296  0.74770481  0.27814573  1
  O2-  O142  1  0.49895440  0.74073190  0.60444655  1
  O2-  O143  1  0.49730626  0.75558368  0.94163521  1
  O2-  O144  1  0.07605875  0.17817748  0.09224919  1
  O2-  O145  1  0.07255631  0.18070172  0.42364972  1
  O2-  O146  1  0.06884885  0.18009647  0.76589184  1
  O2-  O147  1  0.07611078  0.68128739  0.09698329  1
  O2-  O148  1  0.07212230  0.67875934  0.42933262  1
  O2-  O149  1  0.06798494  0.67944988  0.76359974  1
  O2-  O150  1  0.56829831  0.17837264  0.09649215  1
  O2-  O151  1  0.57161237  0.18087208  0.43246700  1
  O2-  O152  1  0.57198380  0.17795985  0.75561666  1
  O2-  O153  1  0.56683680  0.68013263  0.10133703  1
  O2-  O154  1  0.57258286  0.67811199  0.42499966  1
  O2-  O155  1  0.57336724  0.67774410  0.75421974  1
  O2-  O156  1  0.17257357  0.42600634  0.24405081  1
  O2-  O157  1  0.18245372  0.42978936  0.56954339  1
  O2-  O158  1  0.17921431  0.42520043  0.91198681  1
  O2-  O159  1  0.18163480  0.93016585  0.24514140  1
  O2-  O160  1  0.18011263  0.93122980  0.57837997  1
  O2-  O161  1  0.18245671  0.92834724  0.91151977  1
  O2-  O162  1  0.67953255  0.43097318  0.24459353  1
  O2-  O163  1  0.67817547  0.42716605  0.57580124  1
  O2-  O164  1  0.67994153  0.43038794  0.90211269  1
  O2-  O165  1  0.67541513  0.92033605  0.24716028  1
  O2-  O166  1  0.67655502  0.93042631  0.57695437  1
  O2-  O167  1  0.67121245  0.92969727  0.91146907  1
  O2-  O168  1  0.42522907  0.32014029  0.09557420  1
  O2-  O169  1  0.43010598  0.32241709  0.43415795  1
  O2-  O170  1  0.43298165  0.32113405  0.75664494  1
  O2-  O171  1  0.42643420  0.82238943  0.09120320  1
  O2-  O172  1  0.43069016  0.82208232  0.42440441  1
  O2-  O173  1  0.43749474  0.82336688  0.76678940  1
  O2-  O174  1  0.93195681  0.31707035  0.10302188  1
  O2-  O175  1  0.92656798  0.32032479  0.42259735  1
  O2-  O176  1  0.92227087  0.31833714  0.76412096  1
  O2-  O177  1  0.93404866  0.82523327  0.09881932  1
  O2-  O178  1  0.92974944  0.81919236  0.42948367  1
  O2-  O179  1  0.92567593  0.82058683  0.76349502  1
  O2-  O180  1  0.31829048  0.06788162  0.23217690  1
  O2-  O181  1  0.32469860  0.07036278  0.56892123  1
  O2-  O182  1  0.32176381  0.07089561  0.91109039  1
  O2-  O183  1  0.32316977  0.56919866  0.23243796  1
  O2-  O184  1  0.32352502  0.56971130  0.57057140  1
  O2-  O185  1  0.31828897  0.57380292  0.90943583  1
  O2-  O186  1  0.81954346  0.07269051  0.23637378  1
  O2-  O187  1  0.81769832  0.07273199  0.57614404  1
  O2-  O188  1  0.82084230  0.06796508  0.89813993  1
  O2-  O189  1  0.81900150  0.57136911  0.24353131  1
  O2-  O190  1  0.81324549  0.57012897  0.57295469  1
  O2-  O191  1  0.82194598  0.56981890  0.90037589  1
  O2-  O192  1  0.04605571  0.08629567  0.27279013  1
  O2-  O193  1  0.04749765  0.08309295  0.59663828  1
  O2-  O194  1  0.05308540  0.08195450  0.94161163  1
  O2-  O195  1  0.04478430  0.57817011  0.26486318  1
  O2-  O196  1  0.04303420  0.58151769  0.59577637  1
  O2-  O197  1  0.04964849  0.57753085  0.93347580  1
  O2-  O198  1  0.54949121  0.07738070  0.26693036  1
  O2-  O199  1  0.54351125  0.08558964  0.60423883  1
  O2-  O200  1  0.54283106  0.08003373  0.93033554  1
  O2-  O201  1  0.54329494  0.58636547  0.27276885  1
  O2-  O202  1  0.54983961  0.58001944  0.60460970  1
  O2-  O203  1  0.53977748  0.58518753  0.93086553  1
  O2-  O204  1  0.16125879  0.20770769  0.26855164  1
  O2-  O205  1  0.17249563  0.21071490  0.60107945  1
  O2-  O206  1  0.16632967  0.20419796  0.93952537  1
  O2-  O207  1  0.17007601  0.70864492  0.26310163  1
  O2-  O208  1  0.17109274  0.70705922  0.59977884  1
  O2-  O209  1  0.16807537  0.71287254  0.93012682  1
  O2-  O210  1  0.66922413  0.21110031  0.26710161  1
  O2-  O211  1  0.66102857  0.20648117  0.60214271  1
  O2-  O212  1  0.66851408  0.20797273  0.92973462  1
  O2-  O213  1  0.66157065  0.70691792  0.27136293  1
  O2-  O214  1  0.66176153  0.70584214  0.59972644  1
  O2-  O215  1  0.66623864  0.70890028  0.93081775  1
  O2-  O216  1  0.08794326  0.45395658  0.06541932  1
  O2-  O217  1  0.08062099  0.45230963  0.39660162  1
  O2-  O218  1  0.07588674  0.45549181  0.73216521  1
  O2-  O219  1  0.09144429  0.95670039  0.06705618  1
  O2-  O220  1  0.08589357  0.95429886  0.39671401  1
  O2-  O221  1  0.08351607  0.95656099  0.72937613  1
  O2-  O222  1  0.57810533  0.45962933  0.06713026  1
  O2-  O223  1  0.58911164  0.45957599  0.39865153  1
  O2-  O224  1  0.58849560  0.45352259  0.73018323  1
  O2-  O225  1  0.58198062  0.95434018  0.06507346  1
  O2-  O226  1  0.58491604  0.95171756  0.39968633  1
  O2-  O227  1  0.59150104  0.96086763  0.73257871  1
  O2-  O228  1  0.20798223  0.33618206  0.06554975  1
  O2-  O229  1  0.19879205  0.33355913  0.39628209  1
  O2-  O230  1  0.20841910  0.33441901  0.73849706  1
  O2-  O231  1  0.21188868  0.83803090  0.06576042  1
  O2-  O232  1  0.20519157  0.83492375  0.39595079  1
  O2-  O233  1  0.20490395  0.83706218  0.73027079  1
  O2-  O234  1  0.70658912  0.33127333  0.06937316  1
  O2-  O235  1  0.70822434  0.33914624  0.39808719  1
  O2-  O236  1  0.70594467  0.33339514  0.72763693  1
  O2-  O237  1  0.69642920  0.83284494  0.06236534  1
  O2-  O238  1  0.70302918  0.83162756  0.40143596  1
  O2-  O239  1  0.70176340  0.83385996  0.72719212  1
  O2-  O240  1  0.45972204  0.41946596  0.26770067  1
  O2-  O241  1  0.46116225  0.41235833  0.60474293  1
  O2-  O242  1  0.45435798  0.42018391  0.92845576  1
  O2-  O243  1  0.45927581  0.91085135  0.26978638  1
  O2-  O244  1  0.46897998  0.91500619  0.59841587  1
  O2-  O245  1  0.45122190  0.91681248  0.93963085  1
  O2-  O246  1  0.95429625  0.41159523  0.26996992  1
  O2-  O247  1  0.95128860  0.41926727  0.59643708  1
  O2-  O248  1  0.96126180  0.41384220  0.93499189  1
  O2-  O249  1  0.95821012  0.92149731  0.26658619  1
  O2-  O250  1  0.95338614  0.92132050  0.59847176  1
  O2-  O251  1  0.96614065  0.91857979  0.93203031  1
  O2-  O252  1  0.32730374  0.29783185  0.26787627  1
  O2-  O253  1  0.33741801  0.29557333  0.60705837  1
  O2-  O254  1  0.32929361  0.29181121  0.92918714  1
  O2-  O255  1  0.33707995  0.79598161  0.27168835  1
  O2-  O256  1  0.33348885  0.79908261  0.59854025  1
  O2-  O257  1  0.33522887  0.79607948  0.93766537  1
  O2-  O258  1  0.83562654  0.29125840  0.27181462  1
  O2-  O259  1  0.82907965  0.28924824  0.59564063  1
  O2-  O260  1  0.83325602  0.29020920  0.93548608  1
  O2-  O261  1  0.82748892  0.79708532  0.26638719  1
  O2-  O262  1  0.82780965  0.79362892  0.59707250  1
  O2-  O263  1  0.82685471  0.80653487  0.93673081  1
  O2-  O264  1  0.41400466  0.04408658  0.06327900  1
  O2-  O265  1  0.41922441  0.04049355  0.39785315  1
  O2-  O266  1  0.41853035  0.03617656  0.73637166  1
  O2-  O267  1  0.41201295  0.54476941  0.06001783  1
  O2-  O268  1  0.41716805  0.54152906  0.40287271  1
  O2-  O269  1  0.42075906  0.54263770  0.73580778  1
  O2-  O270  1  0.91933621  0.04148123  0.06626773  1
  O2-  O271  1  0.91827208  0.04296176  0.40356412  1
  O2-  O272  1  0.91586709  0.04841003  0.72574105  1
  O2-  O273  1  0.92138335  0.54175912  0.06777920  1
  O2-  O274  1  0.91279031  0.54252643  0.39469026  1
  O2-  O275  1  0.91186541  0.54740529  0.72261056  1
  O2-  O276  1  0.29323224  0.16384742  0.06300870  1
  O2-  O277  1  0.29003492  0.16787522  0.39837310  1
  O2-  O278  1  0.29437572  0.16778028  0.73728189  1
  O2-  O279  1  0.29268494  0.66453830  0.06182146  1
  O2-  O280  1  0.29191188  0.66797004  0.39856665  1
  O2-  O281  1  0.30084005  0.67603057  0.73341734  1
  O2-  O282  1  0.78901984  0.16472237  0.06624687  1
  O2-  O283  1  0.78753931  0.16663388  0.40560179  1
  O2-  O284  1  0.78782481  0.16078223  0.72829953  1
  O2-  O285  1  0.79342988  0.67174205  0.06566934  1
  O2-  O286  1  0.79095767  0.66297286  0.39594702  1
  O2-  O287  1  0.78720203  0.66155076  0.72580626  1
