# generated using pymatgen
data_Ca2Al2SiO7
_symmetry_space_group_name_H-M   'P 1'
_cell_length_a   15.46064750
_cell_length_b   15.46095154
_cell_length_c   15.28655028
_cell_angle_alpha   90.00094944
_cell_angle_beta   90.01253267
_cell_angle_gamma   89.99969357
_symmetry_Int_Tables_number   1
_chemical_formula_structural   Ca2Al2SiO7
_chemical_formula_sum   'Ca48 Al48 Si24 O168'
_cell_volume   3654.04066318
_cell_formula_units_Z   24
loop_
 _symmetry_equiv_pos_site_id
 _symmetry_equiv_pos_as_xyz
  1  'x, y, z'
loop_
 _atom_type_symbol
 _atom_type_oxidation_number
  Ca2+  2.0
  Al0+  0.0
  Si0+  0.0
  O2-  -2.0
loop_
 _atom_site_type_symbol
 _atom_site_label
 _atom_site_symmetry_multiplicity
 _atom_site_fract_x
 _atom_site_fract_y
 _atom_site_fract_z
 _atom_site_occupancy
  Ca2+  Ca0  1  0.17288363  0.08232882  0.16688042  1
  Ca2+  Ca1  1  0.17474346  0.08248181  0.50031791  1
  Ca2+  Ca2  1  0.17301245  0.07686908  0.84763552  1
  Ca2+  Ca3  1  0.15784067  0.58155729  0.17534309  1
  Ca2+  Ca4  1  0.16519344  0.58064361  0.50289017  1
  Ca2+  Ca5  1  0.17477466  0.58955655  0.83735145  1
  Ca2+  Ca6  1  0.66646008  0.06641729  0.17214417  1
  Ca2+  Ca7  1  0.67052447  0.07146895  0.50746171  1
  Ca2+  Ca8  1  0.66575726  0.07256087  0.83431447  1
  Ca2+  Ca9  1  0.66644579  0.57829701  0.17574136  1
  Ca2+  Ca10  1  0.66364008  0.58605895  0.49808007  1
  Ca2+  Ca11  1  0.65882441  0.58170237  0.84155923  1
  Ca2+  Ca12  1  0.07936495  0.33206384  0.16530718  1
  Ca2+  Ca13  1  0.07792061  0.33335337  0.48873646  1
  Ca2+  Ca14  1  0.08305840  0.32467148  0.83310066  1
  Ca2+  Ca15  1  0.07241537  0.82956707  0.15758221  1
  Ca2+  Ca16  1  0.07438243  0.82458117  0.48820661  1
  Ca2+  Ca17  1  0.08197025  0.83667978  0.83548771  1
  Ca2+  Ca18  1  0.58626896  0.33582956  0.16228091  1
  Ca2+  Ca19  1  0.59043844  0.32497850  0.49594670  1
  Ca2+  Ca20  1  0.58561717  0.32712648  0.82827757  1
  Ca2+  Ca21  1  0.58959191  0.82397109  0.16474218  1
  Ca2+  Ca22  1  0.57934108  0.83049942  0.49162798  1
  Ca2+  Ca23  1  0.58283789  0.82804040  0.82587999  1
  Ca2+  Ca24  1  0.32484305  0.42208381  0.17488738  1
  Ca2+  Ca25  1  0.32815099  0.42687441  0.50145518  1
  Ca2+  Ca26  1  0.33880699  0.42708411  0.83545999  1
  Ca2+  Ca27  1  0.33369435  0.92479812  0.17129821  1
  Ca2+  Ca28  1  0.33882341  0.91318036  0.50058228  1
  Ca2+  Ca29  1  0.33109950  0.91896323  0.84128790  1
  Ca2+  Ca30  1  0.82598468  0.42327873  0.17776897  1
  Ca2+  Ca31  1  0.83391740  0.42268591  0.49535696  1
  Ca2+  Ca32  1  0.82378385  0.42202419  0.84044999  1
  Ca2+  Ca33  1  0.82710713  0.90407668  0.16953140  1
  Ca2+  Ca34  1  0.82094033  0.91079356  0.50286585  1
  Ca2+  Ca35  1  0.82261782  0.91474457  0.83803765  1
  Ca2+  Ca36  1  0.41152238  0.16519299  0.16439155  1
  Ca2+  Ca37  1  0.42368949  0.16245798  0.49549424  1
  Ca2+  Ca38  1  0.42169230  0.16495924  0.82970521  1
  Ca2+  Ca39  1  0.42646906  0.67219646  0.16504617  1
  Ca2+  Ca40  1  0.42423019  0.67652725  0.49646515  1
  Ca2+  Ca41  1  0.42632101  0.67198670  0.82299405  1
  Ca2+  Ca42  1  0.91740888  0.17572538  0.16111489  1
  Ca2+  Ca43  1  0.91208681  0.17146586  0.49438849  1
  Ca2+  Ca44  1  0.91987477  0.15953095  0.82951924  1
  Ca2+  Ca45  1  0.92094598  0.67172303  0.16683364  1
  Ca2+  Ca46  1  0.91831186  0.66969112  0.48615958  1
  Ca2+  Ca47  1  0.91981802  0.67409865  0.83815206  1
  Al0+  Al48  1  -0.00039640  0.00185829  -0.00401471  1
  Al0+  Al49  1  0.00258707  0.00071980  0.32997968  1
  Al0+  Al50  1  0.00101351  0.00052770  0.66584013  1
  Al0+  Al51  1  0.00002834  0.50076981  -0.00643827  1
  Al0+  Al52  1  -0.00221422  0.49682230  0.33414236  1
  Al0+  Al53  1  -0.00129782  0.49748256  0.67090563  1
  Al0+  Al54  1  0.50180339  0.00130249  0.00788991  1
  Al0+  Al55  1  0.50036292  0.00123195  0.33751935  1
  Al0+  Al56  1  0.49979328  0.00124932  0.66418892  1
  Al0+  Al57  1  0.49859438  0.49963356  0.00144708  1
  Al0+  Al58  1  0.49839472  0.49697454  0.33547324  1
  Al0+  Al59  1  0.49800407  0.50004330  0.66654501  1
  Al0+  Al60  1  0.24980200  0.25313168  -0.00245138  1
  Al0+  Al61  1  0.25193809  0.25062780  0.34287285  1
  Al0+  Al62  1  0.24789780  0.24982137  0.66642771  1
  Al0+  Al63  1  0.25088314  0.75160723  0.00215613  1
  Al0+  Al64  1  0.25217908  0.75110719  0.32622643  1
  Al0+  Al65  1  0.25020411  0.74864885  0.66736668  1
  Al0+  Al66  1  0.74810406  0.25102955  0.00171261  1
  Al0+  Al67  1  0.75005058  0.24903793  0.33034668  1
  Al0+  Al68  1  0.75157531  0.25094638  0.66637612  1
  Al0+  Al69  1  0.75161138  0.74798136  -0.00514767  1
  Al0+  Al70  1  0.74988286  0.74784139  0.33472910  1
  Al0+  Al71  1  0.75174155  0.74779710  0.66874602  1
  Al0+  Al72  1  0.68104181  0.92729454  0.01432806  1
  Al0+  Al73  1  0.32011417  0.07013010  0.34971400  1
  Al0+  Al74  1  0.92837377  0.31850468  0.31937644  1
  Al0+  Al75  1  0.57324448  0.67719521  0.65068170  1
  Al0+  Al76  1  0.17701511  0.92818052  0.01616368  1
  Al0+  Al77  1  0.92878177  0.82217263  0.98235327  1
  Al0+  Al78  1  0.81904590  0.56928266  0.34793371  1
  Al0+  Al79  1  0.56915100  0.67841883  0.98666246  1
  Al0+  Al80  1  0.92823893  0.82277305  0.31951040  1
  Al0+  Al81  1  0.57000598  0.67749991  0.31805135  1
  Al0+  Al82  1  0.32138108  0.07312045  0.01463355  1
  Al0+  Al83  1  0.07047389  0.18145363  0.98670572  1
  Al0+  Al84  1  0.07135463  0.67731682  0.32097431  1
  Al0+  Al85  1  0.31926558  0.57016202  0.68019031  1
  Al0+  Al86  1  0.67761930  0.42930236  0.01318489  1
  Al0+  Al87  1  0.57130287  0.18079017  0.65341121  1
  Al0+  Al88  1  0.07391694  0.67792132  0.98317488  1
  Al0+  Al89  1  0.82144018  0.07237466  0.68092200  1
  Al0+  Al90  1  0.17844822  0.43096093  0.34594148  1
  Al0+  Al91  1  0.42775804  0.82179042  0.65304789  1
  Al0+  Al92  1  0.42953249  0.82487814  0.31544780  1
  Al0+  Al93  1  0.67800637  0.92773684  0.68241151  1
  Al0+  Al94  1  0.67615587  0.42626014  0.35025661  1
  Al0+  Al95  1  0.68149643  0.92806215  0.34680431  1
  Si0+  Si96  1  0.82217799  0.07312426  0.01653246  1
  Si0+  Si97  1  0.42584853  0.32206569  0.64893199  1
  Si0+  Si98  1  0.57117321  0.17961303  0.31700381  1
  Si0+  Si99  1  0.67961926  0.43016925  0.68119063  1
  Si0+  Si100  1  0.82303702  0.57008459  0.01619837  1
  Si0+  Si101  1  0.17901721  0.43130678  0.01331097  1
  Si0+  Si102  1  0.92576936  0.32166345  0.98094450  1
  Si0+  Si103  1  0.07155528  0.17792472  0.64972944  1
  Si0+  Si104  1  0.07001237  0.67816507  0.65308771  1
  Si0+  Si105  1  0.07590637  0.17936811  0.31768598  1
  Si0+  Si106  1  0.32246182  0.57410562  0.34907753  1
  Si0+  Si107  1  0.17757424  0.92675956  0.35008084  1
  Si0+  Si108  1  0.17960381  0.92915422  0.68003147  1
  Si0+  Si109  1  0.17600055  0.42710121  0.68628764  1
  Si0+  Si110  1  0.42855772  0.32130102  0.98524521  1
  Si0+  Si111  1  0.93035473  0.82138499  0.65157997  1
  Si0+  Si112  1  0.82424406  0.07282028  0.34668129  1
  Si0+  Si113  1  0.57124143  0.17885007  0.98638322  1
  Si0+  Si114  1  0.82422011  0.57079752  0.68435248  1
  Si0+  Si115  1  0.42788126  0.31919270  0.31907882  1
  Si0+  Si116  1  0.32048873  0.07270022  0.68186160  1
  Si0+  Si117  1  0.93024754  0.32086174  0.65121882  1
  Si0+  Si118  1  0.43033504  0.82456998  0.98487910  1
  Si0+  Si119  1  0.32149125  0.57188948  0.01559170  1
  O2-  O120  1  0.25031039  0.00027222  0.06427101  1
  O2-  O121  1  0.24718156  -0.00632322  0.39668482  1
  O2-  O122  1  0.25163983  -0.00052401  0.72260086  1
  O2-  O123  1  0.24347855  0.50758243  0.05628037  1
  O2-  O124  1  0.24746948  0.51092075  0.39229694  1
  O2-  O125  1  0.24584079  0.49446194  0.72991367  1
  O2-  O126  1  0.75779949  0.00097162  0.06081401  1
  O2-  O127  1  0.76124332  -0.00058795  0.39093882  1
  O2-  O128  1  0.75062536  0.00023191  0.73192834  1
  O2-  O129  1  0.75288545  0.50246031  0.05908093  1
  O2-  O130  1  0.74499298  0.50040598  0.40082817  1
  O2-  O131  1  0.74580728  0.50570586  0.72395307  1
  O2-  O132  1  0.00225985  0.24255891  0.27362930  1
  O2-  O133  1  0.00044134  0.24893234  0.60855367  1
  O2-  O134  1  -0.00742679  0.25145283  0.93615029  1
  O2-  O135  1  0.00388672  0.75338585  0.27129275  1
  O2-  O136  1  -0.00142097  0.74736614  0.60991235  1
  O2-  O137  1  0.00536853  0.75338683  0.93289457  1
  O2-  O138  1  0.50106031  0.25186594  0.27496796  1
  O2-  O139  1  0.49488536  0.25382270  0.60507082  1
  O2-  O140  1  0.49969888  0.24990576  0.94403439  1
  O2-  O141  1  0.50085189  0.75163822  0.26678466  1
  O2-  O142  1  0.50477628  0.75430827  0.60385266  1
  O2-  O143  1  0.49757929  0.75558214  0.93923507  1
  O2-  O144  1  0.07201620  0.18731786  0.09947665  1
  O2-  O145  1  0.07605900  0.18135891  0.42385241  1
  O2-  O146  1  0.07353594  0.17945061  0.75471251  1
  O2-  O147  1  0.06913809  0.67215459  0.09573219  1
  O2-  O148  1  0.06918713  0.67811600  0.43566198  1
  O2-  O149  1  0.07015179  0.67951179  0.75788337  1
  O2-  O150  1  0.57159086  0.18062011  0.09134707  1
  O2-  O151  1  0.57085823  0.18093773  0.42233665  1
  O2-  O152  1  0.56890243  0.18290108  0.76708667  1
  O2-  O153  1  0.56711355  0.67492412  0.09907974  1
  O2-  O154  1  0.56731753  0.67800615  0.43147433  1
  O2-  O155  1  0.56930945  0.67514219  0.76471500  1
  O2-  O156  1  0.18161400  0.42791802  0.23246522  1
  O2-  O157  1  0.17355639  0.42728118  0.58090934  1
  O2-  O158  1  0.18266154  0.42874977  0.90809388  1
  O2-  O159  1  0.17582392  0.93025388  0.24521624  1
  O2-  O160  1  0.17774485  0.93096144  0.57494275  1
  O2-  O161  1  0.18101482  0.93048897  0.90134140  1
  O2-  O162  1  0.67814900  0.42602471  0.23665349  1
  O2-  O163  1  0.68227293  0.42688880  0.57677526  1
  O2-  O164  1  0.67807143  0.42837955  0.89924003  1
  O2-  O165  1  0.68187139  0.92969697  0.23358796  1
  O2-  O166  1  0.68022151  0.92870375  0.56893895  1
  O2-  O167  1  0.67807376  0.93050797  0.90137813  1
  O2-  O168  1  0.42694266  0.32245742  0.09024465  1
  O2-  O169  1  0.42599995  0.31662842  0.42406740  1
  O2-  O170  1  0.42584802  0.32146463  0.75504434  1
  O2-  O171  1  0.43193675  0.82366896  0.09005251  1
  O2-  O172  1  0.43059783  0.82332497  0.42924782  1
  O2-  O173  1  0.42474265  0.81977142  0.76692867  1
  O2-  O174  1  0.92679406  0.32185820  0.08626401  1
  O2-  O175  1  0.93004996  0.31684391  0.43309293  1
  O2-  O176  1  0.93176123  0.32177349  0.75634029  1
  O2-  O177  1  0.92786018  0.81835098  0.09540741  1
  O2-  O178  1  0.93010670  0.82173594  0.43406701  1
  O2-  O179  1  0.93292029  0.82232150  0.75637012  1
  O2-  O180  1  0.31654429  0.07479157  0.23716821  1
  O2-  O181  1  0.31702716  0.07668913  0.57696237  1
  O2-  O182  1  0.32148013  0.07370743  0.90035566  1
  O2-  O183  1  0.32492940  0.56785910  0.24331786  1
  O2-  O184  1  0.31416245  0.56835343  0.56756968  1
  O2-  O185  1  0.32360835  0.56727710  0.91028124  1
  O2-  O186  1  0.82029710  0.07765953  0.24132230  1
  O2-  O187  1  0.82182555  0.07272747  0.56738149  1
  O2-  O188  1  0.81815020  0.07597109  0.91096289  1
  O2-  O189  1  0.82069527  0.56654711  0.23445459  1
  O2-  O190  1  0.83225721  0.56738457  0.58026259  1
  O2-  O191  1  0.82302931  0.56685288  0.90971656  1
  O2-  O192  1  0.05796010  0.08408908  0.27332927  1
  O2-  O193  1  0.04569448  0.08633349  0.60105273  1
  O2-  O194  1  0.04438207  0.08504471  0.93039580  1
  O2-  O195  1  0.03985562  0.57967815  0.26916936  1
  O2-  O196  1  0.04322199  0.58372397  0.61002209  1
  O2-  O197  1  0.04384848  0.58035058  0.92646275  1
  O2-  O198  1  0.54020401  0.08904266  0.27038621  1
  O2-  O199  1  0.54103369  0.08523177  0.59820746  1
  O2-  O200  1  0.54227189  0.08735200  0.93923315  1
  O2-  O201  1  0.54002730  0.57741541  0.26813662  1
  O2-  O202  1  0.54081896  0.57912613  0.59928271  1
  O2-  O203  1  0.53422191  0.58212995  0.93272767  1
  O2-  O204  1  0.16745097  0.21327799  0.27332227  1
  O2-  O205  1  0.16309053  0.20699677  0.60175268  1
  O2-  O206  1  0.16514669  0.21757168  0.92996523  1
  O2-  O207  1  0.17184697  0.69667427  0.26961225  1
  O2-  O208  1  0.16121182  0.70578894  0.60558328  1
  O2-  O209  1  0.17469669  0.70393168  0.93243154  1
  O2-  O210  1  0.66225608  0.20556136  0.26809122  1
  O2-  O211  1  0.66713857  0.21443982  0.59949603  1
  O2-  O212  1  0.66197495  0.20823793  0.93733925  1
  O2-  O213  1  0.66933348  0.70346140  0.26698800  1
  O2-  O214  1  0.67576342  0.69711924  0.60300070  1
  O2-  O215  1  0.66711549  0.70285099  0.93314842  1
  O2-  O216  1  0.08410856  0.45269175  0.05721030  1
  O2-  O217  1  0.08168503  0.45579077  0.40185055  1
  O2-  O218  1  0.08308173  0.45227273  0.73420426  1
  O2-  O219  1  0.07813784  0.95882468  0.06584248  1
  O2-  O220  1  0.08441417  0.95402516  0.39812385  1
  O2-  O221  1  0.08893740  0.95951173  0.72811567  1
  O2-  O222  1  0.58051334  0.45782685  0.06692728  1
  O2-  O223  1  0.57570408  0.44765741  0.40229547  1
  O2-  O224  1  0.58531107  0.45155913  0.72700725  1
  O2-  O225  1  0.58710268  0.96161311  0.07065973  1
  O2-  O226  1  0.58737228  0.96500290  0.40096058  1
  O2-  O227  1  0.57905943  0.95862525  0.73370292  1
  O2-  O228  1  0.21272948  0.34240157  0.06195658  1
  O2-  O229  1  0.21450675  0.33829200  0.40490704  1
  O2-  O230  1  0.20158082  0.33231508  0.73083269  1
  O2-  O231  1  0.20211721  0.82890994  0.06812181  1
  O2-  O232  1  0.20231629  0.83189205  0.39444804  1
  O2-  O233  1  0.20493310  0.83707870  0.72758008  1
  O2-  O234  1  0.70599653  0.33212527  0.06714641  1
  O2-  O235  1  0.70965184  0.32791588  0.40115626  1
  O2-  O236  1  0.71284533  0.34064027  0.73051254  1
  O2-  O237  1  0.71192590  0.82919841  0.06474136  1
  O2-  O238  1  0.70860829  0.83157550  0.40165714  1
  O2-  O239  1  0.70811769  0.82889821  0.73445904  1
  O2-  O240  1  0.45104096  0.41152729  0.27086306  1
  O2-  O241  1  0.45017730  0.41557839  0.60363250  1
  O2-  O242  1  0.45837616  0.41175633  0.93592162  1
  O2-  O243  1  0.45720705  0.92491865  0.26604701  1
  O2-  O244  1  0.44809490  0.92262128  0.60221814  1
  O2-  O245  1  0.45600315  0.91930728  0.94055751  1
  O2-  O246  1  0.96104350  0.41298750  0.26433608  1
  O2-  O247  1  0.96069699  0.41221658  0.60394047  1
  O2-  O248  1  0.95369899  0.41364542  0.93283496  1
  O2-  O249  1  0.95251008  0.92264758  0.26670336  1
  O2-  O250  1  0.96051163  0.91222524  0.60374099  1
  O2-  O251  1  0.95200907  0.92218333  0.93006716  1
  O2-  O252  1  0.33688334  0.28782786  0.27142803  1
  O2-  O253  1  0.33132419  0.29641375  0.60428466  1
  O2-  O254  1  0.33815523  0.29524414  0.93415111  1
  O2-  O255  1  0.33087519  0.79967037  0.26170144  1
  O2-  O256  1  0.33026453  0.78883957  0.59887243  1
  O2-  O257  1  0.33537566  0.80088379  0.94097424  1
  O2-  O258  1  0.83288658  0.28799005  0.26283196  1
  O2-  O259  1  0.83870887  0.29482593  0.60345121  1
  O2-  O260  1  0.83107939  0.29706498  0.93573169  1
  O2-  O261  1  0.83153800  0.79037924  0.26733059  1
  O2-  O262  1  0.83788382  0.79411324  0.60636638  1
  O2-  O263  1  0.83374237  0.78706171  0.92561882  1
  O2-  O264  1  0.41939748  0.04811484  0.06935815  1
  O2-  O265  1  0.41727147  0.04306832  0.40417665  1
  O2-  O266  1  0.41342035  0.04922495  0.72793895  1
  O2-  O267  1  0.40859204  0.53461469  0.06532222  1
  O2-  O268  1  0.41117015  0.53880537  0.39856851  1
  O2-  O269  1  0.41518072  0.53728546  0.73615319  1
  O2-  O270  1  0.91813201  0.05511903  0.05933792  1
  O2-  O271  1  0.92132061  0.05640822  0.38981507  1
  O2-  O272  1  0.92190505  0.04541384  0.73168231  1
  O2-  O273  1  0.91657079  0.54148631  0.06027767  1
  O2-  O274  1  0.91520347  0.53498371  0.40330402  1
  O2-  O275  1  0.91179008  0.53474575  0.73622835  1
  O2-  O276  1  0.29115974  0.17276146  0.06511449  1
  O2-  O277  1  0.28782939  0.16465365  0.40801625  1
  O2-  O278  1  0.29049338  0.16427503  0.72979467  1
  O2-  O279  1  0.30294874  0.66588415  0.06081034  1
  O2-  O280  1  0.30415310  0.67032839  0.39159683  1
  O2-  O281  1  0.28678256  0.66534325  0.73647798  1
  O2-  O282  1  0.79317536  0.16595001  0.06305203  1
  O2-  O283  1  0.79247980  0.16366277  0.39515254  1
  O2-  O284  1  0.79492249  0.17166848  0.73425346  1
  O2-  O285  1  0.79962083  0.66439434  0.05891010  1
  O2-  O286  1  0.79424744  0.66730464  0.40283415  1
  O2-  O287  1  0.80379034  0.66420218  0.73108089  1
