# generated using pymatgen
data_Ca2Al2SiO7
_symmetry_space_group_name_H-M   'P 1'
_cell_length_a   15.46085511
_cell_length_b   15.46169668
_cell_length_c   15.28696524
_cell_angle_alpha   90.00871615
_cell_angle_beta   89.99605260
_cell_angle_gamma   90.00848645
_symmetry_Int_Tables_number   1
_chemical_formula_structural   Ca2Al2SiO7
_chemical_formula_sum   'Ca48 Al48 Si24 O168'
_cell_volume   3654.36503237
_cell_formula_units_Z   24
loop_
 _symmetry_equiv_pos_site_id
 _symmetry_equiv_pos_as_xyz
  1  'x, y, z'
loop_
 _atom_type_symbol
 _atom_type_oxidation_number
  Ca2+  2.0
  Al0+  0.0
  Si0+  0.0
  O2-  -2.0
loop_
 _atom_site_type_symbol
 _atom_site_label
 _atom_site_symmetry_multiplicity
 _atom_site_fract_x
 _atom_site_fract_y
 _atom_site_fract_z
 _atom_site_occupancy
  Ca2+  Ca0  1  0.17811916  0.07451289  0.17944329  1
  Ca2+  Ca1  1  0.16961263  0.07410588  0.50126958  1
  Ca2+  Ca2  1  0.16662530  0.07726291  0.83417116  1
  Ca2+  Ca3  1  0.16962239  0.58221148  0.17660702  1
  Ca2+  Ca4  1  0.17419338  0.57432693  0.49749232  1
  Ca2+  Ca5  1  0.16891787  0.57744831  0.83129601  1
  Ca2+  Ca6  1  0.66287794  0.08686810  0.17275358  1
  Ca2+  Ca7  1  0.67618690  0.09451937  0.49854844  1
  Ca2+  Ca8  1  0.66973837  0.08584693  0.83869590  1
  Ca2+  Ca9  1  0.66774839  0.57384118  0.17428469  1
  Ca2+  Ca10  1  0.67000276  0.56917266  0.50731407  1
  Ca2+  Ca11  1  0.67023882  0.57805067  0.83129245  1
  Ca2+  Ca12  1  0.07717509  0.34114542  0.16836291  1
  Ca2+  Ca13  1  0.07211366  0.34916526  0.49660865  1
  Ca2+  Ca14  1  0.07867930  0.33300018  0.82280837  1
  Ca2+  Ca15  1  0.09232312  0.82152424  0.16618992  1
  Ca2+  Ca16  1  0.09054501  0.82901592  0.49139936  1
  Ca2+  Ca17  1  0.08803235  0.82586462  0.82720671  1
  Ca2+  Ca18  1  0.57422826  0.32609285  0.16816187  1
  Ca2+  Ca19  1  0.57676110  0.33619021  0.49241301  1
  Ca2+  Ca20  1  0.57591811  0.33455711  0.82865306  1
  Ca2+  Ca21  1  0.57132865  0.83914530  0.16137718  1
  Ca2+  Ca22  1  0.57728205  0.82531170  0.49123900  1
  Ca2+  Ca23  1  0.57868380  0.83860225  0.83266267  1
  Ca2+  Ca24  1  0.33051029  0.41993597  0.18054449  1
  Ca2+  Ca25  1  0.33155269  0.42103392  0.50901871  1
  Ca2+  Ca26  1  0.33649968  0.41591242  0.83417732  1
  Ca2+  Ca27  1  0.33587090  0.91970595  0.17847383  1
  Ca2+  Ca28  1  0.32762685  0.91907221  0.49642729  1
  Ca2+  Ca29  1  0.33077462  0.91451492  0.83612236  1
  Ca2+  Ca30  1  0.82737657  0.41365085  0.17749975  1
  Ca2+  Ca31  1  0.82382891  0.41048200  0.50550453  1
  Ca2+  Ca32  1  0.83141255  0.41538037  0.82836119  1
  Ca2+  Ca33  1  0.82342913  0.92391191  0.17349409  1
  Ca2+  Ca34  1  0.83649422  0.93113861  0.50460497  1
  Ca2+  Ca35  1  0.82572330  0.92405515  0.83898402  1
  Ca2+  Ca36  1  0.42186663  0.17231028  0.16253403  1
  Ca2+  Ca37  1  0.42088547  0.17836242  0.48965593  1
  Ca2+  Ca38  1  0.42394303  0.17656195  0.82964368  1
  Ca2+  Ca39  1  0.40872770  0.67670302  0.16728997  1
  Ca2+  Ca40  1  0.40422590  0.66907068  0.49370490  1
  Ca2+  Ca41  1  0.41404665  0.66976339  0.82972176  1
  Ca2+  Ca42  1  0.91438757  0.16863564  0.17249177  1
  Ca2+  Ca43  1  0.91415892  0.17306267  0.49406147  1
  Ca2+  Ca44  1  0.91676003  0.17041790  0.82289982  1
  Ca2+  Ca45  1  0.93184577  0.66495395  0.16249043  1
  Ca2+  Ca46  1  0.92353220  0.66244230  0.49281327  1
  Ca2+  Ca47  1  0.92115980  0.66393869  0.82649185  1
  Al0+  Al48  1  -0.00093594  -0.00050474  0.00280764  1
  Al0+  Al49  1  -0.00236546  -0.00004094  0.33786799  1
  Al0+  Al50  1  -0.00019516  -0.00145824  0.67593883  1
  Al0+  Al51  1  0.00129160  0.50093438  -0.00508477  1
  Al0+  Al52  1  0.00093098  0.50198156  0.32595830  1
  Al0+  Al53  1  0.00159232  0.50035062  0.66821215  1
  Al0+  Al54  1  0.49991468  0.00086213  -0.00598847  1
  Al0+  Al55  1  0.50068409  -0.00073474  0.33300655  1
  Al0+  Al56  1  0.49908360  -0.00064174  0.66299183  1
  Al0+  Al57  1  0.50032785  0.50261734  -0.00071506  1
  Al0+  Al58  1  0.50118650  0.50150235  0.33632389  1
  Al0+  Al59  1  0.50119008  0.50170145  0.67220148  1
  Al0+  Al60  1  0.24699582  0.24985391  -0.00260467  1
  Al0+  Al61  1  0.24556011  0.24918940  0.33870471  1
  Al0+  Al62  1  0.25048991  0.24750636  0.66636686  1
  Al0+  Al63  1  0.24951939  0.74736693  -0.00956927  1
  Al0+  Al64  1  0.24962517  0.74829802  0.33173670  1
  Al0+  Al65  1  0.24919909  0.74946818  0.67266865  1
  Al0+  Al66  1  0.75048462  0.25126703  -0.00194860  1
  Al0+  Al67  1  0.75022771  0.25090628  0.33200048  1
  Al0+  Al68  1  0.75103906  0.24938126  0.67286325  1
  Al0+  Al69  1  0.75083520  0.75124130  0.00634596  1
  Al0+  Al70  1  0.75102393  0.75066915  0.33139412  1
  Al0+  Al71  1  0.74986779  0.75092856  0.66827249  1
  Al0+  Al72  1  0.17954594  0.42658850  0.68217257  1
  Al0+  Al73  1  0.06913940  0.68175462  0.32023189  1
  Al0+  Al74  1  0.57046902  0.18096143  0.32009567  1
  Al0+  Al75  1  0.42647781  0.32342766  0.98557288  1
  Al0+  Al76  1  0.67760233  0.93070174  0.01451265  1
  Al0+  Al77  1  0.42962230  0.32220480  0.65251014  1
  Al0+  Al78  1  0.93112276  0.31996348  0.65262228  1
  Al0+  Al79  1  0.18065330  0.92998068  0.68157604  1
  Al0+  Al80  1  0.32456517  0.07352726  0.34810709  1
  Al0+  Al81  1  0.81956566  0.07016140  0.68145800  1
  Al0+  Al82  1  0.57103902  0.18026881  0.98362389  1
  Al0+  Al83  1  0.43038889  0.82033394  0.98500548  1
  Al0+  Al84  1  0.18003934  0.92808716  0.34554874  1
  Al0+  Al85  1  0.43095459  0.81797729  0.32159662  1
  Al0+  Al86  1  0.06976484  0.67973042  0.98168488  1
  Al0+  Al87  1  0.68024893  0.42966680  0.34540147  1
  Al0+  Al88  1  0.93140008  0.31956188  0.32026006  1
  Al0+  Al89  1  0.81868333  0.07024875  0.34685753  1
  Al0+  Al90  1  0.82231411  0.57275189  0.68002872  1
  Al0+  Al91  1  0.17621234  0.42704166  0.34590733  1
  Al0+  Al92  1  0.32121766  0.56909884  0.34540469  1
  Al0+  Al93  1  0.67908979  0.42809780  0.68370874  1
  Al0+  Al94  1  0.42432744  0.32394160  0.32141982  1
  Al0+  Al95  1  0.32119261  0.57038679  0.68405015  1
  Si0+  Si96  1  0.92693632  0.82254323  0.98339364  1
  Si0+  Si97  1  0.57229419  0.17734273  0.64953532  1
  Si0+  Si98  1  0.17938419  0.92655383  0.01451021  1
  Si0+  Si99  1  0.32060862  0.57074264  0.01517061  1
  Si0+  Si100  1  0.31902909  0.07053387  0.01274692  1
  Si0+  Si101  1  0.57546378  0.67825898  0.98334681  1
  Si0+  Si102  1  0.07047189  0.68049958  0.64932418  1
  Si0+  Si103  1  0.67655681  0.92699829  0.68201765  1
  Si0+  Si104  1  0.92599401  0.82547758  0.31586878  1
  Si0+  Si105  1  0.42749735  0.81957059  0.65000116  1
  Si0+  Si106  1  0.82243770  0.07405451  0.01936321  1
  Si0+  Si107  1  0.57264330  0.68025224  0.65226031  1
  Si0+  Si108  1  0.32440700  0.07150089  0.68486138  1
  Si0+  Si109  1  0.67686709  0.92602904  0.35110557  1
  Si0+  Si110  1  0.07107892  0.17263502  0.31719071  1
  Si0+  Si111  1  0.67931377  0.42973595  0.01660600  1
  Si0+  Si112  1  0.92789700  0.82182740  0.65279616  1
  Si0+  Si113  1  0.57627708  0.67723310  0.31637163  1
  Si0+  Si114  1  0.82298291  0.57288305  0.34645037  1
  Si0+  Si115  1  0.17815690  0.42845852  0.01482876  1
  Si0+  Si116  1  0.07035623  0.17646615  0.98592944  1
  Si0+  Si117  1  0.82341977  0.57035765  0.01597120  1
  Si0+  Si118  1  0.07201795  0.17409430  0.65022768  1
  Si0+  Si119  1  0.93020400  0.32054732  0.98437441  1
  O2-  O120  1  0.24971739  -0.00222120  0.05576299  1
  O2-  O121  1  0.24936396  0.00251475  0.39550297  1
  O2-  O122  1  0.25467381  0.00407772  0.73037490  1
  O2-  O123  1  0.25426976  0.49458587  0.05564012  1
  O2-  O124  1  0.25834483  0.48834502  0.39417388  1
  O2-  O125  1  0.25417448  0.49413771  0.73515016  1
  O2-  O126  1  0.75138699  0.00668785  0.06117593  1
  O2-  O127  1  0.74539735  -0.00536478  0.39485408  1
  O2-  O128  1  0.74269683  -0.00255139  0.72720839  1
  O2-  O129  1  0.75110219  0.50100471  0.05821684  1
  O2-  O130  1  0.75243289  0.50751940  0.39080059  1
  O2-  O131  1  0.75270506  0.50002082  0.73283040  1
  O2-  O132  1  0.00828211  0.24713606  0.27243242  1
  O2-  O133  1  0.00792490  0.24696759  0.60626068  1
  O2-  O134  1  -0.00161308  0.24631833  0.94367054  1
  O2-  O135  1  -0.00510894  0.75699718  0.27202507  1
  O2-  O136  1  -0.00361801  0.74952171  0.60885977  1
  O2-  O137  1  -0.00477799  0.75546718  0.93596059  1
  O2-  O138  1  0.49250305  0.24775407  0.27128878  1
  O2-  O139  1  0.50437204  0.24704422  0.60701848  1
  O2-  O140  1  0.50059447  0.25395530  0.93448943  1
  O2-  O141  1  0.50755694  0.74616418  0.27282114  1
  O2-  O142  1  0.49920288  0.74870179  0.60958910  1
  O2-  O143  1  0.50788533  0.74795274  0.93850383  1
  O2-  O144  1  0.07200703  0.17561010  0.09043198  1
  O2-  O145  1  0.06526184  0.16423715  0.42197396  1
  O2-  O146  1  0.06850042  0.17283058  0.75683109  1
  O2-  O147  1  0.07008475  0.67997715  0.09459889  1
  O2-  O148  1  0.06740119  0.68259075  0.43325947  1
  O2-  O149  1  0.06951541  0.68248102  0.75491951  1
  O2-  O150  1  0.57002535  0.18084881  0.09683015  1
  O2-  O151  1  0.57344482  0.18417739  0.43358428  1
  O2-  O152  1  0.57039923  0.17465223  0.75529616  1
  O2-  O153  1  0.57491488  0.67644985  0.08868245  1
  O2-  O154  1  0.58117620  0.68040083  0.42181327  1
  O2-  O155  1  0.57454197  0.68411103  0.75755665  1
  O2-  O156  1  0.17291907  0.43397107  0.23152020  1
  O2-  O157  1  0.17682364  0.43206864  0.56943015  1
  O2-  O158  1  0.17538040  0.42901425  0.90992970  1
  O2-  O159  1  0.18269316  0.92789622  0.23125469  1
  O2-  O160  1  0.18135996  0.92928151  0.56904390  1
  O2-  O161  1  0.17928712  0.92900989  0.90916380  1
  O2-  O162  1  0.68285429  0.43059879  0.23147236  1
  O2-  O163  1  0.68000127  0.42907617  0.57027867  1
  O2-  O164  1  0.68043439  0.43072937  0.91169804  1
  O2-  O165  1  0.67828198  0.92512159  0.24537400  1
  O2-  O166  1  0.67831732  0.92379773  0.57690799  1
  O2-  O167  1  0.68133640  0.93084252  0.90110908  1
  O2-  O168  1  0.42467404  0.32222819  0.09876608  1
  O2-  O169  1  0.42989900  0.32527313  0.43481900  1
  O2-  O170  1  0.43181348  0.31921785  0.76593942  1
  O2-  O171  1  0.42806356  0.81870318  0.09786127  1
  O2-  O172  1  0.43111496  0.81571743  0.43492471  1
  O2-  O173  1  0.42911840  0.82038804  0.75544861  1
  O2-  O174  1  0.93056111  0.32252154  0.08935442  1
  O2-  O175  1  0.93010060  0.31934957  0.43293669  1
  O2-  O176  1  0.93252217  0.31698506  0.76669601  1
  O2-  O177  1  0.92813739  0.82154620  0.08869569  1
  O2-  O178  1  0.92420194  0.82421026  0.42155762  1
  O2-  O179  1  0.92900496  0.82071480  0.75818801  1
  O2-  O180  1  0.32387495  0.06996076  0.23337192  1
  O2-  O181  1  0.32599658  0.06890256  0.57993994  1
  O2-  O182  1  0.31563379  0.07007500  0.90739763  1
  O2-  O183  1  0.31712093  0.57309059  0.23123693  1
  O2-  O184  1  0.31757320  0.57439951  0.57110622  1
  O2-  O185  1  0.31913597  0.57188480  0.91019736  1
  O2-  O186  1  0.81791558  0.06879497  0.23356848  1
  O2-  O187  1  0.82051515  0.06945273  0.56865490  1
  O2-  O188  1  0.82521954  0.07268296  0.91372504  1
  O2-  O189  1  0.82230964  0.57115126  0.24023171  1
  O2-  O190  1  0.81949852  0.57559817  0.56674642  1
  O2-  O191  1  0.82383012  0.56954867  0.91102047  1
  O2-  O192  1  0.03833299  0.08245366  0.26648665  1
  O2-  O193  1  0.04070137  0.08110196  0.60650559  1
  O2-  O194  1  0.04334747  0.08384115  0.93810415  1
  O2-  O195  1  0.03629331  0.58847727  0.26033996  1
  O2-  O196  1  0.04468286  0.58814539  0.60356797  1
  O2-  O197  1  0.03702204  0.58389970  0.92702842  1
  O2-  O198  1  0.54906053  0.07964204  0.26961766  1
  O2-  O199  1  0.54758754  0.08330247  0.60298852  1
  O2-  O200  1  0.54215215  0.08320393  0.92844209  1
  O2-  O201  1  0.55110427  0.58396671  0.27043285  1
  O2-  O202  1  0.54839293  0.58710080  0.60738056  1
  O2-  O203  1  0.54806641  0.58599322  0.93555481  1
  O2-  O204  1  0.16695448  0.19155385  0.27381703  1
  O2-  O205  1  0.16833729  0.19089928  0.60793106  1
  O2-  O206  1  0.16041497  0.20413814  0.93496749  1
  O2-  O207  1  0.16401047  0.71378899  0.26333912  1
  O2-  O208  1  0.16170084  0.71378557  0.60517625  1
  O2-  O209  1  0.16441654  0.71074134  0.92481486  1
  O2-  O210  1  0.66620120  0.21418910  0.26422535  1
  O2-  O211  1  0.66748383  0.20250597  0.60803650  1
  O2-  O212  1  0.67120115  0.20708146  0.93215810  1
  O2-  O213  1  0.66969854  0.70174309  0.26764687  1
  O2-  O214  1  0.66290115  0.71081191  0.60290143  1
  O2-  O215  1  0.67048332  0.70262634  0.93932738  1
  O2-  O216  1  0.08731493  0.46223133  0.06121638  1
  O2-  O217  1  0.08166901  0.46932323  0.39837128  1
  O2-  O218  1  0.08302459  0.46017083  0.73698666  1
  O2-  O219  1  0.08645948  0.95227129  0.06068735  1
  O2-  O220  1  0.08032864  0.95184466  0.39756881  1
  O2-  O221  1  0.08511967  0.95853551  0.73966008  1
  O2-  O222  1  0.58757758  0.45948955  0.06311077  1
  O2-  O223  1  0.58496294  0.45978393  0.40098675  1
  O2-  O224  1  0.58382168  0.46144144  0.73956459  1
  O2-  O225  1  0.57936510  0.96017613  0.06573730  1
  O2-  O226  1  0.58363723  0.94898267  0.39747256  1
  O2-  O227  1  0.58137284  0.95091585  0.72626235  1
  O2-  O228  1  0.19781078  0.33383488  0.06030744  1
  O2-  O229  1  0.18288582  0.32438543  0.39531674  1
  O2-  O230  1  0.20027045  0.32475880  0.73266066  1
  O2-  O231  1  0.20804696  0.83320154  0.05722725  1
  O2-  O232  1  0.21230446  0.83197253  0.39961372  1
  O2-  O233  1  0.21289376  0.83517383  0.73813798  1
  O2-  O234  1  0.70937571  0.33802707  0.06243266  1
  O2-  O235  1  0.71574258  0.33597499  0.39992135  1
  O2-  O236  1  0.70818226  0.33127210  0.73896657  1
  O2-  O237  1  0.70773886  0.83428258  0.07027967  1
  O2-  O238  1  0.70333251  0.83182247  0.39631226  1
  O2-  O239  1  0.70360171  0.83538377  0.73141029  1
  O2-  O240  1  0.45712995  0.42175240  0.26820287  1
  O2-  O241  1  0.45963439  0.42124305  0.60358709  1
  O2-  O242  1  0.45488335  0.42307139  0.93452889  1
  O2-  O243  1  0.46024247  0.91475721  0.26695299  1
  O2-  O244  1  0.45390983  0.91179400  0.60285154  1
  O2-  O245  1  0.45867893  0.91626225  0.92846096  1
  O2-  O246  1  0.96012447  0.41559191  0.26257835  1
  O2-  O247  1  0.95953211  0.41834899  0.60076311  1
  O2-  O248  1  0.96097311  0.41075440  0.93598218  1
  O2-  O249  1  0.95019862  0.91891833  0.26941024  1
  O2-  O250  1  0.95860901  0.91371481  0.60759181  1
  O2-  O251  1  0.95136329  0.91757246  0.93871189  1
  O2-  O252  1  0.32207201  0.30185044  0.27290607  1
  O2-  O253  1  0.33142683  0.29256027  0.60136454  1
  O2-  O254  1  0.32768893  0.29371385  0.93282473  1
  O2-  O255  1  0.33586855  0.78542443  0.26567377  1
  O2-  O256  1  0.33543460  0.78933624  0.60527149  1
  O2-  O257  1  0.33582065  0.78699681  0.92843943  1
  O2-  O258  1  0.83709113  0.28550005  0.26347342  1
  O2-  O259  1  0.83311676  0.28748394  0.60292017  1
  O2-  O260  1  0.83779084  0.29582198  0.93709433  1
  O2-  O261  1  0.83263158  0.79984562  0.26811579  1
  O2-  O262  1  0.83483751  0.79883547  0.60573237  1
  O2-  O263  1  0.83265957  0.79698415  0.93859704  1
  O2-  O264  1  0.41165733  0.04362309  0.05715371  1
  O2-  O265  1  0.42107987  0.04113469  0.40222930  1
  O2-  O266  1  0.41739281  0.04230793  0.73124088  1
  O2-  O267  1  0.41523680  0.55176071  0.06078503  1
  O2-  O268  1  0.42284406  0.55599494  0.39683280  1
  O2-  O269  1  0.42128650  0.55014410  0.73694966  1
  O2-  O270  1  0.91563183  0.04616450  0.06609874  1
  O2-  O271  1  0.91384625  0.03982666  0.40321437  1
  O2-  O272  1  0.91377472  0.03718231  0.73939643  1
  O2-  O273  1  0.91504208  0.53903083  0.06220464  1
  O2-  O274  1  0.91582422  0.54540154  0.39100192  1
  O2-  O275  1  0.92040575  0.54563914  0.73375610  1
  O2-  O276  1  0.28820705  0.16155556  0.05996816  1
  O2-  O277  1  0.29684971  0.17073166  0.40277864  1
  O2-  O278  1  0.29932151  0.16452494  0.73184811  1
  O2-  O279  1  0.28609166  0.66193883  0.06002085  1
  O2-  O280  1  0.28272126  0.66343963  0.39978991  1
  O2-  O281  1  0.28740035  0.66669172  0.73913428  1
  O2-  O282  1  0.79919914  0.16931438  0.06289008  1
  O2-  O283  1  0.78708254  0.16628656  0.40038990  1
  O2-  O284  1  0.79114892  0.16512164  0.73905500  1
  O2-  O285  1  0.80004222  0.66306959  0.06358490  1
  O2-  O286  1  0.80273490  0.66851505  0.39083857  1
  O2-  O287  1  0.79270653  0.67080026  0.73522149  1
