# generated using pymatgen
data_Ca2Al2SiO7
_symmetry_space_group_name_H-M   'P 1'
_cell_length_a   15.46101981
_cell_length_b   15.46325237
_cell_length_c   15.28668684
_cell_angle_alpha   89.98597441
_cell_angle_beta   89.98943059
_cell_angle_gamma   90.01031988
_symmetry_Int_Tables_number   1
_chemical_formula_structural   Ca2Al2SiO7
_chemical_formula_sum   'Ca48 Al48 Si24 O168'
_cell_volume   3654.70495276
_cell_formula_units_Z   24
loop_
 _symmetry_equiv_pos_site_id
 _symmetry_equiv_pos_as_xyz
  1  'x, y, z'
loop_
 _atom_type_symbol
 _atom_type_oxidation_number
  Ca2+  2.0
  Al0+  0.0
  Si0+  0.0
  O2-  -2.0
loop_
 _atom_site_type_symbol
 _atom_site_label
 _atom_site_symmetry_multiplicity
 _atom_site_fract_x
 _atom_site_fract_y
 _atom_site_fract_z
 _atom_site_occupancy
  Ca2+  Ca0  1  0.17059928  0.07723331  0.17519455  1
  Ca2+  Ca1  1  0.17280389  0.08025426  0.50489708  1
  Ca2+  Ca2  1  0.16942433  0.08961536  0.83740898  1
  Ca2+  Ca3  1  0.17336110  0.59396988  0.16976294  1
  Ca2+  Ca4  1  0.16527678  0.58709306  0.50708797  1
  Ca2+  Ca5  1  0.17713904  0.59713828  0.83265499  1
  Ca2+  Ca6  1  0.66982903  0.07152156  0.17810139  1
  Ca2+  Ca7  1  0.67171343  0.07696491  0.49719064  1
  Ca2+  Ca8  1  0.66671276  0.06954171  0.83616982  1
  Ca2+  Ca9  1  0.67734860  0.58514862  0.17139268  1
  Ca2+  Ca10  1  0.68274080  0.58392443  0.50128991  1
  Ca2+  Ca11  1  0.67618280  0.59061667  0.83981118  1
  Ca2+  Ca12  1  0.07642613  0.32600773  0.16547742  1
  Ca2+  Ca13  1  0.07787295  0.32686654  0.49538168  1
  Ca2+  Ca14  1  0.08793567  0.32292184  0.83050690  1
  Ca2+  Ca15  1  0.07169828  0.83570886  0.16893429  1
  Ca2+  Ca16  1  0.08120748  0.82200537  0.49025148  1
  Ca2+  Ca17  1  0.07247766  0.82856488  0.82829746  1
  Ca2+  Ca18  1  0.59415452  0.32607196  0.16974798  1
  Ca2+  Ca19  1  0.58543970  0.32697315  0.48747301  1
  Ca2+  Ca20  1  0.58148033  0.33151998  0.82971494  1
  Ca2+  Ca21  1  0.58182458  0.83382227  0.15668323  1
  Ca2+  Ca22  1  0.57913435  0.84504503  0.49932514  1
  Ca2+  Ca23  1  0.57799135  0.83338289  0.83295869  1
  Ca2+  Ca24  1  0.33201755  0.42354485  0.16775467  1
  Ca2+  Ca25  1  0.33085654  0.42514014  0.50611736  1
  Ca2+  Ca26  1  0.33248847  0.43215029  0.83767886  1
  Ca2+  Ca27  1  0.32620037  0.91667935  0.17559945  1
  Ca2+  Ca28  1  0.32927360  0.92397025  0.50282901  1
  Ca2+  Ca29  1  0.33616709  0.91613592  0.83405746  1
  Ca2+  Ca30  1  0.83285169  0.42705726  0.17742703  1
  Ca2+  Ca31  1  0.83530688  0.42182163  0.49846410  1
  Ca2+  Ca32  1  0.83699901  0.43074464  0.83655626  1
  Ca2+  Ca33  1  0.82652751  0.91449614  0.17487822  1
  Ca2+  Ca34  1  0.82227349  0.90746550  0.49845136  1
  Ca2+  Ca35  1  0.82107355  0.90772421  0.83998401  1
  Ca2+  Ca36  1  0.42297963  0.16034783  0.16845432  1
  Ca2+  Ca37  1  0.42055654  0.15887265  0.49342546  1
  Ca2+  Ca38  1  0.41536020  0.16701599  0.82595672  1
  Ca2+  Ca39  1  0.42601284  0.67384543  0.15373818  1
  Ca2+  Ca40  1  0.41354977  0.67410956  0.49789065  1
  Ca2+  Ca41  1  0.41550802  0.67615112  0.82796939  1
  Ca2+  Ca42  1  0.91290044  0.17021136  0.16431545  1
  Ca2+  Ca43  1  0.91605380  0.17038134  0.49000582  1
  Ca2+  Ca44  1  0.93106884  0.16498419  0.82820490  1
  Ca2+  Ca45  1  0.91062563  0.67547796  0.16435564  1
  Ca2+  Ca46  1  0.92404757  0.66494413  0.49078150  1
  Ca2+  Ca47  1  0.91306828  0.66878429  0.82953257  1
  Al0+  Al48  1  0.00046814  0.00008002  -0.00975866  1
  Al0+  Al49  1  0.00135021  -0.00265964  0.33794823  1
  Al0+  Al50  1  -0.00068823  -0.00046064  0.66027439  1
  Al0+  Al51  1  0.00180818  0.49888312  0.00395859  1
  Al0+  Al52  1  0.00459582  0.49784373  0.32712019  1
  Al0+  Al53  1  -0.00056248  0.49820201  0.66932775  1
  Al0+  Al54  1  0.50000985  0.00081070  -0.00069615  1
  Al0+  Al55  1  0.49963218  0.00134696  0.33387419  1
  Al0+  Al56  1  0.49841600  0.00013339  0.67123154  1
  Al0+  Al57  1  0.50088630  0.49835822  0.00099394  1
  Al0+  Al58  1  0.49916907  0.49970025  0.33571782  1
  Al0+  Al59  1  0.50008082  0.50070163  0.66955833  1
  Al0+  Al60  1  0.25099498  0.25098319  -0.00138272  1
  Al0+  Al61  1  0.25193169  0.25340537  0.33584790  1
  Al0+  Al62  1  0.25061475  0.25045133  0.66541254  1
  Al0+  Al63  1  0.24967997  0.75279726  0.00238236  1
  Al0+  Al64  1  0.25091837  0.75143811  0.33314487  1
  Al0+  Al65  1  0.24959851  0.75264986  0.66226107  1
  Al0+  Al66  1  0.75123516  0.25081671  -0.00619928  1
  Al0+  Al67  1  0.74923233  0.24894667  0.33015533  1
  Al0+  Al68  1  0.74970633  0.24852493  0.66881558  1
  Al0+  Al69  1  0.74855436  0.74961532  0.00082662  1
  Al0+  Al70  1  0.74957699  0.74836601  0.33969425  1
  Al0+  Al71  1  0.74702500  0.74880814  0.67448239  1
  Al0+  Al72  1  0.82114330  0.56843008  0.68129344  1
  Al0+  Al73  1  0.06889242  0.67997323  0.65494510  1
  Al0+  Al74  1  0.92850348  0.81942106  0.98611211  1
  Al0+  Al75  1  0.17813557  0.92723507  0.34942180  1
  Al0+  Al76  1  0.42725224  0.82254016  0.98497345  1
  Al0+  Al77  1  0.67848354  0.92699932  0.34806974  1
  Al0+  Al78  1  0.43052898  0.82122064  0.65058367  1
  Al0+  Al79  1  0.31792176  0.07053151  0.68219150  1
  Al0+  Al80  1  0.56925751  0.17931737  0.31964267  1
  Al0+  Al81  1  0.07236646  0.17860308  0.65024891  1
  Al0+  Al82  1  0.57100740  0.67744798  0.98534092  1
  Al0+  Al83  1  0.82400155  0.57029006  0.34815509  1
  Al0+  Al84  1  0.82103892  0.57012465  0.01499867  1
  Al0+  Al85  1  0.07059804  0.18007509  0.98797860  1
  Al0+  Al86  1  0.32001627  0.07215184  0.34694584  1
  Al0+  Al87  1  0.07346388  0.67765654  0.31656920  1
  Al0+  Al88  1  0.92693061  0.82011821  0.31963707  1
  Al0+  Al89  1  0.32029574  0.57355861  0.67937663  1
  Al0+  Al90  1  0.92920545  0.31880212  0.31933595  1
  Al0+  Al91  1  0.67941609  0.93133694  0.01425086  1
  Al0+  Al92  1  0.67872780  0.42860582  0.34696016  1
  Al0+  Al93  1  0.82287197  0.07164971  0.34559981  1
  Al0+  Al94  1  0.32031586  0.57270736  0.01408832  1
  Al0+  Al95  1  0.67941522  0.93108975  0.68272894  1
  Si0+  Si96  1  0.82357382  0.07405296  0.68448013  1
  Si0+  Si97  1  0.43014214  0.32321563  0.65189705  1
  Si0+  Si98  1  0.17685995  0.93059996  0.01348694  1
  Si0+  Si99  1  0.92337598  0.82060229  0.64986490  1
  Si0+  Si100  1  0.67754596  0.42438755  0.01644118  1
  Si0+  Si101  1  0.67717790  0.42521433  0.68393622  1
  Si0+  Si102  1  0.42684223  0.32539467  0.31535121  1
  Si0+  Si103  1  0.42864385  0.32004949  0.98395692  1
  Si0+  Si104  1  0.56991038  0.67633526  0.32068803  1
  Si0+  Si105  1  0.57175288  0.17898661  0.98330090  1
  Si0+  Si106  1  0.92748220  0.32034431  0.65054608  1
  Si0+  Si107  1  0.17859050  0.42825688  0.68376648  1
  Si0+  Si108  1  0.17607867  0.92833965  0.68458896  1
  Si0+  Si109  1  0.57247344  0.67652343  0.64813057  1
  Si0+  Si110  1  0.18056518  0.42553872  0.01839894  1
  Si0+  Si111  1  0.32099330  0.57143463  0.34785560  1
  Si0+  Si112  1  0.82373078  0.07236022  0.01297694  1
  Si0+  Si113  1  0.43148600  0.82098079  0.31875838  1
  Si0+  Si114  1  0.32043125  0.07312066  0.01477348  1
  Si0+  Si115  1  0.07254973  0.67697585  0.98401337  1
  Si0+  Si116  1  0.56964007  0.17974863  0.65246915  1
  Si0+  Si117  1  0.92780221  0.32398076  0.98126652  1
  Si0+  Si118  1  0.17992413  0.42847277  0.34899874  1
  Si0+  Si119  1  0.07482203  0.17726874  0.31883105  1
  O2-  O120  1  0.25087765  0.00006663  0.05461120  1
  O2-  O121  1  0.24622400  0.00361169  0.39834056  1
  O2-  O122  1  0.24057123  0.00020552  0.73134660  1
  O2-  O123  1  0.24351877  0.50015526  0.06189269  1
  O2-  O124  1  0.24785002  0.50291503  0.39007588  1
  O2-  O125  1  0.24400586  0.50054470  0.72730084  1
  O2-  O126  1  0.75447994  0.00611515  0.05894678  1
  O2-  O127  1  0.75467694  -0.00385517  0.39630936  1
  O2-  O128  1  0.75871548  0.00189851  0.72880734  1
  O2-  O129  1  0.74625447  0.49353680  0.05852557  1
  O2-  O130  1  0.75177445  0.49803952  0.39827100  1
  O2-  O131  1  0.74477431  0.49458856  0.72797006  1
  O2-  O132  1  0.00063796  0.23951519  0.27379018  1
  O2-  O133  1  -0.00643098  0.24959748  0.60573553  1
  O2-  O134  1  -0.00395359  0.25398930  0.93866905  1
  O2-  O135  1  -0.00237581  0.74666430  0.26843109  1
  O2-  O136  1  -0.00670715  0.75269346  0.60737877  1
  O2-  O137  1  0.00029843  0.74129751  0.93946997  1
  O2-  O138  1  0.49513616  0.25553814  0.27230974  1
  O2-  O139  1  0.50260126  0.25430520  0.60994389  1
  O2-  O140  1  0.50132652  0.25085593  0.94106890  1
  O2-  O141  1  0.50341944  0.75114688  0.27738954  1
  O2-  O142  1  0.50399394  0.74518392  0.60315468  1
  O2-  O143  1  0.49620804  0.74713593  0.93546319  1
  O2-  O144  1  0.07159167  0.18120171  0.10076641  1
  O2-  O145  1  0.07763725  0.18410416  0.42416455  1
  O2-  O146  1  0.07326828  0.18249139  0.76383264  1
  O2-  O147  1  0.07420624  0.67986812  0.08914120  1
  O2-  O148  1  0.07466325  0.67768896  0.43044046  1
  O2-  O149  1  0.06917000  0.68320856  0.76833575  1
  O2-  O150  1  0.57144034  0.17896887  0.08800021  1
  O2-  O151  1  0.56696638  0.17971509  0.43310125  1
  O2-  O152  1  0.56789159  0.18195113  0.75822099  1
  O2-  O153  1  0.56968444  0.67935098  0.09953507  1
  O2-  O154  1  0.56506607  0.67286118  0.42563429  1
  O2-  O155  1  0.57154143  0.67627149  0.75366830  1
  O2-  O156  1  0.18331061  0.42315911  0.24416118  1
  O2-  O157  1  0.18032106  0.42736764  0.57804288  1
  O2-  O158  1  0.18480730  0.42028305  0.91291756  1
  O2-  O159  1  0.18126599  0.92779073  0.23491463  1
  O2-  O160  1  0.17973497  0.92867278  0.57952707  1
  O2-  O161  1  0.17606019  0.93142669  0.90835595  1
  O2-  O162  1  0.67892341  0.43140416  0.23327982  1
  O2-  O163  1  0.67686689  0.42249722  0.57896640  1
  O2-  O164  1  0.67811223  0.42079353  0.91049587  1
  O2-  O165  1  0.67566656  0.92854215  0.23451011  1
  O2-  O166  1  0.67901225  0.93419332  0.57002405  1
  O2-  O167  1  0.67856077  0.93388452  0.90095883  1
  O2-  O168  1  0.42534886  0.31848878  0.08870214  1
  O2-  O169  1  0.42657248  0.32835465  0.42097656  1
  O2-  O170  1  0.43081288  0.32248214  0.75746640  1
  O2-  O171  1  0.42727266  0.82319404  0.09893829  1
  O2-  O172  1  0.43065250  0.82001180  0.42397009  1
  O2-  O173  1  0.43088317  0.82073537  0.76349409  1
  O2-  O174  1  0.92647411  0.32267704  0.08649089  1
  O2-  O175  1  0.93268236  0.31974289  0.43272305  1
  O2-  O176  1  0.92880546  0.31971309  0.75637675  1
  O2-  O177  1  0.92985529  0.82286266  0.09853687  1
  O2-  O178  1  0.92652654  0.81606553  0.43323202  1
  O2-  O179  1  0.92415420  0.81959992  0.75607355  1
  O2-  O180  1  0.31993201  0.07001613  0.23262730  1
  O2-  O181  1  0.31928466  0.07044283  0.56975874  1
  O2-  O182  1  0.31912860  0.07629905  0.90960079  1
  O2-  O183  1  0.32208820  0.56989016  0.24268443  1
  O2-  O184  1  0.32035543  0.56975494  0.56614681  1
  O2-  O185  1  0.31827708  0.57142323  0.90086901  1
  O2-  O186  1  0.81870524  0.07263697  0.23156873  1
  O2-  O187  1  0.82006696  0.08000277  0.57964369  1
  O2-  O188  1  0.82169134  0.07194437  0.90711601  1
  O2-  O189  1  0.82027495  0.57081395  0.23462822  1
  O2-  O190  1  0.82285566  0.56636602  0.56874654  1
  O2-  O191  1  0.82072649  0.56783559  0.90146882  1
  O2-  O192  1  0.05809557  0.08040992  0.27770231  1
  O2-  O193  1  0.04721452  0.08040764  0.59741640  1
  O2-  O194  1  0.04227598  0.08588588  0.92787839  1
  O2-  O195  1  0.05567265  0.57709151  0.26422934  1
  O2-  O196  1  0.04268697  0.58026436  0.60431472  1
  O2-  O197  1  0.05443624  0.58006157  0.94146009  1
  O2-  O198  1  0.53494124  0.08446685  0.26295376  1
  O2-  O199  1  0.53662549  0.08979822  0.60670706  1
  O2-  O200  1  0.54093787  0.08893699  0.93462093  1
  O2-  O201  1  0.53821585  0.58663986  0.27116815  1
  O2-  O202  1  0.54793056  0.58176238  0.60398222  1
  O2-  O203  1  0.54857068  0.57617205  0.93466929  1
  O2-  O204  1  0.16624145  0.21090809  0.27160413  1
  O2-  O205  1  0.16787173  0.21399243  0.59700170  1
  O2-  O206  1  0.16688601  0.21387212  0.93304108  1
  O2-  O207  1  0.17135974  0.71148390  0.26386501  1
  O2-  O208  1  0.16471064  0.71041728  0.59949121  1
  O2-  O209  1  0.16455809  0.70857651  0.93797498  1
  O2-  O210  1  0.66416244  0.20951640  0.26235247  1
  O2-  O211  1  0.66339233  0.20360330  0.60724259  1
  O2-  O212  1  0.66324375  0.20572302  0.93352501  1
  O2-  O213  1  0.66388082  0.69998212  0.27704285  1
  O2-  O214  1  0.66664174  0.70358184  0.60450537  1
  O2-  O215  1  0.66720516  0.70978508  0.93118437  1
  O2-  O216  1  0.08478307  0.44396153  0.06193434  1
  O2-  O217  1  0.08802371  0.45290255  0.39668290  1
  O2-  O218  1  0.08422503  0.44787715  0.73019045  1
  O2-  O219  1  0.08603738  0.96270583  0.06006703  1
  O2-  O220  1  0.07949529  0.94766574  0.40356765  1
  O2-  O221  1  0.07941404  0.94944561  0.72696098  1
  O2-  O222  1  0.58284869  0.44486624  0.06173477  1
  O2-  O223  1  0.57932449  0.45466679  0.40012751  1
  O2-  O224  1  0.58310115  0.44951567  0.73035141  1
  O2-  O225  1  0.58241902  0.96367601  0.06710124  1
  O2-  O226  1  0.58217404  0.96220878  0.40079232  1
  O2-  O227  1  0.58507646  0.96719608  0.73755829  1
  O2-  O228  1  0.21409760  0.33546607  0.06754017  1
  O2-  O229  1  0.21119247  0.33976373  0.40096795  1
  O2-  O230  1  0.21053586  0.33703239  0.73108522  1
  O2-  O231  1  0.20266741  0.83956368  0.06270478  1
  O2-  O232  1  0.21360502  0.83115554  0.40339507  1
  O2-  O233  1  0.20642683  0.83650262  0.73093555  1
  O2-  O234  1  0.70489377  0.33014603  0.06134967  1
  O2-  O235  1  0.70531223  0.32957880  0.39819982  1
  O2-  O236  1  0.70227435  0.33173166  0.73212712  1
  O2-  O237  1  0.70821481  0.83428355  0.06611288  1
  O2-  O238  1  0.70163810  0.82897354  0.40415422  1
  O2-  O239  1  0.70536400  0.83349520  0.73742250  1
  O2-  O240  1  0.45285378  0.41843316  0.26765292  1
  O2-  O241  1  0.45532422  0.41574611  0.60439534  1
  O2-  O242  1  0.45550295  0.41187422  0.93596027  1
  O2-  O243  1  0.45678737  0.91304117  0.27145842  1
  O2-  O244  1  0.46352316  0.91855161  0.59890595  1
  O2-  O245  1  0.45725188  0.92102464  0.93207001  1
  O2-  O246  1  0.96568964  0.41187083  0.26209436  1
  O2-  O247  1  0.95602807  0.41286270  0.60460792  1
  O2-  O248  1  0.95719052  0.41683818  0.93523601  1
  O2-  O249  1  0.95604500  0.91960488  0.26750662  1
  O2-  O250  1  0.94464793  0.91550233  0.60537157  1
  O2-  O251  1  0.96069909  0.91382727  0.92777722  1
  O2-  O252  1  0.33325432  0.30032920  0.26859263  1
  O2-  O253  1  0.33863727  0.29552308  0.60464972  1
  O2-  O254  1  0.33882940  0.28993341  0.93393970  1
  O2-  O255  1  0.34033505  0.79144196  0.27137808  1
  O2-  O256  1  0.33430529  0.79117560  0.59583164  1
  O2-  O257  1  0.32746620  0.79686395  0.93305582  1
  O2-  O258  1  0.83286380  0.29150961  0.26347760  1
  O2-  O259  1  0.83230813  0.29710173  0.60647677  1
  O2-  O260  1  0.83443611  0.30077553  0.93268713  1
  O2-  O261  1  0.82684261  0.79200117  0.26832365  1
  O2-  O262  1  0.82919143  0.79300404  0.60719007  1
  O2-  O263  1  0.83244886  0.78800063  0.93218679  1
  O2-  O264  1  0.41343978  0.04780390  0.06013702  1
  O2-  O265  1  0.41664823  0.04043040  0.40035359  1
  O2-  O266  1  0.41351191  0.03913003  0.73775498  1
  O2-  O267  1  0.41638583  0.53789590  0.06709778  1
  O2-  O268  1  0.41065581  0.54121927  0.39747266  1
  O2-  O269  1  0.41622842  0.54095884  0.73415587  1
  O2-  O270  1  0.91833377  0.04766168  0.05611935  1
  O2-  O271  1  0.92313417  0.05291344  0.39768973  1
  O2-  O272  1  0.91987197  0.05133405  0.72642733  1
  O2-  O273  1  0.91912259  0.54186815  0.06742529  1
  O2-  O274  1  0.92416267  0.53983703  0.39572881  1
  O2-  O275  1  0.91659864  0.53604503  0.73773101  1
  O2-  O276  1  0.29173403  0.16424224  0.06275911  1
  O2-  O277  1  0.29871294  0.17301219  0.39842052  1
  O2-  O278  1  0.29063126  0.16948015  0.73499807  1
  O2-  O279  1  0.29130202  0.66960952  0.06882955  1
  O2-  O280  1  0.29538081  0.66370289  0.39448503  1
  O2-  O281  1  0.28849370  0.67028098  0.73233093  1
  O2-  O282  1  0.79967846  0.16825567  0.05526621  1
  O2-  O283  1  0.78916367  0.16786913  0.39980802  1
  O2-  O284  1  0.79501773  0.16584601  0.73419773  1
  O2-  O285  1  0.78729978  0.66547922  0.06825600  1
  O2-  O286  1  0.79344506  0.66592328  0.40453053  1
  O2-  O287  1  0.78964761  0.66406570  0.73680361  1
