# generated using pymatgen
data_Ca2Al2SiO7
_symmetry_space_group_name_H-M   'P 1'
_cell_length_a   15.46782437
_cell_length_b   15.47133711
_cell_length_c   15.29175195
_cell_angle_alpha   89.98747861
_cell_angle_beta   90.00934611
_cell_angle_gamma   90.00518741
_symmetry_Int_Tables_number   1
_chemical_formula_structural   Ca2Al2SiO7
_chemical_formula_sum   'Ca48 Al48 Si24 O168'
_cell_volume   3659.43728035
_cell_formula_units_Z   24
loop_
 _symmetry_equiv_pos_site_id
 _symmetry_equiv_pos_as_xyz
  1  'x, y, z'
loop_
 _atom_type_symbol
 _atom_type_oxidation_number
  Ca2+  2.0
  Al0+  0.0
  Si0+  0.0
  O2-  -2.0
loop_
 _atom_site_type_symbol
 _atom_site_label
 _atom_site_symmetry_multiplicity
 _atom_site_fract_x
 _atom_site_fract_y
 _atom_site_fract_z
 _atom_site_occupancy
  Ca2+  Ca0  1  0.16690394  0.08145256  0.17496794  1
  Ca2+  Ca1  1  0.15314601  0.07913334  0.50158943  1
  Ca2+  Ca2  1  0.17006330  0.08617370  0.83810655  1
  Ca2+  Ca3  1  0.17518745  0.58178705  0.17200470  1
  Ca2+  Ca4  1  0.17206911  0.58279598  0.50723562  1
  Ca2+  Ca5  1  0.16929436  0.57572355  0.83502273  1
  Ca2+  Ca6  1  0.67395856  0.08896237  0.17151485  1
  Ca2+  Ca7  1  0.67147487  0.08973430  0.50707260  1
  Ca2+  Ca8  1  0.67879070  0.09304508  0.83502455  1
  Ca2+  Ca9  1  0.66623079  0.57167987  0.17594785  1
  Ca2+  Ca10  1  0.67119183  0.57325448  0.50382083  1
  Ca2+  Ca11  1  0.67299840  0.57147047  0.83466375  1
  Ca2+  Ca12  1  0.07227431  0.33906559  0.16001797  1
  Ca2+  Ca13  1  0.08185199  0.32543587  0.49281138  1
  Ca2+  Ca14  1  0.08148197  0.33417854  0.82640133  1
  Ca2+  Ca15  1  0.08787240  0.83042365  0.17447593  1
  Ca2+  Ca16  1  0.08005550  0.82268325  0.49073034  1
  Ca2+  Ca17  1  0.08341873  0.82419211  0.82607358  1
  Ca2+  Ca18  1  0.57999923  0.33815369  0.16931750  1
  Ca2+  Ca19  1  0.58579497  0.33109680  0.49122782  1
  Ca2+  Ca20  1  0.58518273  0.33398728  0.82826865  1
  Ca2+  Ca21  1  0.58439799  0.82281035  0.16582003  1
  Ca2+  Ca22  1  0.58059886  0.82282013  0.49200342  1
  Ca2+  Ca23  1  0.57869559  0.83138891  0.82875724  1
  Ca2+  Ca24  1  0.33002083  0.42238339  0.17240892  1
  Ca2+  Ca25  1  0.33172756  0.42457847  0.50363902  1
  Ca2+  Ca26  1  0.31846571  0.42232171  0.83688593  1
  Ca2+  Ca27  1  0.32838220  0.92562642  0.17264474  1
  Ca2+  Ca28  1  0.32613533  0.91735376  0.49923932  1
  Ca2+  Ca29  1  0.33132795  0.92592761  0.84033853  1
  Ca2+  Ca30  1  0.82491576  0.40345851  0.17026044  1
  Ca2+  Ca31  1  0.82498978  0.41331035  0.50345997  1
  Ca2+  Ca32  1  0.82344954  0.41030133  0.83634880  1
  Ca2+  Ca33  1  0.84066537  0.92336132  0.17285898  1
  Ca2+  Ca34  1  0.83784361  0.92148145  0.50320615  1
  Ca2+  Ca35  1  0.83545373  0.93128543  0.83627727  1
  Ca2+  Ca36  1  0.41907092  0.17065117  0.16499549  1
  Ca2+  Ca37  1  0.43073986  0.17809700  0.49141248  1
  Ca2+  Ca38  1  0.42164456  0.16855094  0.82508348  1
  Ca2+  Ca39  1  0.41968517  0.65379529  0.16679471  1
  Ca2+  Ca40  1  0.41910854  0.65824468  0.49131055  1
  Ca2+  Ca41  1  0.40952892  0.66223741  0.83070351  1
  Ca2+  Ca42  1  0.92044463  0.17610863  0.16656833  1
  Ca2+  Ca43  1  0.92243384  0.17206278  0.49528432  1
  Ca2+  Ca44  1  0.91726380  0.16957099  0.82928378  1
  Ca2+  Ca45  1  0.92077161  0.67149973  0.16560794  1
  Ca2+  Ca46  1  0.92619834  0.66501403  0.49326897  1
  Ca2+  Ca47  1  0.92086983  0.66611454  0.82297936  1
  Al0+  Al48  1  -0.00057090  -0.00109895  0.00340665  1
  Al0+  Al49  1  0.00051954  0.00002971  0.33156711  1
  Al0+  Al50  1  -0.00116943  -0.00008306  0.67000355  1
  Al0+  Al51  1  -0.00230899  0.50097166  -0.00399811  1
  Al0+  Al52  1  0.00029369  0.50092264  0.32391537  1
  Al0+  Al53  1  -0.00064009  0.50065005  0.66653805  1
  Al0+  Al54  1  0.50005393  -0.00234056  0.00290795  1
  Al0+  Al55  1  0.50207160  -0.00087774  0.33109095  1
  Al0+  Al56  1  0.49913648  -0.00031938  0.66145114  1
  Al0+  Al57  1  0.50135787  0.49797418  0.00212123  1
  Al0+  Al58  1  0.50129936  0.49869507  0.33399766  1
  Al0+  Al59  1  0.49903521  0.50155799  0.67447975  1
  Al0+  Al60  1  0.25055395  0.25000178  0.00737346  1
  Al0+  Al61  1  0.25353547  0.24972858  0.32847648  1
  Al0+  Al62  1  0.25072484  0.24902105  0.66387930  1
  Al0+  Al63  1  0.25141909  0.75080516  0.00153219  1
  Al0+  Al64  1  0.25025582  0.75339410  0.33780788  1
  Al0+  Al65  1  0.24828810  0.75247859  0.66633634  1
  Al0+  Al66  1  0.75134296  0.24824957  0.00466248  1
  Al0+  Al67  1  0.75128591  0.24827644  0.33216038  1
  Al0+  Al68  1  0.75051362  0.24797313  0.67101886  1
  Al0+  Al69  1  0.74929512  0.74984231  -0.00470542  1
  Al0+  Al70  1  0.74969719  0.75107203  0.32573670  1
  Al0+  Al71  1  0.74665393  0.75183513  0.66996741  1
  Al0+  Al72  1  0.68015010  0.42810207  0.68134319  1
  Al0+  Al73  1  0.17983842  0.93353569  0.34926391  1
  Al0+  Al74  1  0.92846423  0.31976752  0.98331363  1
  Al0+  Al75  1  0.82069260  0.06885857  0.67974910  1
  Al0+  Al76  1  0.82071240  0.06895073  0.01697132  1
  Al0+  Al77  1  0.93014308  0.32173912  0.31959199  1
  Al0+  Al78  1  0.07222818  0.17850177  0.31889749  1
  Al0+  Al79  1  0.31962926  0.57088010  0.01598040  1
  Al0+  Al80  1  0.07439837  0.67843274  0.31715134  1
  Al0+  Al81  1  0.68268414  0.42919896  0.34721563  1
  Al0+  Al82  1  0.32248668  0.07167396  0.01313986  1
  Al0+  Al83  1  0.17804924  0.42555861  0.67809601  1
  Al0+  Al84  1  0.07015380  0.67811821  0.65352642  1
  Al0+  Al85  1  0.92922677  0.82062389  0.31892417  1
  Al0+  Al86  1  0.31961615  0.57359207  0.68146052  1
  Al0+  Al87  1  0.57178336  0.18047463  0.65492990  1
  Al0+  Al88  1  0.57253196  0.17773181  0.31696094  1
  Al0+  Al89  1  0.07196695  0.17880063  0.65471233  1
  Al0+  Al90  1  0.82172172  0.57398536  0.67911056  1
  Al0+  Al91  1  0.68150064  0.42926637  0.01598327  1
  Al0+  Al92  1  0.31917231  0.56921923  0.34707917  1
  Al0+  Al93  1  0.43050295  0.32251405  0.31782470  1
  Al0+  Al94  1  0.56954043  0.67868814  0.32055459  1
  Al0+  Al95  1  0.17534045  0.42895079  0.01575047  1
  Si0+  Si96  1  0.67778887  0.92572388  0.01744708  1
  Si0+  Si97  1  0.81940672  0.06865226  0.34980513  1
  Si0+  Si98  1  0.42760571  0.82235064  0.65096816  1
  Si0+  Si99  1  0.42836305  0.32355966  0.65193103  1
  Si0+  Si100  1  0.43010120  0.82089337  0.98436383  1
  Si0+  Si101  1  0.82157920  0.57524420  0.01665284  1
  Si0+  Si102  1  0.92679856  0.82196116  0.65269636  1
  Si0+  Si103  1  0.57070336  0.67677998  0.98222864  1
  Si0+  Si104  1  0.67811227  0.92606606  0.34845144  1
  Si0+  Si105  1  0.17876668  0.92812415  0.01642473  1
  Si0+  Si106  1  0.82324123  0.57568844  0.34677814  1
  Si0+  Si107  1  0.07279910  0.17711712  0.98426029  1
  Si0+  Si108  1  0.92718391  0.82237273  0.98205521  1
  Si0+  Si109  1  0.32611528  0.07370221  0.35246711  1
  Si0+  Si110  1  0.56943854  0.17705660  0.98515756  1
  Si0+  Si111  1  0.32273933  0.06939940  0.67902603  1
  Si0+  Si112  1  0.42773571  0.82263774  0.31583939  1
  Si0+  Si113  1  0.17853490  0.93082581  0.68248439  1
  Si0+  Si114  1  0.92726470  0.32159059  0.65153820  1
  Si0+  Si115  1  0.07133962  0.68179513  0.98385826  1
  Si0+  Si116  1  0.17497202  0.42664425  0.34824948  1
  Si0+  Si117  1  0.56930009  0.67913697  0.65278944  1
  Si0+  Si118  1  0.42846508  0.32081062  0.98349750  1
  Si0+  Si119  1  0.67401094  0.92830663  0.68317331  1
  O2-  O120  1  0.24324243  0.00142220  0.05862967  1
  O2-  O121  1  0.25250303  0.01032103  0.39739796  1
  O2-  O122  1  0.24860979  0.00286974  0.72398808  1
  O2-  O123  1  0.24809424  0.49963726  0.06623759  1
  O2-  O124  1  0.24196274  0.49695367  0.39305307  1
  O2-  O125  1  0.24704293  0.50093304  0.72851271  1
  O2-  O126  1  0.74672053  -0.00724590  0.06276541  1
  O2-  O127  1  0.74694877  -0.00165710  0.39147841  1
  O2-  O128  1  0.74286712  -0.00329272  0.72689576  1
  O2-  O129  1  0.75603041  0.50470565  0.06158507  1
  O2-  O130  1  0.75938664  0.50298195  0.39161025  1
  O2-  O131  1  0.75406266  0.49872088  0.73106224  1
  O2-  O132  1  0.00848553  0.25688985  0.26846700  1
  O2-  O133  1  0.00092096  0.25713954  0.60909848  1
  O2-  O134  1  0.00702880  0.24747326  0.93828257  1
  O2-  O135  1  -0.00090214  0.74764892  0.26723730  1
  O2-  O136  1  -0.01047479  0.74821214  0.60930460  1
  O2-  O137  1  -0.00223630  0.75083685  0.94088746  1
  O2-  O138  1  0.49902906  0.24722480  0.26649807  1
  O2-  O139  1  0.50201340  0.25936742  0.60893631  1
  O2-  O140  1  0.49768608  0.24693196  0.94186760  1
  O2-  O141  1  0.49341224  0.75133346  0.27165199  1
  O2-  O142  1  0.49515890  0.74738722  0.61051318  1
  O2-  O143  1  0.49865702  0.74799902  0.94081767  1
  O2-  O144  1  0.07023333  0.17459063  0.08928877  1
  O2-  O145  1  0.06561021  0.17711752  0.43274269  1
  O2-  O146  1  0.07173776  0.17596821  0.76793451  1
  O2-  O147  1  0.07231043  0.68552299  0.08845334  1
  O2-  O148  1  0.07377324  0.68064128  0.43083567  1
  O2-  O149  1  0.07248857  0.68445952  0.76717273  1
  O2-  O150  1  0.56781580  0.17554338  0.08973681  1
  O2-  O151  1  0.57306698  0.17860994  0.43085649  1
  O2-  O152  1  0.56817622  0.17766764  0.76852660  1
  O2-  O153  1  0.57197773  0.67901184  0.08709869  1
  O2-  O154  1  0.56946051  0.68119879  0.43404044  1
  O2-  O155  1  0.56992867  0.68266281  0.75809813  1
  O2-  O156  1  0.17626224  0.42866108  0.24281282  1
  O2-  O157  1  0.18158288  0.42362152  0.56477543  1
  O2-  O158  1  0.17702414  0.42938892  0.90188433  1
  O2-  O159  1  0.18289945  0.93420846  0.23585971  1
  O2-  O160  1  0.17846830  0.93057075  0.57790653  1
  O2-  O161  1  0.18080319  0.92643739  0.91021056  1
  O2-  O162  1  0.68288021  0.43066807  0.23417542  1
  O2-  O163  1  0.67994350  0.42891548  0.56793410  1
  O2-  O164  1  0.68051067  0.43020048  0.90277230  1
  O2-  O165  1  0.67824784  0.92517023  0.24344177  1
  O2-  O166  1  0.67289623  0.92617980  0.57783422  1
  O2-  O167  1  0.67688669  0.92543323  0.91164839  1
  O2-  O168  1  0.43044871  0.32172065  0.08805304  1
  O2-  O169  1  0.43342703  0.32295844  0.43191779  1
  O2-  O170  1  0.42613805  0.31894265  0.75788417  1
  O2-  O171  1  0.43176170  0.82360903  0.08870938  1
  O2-  O172  1  0.43055755  0.82439358  0.42181881  1
  O2-  O173  1  0.42943314  0.82649458  0.75636089  1
  O2-  O174  1  0.92758815  0.31639299  0.09586611  1
  O2-  O175  1  0.92719222  0.31847307  0.43345068  1
  O2-  O176  1  0.92529698  0.31726429  0.75724995  1
  O2-  O177  1  0.92501181  0.82215545  0.08650549  1
  O2-  O178  1  0.92919485  0.82082363  0.43281045  1
  O2-  O179  1  0.93068727  0.82426121  0.75870969  1
  O2-  O180  1  0.32846237  0.06802302  0.24683115  1
  O2-  O181  1  0.32616929  0.06476686  0.57485732  1
  O2-  O182  1  0.32425717  0.06821718  0.89914471  1
  O2-  O183  1  0.31940913  0.56761424  0.23421941  1
  O2-  O184  1  0.32108248  0.57375675  0.56810564  1
  O2-  O185  1  0.31610974  0.57232123  0.90249132  1
  O2-  O186  1  0.81830984  0.06693908  0.24464741  1
  O2-  O187  1  0.82129772  0.06631672  0.56685669  1
  O2-  O188  1  0.81965684  0.06776803  0.90350208  1
  O2-  O189  1  0.81833327  0.57963951  0.24127984  1
  O2-  O190  1  0.81762995  0.57715083  0.56572432  1
  O2-  O191  1  0.81816529  0.57854836  0.91110022  1
  O2-  O192  1  0.03722389  0.08336649  0.26433753  1
  O2-  O193  1  0.03658244  0.08229528  0.60255759  1
  O2-  O194  1  0.04549653  0.08252646  0.93903986  1
  O2-  O195  1  0.05092628  0.58080794  0.26164612  1
  O2-  O196  1  0.04604109  0.58041007  0.59901452  1
  O2-  O197  1  0.04509844  0.58997842  0.93645628  1
  O2-  O198  1  0.54797321  0.07750853  0.26514845  1
  O2-  O199  1  0.53965627  0.08448888  0.59992757  1
  O2-  O200  1  0.54344952  0.08378909  0.93874135  1
  O2-  O201  1  0.53905325  0.58350911  0.26543032  1
  O2-  O202  1  0.54386153  0.58607663  0.60750341  1
  O2-  O203  1  0.54287501  0.58517228  0.93509742  1
  O2-  O204  1  0.17538621  0.19216121  0.27179306  1
  O2-  O205  1  0.17001816  0.20182634  0.59954053  1
  O2-  O206  1  0.16928912  0.19862724  0.94162873  1
  O2-  O207  1  0.17066725  0.71605420  0.26520252  1
  O2-  O208  1  0.16460522  0.71616849  0.59978424  1
  O2-  O209  1  0.16234148  0.71419193  0.93663303  1
  O2-  O210  1  0.67005462  0.20683232  0.26461010  1
  O2-  O211  1  0.67002768  0.20613055  0.60249071  1
  O2-  O212  1  0.66165836  0.20719887  0.94041737  1
  O2-  O213  1  0.66313896  0.71229600  0.26275915  1
  O2-  O214  1  0.65970999  0.71083349  0.60485048  1
  O2-  O215  1  0.66148233  0.70706011  0.93319117  1
  O2-  O216  1  0.07620206  0.45922383  0.06530426  1
  O2-  O217  1  0.07940936  0.44942877  0.39149340  1
  O2-  O218  1  0.07861856  0.45037810  0.72998107  1
  O2-  O219  1  0.08386947  0.94782362  0.06118316  1
  O2-  O220  1  0.08237043  0.96267307  0.40304756  1
  O2-  O221  1  0.08748617  0.95665942  0.73217267  1
  O2-  O222  1  0.58497682  0.46076778  0.06848756  1
  O2-  O223  1  0.58727390  0.46250027  0.40085822  1
  O2-  O224  1  0.58272999  0.45751712  0.73608104  1
  O2-  O225  1  0.58441157  0.94990909  0.06378527  1
  O2-  O226  1  0.58516744  0.95036362  0.39572521  1
  O2-  O227  1  0.58029434  0.95426713  0.72949301  1
  O2-  O228  1  0.20091313  0.33017335  0.06815896  1
  O2-  O229  1  0.20170968  0.33182873  0.39144971  1
  O2-  O230  1  0.20963214  0.32813443  0.73358265  1
  O2-  O231  1  0.21077481  0.83775364  0.06409018  1
  O2-  O232  1  0.21285857  0.83855770  0.40555447  1
  O2-  O233  1  0.20936113  0.84095029  0.73178562  1
  O2-  O234  1  0.71143937  0.33275776  0.06907876  1
  O2-  O235  1  0.71300504  0.33170586  0.39998323  1
  O2-  O236  1  0.70754129  0.33010550  0.73615074  1
  O2-  O237  1  0.70276252  0.83089573  0.06117552  1
  O2-  O238  1  0.70768115  0.83490960  0.39653745  1
  O2-  O239  1  0.69789171  0.83570791  0.73223105  1
  O2-  O240  1  0.46424062  0.41779240  0.26273342  1
  O2-  O241  1  0.45012827  0.41966983  0.61013468  1
  O2-  O242  1  0.46008914  0.41132837  0.93545425  1
  O2-  O243  1  0.45708960  0.91421684  0.26796285  1
  O2-  O244  1  0.45844035  0.91111832  0.59960952  1
  O2-  O245  1  0.46093144  0.91138507  0.93402638  1
  O2-  O246  1  0.94711950  0.42140269  0.26415776  1
  O2-  O247  1  0.94444113  0.41725080  0.60765184  1
  O2-  O248  1  0.95214751  0.41914950  0.93053170  1
  O2-  O249  1  0.96192671  0.91684731  0.26452939  1
  O2-  O250  1  0.95868411  0.91302318  0.60591071  1
  O2-  O251  1  0.95733155  0.91413374  0.93509638  1
  O2-  O252  1  0.33190759  0.29819783  0.26344500  1
  O2-  O253  1  0.33810121  0.29287264  0.60290792  1
  O2-  O254  1  0.33534266  0.29333510  0.93812066  1
  O2-  O255  1  0.33311449  0.80177355  0.27191920  1
  O2-  O256  1  0.33450175  0.79946869  0.60465051  1
  O2-  O257  1  0.33738905  0.79580589  0.93627810  1
  O2-  O258  1  0.83569877  0.28311407  0.26550152  1
  O2-  O259  1  0.83600614  0.28882348  0.60523506  1
  O2-  O260  1  0.83234025  0.28258241  0.93107101  1
  O2-  O261  1  0.83107523  0.79736860  0.26254342  1
  O2-  O262  1  0.82953173  0.80529900  0.61078684  1
  O2-  O263  1  0.83485537  0.79697016  0.93339865  1
  O2-  O264  1  0.41628304  0.03455449  0.06845093  1
  O2-  O265  1  0.41820553  0.04107887  0.39856552  1
  O2-  O266  1  0.41241207  0.03668552  0.72888729  1
  O2-  O267  1  0.41933241  0.54254868  0.06483161  1
  O2-  O268  1  0.41578527  0.53679890  0.40032652  1
  O2-  O269  1  0.41753419  0.54807494  0.73670948  1
  O2-  O270  1  0.91706681  0.03723613  0.07041444  1
  O2-  O271  1  0.91050014  0.03827933  0.39618197  1
  O2-  O272  1  0.91465914  0.03476269  0.73796023  1
  O2-  O273  1  0.91708476  0.55459178  0.05878633  1
  O2-  O274  1  0.91986999  0.55453986  0.38785083  1
  O2-  O275  1  0.92179872  0.55263233  0.73098552  1
  O2-  O276  1  0.29824605  0.16778640  0.06917330  1
  O2-  O277  1  0.30850848  0.17024529  0.39446993  1
  O2-  O278  1  0.29876847  0.16208128  0.72568955  1
  O2-  O279  1  0.29462203  0.67107840  0.06721051  1
  O2-  O280  1  0.29513420  0.66863454  0.39882143  1
  O2-  O281  1  0.29200630  0.67335391  0.73351542  1
  O2-  O282  1  0.78729842  0.16316456  0.07178764  1
  O2-  O283  1  0.79137108  0.15964356  0.39757290  1
  O2-  O284  1  0.79037602  0.16365953  0.73696161  1
  O2-  O285  1  0.79385266  0.66901217  0.06186804  1
  O2-  O286  1  0.79321443  0.66804614  0.39301891  1
  O2-  O287  1  0.79016731  0.67133371  0.73505593  1
