# generated using pymatgen
data_Ca2Al2SiO7
_symmetry_space_group_name_H-M   'P 1'
_cell_length_a   15.47062605
_cell_length_b   15.47105266
_cell_length_c   15.29214001
_cell_angle_alpha   90.00037253
_cell_angle_beta   90.00002243
_cell_angle_gamma   89.98790606
_symmetry_Int_Tables_number   1
_chemical_formula_structural   Ca2Al2SiO7
_chemical_formula_sum   'Ca48 Al48 Si24 O168'
_cell_volume   3660.12577003
_cell_formula_units_Z   24
loop_
 _symmetry_equiv_pos_site_id
 _symmetry_equiv_pos_as_xyz
  1  'x, y, z'
loop_
 _atom_type_symbol
 _atom_type_oxidation_number
  Ca2+  2.0
  Al0+  0.0
  Si0+  0.0
  O2-  -2.0
loop_
 _atom_site_type_symbol
 _atom_site_label
 _atom_site_symmetry_multiplicity
 _atom_site_fract_x
 _atom_site_fract_y
 _atom_site_fract_z
 _atom_site_occupancy
  Ca2+  Ca0  1  0.17041489  0.09026565  0.16122065  1
  Ca2+  Ca1  1  0.17007984  0.07680235  0.51683116  1
  Ca2+  Ca2  1  0.17521360  0.08878525  0.83553506  1
  Ca2+  Ca3  1  0.16538072  0.58473722  0.16580161  1
  Ca2+  Ca4  1  0.16573760  0.57472146  0.51254409  1
  Ca2+  Ca5  1  0.15907919  0.57944859  0.83722230  1
  Ca2+  Ca6  1  0.66713115  0.08209193  0.15767575  1
  Ca2+  Ca7  1  0.67634449  0.08392078  0.50856665  1
  Ca2+  Ca8  1  0.67627419  0.08247336  0.84445111  1
  Ca2+  Ca9  1  0.67036901  0.58109185  0.16518105  1
  Ca2+  Ca10  1  0.66358827  0.58159200  0.50910828  1
  Ca2+  Ca11  1  0.66443104  0.57479055  0.83976112  1
  Ca2+  Ca12  1  0.07054869  0.32942053  0.15614862  1
  Ca2+  Ca13  1  0.08210756  0.32714128  0.50162664  1
  Ca2+  Ca14  1  0.07793633  0.32293645  0.83146148  1
  Ca2+  Ca15  1  0.07514040  0.82613279  0.15269956  1
  Ca2+  Ca16  1  0.08906661  0.83059564  0.50491976  1
  Ca2+  Ca17  1  0.08363040  0.82496216  0.82857630  1
  Ca2+  Ca18  1  0.57753372  0.32749033  0.15346901  1
  Ca2+  Ca19  1  0.57890629  0.33773687  0.50365547  1
  Ca2+  Ca20  1  0.57678946  0.33775270  0.83023981  1
  Ca2+  Ca21  1  0.58315752  0.83076918  0.15550632  1
  Ca2+  Ca22  1  0.58133847  0.82389443  0.49945376  1
  Ca2+  Ca23  1  0.57545058  0.83720263  0.82855364  1
  Ca2+  Ca24  1  0.33391311  0.41516570  0.16517958  1
  Ca2+  Ca25  1  0.32768241  0.41784063  0.51355586  1
  Ca2+  Ca26  1  0.32931400  0.40905596  0.83578418  1
  Ca2+  Ca27  1  0.33935308  0.92246153  0.16218907  1
  Ca2+  Ca28  1  0.32851120  0.92294247  0.51366251  1
  Ca2+  Ca29  1  0.33566913  0.92316804  0.83907588  1
  Ca2+  Ca30  1  0.83365018  0.41410982  0.16347559  1
  Ca2+  Ca31  1  0.82755837  0.41563123  0.50793674  1
  Ca2+  Ca32  1  0.82215444  0.42002215  0.84465947  1
  Ca2+  Ca33  1  0.83418901  0.91835234  0.16001046  1
  Ca2+  Ca34  1  0.83169840  0.92440294  0.50952016  1
  Ca2+  Ca35  1  0.83090564  0.92516776  0.84279623  1
  Ca2+  Ca36  1  0.42178417  0.17101931  0.15004034  1
  Ca2+  Ca37  1  0.40811592  0.17250805  0.50523536  1
  Ca2+  Ca38  1  0.41845278  0.17037225  0.83240707  1
  Ca2+  Ca39  1  0.42442487  0.67334233  0.15900739  1
  Ca2+  Ca40  1  0.42751457  0.66876466  0.50251891  1
  Ca2+  Ca41  1  0.42142145  0.68080160  0.82626206  1
  Ca2+  Ca42  1  0.91952834  0.17509495  0.15394439  1
  Ca2+  Ca43  1  0.92019825  0.16953499  0.49911385  1
  Ca2+  Ca44  1  0.92198958  0.15996710  0.82927445  1
  Ca2+  Ca45  1  0.92099271  0.66910885  0.15199162  1
  Ca2+  Ca46  1  0.92336641  0.66421157  0.50178821  1
  Ca2+  Ca47  1  0.92046741  0.66729524  0.83533159  1
  Al0+  Al48  1  0.00144822  -0.00171523  -0.00151844  1
  Al0+  Al49  1  0.00147826  -0.00055412  0.33392641  1
  Al0+  Al50  1  0.00134240  -0.00066428  0.66828944  1
  Al0+  Al51  1  -0.00018050  0.49772630  -0.00172097  1
  Al0+  Al52  1  -0.00077865  0.49972438  0.33171867  1
  Al0+  Al53  1  -0.00101972  0.50002890  0.66684686  1
  Al0+  Al54  1  0.49970646  0.00152558  0.00148539  1
  Al0+  Al55  1  0.50033338  -0.00009206  0.33722347  1
  Al0+  Al56  1  0.50068600  0.00226516  0.66264978  1
  Al0+  Al57  1  0.49735442  0.50068450  0.00229944  1
  Al0+  Al58  1  0.50057417  0.50084131  0.32946447  1
  Al0+  Al59  1  0.49862317  0.49991902  0.66249956  1
  Al0+  Al60  1  0.24866189  0.25077846  0.00068725  1
  Al0+  Al61  1  0.24950401  0.25053030  0.33433399  1
  Al0+  Al62  1  0.24824879  0.25055543  0.66568273  1
  Al0+  Al63  1  0.25181302  0.74894942  -0.00459196  1
  Al0+  Al64  1  0.25224881  0.75021986  0.33481745  1
  Al0+  Al65  1  0.24981959  0.74923730  0.65982741  1
  Al0+  Al66  1  0.74847946  0.24993102  0.00333868  1
  Al0+  Al67  1  0.74889282  0.25077218  0.33113553  1
  Al0+  Al68  1  0.74897995  0.25202056  0.67396178  1
  Al0+  Al69  1  0.75137502  0.74764316  0.00304420  1
  Al0+  Al70  1  0.75092055  0.74871548  0.33172926  1
  Al0+  Al71  1  0.75147520  0.75070180  0.66212936  1
  Al0+  Al72  1  0.82084615  0.07123954  0.67882331  1
  Al0+  Al73  1  0.92645561  0.32056985  0.98378497  1
  Al0+  Al74  1  0.92847850  0.32023334  0.32036711  1
  Al0+  Al75  1  0.42835498  0.32335210  0.98509040  1
  Al0+  Al76  1  0.67848029  0.92879319  0.01312325  1
  Al0+  Al77  1  0.31904649  0.07130894  0.01404602  1
  Al0+  Al78  1  0.06948620  0.17890082  0.65263221  1
  Al0+  Al79  1  0.43113199  0.82173763  0.98764079  1
  Al0+  Al80  1  0.42899368  0.31936360  0.65273130  1
  Al0+  Al81  1  0.67548874  0.42839273  0.01725480  1
  Al0+  Al82  1  0.07218025  0.67812706  0.98530892  1
  Al0+  Al83  1  0.57089840  0.17894976  0.98504761  1
  Al0+  Al84  1  0.17737276  0.42928309  0.68161079  1
  Al0+  Al85  1  0.67736567  0.43180084  0.67974706  1
  Al0+  Al86  1  0.17954891  0.92577461  0.68321309  1
  Al0+  Al87  1  0.42851085  0.82488957  0.65015805  1
  Al0+  Al88  1  0.07013900  0.67728687  0.65203932  1
  Al0+  Al89  1  0.57186326  0.67912827  0.31683869  1
  Al0+  Al90  1  0.07045349  0.17777664  0.98496198  1
  Al0+  Al91  1  0.92665558  0.82082273  0.98430934  1
  Al0+  Al92  1  0.57185403  0.67952269  0.65357523  1
  Al0+  Al93  1  0.82488125  0.07135811  0.01606222  1
  Al0+  Al94  1  0.32208197  0.07167840  0.68288957  1
  Al0+  Al95  1  0.82184361  0.56846188  0.01544234  1
  Si0+  Si96  1  0.18026586  0.92448137  0.01701557  1
  Si0+  Si97  1  0.57249307  0.67769362  0.98447887  1
  Si0+  Si98  1  0.17961042  0.42961629  0.01653926  1
  Si0+  Si99  1  0.07251617  0.17707269  0.31714575  1
  Si0+  Si100  1  0.82184527  0.57134041  0.35016426  1
  Si0+  Si101  1  0.67952066  0.92724974  0.34945033  1
  Si0+  Si102  1  0.57485399  0.17963057  0.64912074  1
  Si0+  Si103  1  0.57052476  0.17820543  0.31957586  1
  Si0+  Si104  1  0.17850554  0.43058464  0.34849103  1
  Si0+  Si105  1  0.92918486  0.82232434  0.64827879  1
  Si0+  Si106  1  0.32219528  0.57064770  0.34901526  1
  Si0+  Si107  1  0.42785072  0.32007791  0.31905314  1
  Si0+  Si108  1  0.82062139  0.07096946  0.34760867  1
  Si0+  Si109  1  0.32136250  0.07157933  0.34879142  1
  Si0+  Si110  1  0.32149996  0.57111632  0.68276967  1
  Si0+  Si111  1  0.93023618  0.82183278  0.31928577  1
  Si0+  Si112  1  0.67860379  0.42947863  0.34932294  1
  Si0+  Si113  1  0.32019527  0.57351549  0.01567850  1
  Si0+  Si114  1  0.17902010  0.92845876  0.34797405  1
  Si0+  Si115  1  0.67866210  0.92721902  0.68013969  1
  Si0+  Si116  1  0.42913637  0.82253812  0.31573066  1
  Si0+  Si117  1  0.07175904  0.67925328  0.31957309  1
  Si0+  Si118  1  0.82233327  0.57394053  0.68252452  1
  Si0+  Si119  1  0.92609440  0.32135911  0.65110283  1
  O2-  O120  1  0.24516691  -0.00370633  0.06311261  1
  O2-  O121  1  0.24893327  0.00126074  0.38915045  1
  O2-  O122  1  0.25406606  -0.00451190  0.73179835  1
  O2-  O123  1  0.24975334  0.50190376  0.05914265  1
  O2-  O124  1  0.25056323  0.50023790  0.39171293  1
  O2-  O125  1  0.25047007  0.50572785  0.72780502  1
  O2-  O126  1  0.75240727  -0.00157296  0.06566736  1
  O2-  O127  1  0.75055155  -0.00095420  0.39093485  1
  O2-  O128  1  0.74528963  -0.00273117  0.72313917  1
  O2-  O129  1  0.74994528  0.49770213  0.06854178  1
  O2-  O130  1  0.74987971  0.50071894  0.39177276  1
  O2-  O131  1  0.75041034  0.50827210  0.72427464  1
  O2-  O132  1  0.00316886  0.24512266  0.27467328  1
  O2-  O133  1  -0.00612448  0.25257148  0.60494418  1
  O2-  O134  1  -0.00857483  0.24188450  0.93526897  1
  O2-  O135  1  0.00215786  0.75113506  0.27817879  1
  O2-  O136  1  -0.00265611  0.75297223  0.60286549  1
  O2-  O137  1  0.00074818  0.75037758  0.93611884  1
  O2-  O138  1  0.49596907  0.24635068  0.27856031  1
  O2-  O139  1  0.50322891  0.24505984  0.60335852  1
  O2-  O140  1  0.50350020  0.25523991  0.93585059  1
  O2-  O141  1  0.49919683  0.75600309  0.27099443  1
  O2-  O142  1  0.50196620  0.75300509  0.60157988  1
  O2-  O143  1  0.50932380  0.75126611  0.94146130  1
  O2-  O144  1  0.07288403  0.18374996  0.09979795  1
  O2-  O145  1  0.07333427  0.17672099  0.42266391  1
  O2-  O146  1  0.06948386  0.18021945  0.76448216  1
  O2-  O147  1  0.07316646  0.68045217  0.10044381  1
  O2-  O148  1  0.07077718  0.67792486  0.42444354  1
  O2-  O149  1  0.06685898  0.67553498  0.76384290  1
  O2-  O150  1  0.56551829  0.17847468  0.10013447  1
  O2-  O151  1  0.57286665  0.17948005  0.42464559  1
  O2-  O152  1  0.57700352  0.18085649  0.75354189  1
  O2-  O153  1  0.56837790  0.67744168  0.09078273  1
  O2-  O154  1  0.57008026  0.67905238  0.42965002  1
  O2-  O155  1  0.57050857  0.68011088  0.76647581  1
  O2-  O156  1  0.17947560  0.43103684  0.24358834  1
  O2-  O157  1  0.17907641  0.43037945  0.56705270  1
  O2-  O158  1  0.18049384  0.42977158  0.91197791  1
  O2-  O159  1  0.17762822  0.92588149  0.24341954  1
  O2-  O160  1  0.17968505  0.92959901  0.56783769  1
  O2-  O161  1  0.18446452  0.91982927  0.91250458  1
  O2-  O162  1  0.67760707  0.42925867  0.24512146  1
  O2-  O163  1  0.68011193  0.43139786  0.56527063  1
  O2-  O164  1  0.67190347  0.43459765  0.90405258  1
  O2-  O165  1  0.67799214  0.92681434  0.24515406  1
  O2-  O166  1  0.68230776  0.92763632  0.57334871  1
  O2-  O167  1  0.67766375  0.93063809  0.89975795  1
  O2-  O168  1  0.42716074  0.32060978  0.10020269  1
  O2-  O169  1  0.42613584  0.32079081  0.42399490  1
  O2-  O170  1  0.42973886  0.32069873  0.76447991  1
  O2-  O171  1  0.43051234  0.81792219  0.10161055  1
  O2-  O172  1  0.42878508  0.82197569  0.42081200  1
  O2-  O173  1  0.43054889  0.82383197  0.76343458  1
  O2-  O174  1  0.93271084  0.32163561  0.09828632  1
  O2-  O175  1  0.92827372  0.31886030  0.43367017  1
  O2-  O176  1  0.92663417  0.32146513  0.75562868  1
  O2-  O177  1  0.93047688  0.81861340  0.09943470  1
  O2-  O178  1  0.93064196  0.82313083  0.42431804  1
  O2-  O179  1  0.92675938  0.82103274  0.75274885  1
  O2-  O180  1  0.32227240  0.07263863  0.24403656  1
  O2-  O181  1  0.31779939  0.07206915  0.56762238  1
  O2-  O182  1  0.31897624  0.07192157  0.90216416  1
  O2-  O183  1  0.32044399  0.57096514  0.24394072  1
  O2-  O184  1  0.32059480  0.56703616  0.57601397  1
  O2-  O185  1  0.32060943  0.57517654  0.91139905  1
  O2-  O186  1  0.82138386  0.07004404  0.24352607  1
  O2-  O187  1  0.81914108  0.07048210  0.56399784  1
  O2-  O188  1  0.82346658  0.06874399  0.90282106  1
  O2-  O189  1  0.82413239  0.57228027  0.24599780  1
  O2-  O190  1  0.82354418  0.57160016  0.57581015  1
  O2-  O191  1  0.82089380  0.56802839  0.90211355  1
  O2-  O192  1  0.04909118  0.08259646  0.27216146  1
  O2-  O193  1  0.03938775  0.08200667  0.59732362  1
  O2-  O194  1  0.05424488  0.07625905  0.93624708  1
  O2-  O195  1  0.04379377  0.58783268  0.27203463  1
  O2-  O196  1  0.03632522  0.58168204  0.59491255  1
  O2-  O197  1  0.04447248  0.57976849  0.93488346  1
  O2-  O198  1  0.54498940  0.08467705  0.27477487  1
  O2-  O199  1  0.55408885  0.08541570  0.60143890  1
  O2-  O200  1  0.53860772  0.08282287  0.93253612  1
  O2-  O201  1  0.53831940  0.58341807  0.26270051  1
  O2-  O202  1  0.53892718  0.58366264  0.59641035  1
  O2-  O203  1  0.53926093  0.58686283  0.93932048  1
  O2-  O204  1  0.16652996  0.20419369  0.27208018  1
  O2-  O205  1  0.16391132  0.21314025  0.59563749  1
  O2-  O206  1  0.16562821  0.21516887  0.93324030  1
  O2-  O207  1  0.16534692  0.70502985  0.27441475  1
  O2-  O208  1  0.16646297  0.70397213  0.59445224  1
  O2-  O209  1  0.17027745  0.70401473  0.93260824  1
  O2-  O210  1  0.66065840  0.20811718  0.27117430  1
  O2-  O211  1  0.66690980  0.21075138  0.60099219  1
  O2-  O212  1  0.67168889  0.19952378  0.93702694  1
  O2-  O213  1  0.66996854  0.70737773  0.26504013  1
  O2-  O214  1  0.67063351  0.70547937  0.59730909  1
  O2-  O215  1  0.66822150  0.69494960  0.94259280  1
  O2-  O216  1  0.08885264  0.45827568  0.06564341  1
  O2-  O217  1  0.08717637  0.45997525  0.39604697  1
  O2-  O218  1  0.08057336  0.45951623  0.73382948  1
  O2-  O219  1  0.08556001  0.94706500  0.06218012  1
  O2-  O220  1  0.08684952  0.95445601  0.39668335  1
  O2-  O221  1  0.08086991  0.95288824  0.73313234  1
  O2-  O222  1  0.57717508  0.45958812  0.07175386  1
  O2-  O223  1  0.58575312  0.45813624  0.39534791  1
  O2-  O224  1  0.58006010  0.46158655  0.73122766  1
  O2-  O225  1  0.58216735  0.96024960  0.07042954  1
  O2-  O226  1  0.58762822  0.95496713  0.39784310  1
  O2-  O227  1  0.58379949  0.95029131  0.72216924  1
  O2-  O228  1  0.20972592  0.34019034  0.06746951  1
  O2-  O229  1  0.20512040  0.33747902  0.39508070  1
  O2-  O230  1  0.21000230  0.33407357  0.73405168  1
  O2-  O231  1  0.21017755  0.83233485  0.06578112  1
  O2-  O232  1  0.20785086  0.83663779  0.39615356  1
  O2-  O233  1  0.20252033  0.82405374  0.72994151  1
  O2-  O234  1  0.69982250  0.32928188  0.07056748  1
  O2-  O235  1  0.70630752  0.33714493  0.39660038  1
  O2-  O236  1  0.70677223  0.33666435  0.73484378  1
  O2-  O237  1  0.70454074  0.82971222  0.06719983  1
  O2-  O238  1  0.70945532  0.83578876  0.39695412  1
  O2-  O239  1  0.70469094  0.83375039  0.72480982  1
  O2-  O240  1  0.45659073  0.41134757  0.27178924  1
  O2-  O241  1  0.45972981  0.41501470  0.59516473  1
  O2-  O242  1  0.45039807  0.42382064  0.93477377  1
  O2-  O243  1  0.45341070  0.91803172  0.27264279  1
  O2-  O244  1  0.45622263  0.92293687  0.59437551  1
  O2-  O245  1  0.45799027  0.91856695  0.93536241  1
  O2-  O246  1  0.96046660  0.41680994  0.26693417  1
  O2-  O247  1  0.95241893  0.41459988  0.60386890  1
  O2-  O248  1  0.96179553  0.41561235  0.93076221  1
  O2-  O249  1  0.95816253  0.91357759  0.27161206  1
  O2-  O250  1  0.95664443  0.91464894  0.60001688  1
  O2-  O251  1  0.95239583  0.91954167  0.93377313  1
  O2-  O252  1  0.33440316  0.29587252  0.27237148  1
  O2-  O253  1  0.33305031  0.28859662  0.59589013  1
  O2-  O254  1  0.33057692  0.29264896  0.93520605  1
  O2-  O255  1  0.33549063  0.79474461  0.27034762  1
  O2-  O256  1  0.33161812  0.79442907  0.59465504  1
  O2-  O257  1  0.33742703  0.78707482  0.93293076  1
  O2-  O258  1  0.83167710  0.29079813  0.26672805  1
  O2-  O259  1  0.83229829  0.29513161  0.60462263  1
  O2-  O260  1  0.82405766  0.30379147  0.93821033  1
  O2-  O261  1  0.83867790  0.79391310  0.27292744  1
  O2-  O262  1  0.83638447  0.79709387  0.59861027  1
  O2-  O263  1  0.82887253  0.79110321  0.93234351  1
  O2-  O264  1  0.41419240  0.03921138  0.07085093  1
  O2-  O265  1  0.41296601  0.04454356  0.39751793  1
  O2-  O266  1  0.42427270  0.05041394  0.72975262  1
  O2-  O267  1  0.41034877  0.54536376  0.06689288  1
  O2-  O268  1  0.41384908  0.54066747  0.39543867  1
  O2-  O269  1  0.41390795  0.54341198  0.72770158  1
  O2-  O270  1  0.92364399  0.04262378  0.07053649  1
  O2-  O271  1  0.91362081  0.04372618  0.39455391  1
  O2-  O272  1  0.91635274  0.03949015  0.73106159  1
  O2-  O273  1  0.92083642  0.53944940  0.06942064  1
  O2-  O274  1  0.91394109  0.54234745  0.39802078  1
  O2-  O275  1  0.91434721  0.54613439  0.72830253  1
  O2-  O276  1  0.28608035  0.16719247  0.07087946  1
  O2-  O277  1  0.29470815  0.16471093  0.39543300  1
  O2-  O278  1  0.28916749  0.16889869  0.73285328  1
  O2-  O279  1  0.29091299  0.66366166  0.06685664  1
  O2-  O280  1  0.29634660  0.66327071  0.39611739  1
  O2-  O281  1  0.29954749  0.66668160  0.72377232  1
  O2-  O282  1  0.79516635  0.16895040  0.07043521  1
  O2-  O283  1  0.78982150  0.16222759  0.39505806  1
  O2-  O284  1  0.79247600  0.16704044  0.73308602  1
  O2-  O285  1  0.79532128  0.66669837  0.07080980  1
  O2-  O286  1  0.79520940  0.66373583  0.39789949  1
  O2-  O287  1  0.80096251  0.66948355  0.72505472  1
