# generated using pymatgen
data_Ca2Al2SiO7
_symmetry_space_group_name_H-M   'P 1'
_cell_length_a   15.45938856
_cell_length_b   15.45962718
_cell_length_c   15.28510376
_cell_angle_alpha   90.00304650
_cell_angle_beta   90.00996082
_cell_angle_gamma   89.99419561
_symmetry_Int_Tables_number   1
_chemical_formula_structural   Ca2Al2SiO7
_chemical_formula_sum   'Ca48 Al48 Si24 O168'
_cell_volume   3653.08444172
_cell_formula_units_Z   24
loop_
 _symmetry_equiv_pos_site_id
 _symmetry_equiv_pos_as_xyz
  1  'x, y, z'
loop_
 _atom_type_symbol
 _atom_type_oxidation_number
  Ca2+  2.0
  Al0+  0.0
  Si0+  0.0
  O2-  -2.0
loop_
 _atom_site_type_symbol
 _atom_site_label
 _atom_site_symmetry_multiplicity
 _atom_site_fract_x
 _atom_site_fract_y
 _atom_site_fract_z
 _atom_site_occupancy
  Ca2+  Ca0  1  0.16819354  0.07982467  0.16478392  1
  Ca2+  Ca1  1  0.17159350  0.08222392  0.51546525  1
  Ca2+  Ca2  1  0.16886364  0.07854994  0.83857841  1
  Ca2+  Ca3  1  0.15726362  0.57689068  0.16360277  1
  Ca2+  Ca4  1  0.17447737  0.58372429  0.51028484  1
  Ca2+  Ca5  1  0.16576069  0.58676995  0.83934420  1
  Ca2+  Ca6  1  0.65924592  0.07639404  0.16767531  1
  Ca2+  Ca7  1  0.66356548  0.08055777  0.50029271  1
  Ca2+  Ca8  1  0.66855330  0.07693644  0.84387184  1
  Ca2+  Ca9  1  0.67298868  0.58346388  0.16184062  1
  Ca2+  Ca10  1  0.66821012  0.57429850  0.51217872  1
  Ca2+  Ca11  1  0.66946516  0.57493491  0.84122846  1
  Ca2+  Ca12  1  0.07410107  0.33661099  0.15688072  1
  Ca2+  Ca13  1  0.07493632  0.33076439  0.49811658  1
  Ca2+  Ca14  1  0.07304191  0.33570523  0.82929055  1
  Ca2+  Ca15  1  0.07734856  0.82663776  0.15189452  1
  Ca2+  Ca16  1  0.08412409  0.83395748  0.50439980  1
  Ca2+  Ca17  1  0.07910915  0.83241423  0.82587194  1
  Ca2+  Ca18  1  0.58225948  0.32216346  0.15856576  1
  Ca2+  Ca19  1  0.57774156  0.32856982  0.49245812  1
  Ca2+  Ca20  1  0.59073316  0.32992708  0.83062702  1
  Ca2+  Ca21  1  0.58772148  0.83227227  0.15541265  1
  Ca2+  Ca22  1  0.58562795  0.82760051  0.49805643  1
  Ca2+  Ca23  1  0.58888335  0.82026370  0.83224805  1
  Ca2+  Ca24  1  0.32890906  0.41280169  0.16656977  1
  Ca2+  Ca25  1  0.33676233  0.42057794  0.50839304  1
  Ca2+  Ca26  1  0.32465091  0.42323301  0.83790684  1
  Ca2+  Ca27  1  0.33114825  0.92108521  0.16313250  1
  Ca2+  Ca28  1  0.32599554  0.92619500  0.51364789  1
  Ca2+  Ca29  1  0.32123395  0.92571627  0.83846328  1
  Ca2+  Ca30  1  0.83547682  0.41839194  0.16413550  1
  Ca2+  Ca31  1  0.82887690  0.41027313  0.50597157  1
  Ca2+  Ca32  1  0.82837461  0.41793922  0.84246796  1
  Ca2+  Ca33  1  0.82201700  0.91002858  0.16716271  1
  Ca2+  Ca34  1  0.82973530  0.91568298  0.50442093  1
  Ca2+  Ca35  1  0.83301328  0.91149493  0.84114366  1
  Ca2+  Ca36  1  0.42507013  0.16507664  0.16132544  1
  Ca2+  Ca37  1  0.41932469  0.17096437  0.49292545  1
  Ca2+  Ca38  1  0.41691045  0.16063501  0.83429717  1
  Ca2+  Ca39  1  0.42692650  0.67047654  0.15792815  1
  Ca2+  Ca40  1  0.42109777  0.66265042  0.50241152  1
  Ca2+  Ca41  1  0.42706305  0.65974740  0.82773780  1
  Ca2+  Ca42  1  0.91127020  0.18022246  0.16117337  1
  Ca2+  Ca43  1  0.92045782  0.17613410  0.50113767  1
  Ca2+  Ca44  1  0.91992461  0.17874992  0.82632737  1
  Ca2+  Ca45  1  0.91882556  0.67072701  0.15173060  1
  Ca2+  Ca46  1  0.92193493  0.67085634  0.50464064  1
  Ca2+  Ca47  1  0.92417008  0.67369709  0.83320941  1
  Al0+  Al48  1  -0.00028076  0.00237450  0.00349864  1
  Al0+  Al49  1  -0.00210851  -0.00102070  0.33419390  1
  Al0+  Al50  1  -0.00185655  0.00173104  0.66125733  1
  Al0+  Al51  1  -0.00036165  0.50141770  -0.00074376  1
  Al0+  Al52  1  0.00055588  0.50061403  0.33363587  1
  Al0+  Al53  1  -0.00183880  0.50287740  0.65703558  1
  Al0+  Al54  1  0.50015549  0.00075659  0.00213624  1
  Al0+  Al55  1  0.49824719  -0.00241807  0.33663385  1
  Al0+  Al56  1  0.50024578  -0.00166821  0.67023200  1
  Al0+  Al57  1  0.49948767  0.49792793  0.00152619  1
  Al0+  Al58  1  0.49996208  0.50073663  0.32869543  1
  Al0+  Al59  1  0.50108280  0.49812664  0.67035126  1
  Al0+  Al60  1  0.25163837  0.25166483  0.00881371  1
  Al0+  Al61  1  0.24827073  0.25008524  0.33157462  1
  Al0+  Al62  1  0.25159517  0.25195154  0.66765858  1
  Al0+  Al63  1  0.25198695  0.75140851  0.00243886  1
  Al0+  Al64  1  0.25096803  0.74868315  0.33339813  1
  Al0+  Al65  1  0.25239239  0.75114442  0.67104123  1
  Al0+  Al66  1  0.74785324  0.24932505  -0.00450808  1
  Al0+  Al67  1  0.75072718  0.24880354  0.32663634  1
  Al0+  Al68  1  0.74819612  0.24745653  0.66523853  1
  Al0+  Al69  1  0.75004872  0.74845920  -0.00054470  1
  Al0+  Al70  1  0.75117372  0.74899335  0.33989466  1
  Al0+  Al71  1  0.75011536  0.74760650  0.65774917  1
  Al0+  Al72  1  0.68073459  0.42720451  0.67873019  1
  Al0+  Al73  1  0.07260791  0.18112635  0.65403066  1
  Al0+  Al74  1  0.93070414  0.32127427  0.31736332  1
  Al0+  Al75  1  0.56920374  0.17708256  0.31808343  1
  Al0+  Al76  1  0.82016237  0.56948935  0.01307457  1
  Al0+  Al77  1  0.42702235  0.32338226  0.31751252  1
  Al0+  Al78  1  0.67821322  0.92851848  0.34932326  1
  Al0+  Al79  1  0.56990150  0.67673309  0.65230647  1
  Al0+  Al80  1  0.92844160  0.82277239  0.64965738  1
  Al0+  Al81  1  0.68189435  0.92894779  0.01053800  1
  Al0+  Al82  1  0.17640440  0.92825558  0.01661305  1
  Al0+  Al83  1  0.32109699  0.07137486  0.01804467  1
  Al0+  Al84  1  0.67742611  0.42595544  0.01696934  1
  Al0+  Al85  1  0.92620513  0.32232382  0.65150203  1
  Al0+  Al86  1  0.17907946  0.43197492  0.01245825  1
  Al0+  Al87  1  0.57028478  0.67808289  0.98670836  1
  Al0+  Al88  1  0.32290579  0.07481427  0.68224661  1
  Al0+  Al89  1  0.92878493  0.82346022  0.98728856  1
  Al0+  Al90  1  0.17647995  0.93067513  0.68151675  1
  Al0+  Al91  1  0.07285416  0.67949777  0.98598660  1
  Al0+  Al92  1  0.32126624  0.57088964  0.68031788  1
  Al0+  Al93  1  0.92928516  0.32083982  0.98568619  1
  Al0+  Al94  1  0.56902399  0.17880212  0.98388148  1
  Al0+  Al95  1  0.07504514  0.68027993  0.65068198  1
  Si0+  Si96  1  0.67951937  0.42902935  0.34663107  1
  Si0+  Si97  1  0.17821286  0.42959728  0.34950446  1
  Si0+  Si98  1  0.32402167  0.57330365  0.01819978  1
  Si0+  Si99  1  0.82192003  0.07321037  0.35145789  1
  Si0+  Si100  1  0.07182531  0.17594968  0.31581620  1
  Si0+  Si101  1  0.82236793  0.07411160  0.01587185  1
  Si0+  Si102  1  0.32178121  0.57085434  0.34801764  1
  Si0+  Si103  1  0.82234871  0.57291624  0.68238286  1
  Si0+  Si104  1  0.57279295  0.67965077  0.31821927  1
  Si0+  Si105  1  0.07230930  0.68133264  0.31822750  1
  Si0+  Si106  1  0.31872816  0.07026896  0.34953823  1
  Si0+  Si107  1  0.42855266  0.82315268  0.98254880  1
  Si0+  Si108  1  0.92808223  0.82011894  0.31800530  1
  Si0+  Si109  1  0.07446653  0.17947302  0.98577939  1
  Si0+  Si110  1  0.67998079  0.92670048  0.68150690  1
  Si0+  Si111  1  0.81907735  0.07049382  0.68066154  1
  Si0+  Si112  1  0.43063092  0.82214138  0.65052750  1
  Si0+  Si113  1  0.17598006  0.42978678  0.68063115  1
  Si0+  Si114  1  0.42632782  0.32162407  0.98136502  1
  Si0+  Si115  1  0.43082490  0.32048739  0.65438021  1
  Si0+  Si116  1  0.17829950  0.92741495  0.34863754  1
  Si0+  Si117  1  0.57042632  0.17561248  0.65183108  1
  Si0+  Si118  1  0.42831713  0.81896007  0.31955708  1
  Si0+  Si119  1  0.82241193  0.57062759  0.35121388  1
  O2-  O120  1  0.24789285  0.00025795  0.06828659  1
  O2-  O121  1  0.24443765  0.00259860  0.39165753  1
  O2-  O122  1  0.24650862  0.00596801  0.72904829  1
  O2-  O123  1  0.25181395  0.50811951  0.06216981  1
  O2-  O124  1  0.25431113  0.49616189  0.39037707  1
  O2-  O125  1  0.23997222  0.50280151  0.72491488  1
  O2-  O126  1  0.75744358  0.00142622  0.05974683  1
  O2-  O127  1  0.75179299  0.00498279  0.39541204  1
  O2-  O128  1  0.75239388  -0.00429997  0.72328879  1
  O2-  O129  1  0.74971386  0.49763413  0.06695940  1
  O2-  O130  1  0.75082575  0.49877006  0.39143166  1
  O2-  O131  1  0.75806132  0.49933758  0.72415748  1
  O2-  O132  1  0.00432375  0.24522772  0.27122219  1
  O2-  O133  1  0.00244847  0.25415951  0.60210941  1
  O2-  O134  1  0.00430943  0.24584086  0.94096151  1
  O2-  O135  1  0.00163158  0.75226772  0.27628949  1
  O2-  O136  1  0.00393016  0.75334041  0.59972907  1
  O2-  O137  1  0.00651847  0.75749825  0.93800001  1
  O2-  O138  1  0.49836536  0.25052933  0.26834095  1
  O2-  O139  1  0.49761692  0.24552899  0.61140268  1
  O2-  O140  1  0.49642312  0.25506255  0.93626383  1
  O2-  O141  1  0.50345296  0.75255213  0.27669234  1
  O2-  O142  1  0.49692888  0.75226507  0.60343571  1
  O2-  O143  1  0.49367694  0.75059117  0.93929892  1
  O2-  O144  1  0.07290337  0.18149165  0.09195217  1
  O2-  O145  1  0.07278276  0.17711974  0.42130510  1
  O2-  O146  1  0.07003279  0.18234821  0.76734649  1
  O2-  O147  1  0.06877797  0.67881234  0.10074675  1
  O2-  O148  1  0.07472031  0.68255824  0.42298308  1
  O2-  O149  1  0.07341646  0.67947063  0.76330707  1
  O2-  O150  1  0.56741562  0.17722157  0.09696771  1
  O2-  O151  1  0.56710758  0.17830650  0.43261142  1
  O2-  O152  1  0.57251375  0.17491670  0.75637194  1
  O2-  O153  1  0.56953332  0.68177843  0.10079286  1
  O2-  O154  1  0.57030880  0.67763361  0.42333489  1
  O2-  O155  1  0.57004002  0.67750970  0.76480687  1
  O2-  O156  1  0.17539995  0.43283401  0.24467563  1
  O2-  O157  1  0.18107101  0.42855689  0.57440097  1
  O2-  O158  1  0.18068614  0.43145290  0.89945911  1
  O2-  O159  1  0.18055797  0.92576115  0.24409852  1
  O2-  O160  1  0.18127764  0.93172690  0.56656922  1
  O2-  O161  1  0.17656002  0.92983007  0.90362851  1
  O2-  O162  1  0.67969973  0.43174421  0.24229406  1
  O2-  O163  1  0.67900722  0.42774784  0.56441317  1
  O2-  O164  1  0.67932968  0.42722622  0.90328591  1
  O2-  O165  1  0.68004398  0.92501560  0.23664260  1
  O2-  O166  1  0.67858344  0.92965666  0.57596089  1
  O2-  O167  1  0.68228328  0.92940884  0.89724861  1
  O2-  O168  1  0.42691796  0.32029533  0.08712484  1
  O2-  O169  1  0.42920051  0.32391938  0.43194957  1
  O2-  O170  1  0.43184207  0.32265149  0.75879667  1
  O2-  O171  1  0.43065719  0.82191594  0.08930006  1
  O2-  O172  1  0.42620168  0.81606292  0.42448532  1
  O2-  O173  1  0.43471079  0.82373313  0.75539155  1
  O2-  O174  1  0.93130194  0.31969567  0.09925396  1
  O2-  O175  1  0.93181020  0.32084127  0.43031203  1
  O2-  O176  1  0.92509431  0.32022738  0.76463017  1
  O2-  O177  1  0.92720657  0.81921308  0.10183183  1
  O2-  O178  1  0.92819467  0.81905738  0.42285522  1
  O2-  O179  1  0.92465890  0.82085435  0.76234595  1
  O2-  O180  1  0.31981806  0.06781142  0.24501315  1
  O2-  O181  1  0.32474720  0.07245938  0.56760477  1
  O2-  O182  1  0.31966129  0.06998182  0.90481246  1
  O2-  O183  1  0.32034748  0.57486960  0.24353420  1
  O2-  O184  1  0.32368627  0.56598144  0.56622700  1
  O2-  O185  1  0.32617006  0.57025533  0.91276084  1
  O2-  O186  1  0.82507020  0.07174908  0.24631006  1
  O2-  O187  1  0.81452966  0.07255368  0.57525127  1
  O2-  O188  1  0.82007813  0.07508990  0.91009828  1
  O2-  O189  1  0.82293078  0.57381306  0.24660866  1
  O2-  O190  1  0.81875153  0.57356079  0.57576767  1
  O2-  O191  1  0.81950737  0.56966539  0.89987154  1
  O2-  O192  1  0.04604345  0.08142241  0.27124167  1
  O2-  O193  1  0.04264214  0.08486255  0.59724601  1
  O2-  O194  1  0.05134725  0.08486009  0.94201080  1
  O2-  O195  1  0.04333664  0.58891159  0.27337270  1
  O2-  O196  1  0.04579906  0.58352425  0.59268030  1
  O2-  O197  1  0.04082899  0.58351792  0.93220381  1
  O2-  O198  1  0.53860797  0.07757301  0.26821696  1
  O2-  O199  1  0.54367468  0.08332344  0.60410102  1
  O2-  O200  1  0.53735487  0.08205783  0.93060107  1
  O2-  O201  1  0.54364049  0.58936693  0.26941986  1
  O2-  O202  1  0.53589226  0.58069935  0.59774770  1
  O2-  O203  1  0.54025622  0.58041322  0.93491181  1
  O2-  O204  1  0.16566501  0.20006720  0.27007609  1
  O2-  O205  1  0.17181357  0.20839674  0.59986913  1
  O2-  O206  1  0.16839069  0.20686364  0.94288018  1
  O2-  O207  1  0.16434982  0.70773539  0.27039670  1
  O2-  O208  1  0.17521180  0.70713445  0.59842739  1
  O2-  O209  1  0.17536491  0.69939753  0.93902299  1
  O2-  O210  1  0.66844222  0.20134973  0.26617778  1
  O2-  O211  1  0.66046759  0.20464694  0.60184659  1
  O2-  O212  1  0.66540196  0.20705246  0.92858644  1
  O2-  O213  1  0.66611191  0.70698236  0.27426562  1
  O2-  O214  1  0.66447743  0.70695903  0.59416182  1
  O2-  O215  1  0.66501572  0.71100239  0.93225933  1
  O2-  O216  1  0.08377136  0.46321712  0.06919577  1
  O2-  O217  1  0.08868157  0.46244121  0.39883565  1
  O2-  O218  1  0.07936396  0.45118902  0.72110577  1
  O2-  O219  1  0.07841612  0.95695826  0.07225532  1
  O2-  O220  1  0.08371851  0.94957434  0.39340781  1
  O2-  O221  1  0.07590033  0.95620497  0.72983043  1
  O2-  O222  1  0.57846201  0.45356009  0.06919555  1
  O2-  O223  1  0.58681952  0.45820418  0.39295612  1
  O2-  O224  1  0.58622652  0.45965307  0.73406808  1
  O2-  O225  1  0.58604842  0.96023125  0.06578181  1
  O2-  O226  1  0.58043989  0.95589569  0.40411043  1
  O2-  O227  1  0.58900553  0.95475133  0.72904237  1
  O2-  O228  1  0.21046471  0.33780976  0.07138429  1
  O2-  O229  1  0.20039097  0.33521292  0.39476910  1
  O2-  O230  1  0.20616750  0.33883789  0.72826431  1
  O2-  O231  1  0.20739309  0.83027311  0.07107141  1
  O2-  O232  1  0.21116715  0.83669712  0.39594367  1
  O2-  O233  1  0.20769596  0.83365571  0.73385236  1
  O2-  O234  1  0.70628926  0.32689880  0.06778220  1
  O2-  O235  1  0.70626985  0.33556089  0.39178646  1
  O2-  O236  1  0.70745840  0.32913494  0.73135082  1
  O2-  O237  1  0.71091709  0.83313001  0.06708953  1
  O2-  O238  1  0.71150457  0.83267688  0.40509159  1
  O2-  O239  1  0.70679599  0.83280897  0.72407493  1
  O2-  O240  1  0.45290663  0.42227410  0.26415497  1
  O2-  O241  1  0.46327754  0.40956855  0.60393570  1
  O2-  O242  1  0.44855260  0.41657471  0.93742078  1
  O2-  O243  1  0.45182284  0.91199727  0.27370571  1
  O2-  O244  1  0.45920664  0.91475255  0.60190657  1
  O2-  O245  1  0.45763854  0.91496234  0.93714390  1
  O2-  O246  1  0.96334102  0.41867265  0.26575315  1
  O2-  O247  1  0.94830259  0.42115833  0.59667460  1
  O2-  O248  1  0.96138182  0.41650272  0.93279218  1
  O2-  O249  1  0.95044981  0.91408029  0.27285856  1
  O2-  O250  1  0.95184398  0.92158099  0.59424576  1
  O2-  O251  1  0.94878681  0.92547048  0.93859119  1
  O2-  O252  1  0.32685494  0.29745234  0.26713530  1
  O2-  O253  1  0.33831063  0.29838431  0.60507546  1
  O2-  O254  1  0.33261256  0.29407751  0.93683193  1
  O2-  O255  1  0.33871582  0.78682257  0.26969351  1
  O2-  O256  1  0.33673804  0.79825879  0.60463554  1
  O2-  O257  1  0.33364598  0.80164441  0.93874249  1
  O2-  O258  1  0.83426728  0.29177213  0.26311538  1
  O2-  O259  1  0.83023585  0.28513681  0.59674649  1
  O2-  O260  1  0.83335449  0.28954249  0.93222221  1
  O2-  O261  1  0.83635312  0.78828704  0.27289796  1
  O2-  O262  1  0.83251550  0.78954706  0.59237155  1
  O2-  O263  1  0.83284048  0.78993868  0.93364832  1
  O2-  O264  1  0.41788268  0.03786680  0.07185915  1
  O2-  O265  1  0.40908515  0.03958684  0.39834322  1
  O2-  O266  1  0.41990632  0.04123946  0.73529117  1
  O2-  O267  1  0.41515801  0.54333398  0.06729677  1
  O2-  O268  1  0.41542699  0.54623585  0.39459088  1
  O2-  O269  1  0.41449492  0.53315541  0.73542295  1
  O2-  O270  1  0.91690386  0.05665368  0.06322606  1
  O2-  O271  1  0.91494519  0.04526670  0.39917170  1
  O2-  O272  1  0.91264009  0.04862907  0.72546111  1
  O2-  O273  1  0.91773546  0.54169799  0.06853704  1
  O2-  O274  1  0.91450579  0.54255665  0.39846392  1
  O2-  O275  1  0.91884805  0.55347610  0.72346974  1
  O2-  O276  1  0.29550347  0.16939095  0.07324955  1
  O2-  O277  1  0.29400929  0.16431588  0.39501839  1
  O2-  O278  1  0.30054046  0.17485490  0.73369895  1
  O2-  O279  1  0.30533583  0.66861672  0.06360189  1
  O2-  O280  1  0.29042830  0.66118908  0.39757020  1
  O2-  O281  1  0.30080496  0.66925730  0.73372530  1
  O2-  O282  1  0.78999068  0.16486336  0.06335350  1
  O2-  O283  1  0.79571307  0.16727700  0.39696184  1
  O2-  O284  1  0.78680775  0.15975106  0.72995725  1
  O2-  O285  1  0.78803599  0.66598427  0.06931960  1
  O2-  O286  1  0.79358624  0.66104824  0.40103372  1
  O2-  O287  1  0.79084045  0.66516037  0.72646368  1
