# generated using pymatgen
data_Ca2Al2SiO7
_symmetry_space_group_name_H-M   'P 1'
_cell_length_a   15.45750703
_cell_length_b   15.45687693
_cell_length_c   15.28224824
_cell_angle_alpha   90.00170684
_cell_angle_beta   89.99881627
_cell_angle_gamma   89.99751654
_symmetry_Int_Tables_number   1
_chemical_formula_structural   Ca2Al2SiO7
_chemical_formula_sum   'Ca48 Al48 Si24 O168'
_cell_volume   3651.30785068
_cell_formula_units_Z   24
loop_
 _symmetry_equiv_pos_site_id
 _symmetry_equiv_pos_as_xyz
  1  'x, y, z'
loop_
 _atom_type_symbol
 _atom_type_oxidation_number
  Ca2+  2.0
  Al0+  0.0
  Si0+  0.0
  O2-  -2.0
loop_
 _atom_site_type_symbol
 _atom_site_label
 _atom_site_symmetry_multiplicity
 _atom_site_fract_x
 _atom_site_fract_y
 _atom_site_fract_z
 _atom_site_occupancy
  Ca2+  Ca0  1  0.16778777  0.07909756  0.17366435  1
  Ca2+  Ca1  1  0.18043156  0.08968824  0.50283413  1
  Ca2+  Ca2  1  0.17331745  0.07523896  0.83983814  1
  Ca2+  Ca3  1  0.16561672  0.57270754  0.16685055  1
  Ca2+  Ca4  1  0.15798096  0.57300412  0.50439819  1
  Ca2+  Ca5  1  0.16688947  0.57895022  0.83949251  1
  Ca2+  Ca6  1  0.67143572  0.09132202  0.16693653  1
  Ca2+  Ca7  1  0.66422918  0.08486831  0.50396151  1
  Ca2+  Ca8  1  0.66946304  0.08373327  0.84095374  1
  Ca2+  Ca9  1  0.67457689  0.58365222  0.16682195  1
  Ca2+  Ca10  1  0.67467044  0.58494555  0.50011168  1
  Ca2+  Ca11  1  0.67036337  0.57828316  0.84845762  1
  Ca2+  Ca12  1  0.07978331  0.33541682  0.16610014  1
  Ca2+  Ca13  1  0.08477121  0.33212004  0.48983124  1
  Ca2+  Ca14  1  0.07920742  0.34505068  0.83361449  1
  Ca2+  Ca15  1  0.07397139  0.83638728  0.15844974  1
  Ca2+  Ca16  1  0.07480437  0.82768753  0.49615386  1
  Ca2+  Ca17  1  0.07654865  0.82993780  0.82919413  1
  Ca2+  Ca18  1  0.58889201  0.32510696  0.15812235  1
  Ca2+  Ca19  1  0.58121847  0.31916691  0.49421330  1
  Ca2+  Ca20  1  0.58914933  0.32408053  0.83290489  1
  Ca2+  Ca21  1  0.57613003  0.82654615  0.16253781  1
  Ca2+  Ca22  1  0.57066769  0.83681923  0.49544470  1
  Ca2+  Ca23  1  0.57929044  0.82397176  0.83116287  1
  Ca2+  Ca24  1  0.32552029  0.41952198  0.16912946  1
  Ca2+  Ca25  1  0.31862050  0.41255538  0.50512187  1
  Ca2+  Ca26  1  0.32022386  0.42215322  0.84318517  1
  Ca2+  Ca27  1  0.32745330  0.91838521  0.17208707  1
  Ca2+  Ca28  1  0.34099853  0.92417792  0.50420365  1
  Ca2+  Ca29  1  0.33022162  0.91635318  0.83550217  1
  Ca2+  Ca30  1  0.83718377  0.42335360  0.16786514  1
  Ca2+  Ca31  1  0.84033160  0.42144207  0.49778394  1
  Ca2+  Ca32  1  0.82905561  0.42422785  0.84745102  1
  Ca2+  Ca33  1  0.83803605  0.92091205  0.16917432  1
  Ca2+  Ca34  1  0.83533855  0.91357058  0.50252861  1
  Ca2+  Ca35  1  0.83952377  0.92184431  0.84247092  1
  Ca2+  Ca36  1  0.42528639  0.16349917  0.16552110  1
  Ca2+  Ca37  1  0.42367208  0.15697552  0.49371362  1
  Ca2+  Ca38  1  0.42759394  0.16180971  0.82828505  1
  Ca2+  Ca39  1  0.41674690  0.66813128  0.15830368  1
  Ca2+  Ca40  1  0.41180033  0.68071482  0.49597523  1
  Ca2+  Ca41  1  0.41706682  0.66629459  0.83230800  1
  Ca2+  Ca42  1  0.91825073  0.17867569  0.15933145  1
  Ca2+  Ca43  1  0.92926605  0.17594748  0.48734851  1
  Ca2+  Ca44  1  0.91440446  0.17238897  0.83619272  1
  Ca2+  Ca45  1  0.90766542  0.67468323  0.16137129  1
  Ca2+  Ca46  1  0.91961538  0.67251458  0.49559457  1
  Ca2+  Ca47  1  0.91829902  0.67542391  0.82874573  1
  Al0+  Al48  1  0.00000541  0.00195723  0.00368422  1
  Al0+  Al49  1  0.00054583  -0.00078949  0.32975033  1
  Al0+  Al50  1  0.00050641  0.00229762  0.66291867  1
  Al0+  Al51  1  -0.00033164  0.50139602  0.00345186  1
  Al0+  Al52  1  -0.00061199  0.50109279  0.33874462  1
  Al0+  Al53  1  -0.00213787  0.50134082  0.66812155  1
  Al0+  Al54  1  0.50015436  -0.00058049  -0.00460129  1
  Al0+  Al55  1  0.50033075  -0.00212133  0.32636884  1
  Al0+  Al56  1  0.50266933  -0.00090925  0.66600140  1
  Al0+  Al57  1  0.49918545  0.49877236  0.00302797  1
  Al0+  Al58  1  0.50106724  0.49974394  0.33801230  1
  Al0+  Al59  1  0.49988879  0.49724264  0.66451499  1
  Al0+  Al60  1  0.25093355  0.24837905  0.00291032  1
  Al0+  Al61  1  0.25270435  0.24859601  0.33719537  1
  Al0+  Al62  1  0.25060481  0.25028634  0.67960300  1
  Al0+  Al63  1  0.24770426  0.75148926  0.00724169  1
  Al0+  Al64  1  0.24830233  0.75006790  0.32923270  1
  Al0+  Al65  1  0.24935913  0.74900978  0.65748336  1
  Al0+  Al66  1  0.75174737  0.24918732  -0.00207107  1
  Al0+  Al67  1  0.75084039  0.25048516  0.32935688  1
  Al0+  Al68  1  0.75031979  0.24954511  0.66142811  1
  Al0+  Al69  1  0.74658575  0.75200869  -0.00593633  1
  Al0+  Al70  1  0.74943300  0.75009807  0.33629684  1
  Al0+  Al71  1  0.74892037  0.75085767  0.66453037  1
  Al0+  Al72  1  0.92801644  0.82383386  0.65108007  1
  Al0+  Al73  1  0.57036235  0.17905132  0.31817706  1
  Al0+  Al74  1  0.32124208  0.57176742  0.01425210  1
  Al0+  Al75  1  0.81900616  0.57157298  0.34913499  1
  Al0+  Al76  1  0.81979411  0.07006439  0.01347259  1
  Al0+  Al77  1  0.42812891  0.81972756  0.31746651  1
  Al0+  Al78  1  0.17777255  0.43035235  0.68233673  1
  Al0+  Al79  1  0.17882347  0.93061043  0.01279531  1
  Al0+  Al80  1  0.92842589  0.82268057  0.98664742  1
  Al0+  Al81  1  0.06969471  0.67742264  0.65159330  1
  Al0+  Al82  1  0.32341079  0.06901262  0.68226368  1
  Al0+  Al83  1  0.93043087  0.32282404  0.31767318  1
  Al0+  Al84  1  0.67911363  0.42722461  0.01424940  1
  Al0+  Al85  1  0.32130080  0.06684951  0.34609411  1
  Al0+  Al86  1  0.43050964  0.81888196  0.65425305  1
  Al0+  Al87  1  0.93203879  0.32198705  0.98555297  1
  Al0+  Al88  1  0.92813233  0.81961250  0.31795972  1
  Al0+  Al89  1  0.56884067  0.67752082  0.98771651  1
  Al0+  Al90  1  0.82008685  0.57454174  0.01353074  1
  Al0+  Al91  1  0.18183947  0.43083124  0.34788356  1
  Al0+  Al92  1  0.57015388  0.18032030  0.65209946  1
  Al0+  Al93  1  0.17714084  0.42722718  0.01724459  1
  Al0+  Al94  1  0.57040162  0.17998474  0.98480785  1
  Al0+  Al95  1  0.07517657  0.17923198  0.31889252  1
  Si0+  Si96  1  0.32329889  0.57362270  0.68082538  1
  Si0+  Si97  1  0.81792078  0.57144525  0.68255443  1
  Si0+  Si98  1  0.42524556  0.82085151  0.98301209  1
  Si0+  Si99  1  0.17535161  0.92634070  0.35213740  1
  Si0+  Si100  1  0.57282755  0.67409348  0.64911838  1
  Si0+  Si101  1  0.82201328  0.07249250  0.34881144  1
  Si0+  Si102  1  0.42559969  0.32201921  0.98298570  1
  Si0+  Si103  1  0.32422178  0.57441340  0.35192725  1
  Si0+  Si104  1  0.92964882  0.32039571  0.65235978  1
  Si0+  Si105  1  0.42560077  0.32136933  0.65124097  1
  Si0+  Si106  1  0.42864750  0.32354874  0.31808844  1
  Si0+  Si107  1  0.07353002  0.17968878  0.65430376  1
  Si0+  Si108  1  0.07088652  0.67726156  0.31455702  1
  Si0+  Si109  1  0.67562616  0.92808426  0.01624670  1
  Si0+  Si110  1  0.32497071  0.07060504  0.01698293  1
  Si0+  Si111  1  0.68046955  0.93047944  0.34791632  1
  Si0+  Si112  1  0.82195879  0.07185977  0.67945017  1
  Si0+  Si113  1  0.67984803  0.92926067  0.68161618  1
  Si0+  Si114  1  0.57164293  0.67720051  0.31845963  1
  Si0+  Si115  1  0.67721448  0.42515688  0.35267429  1
  Si0+  Si116  1  0.67926380  0.42693336  0.68000470  1
  Si0+  Si117  1  0.17724428  0.92723782  0.68073579  1
  Si0+  Si118  1  0.07208767  0.67943392  0.98504192  1
  Si0+  Si119  1  0.07379927  0.17769103  0.98233538  1
  O2-  O120  1  0.25392807  0.00449513  0.06013654  1
  O2-  O121  1  0.24519548  -0.00561870  0.39584554  1
  O2-  O122  1  0.24744761  -0.00592617  0.72622674  1
  O2-  O123  1  0.25118510  0.49839527  0.06483570  1
  O2-  O124  1  0.25643967  0.50530961  0.39669727  1
  O2-  O125  1  0.25411390  0.50560674  0.72502603  1
  O2-  O126  1  0.74507649  -0.00449422  0.06078357  1
  O2-  O127  1  0.75127826  0.00141076  0.39188956  1
  O2-  O128  1  0.75544860  -0.00352591  0.72178785  1
  O2-  O129  1  0.74952049  0.50095380  0.06358253  1
  O2-  O130  1  0.74575133  0.49462588  0.39654941  1
  O2-  O131  1  0.74417763  0.50278546  0.72317806  1
  O2-  O132  1  0.00165272  0.24943615  0.26888601  1
  O2-  O133  1  0.00413708  0.25234266  0.61175914  1
  O2-  O134  1  0.01004051  0.25083803  0.93696251  1
  O2-  O135  1  0.00422785  0.74765594  0.27029486  1
  O2-  O136  1  -0.00075581  0.75127509  0.60154970  1
  O2-  O137  1  0.00130472  0.74616292  0.94051735  1
  O2-  O138  1  0.50027655  0.25848748  0.27314167  1
  O2-  O139  1  0.49302573  0.25217709  0.60529018  1
  O2-  O140  1  0.49503352  0.25395369  0.93788037  1
  O2-  O141  1  0.49684449  0.73846525  0.27376305  1
  O2-  O142  1  0.50218843  0.74122505  0.60604184  1
  O2-  O143  1  0.49204947  0.74992483  0.93973639  1
  O2-  O144  1  0.07153670  0.17596730  0.08752771  1
  O2-  O145  1  0.07427528  0.18149342  0.43372397  1
  O2-  O146  1  0.07037621  0.17590237  0.75907075  1
  O2-  O147  1  0.07316932  0.68161438  0.09046015  1
  O2-  O148  1  0.06959294  0.67821777  0.42052322  1
  O2-  O149  1  0.06767740  0.67737718  0.76528180  1
  O2-  O150  1  0.56843370  0.17924006  0.09776234  1
  O2-  O151  1  0.56923712  0.17794738  0.43180439  1
  O2-  O152  1  0.57325023  0.18185007  0.76477344  1
  O2-  O153  1  0.56949392  0.68209268  0.10076315  1
  O2-  O154  1  0.57263840  0.68090585  0.42453334  1
  O2-  O155  1  0.57416342  0.67440398  0.75449808  1
  O2-  O156  1  0.18318776  0.43178516  0.23551519  1
  O2-  O157  1  0.17812666  0.42852673  0.56913544  1
  O2-  O158  1  0.17801364  0.43141306  0.90330731  1
  O2-  O159  1  0.17595510  0.92725247  0.24649200  1
  O2-  O160  1  0.17594388  0.93028749  0.57541622  1
  O2-  O161  1  0.18057863  0.93045156  0.89895834  1
  O2-  O162  1  0.67473199  0.42484027  0.24784835  1
  O2-  O163  1  0.68212021  0.42581936  0.57497982  1
  O2-  O164  1  0.68174750  0.42808807  0.89951775  1
  O2-  O165  1  0.68122813  0.92956243  0.24314371  1
  O2-  O166  1  0.67772178  0.93074492  0.57618930  1
  O2-  O167  1  0.67451718  0.92983096  0.91018053  1
  O2-  O168  1  0.42474083  0.31953118  0.08860430  1
  O2-  O169  1  0.42942387  0.32212355  0.42409474  1
  O2-  O170  1  0.42863808  0.32279700  0.75643274  1
  O2-  O171  1  0.42750103  0.82230358  0.08851315  1
  O2-  O172  1  0.43242029  0.82198294  0.43095766  1
  O2-  O173  1  0.43273029  0.81789786  0.76725162  1
  O2-  O174  1  0.93135586  0.32037880  0.09789179  1
  O2-  O175  1  0.93162289  0.32036383  0.43260617  1
  O2-  O176  1  0.92689417  0.31951812  0.75727092  1
  O2-  O177  1  0.92959363  0.82238192  0.09963231  1
  O2-  O178  1  0.92818298  0.81839623  0.43121824  1
  O2-  O179  1  0.92866431  0.82406507  0.76457250  1
  O2-  O180  1  0.32200599  0.06428477  0.23330719  1
  O2-  O181  1  0.32332609  0.06859640  0.56903510  1
  O2-  O182  1  0.32584652  0.06796531  0.91101033  1
  O2-  O183  1  0.32530613  0.57301936  0.24672785  1
  O2-  O184  1  0.32469576  0.57164710  0.57528695  1
  O2-  O185  1  0.31904809  0.57248933  0.89999199  1
  O2-  O186  1  0.82033605  0.07245760  0.24401532  1
  O2-  O187  1  0.82014506  0.07392584  0.57427657  1
  O2-  O188  1  0.81919655  0.06934388  0.89939234  1
  O2-  O189  1  0.81526163  0.57481908  0.23685476  1
  O2-  O190  1  0.81790320  0.57029342  0.57727765  1
  O2-  O191  1  0.81863623  0.57334985  0.89907818  1
  O2-  O192  1  0.04868841  0.07983991  0.26832533  1
  O2-  O193  1  0.04590770  0.08972729  0.60330528  1
  O2-  O194  1  0.04177369  0.08659285  0.93465814  1
  O2-  O195  1  0.04293549  0.58412339  0.27097846  1
  O2-  O196  1  0.03551823  0.58069165  0.59717070  1
  O2-  O197  1  0.04901128  0.58513256  0.93993811  1
  O2-  O198  1  0.53786944  0.08440646  0.26292490  1
  O2-  O199  1  0.54218846  0.08272235  0.59919460  1
  O2-  O200  1  0.54041518  0.08264609  0.92992463  1
  O2-  O201  1  0.55467905  0.58011951  0.27679907  1
  O2-  O202  1  0.55162309  0.57938108  0.60277413  1
  O2-  O203  1  0.54177915  0.57983471  0.93332683  1
  O2-  O204  1  0.17387727  0.20652142  0.26719325  1
  O2-  O205  1  0.16700132  0.20756784  0.61068137  1
  O2-  O206  1  0.17030678  0.19632705  0.93867604  1
  O2-  O207  1  0.16550632  0.69900673  0.26935638  1
  O2-  O208  1  0.16806713  0.70038007  0.59590144  1
  O2-  O209  1  0.16489391  0.70849893  0.93850971  1
  O2-  O210  1  0.66804334  0.20675098  0.26599564  1
  O2-  O211  1  0.66569438  0.21307294  0.59573505  1
  O2-  O212  1  0.66679237  0.21042195  0.93005517  1
  O2-  O213  1  0.66192846  0.71119171  0.27210851  1
  O2-  O214  1  0.66506816  0.70331909  0.60217289  1
  O2-  O215  1  0.66178840  0.71224974  0.92802186  1
  O2-  O216  1  0.08030728  0.45789039  0.07052125  1
  O2-  O217  1  0.08537446  0.46130259  0.40315788  1
  O2-  O218  1  0.08061604  0.46239718  0.73498599  1
  O2-  O219  1  0.08447858  0.96328758  0.06918402  1
  O2-  O220  1  0.08133785  0.95158809  0.39790464  1
  O2-  O221  1  0.08418583  0.95613754  0.72730568  1
  O2-  O222  1  0.57982437  0.45036507  0.06634788  1
  O2-  O223  1  0.58374098  0.44988757  0.40148636  1
  O2-  O224  1  0.58449596  0.44752602  0.72496611  1
  O2-  O225  1  0.58194852  0.95422051  0.06199006  1
  O2-  O226  1  0.58874899  0.96049390  0.39467595  1
  O2-  O227  1  0.59114202  0.96097744  0.73182667  1
  O2-  O228  1  0.20385760  0.32726312  0.06753818  1
  O2-  O229  1  0.21360762  0.33433457  0.40290463  1
  O2-  O230  1  0.20661096  0.33525804  0.74014386  1
  O2-  O231  1  0.20681966  0.83585253  0.07091883  1
  O2-  O232  1  0.20019838  0.83121421  0.39559089  1
  O2-  O233  1  0.20231450  0.83215449  0.72390076  1
  O2-  O234  1  0.71017745  0.32991984  0.06615037  1
  O2-  O235  1  0.70533844  0.33175529  0.39918790  1
  O2-  O236  1  0.71242831  0.33643953  0.72724238  1
  O2-  O237  1  0.69936748  0.83430197  0.06120237  1
  O2-  O238  1  0.70707014  0.83971013  0.39848040  1
  O2-  O239  1  0.70208580  0.83518151  0.72797815  1
  O2-  O240  1  0.44994150  0.41945021  0.27469874  1
  O2-  O241  1  0.45010035  0.41453987  0.60268223  1
  O2-  O242  1  0.44907320  0.41619594  0.93775161  1
  O2-  O243  1  0.46596230  0.91152167  0.26042617  1
  O2-  O244  1  0.46778155  0.91323966  0.59957805  1
  O2-  O245  1  0.45355001  0.91311039  0.93547971  1
  O2-  O246  1  0.95839930  0.42218287  0.26848107  1
  O2-  O247  1  0.95430336  0.41337848  0.60645748  1
  O2-  O248  1  0.95926806  0.42036480  0.93171115  1
  O2-  O249  1  0.95548070  0.91755775  0.26569021  1
  O2-  O250  1  0.95484959  0.92285716  0.59754991  1
  O2-  O251  1  0.96230608  0.91933324  0.93393722  1
  O2-  O252  1  0.33722974  0.29365972  0.27165206  1
  O2-  O253  1  0.33060250  0.29517015  0.60862348  1
  O2-  O254  1  0.33218777  0.29535907  0.93588671  1
  O2-  O255  1  0.32957734  0.79517225  0.26489081  1
  O2-  O256  1  0.33425702  0.79415727  0.59646296  1
  O2-  O257  1  0.33069231  0.79658311  0.93872137  1
  O2-  O258  1  0.83166994  0.29588081  0.26637262  1
  O2-  O259  1  0.84028777  0.28946219  0.60200970  1
  O2-  O260  1  0.83737565  0.28631970  0.92980816  1
  O2-  O261  1  0.83033882  0.78874758  0.26689207  1
  O2-  O262  1  0.82840844  0.79595274  0.59950862  1
  O2-  O263  1  0.83085471  0.79707800  0.93190850  1
  O2-  O264  1  0.41772969  0.04184287  0.06277984  1
  O2-  O265  1  0.41833340  0.03207652  0.39881831  1
  O2-  O266  1  0.41990892  0.03595598  0.73529621  1
  O2-  O267  1  0.41922507  0.54545540  0.06863084  1
  O2-  O268  1  0.41894521  0.55274117  0.39870905  1
  O2-  O269  1  0.41795841  0.54816769  0.72622259  1
  O2-  O270  1  0.91537599  0.04117763  0.06905325  1
  O2-  O271  1  0.91446180  0.04437938  0.39555800  1
  O2-  O272  1  0.91528003  0.04889096  0.72654576  1
  O2-  O273  1  0.91849771  0.54951850  0.06617412  1
  O2-  O274  1  0.91479629  0.54135696  0.40549302  1
  O2-  O275  1  0.90847622  0.54142001  0.72989464  1
  O2-  O276  1  0.30387040  0.16529305  0.06156898  1
  O2-  O277  1  0.29518886  0.16406799  0.40229672  1
  O2-  O278  1  0.29441626  0.16429281  0.73932806  1
  O2-  O279  1  0.29333107  0.66919485  0.06913238  1
  O2-  O280  1  0.29642709  0.66886840  0.39572130  1
  O2-  O281  1  0.29901072  0.66844436  0.72483228  1
  O2-  O282  1  0.78741235  0.16530146  0.06757612  1
  O2-  O283  1  0.79411775  0.16449222  0.39647360  1
  O2-  O284  1  0.78949729  0.16266511  0.72687780  1
  O2-  O285  1  0.78720712  0.67269600  0.06439678  1
  O2-  O286  1  0.78436096  0.66651401  0.40618988  1
  O2-  O287  1  0.79259771  0.66500619  0.72778767  1
