# generated using pymatgen
data_Ca2Al2SiO7
_symmetry_space_group_name_H-M   'P 1'
_cell_length_a   15.46006286
_cell_length_b   15.46026243
_cell_length_c   15.28484043
_cell_angle_alpha   89.99839845
_cell_angle_beta   90.00862628
_cell_angle_gamma   90.01372810
_symmetry_Int_Tables_number   1
_chemical_formula_structural   Ca2Al2SiO7
_chemical_formula_sum   'Ca48 Al48 Si24 O168'
_cell_volume   3653.33088765
_cell_formula_units_Z   24
loop_
 _symmetry_equiv_pos_site_id
 _symmetry_equiv_pos_as_xyz
  1  'x, y, z'
loop_
 _atom_type_symbol
 _atom_type_oxidation_number
  Ca2+  2.0
  Al0+  0.0
  Si0+  0.0
  O2-  -2.0
loop_
 _atom_site_type_symbol
 _atom_site_label
 _atom_site_symmetry_multiplicity
 _atom_site_fract_x
 _atom_site_fract_y
 _atom_site_fract_z
 _atom_site_occupancy
  Ca2+  Ca0  1  0.17354652  0.07713691  0.17691132  1
  Ca2+  Ca1  1  0.16634042  0.07508924  0.50502869  1
  Ca2+  Ca2  1  0.16377571  0.07648149  0.83189346  1
  Ca2+  Ca3  1  0.17365635  0.58362073  0.17379984  1
  Ca2+  Ca4  1  0.17481225  0.57424828  0.50766101  1
  Ca2+  Ca5  1  0.17225550  0.58736571  0.83285565  1
  Ca2+  Ca6  1  0.66836822  0.07583884  0.17110258  1
  Ca2+  Ca7  1  0.66584443  0.07739069  0.50731742  1
  Ca2+  Ca8  1  0.67296341  0.07765266  0.83617946  1
  Ca2+  Ca9  1  0.67435422  0.57302587  0.17225081  1
  Ca2+  Ca10  1  0.67323663  0.58797411  0.50511930  1
  Ca2+  Ca11  1  0.66399999  0.57868016  0.83717105  1
  Ca2+  Ca12  1  0.07321441  0.34170531  0.16610503  1
  Ca2+  Ca13  1  0.08237232  0.33918032  0.49348212  1
  Ca2+  Ca14  1  0.07748403  0.33467582  0.82870342  1
  Ca2+  Ca15  1  0.08649153  0.82691129  0.15957542  1
  Ca2+  Ca16  1  0.08446984  0.83415314  0.50002323  1
  Ca2+  Ca17  1  0.08078015  0.82442602  0.82171918  1
  Ca2+  Ca18  1  0.58709275  0.32707314  0.16317900  1
  Ca2+  Ca19  1  0.57626482  0.32053631  0.49782434  1
  Ca2+  Ca20  1  0.57967098  0.33095445  0.82243250  1
  Ca2+  Ca21  1  0.58517753  0.83610198  0.16499724  1
  Ca2+  Ca22  1  0.59054116  0.83108408  0.49690413  1
  Ca2+  Ca23  1  0.58655813  0.83035674  0.82497831  1
  Ca2+  Ca24  1  0.32575766  0.42910401  0.17560423  1
  Ca2+  Ca25  1  0.32726798  0.42059662  0.50951955  1
  Ca2+  Ca26  1  0.33400822  0.42552837  0.83335149  1
  Ca2+  Ca27  1  0.32637796  0.92135560  0.17722488  1
  Ca2+  Ca28  1  0.32350854  0.92012451  0.49938222  1
  Ca2+  Ca29  1  0.32716726  0.91111659  0.83094765  1
  Ca2+  Ca30  1  0.83569447  0.41627395  0.17000857  1
  Ca2+  Ca31  1  0.83854138  0.42217054  0.49870561  1
  Ca2+  Ca32  1  0.82590038  0.41474222  0.84083103  1
  Ca2+  Ca33  1  0.82387554  0.92013879  0.17025083  1
  Ca2+  Ca34  1  0.82523871  0.92116275  0.51270915  1
  Ca2+  Ca35  1  0.82813607  0.92321221  0.83425027  1
  Ca2+  Ca36  1  0.42192551  0.16032921  0.16670621  1
  Ca2+  Ca37  1  0.42482962  0.16139778  0.49461731  1
  Ca2+  Ca38  1  0.42567843  0.17652287  0.81993403  1
  Ca2+  Ca39  1  0.41020569  0.66656637  0.16239327  1
  Ca2+  Ca40  1  0.41820538  0.66128340  0.50065632  1
  Ca2+  Ca41  1  0.42066895  0.66169505  0.82514163  1
  Ca2+  Ca42  1  0.91279160  0.17691769  0.16162840  1
  Ca2+  Ca43  1  0.91465269  0.17228130  0.49550956  1
  Ca2+  Ca44  1  0.90615596  0.16886526  0.83100931  1
  Ca2+  Ca45  1  0.92350909  0.66460683  0.16154147  1
  Ca2+  Ca46  1  0.92026829  0.67138914  0.49764569  1
  Ca2+  Ca47  1  0.92940020  0.67261247  0.82315720  1
  Al0+  Al48  1  -0.00028881  0.00100757  0.00508706  1
  Al0+  Al49  1  -0.00250037  0.00017846  0.33298424  1
  Al0+  Al50  1  -0.00113420  0.00196316  0.67170252  1
  Al0+  Al51  1  0.00060658  0.49880699  -0.01139969  1
  Al0+  Al52  1  -0.00035181  0.50190259  0.33528553  1
  Al0+  Al53  1  0.00138712  0.50095513  0.66715561  1
  Al0+  Al54  1  0.49916510  -0.00101185  -0.00046045  1
  Al0+  Al55  1  0.49981846  -0.00252822  0.33477482  1
  Al0+  Al56  1  0.49956632  -0.00121794  0.66734271  1
  Al0+  Al57  1  0.49930971  0.50006453  0.01005879  1
  Al0+  Al58  1  0.50242444  0.49827520  0.33413413  1
  Al0+  Al59  1  0.50017652  0.50044411  0.65949352  1
  Al0+  Al60  1  0.24931776  0.25077593  -0.00059010  1
  Al0+  Al61  1  0.25145910  0.25023984  0.33731116  1
  Al0+  Al62  1  0.24704524  0.25217249  0.66845718  1
  Al0+  Al63  1  0.25143886  0.74972500  -0.00168825  1
  Al0+  Al64  1  0.25120280  0.74985037  0.33964898  1
  Al0+  Al65  1  0.25143071  0.74884240  0.66866566  1
  Al0+  Al66  1  0.74957524  0.24921226  0.00279237  1
  Al0+  Al67  1  0.74915224  0.24974002  0.32392159  1
  Al0+  Al68  1  0.74913900  0.25058453  0.66357676  1
  Al0+  Al69  1  0.75001012  0.74965938  0.00270873  1
  Al0+  Al70  1  0.75081481  0.74883687  0.33668131  1
  Al0+  Al71  1  0.75094924  0.75081073  0.66453504  1
  Al0+  Al72  1  0.31934003  0.57060787  0.01472230  1
  Al0+  Al73  1  0.56827723  0.17728220  0.31656727  1
  Al0+  Al74  1  0.17544886  0.92899906  0.34742608  1
  Al0+  Al75  1  0.17640548  0.42742374  0.68562795  1
  Al0+  Al76  1  0.07212185  0.68036726  0.98574600  1
  Al0+  Al77  1  0.32408571  0.57165362  0.35030265  1
  Al0+  Al78  1  0.68062442  0.92957642  0.34810495  1
  Al0+  Al79  1  0.07302077  0.67877013  0.64778917  1
  Al0+  Al80  1  0.32178450  0.07113320  0.34751396  1
  Al0+  Al81  1  0.57130146  0.68002621  0.65366486  1
  Al0+  Al82  1  0.67739809  0.92729441  0.68241375  1
  Al0+  Al83  1  0.92861737  0.31854840  0.98432699  1
  Al0+  Al84  1  0.82018559  0.56954036  0.34637247  1
  Al0+  Al85  1  0.67727466  0.92731106  0.01627565  1
  Al0+  Al86  1  0.42715747  0.32158698  0.65158074  1
  Al0+  Al87  1  0.17849335  0.43023101  0.34666828  1
  Al0+  Al88  1  0.82011199  0.07384612  0.68094235  1
  Al0+  Al89  1  0.82146338  0.07129412  0.01823937  1
  Al0+  Al90  1  0.93160252  0.32155338  0.31963036  1
  Al0+  Al91  1  0.57120594  0.17800069  0.65211188  1
  Al0+  Al92  1  0.67854668  0.42940429  0.01276731  1
  Al0+  Al93  1  0.17941246  0.92982554  0.68133522  1
  Al0+  Al94  1  0.93060132  0.82294013  0.65178258  1
  Al0+  Al95  1  0.32258031  0.56916010  0.68291650  1
  Si0+  Si96  1  0.67897274  0.42474865  0.35130200  1
  Si0+  Si97  1  0.42690299  0.32301613  0.31400055  1
  Si0+  Si98  1  0.57062378  0.67783031  0.98893921  1
  Si0+  Si99  1  0.07023683  0.17938806  0.65264296  1
  Si0+  Si100  1  0.92777548  0.32171328  0.65153837  1
  Si0+  Si101  1  0.18089440  0.92906201  0.01330152  1
  Si0+  Si102  1  0.42705511  0.82286244  0.64863814  1
  Si0+  Si103  1  0.07387499  0.17604863  0.31756631  1
  Si0+  Si104  1  0.92701224  0.82350546  0.98460937  1
  Si0+  Si105  1  0.42892691  0.32226780  0.98719845  1
  Si0+  Si106  1  0.57428249  0.67722470  0.31633688  1
  Si0+  Si107  1  0.92624558  0.82199146  0.31711280  1
  Si0+  Si108  1  0.82199496  0.57215876  0.68224255  1
  Si0+  Si109  1  0.42987361  0.81724179  0.31834121  1
  Si0+  Si110  1  0.07049468  0.68249310  0.31900742  1
  Si0+  Si111  1  0.32063000  0.07282013  0.01243750  1
  Si0+  Si112  1  0.82429284  0.57071761  0.01322380  1
  Si0+  Si113  1  0.82059465  0.07418823  0.34922398  1
  Si0+  Si114  1  0.32186943  0.07304416  0.68402170  1
  Si0+  Si115  1  0.68112471  0.43099923  0.67779690  1
  Si0+  Si116  1  0.42959175  0.82119007  0.98522926  1
  Si0+  Si117  1  0.07395146  0.17627319  0.98330093  1
  Si0+  Si118  1  0.17651848  0.42695083  0.01626275  1
  Si0+  Si119  1  0.56907271  0.17839774  0.98453169  1
  O2-  O120  1  0.24819361  0.00341031  0.05489919  1
  O2-  O121  1  0.24263665  0.00627491  0.39584521  1
  O2-  O122  1  0.25491591  0.00330870  0.72998894  1
  O2-  O123  1  0.24297932  0.49759639  0.06041942  1
  O2-  O124  1  0.25575197  0.49545423  0.39744654  1
  O2-  O125  1  0.24923920  0.49933289  0.73425707  1
  O2-  O126  1  0.74992745  -0.00194028  0.06692996  1
  O2-  O127  1  0.75449962  0.00430297  0.39426185  1
  O2-  O128  1  0.74816471  0.00128063  0.73036218  1
  O2-  O129  1  0.75585178  0.50232850  0.05835296  1
  O2-  O130  1  0.74529883  0.49585293  0.39490470  1
  O2-  O131  1  0.75086561  0.50122727  0.72381865  1
  O2-  O132  1  0.00722621  0.24687053  0.27296541  1
  O2-  O133  1  0.00060223  0.25200332  0.61083725  1
  O2-  O134  1  0.00307789  0.24277159  0.93880276  1
  O2-  O135  1  0.00229218  0.75590364  0.27465337  1
  O2-  O136  1  0.00236152  0.75249846  0.59836547  1
  O2-  O137  1  -0.00427102  0.75459301  0.94107815  1
  O2-  O138  1  0.49387273  0.25270635  0.26833013  1
  O2-  O139  1  0.49363536  0.24413602  0.60217248  1
  O2-  O140  1  0.49900806  0.25092151  0.94365779  1
  O2-  O141  1  0.49898468  0.74432947  0.27437594  1
  O2-  O142  1  0.49932891  0.75698436  0.60590914  1
  O2-  O143  1  0.50365103  0.75212607  0.94584855  1
  O2-  O144  1  0.07799495  0.17676003  0.08863228  1
  O2-  O145  1  0.07012590  0.17331436  0.42301205  1
  O2-  O146  1  0.07041106  0.17913339  0.75801269  1
  O2-  O147  1  0.07232212  0.68224980  0.09977150  1
  O2-  O148  1  0.06844050  0.68270640  0.42324389  1
  O2-  O149  1  0.07061837  0.68045251  0.76197775  1
  O2-  O150  1  0.56599249  0.17674219  0.08975799  1
  O2-  O151  1  0.56846529  0.17799785  0.42910204  1
  O2-  O152  1  0.57192730  0.18282915  0.76647303  1
  O2-  O153  1  0.56884856  0.67769874  0.09410433  1
  O2-  O154  1  0.57679189  0.68010264  0.42104926  1
  O2-  O155  1  0.57025509  0.67770268  0.76763222  1
  O2-  O156  1  0.17631872  0.43578727  0.23237366  1
  O2-  O157  1  0.17494307  0.42814478  0.57232432  1
  O2-  O158  1  0.17932209  0.42412092  0.91132212  1
  O2-  O159  1  0.17955842  0.92666666  0.23274685  1
  O2-  O160  1  0.17979178  0.93326342  0.56871889  1
  O2-  O161  1  0.18281673  0.92829405  0.90843593  1
  O2-  O162  1  0.67996071  0.42654398  0.24514452  1
  O2-  O163  1  0.68514691  0.43129879  0.57297393  1
  O2-  O164  1  0.67640219  0.43206288  0.89917612  1
  O2-  O165  1  0.68136787  0.92933855  0.23480344  1
  O2-  O166  1  0.67984488  0.92781096  0.56886151  1
  O2-  O167  1  0.67505715  0.92748481  0.90354253  1
  O2-  O168  1  0.42862027  0.31994016  0.09210728  1
  O2-  O169  1  0.42990416  0.32370142  0.41898842  1
  O2-  O170  1  0.43285272  0.32229399  0.76642132  1
  O2-  O171  1  0.42616623  0.82178353  0.09047366  1
  O2-  O172  1  0.43022413  0.81788349  0.42283182  1
  O2-  O173  1  0.42684702  0.82195645  0.75498254  1
  O2-  O174  1  0.93168195  0.32074604  0.09741002  1
  O2-  O175  1  0.93129228  0.32035348  0.43287248  1
  O2-  O176  1  0.92521232  0.32035514  0.75668641  1
  O2-  O177  1  0.92859341  0.82165952  0.09080636  1
  O2-  O178  1  0.92425971  0.82042932  0.42141428  1
  O2-  O179  1  0.93161620  0.81960864  0.76597447  1
  O2-  O180  1  0.32128718  0.06604353  0.23270572  1
  O2-  O181  1  0.31974935  0.07216039  0.57877399  1
  O2-  O182  1  0.32105222  0.07257649  0.90768777  1
  O2-  O183  1  0.31918069  0.57408065  0.23599287  1
  O2-  O184  1  0.32324117  0.56625483  0.56989002  1
  O2-  O185  1  0.32376240  0.56992440  0.90259292  1
  O2-  O186  1  0.81970063  0.07245165  0.24354741  1
  O2-  O187  1  0.81954696  0.07611512  0.56724150  1
  O2-  O188  1  0.81864797  0.07136323  0.90506123  1
  O2-  O189  1  0.81999458  0.56929501  0.23266119  1
  O2-  O190  1  0.82183525  0.57071722  0.57705525  1
  O2-  O191  1  0.82128323  0.57085520  0.90765301  1
  O2-  O192  1  0.04695013  0.08295252  0.26904694  1
  O2-  O193  1  0.04118191  0.08857812  0.60477396  1
  O2-  O194  1  0.05039969  0.08092995  0.93912630  1
  O2-  O195  1  0.03877976  0.59217469  0.27084074  1
  O2-  O196  1  0.04078968  0.58045752  0.59719394  1
  O2-  O197  1  0.04442047  0.58452832  0.92962550  1
  O2-  O198  1  0.53510775  0.08040320  0.26269079  1
  O2-  O199  1  0.54623922  0.07777560  0.60169356  1
  O2-  O200  1  0.53928821  0.08723032  0.93690849  1
  O2-  O201  1  0.55262228  0.58260307  0.27098443  1
  O2-  O202  1  0.54154717  0.58546432  0.59551115  1
  O2-  O203  1  0.53924187  0.58646452  0.94239949  1
  O2-  O204  1  0.16950649  0.19734045  0.27320634  1
  O2-  O205  1  0.16225921  0.20444133  0.60484492  1
  O2-  O206  1  0.16677290  0.20320813  0.93499462  1
  O2-  O207  1  0.16381084  0.70928986  0.27276186  1
  O2-  O208  1  0.17286727  0.70577386  0.59881945  1
  O2-  O209  1  0.16766245  0.71448669  0.93157775  1
  O2-  O210  1  0.66383236  0.20911722  0.26014373  1
  O2-  O211  1  0.66650860  0.21275545  0.59669802  1
  O2-  O212  1  0.66147675  0.20594901  0.93994786  1
  O2-  O213  1  0.66457491  0.70917047  0.26755477  1
  O2-  O214  1  0.66812279  0.70810351  0.59857288  1
  O2-  O215  1  0.66437972  0.70004913  0.94220589  1
  O2-  O216  1  0.08103591  0.45257501  0.05772549  1
  O2-  O217  1  0.08253165  0.46281274  0.40079508  1
  O2-  O218  1  0.07758271  0.45704104  0.73812236  1
  O2-  O219  1  0.08817806  0.95138576  0.06112446  1
  O2-  O220  1  0.07511446  0.95205400  0.39823917  1
  O2-  O221  1  0.08488004  0.96294541  0.73757510  1
  O2-  O222  1  0.58567997  0.46169794  0.07290436  1
  O2-  O223  1  0.58467282  0.44732748  0.39547732  1
  O2-  O224  1  0.58916492  0.45888312  0.72396634  1
  O2-  O225  1  0.57778165  0.95684390  0.06813406  1
  O2-  O226  1  0.58326737  0.95693975  0.39988181  1
  O2-  O227  1  0.57722659  0.95133446  0.73429362  1
  O2-  O228  1  0.20301595  0.33378221  0.06349746  1
  O2-  O229  1  0.19715336  0.32869735  0.39632304  1
  O2-  O230  1  0.20128664  0.32806667  0.73908744  1
  O2-  O231  1  0.21381023  0.83944019  0.06177187  1
  O2-  O232  1  0.21000828  0.83417112  0.40176088  1
  O2-  O233  1  0.21170015  0.83389224  0.73547411  1
  O2-  O234  1  0.70747393  0.33322339  0.06722305  1
  O2-  O235  1  0.70801626  0.33160953  0.39482799  1
  O2-  O236  1  0.70933547  0.33999908  0.72655800  1
  O2-  O237  1  0.70353664  0.82761868  0.06941434  1
  O2-  O238  1  0.71117498  0.83282652  0.40025986  1
  O2-  O239  1  0.70813194  0.82891972  0.73492297  1
  O2-  O240  1  0.45557793  0.41648538  0.26723392  1
  O2-  O241  1  0.46171849  0.41562340  0.59526960  1
  O2-  O242  1  0.45942792  0.41449307  0.94234664  1
  O2-  O243  1  0.45914238  0.90796054  0.26897871  1
  O2-  O244  1  0.44742804  0.91787762  0.60394436  1
  O2-  O245  1  0.45373859  0.91334623  0.93634111  1
  O2-  O246  1  0.96239449  0.41886343  0.26499261  1
  O2-  O247  1  0.95455637  0.41420200  0.60553681  1
  O2-  O248  1  0.95665302  0.41415527  0.92679803  1
  O2-  O249  1  0.94807996  0.91581785  0.27006861  1
  O2-  O250  1  0.95715230  0.92296031  0.60137278  1
  O2-  O251  1  0.95270689  0.91803609  0.94130856  1
  O2-  O252  1  0.33153901  0.30091729  0.26910412  1
  O2-  O253  1  0.32577025  0.29917934  0.60333049  1
  O2-  O254  1  0.33673926  0.29591524  0.93951694  1
  O2-  O255  1  0.33713594  0.79062872  0.26996205  1
  O2-  O256  1  0.33513093  0.79417095  0.60193423  1
  O2-  O257  1  0.33974323  0.79082081  0.93554999  1
  O2-  O258  1  0.83560662  0.29186353  0.26308376  1
  O2-  O259  1  0.83760657  0.29359125  0.60152393  1
  O2-  O260  1  0.83046341  0.28859987  0.93168935  1
  O2-  O261  1  0.83707028  0.78733618  0.26784192  1
  O2-  O262  1  0.83306874  0.79257856  0.59873333  1
  O2-  O263  1  0.83267646  0.79836694  0.93983050  1
  O2-  O264  1  0.41119040  0.04220450  0.06055331  1
  O2-  O265  1  0.41564758  0.03339189  0.40168279  1
  O2-  O266  1  0.41560433  0.04849983  0.73032317  1
  O2-  O267  1  0.41385758  0.53994309  0.07266812  1
  O2-  O268  1  0.42593153  0.54907987  0.39760809  1
  O2-  O269  1  0.42214780  0.53814208  0.73396418  1
  O2-  O270  1  0.92134876  0.04686107  0.07173928  1
  O2-  O271  1  0.91556854  0.05229372  0.39312932  1
  O2-  O272  1  0.91789615  0.04811240  0.73630553  1
  O2-  O273  1  0.91834518  0.54345260  0.05739608  1
  O2-  O274  1  0.91490676  0.53868871  0.40229641  1
  O2-  O275  1  0.91302635  0.54365658  0.72984889  1
  O2-  O276  1  0.29512350  0.16468066  0.06125029  1
  O2-  O277  1  0.30477232  0.17190085  0.39812242  1
  O2-  O278  1  0.29426549  0.16581320  0.73052030  1
  O2-  O279  1  0.28927938  0.66852850  0.06769073  1
  O2-  O280  1  0.29474490  0.66857327  0.40332680  1
  O2-  O281  1  0.29777756  0.66887026  0.73500576  1
  O2-  O282  1  0.79112119  0.16891286  0.07092427  1
  O2-  O283  1  0.79375143  0.16836198  0.39215761  1
  O2-  O284  1  0.78939188  0.17227223  0.73414064  1
  O2-  O285  1  0.80058259  0.66415338  0.06055265  1
  O2-  O286  1  0.78875861  0.66449956  0.40207677  1
  O2-  O287  1  0.79373498  0.66319658  0.72967829  1
