# generated using pymatgen
data_Ca2Al2SiO7
_symmetry_space_group_name_H-M   'P 1'
_cell_length_a   15.45872833
_cell_length_b   15.45949528
_cell_length_c   15.28474825
_cell_angle_alpha   89.99604231
_cell_angle_beta   89.98930780
_cell_angle_gamma   90.00045443
_symmetry_Int_Tables_number   1
_chemical_formula_structural   Ca2Al2SiO7
_chemical_formula_sum   'Ca48 Al48 Si24 O168'
_cell_volume   3652.81230751
_cell_formula_units_Z   24
loop_
 _symmetry_equiv_pos_site_id
 _symmetry_equiv_pos_as_xyz
  1  'x, y, z'
loop_
 _atom_type_symbol
 _atom_type_oxidation_number
  Ca2+  2.0
  Al0+  0.0
  Si0+  0.0
  O2-  -2.0
loop_
 _atom_site_type_symbol
 _atom_site_label
 _atom_site_symmetry_multiplicity
 _atom_site_fract_x
 _atom_site_fract_y
 _atom_site_fract_z
 _atom_site_occupancy
  Ca2+  Ca0  1  0.17345067  0.07600941  0.17218897  1
  Ca2+  Ca1  1  0.16622405  0.07467802  0.49966753  1
  Ca2+  Ca2  1  0.17279848  0.08296954  0.84064879  1
  Ca2+  Ca3  1  0.17380774  0.58609703  0.17867869  1
  Ca2+  Ca4  1  0.17687359  0.59347674  0.50232760  1
  Ca2+  Ca5  1  0.17111938  0.58810203  0.82975394  1
  Ca2+  Ca6  1  0.66691729  0.07827282  0.17419800  1
  Ca2+  Ca7  1  0.67217895  0.08331086  0.50520304  1
  Ca2+  Ca8  1  0.66980583  0.06961700  0.83456043  1
  Ca2+  Ca9  1  0.67503614  0.59151352  0.17070187  1
  Ca2+  Ca10  1  0.67630841  0.58354889  0.50529085  1
  Ca2+  Ca11  1  0.67454261  0.58469960  0.83622134  1
  Ca2+  Ca12  1  0.07450685  0.33724648  0.16738478  1
  Ca2+  Ca13  1  0.07384665  0.33169430  0.49424481  1
  Ca2+  Ca14  1  0.08188827  0.33033683  0.82969794  1
  Ca2+  Ca15  1  0.07894733  0.83110879  0.16723650  1
  Ca2+  Ca16  1  0.07846251  0.82431475  0.49525830  1
  Ca2+  Ca17  1  0.06778137  0.82885118  0.82403084  1
  Ca2+  Ca18  1  0.57420448  0.32770234  0.16612781  1
  Ca2+  Ca19  1  0.57945516  0.33503179  0.49278643  1
  Ca2+  Ca20  1  0.57422327  0.33873898  0.82640779  1
  Ca2+  Ca21  1  0.58945697  0.82313854  0.16391052  1
  Ca2+  Ca22  1  0.57871362  0.82966314  0.49363988  1
  Ca2+  Ca23  1  0.59093795  0.83133946  0.83316427  1
  Ca2+  Ca24  1  0.33681376  0.41835848  0.17204475  1
  Ca2+  Ca25  1  0.34258713  0.42647869  0.50282296  1
  Ca2+  Ca26  1  0.33855689  0.41852685  0.83390163  1
  Ca2+  Ca27  1  0.33072919  0.91638054  0.17585477  1
  Ca2+  Ca28  1  0.32619584  0.90415285  0.49886208  1
  Ca2+  Ca29  1  0.33185179  0.92584036  0.84117266  1
  Ca2+  Ca30  1  0.83381437  0.42801928  0.17664571  1
  Ca2+  Ca31  1  0.82819411  0.42412566  0.50463331  1
  Ca2+  Ca32  1  0.82824840  0.42886003  0.83499950  1
  Ca2+  Ca33  1  0.82931943  0.91710049  0.16942660  1
  Ca2+  Ca34  1  0.82782510  0.92585986  0.50907462  1
  Ca2+  Ca35  1  0.82591115  0.90726859  0.83544303  1
  Ca2+  Ca36  1  0.41590334  0.17316967  0.16224119  1
  Ca2+  Ca37  1  0.42650902  0.18027113  0.49085536  1
  Ca2+  Ca38  1  0.41351759  0.17671051  0.82824874  1
  Ca2+  Ca39  1  0.42767694  0.66760287  0.16906658  1
  Ca2+  Ca40  1  0.42299137  0.66486553  0.48787911  1
  Ca2+  Ca41  1  0.42521533  0.66185106  0.82884021  1
  Ca2+  Ca42  1  0.91069019  0.17087917  0.17034077  1
  Ca2+  Ca43  1  0.90650445  0.17052548  0.49165014  1
  Ca2+  Ca44  1  0.91655797  0.16375877  0.82650619  1
  Ca2+  Ca45  1  0.91906409  0.66591220  0.15990191  1
  Ca2+  Ca46  1  0.92416298  0.66123251  0.49552982  1
  Ca2+  Ca47  1  0.91307621  0.67350309  0.82641621  1
  Al0+  Al48  1  -0.00025866  0.00009247  -0.00370685  1
  Al0+  Al49  1  0.00086610  -0.00012225  0.34118163  1
  Al0+  Al50  1  0.00120543  -0.00049730  0.66578388  1
  Al0+  Al51  1  0.00133049  0.49914188  0.00075493  1
  Al0+  Al52  1  0.00125106  0.49955428  0.32929219  1
  Al0+  Al53  1  0.00290698  0.49818276  0.66708881  1
  Al0+  Al54  1  0.50091111  0.00025899  0.00934983  1
  Al0+  Al55  1  0.49832575  0.00126717  0.32892520  1
  Al0+  Al56  1  0.49971000  0.00138120  0.66952070  1
  Al0+  Al57  1  0.50030414  0.49920363  -0.00744679  1
  Al0+  Al58  1  0.50086635  0.50002591  0.32733766  1
  Al0+  Al59  1  0.49874029  0.50148880  0.66974866  1
  Al0+  Al60  1  0.24978768  0.25038672  0.00109895  1
  Al0+  Al61  1  0.24774347  0.24869905  0.33171960  1
  Al0+  Al62  1  0.24990862  0.25202717  0.65983462  1
  Al0+  Al63  1  0.25050209  0.74956312  0.00001292  1
  Al0+  Al64  1  0.24864109  0.74931183  0.33267823  1
  Al0+  Al65  1  0.24932609  0.74988635  0.67226594  1
  Al0+  Al66  1  0.74838863  0.25035652  -0.00242164  1
  Al0+  Al67  1  0.74937965  0.25089222  0.32654482  1
  Al0+  Al68  1  0.74864744  0.24881078  0.67679640  1
  Al0+  Al69  1  0.75090537  0.74955133  0.00077194  1
  Al0+  Al70  1  0.75161564  0.75184181  0.33690409  1
  Al0+  Al71  1  0.74963164  0.75180561  0.66693445  1
  Al0+  Al72  1  0.56989426  0.68102035  0.98433581  1
  Al0+  Al73  1  0.81820471  0.07100957  0.34510878  1
  Al0+  Al74  1  0.57471106  0.67986981  0.31967014  1
  Al0+  Al75  1  0.57218415  0.17875946  0.31823720  1
  Al0+  Al76  1  0.92626472  0.82147050  0.64812674  1
  Al0+  Al77  1  0.68135276  0.92913971  0.01666834  1
  Al0+  Al78  1  0.82002706  0.56883157  0.01447043  1
  Al0+  Al79  1  0.42942646  0.31790078  0.98350919  1
  Al0+  Al80  1  0.67735275  0.42951271  0.68104106  1
  Al0+  Al81  1  0.42707546  0.82029313  0.31987467  1
  Al0+  Al82  1  0.06940707  0.67963159  0.31884108  1
  Al0+  Al83  1  0.93112507  0.81953001  0.98751040  1
  Al0+  Al84  1  0.31991874  0.07136600  0.01411941  1
  Al0+  Al85  1  0.32015634  0.57170256  0.68088489  1
  Al0+  Al86  1  0.42727693  0.32171108  0.31731164  1
  Al0+  Al87  1  0.67695147  0.92901544  0.68122891  1
  Al0+  Al88  1  0.07141111  0.67822499  0.65103421  1
  Al0+  Al89  1  0.82308344  0.57298894  0.34681713  1
  Al0+  Al90  1  0.82391336  0.57080125  0.68090460  1
  Al0+  Al91  1  0.92920683  0.32073316  0.32060466  1
  Al0+  Al92  1  0.82296456  0.07121786  0.68277095  1
  Al0+  Al93  1  0.18072442  0.92884345  0.34794611  1
  Al0+  Al94  1  0.32097275  0.56779882  0.34448838  1
  Al0+  Al95  1  0.42997208  0.32265889  0.65076222  1
  Si0+  Si96  1  0.32225586  0.57096139  0.01504780  1
  Si0+  Si97  1  0.42652412  0.82354895  0.98378733  1
  Si0+  Si98  1  0.67957333  0.42936358  0.34629308  1
  Si0+  Si99  1  0.42842129  0.82378951  0.65547203  1
  Si0+  Si100  1  0.17895106  0.42523283  0.68334406  1
  Si0+  Si101  1  0.57309107  0.17492938  0.98071773  1
  Si0+  Si102  1  0.82421548  0.07422684  0.01740814  1
  Si0+  Si103  1  0.07102271  0.17512441  0.31643220  1
  Si0+  Si104  1  0.31858190  0.07279993  0.67930001  1
  Si0+  Si105  1  0.17963925  0.42893806  0.01528215  1
  Si0+  Si106  1  0.17968199  0.92869246  0.68379497  1
  Si0+  Si107  1  0.17679003  0.92802315  0.01557652  1
  Si0+  Si108  1  0.92921148  0.82431280  0.31788916  1
  Si0+  Si109  1  0.32303995  0.07409045  0.35224982  1
  Si0+  Si110  1  0.92790048  0.31855214  0.65435113  1
  Si0+  Si111  1  0.56972378  0.68010388  0.65266795  1
  Si0+  Si112  1  0.07254207  0.17841845  0.65102782  1
  Si0+  Si113  1  0.67555124  0.92776133  0.35036525  1
  Si0+  Si114  1  0.92787933  0.32314453  0.98374817  1
  Si0+  Si115  1  0.67604219  0.42701352  0.01787968  1
  Si0+  Si116  1  0.57109060  0.17744790  0.65207061  1
  Si0+  Si117  1  0.17690375  0.42567807  0.35004284  1
  Si0+  Si118  1  0.07490578  0.67511000  0.98257269  1
  Si0+  Si119  1  0.06921766  0.18103382  0.98625786  1
  O2-  O120  1  0.24983274  -0.00824242  0.05991692  1
  O2-  O121  1  0.25801753  0.00143732  0.39611912  1
  O2-  O122  1  0.24914647  0.00182240  0.72487925  1
  O2-  O123  1  0.24749608  0.50323249  0.05620843  1
  O2-  O124  1  0.24919287  0.49068842  0.39323258  1
  O2-  O125  1  0.24598845  0.49573353  0.72727011  1
  O2-  O126  1  0.75411257  0.00730101  0.06110415  1
  O2-  O127  1  0.74241473  -0.00113733  0.39323501  1
  O2-  O128  1  0.75426064  -0.00411341  0.73167291  1
  O2-  O129  1  0.74731585  0.49259641  0.06239721  1
  O2-  O130  1  0.74556804  0.50024005  0.39134288  1
  O2-  O131  1  0.74994734  0.50089639  0.73150228  1
  O2-  O132  1  0.00378076  0.24544505  0.27272461  1
  O2-  O133  1  -0.00463106  0.24389142  0.61141802  1
  O2-  O134  1  -0.00484630  0.24797028  0.94192060  1
  O2-  O135  1  -0.00830741  0.75073499  0.27193346  1
  O2-  O136  1  -0.00414409  0.74586610  0.60002681  1
  O2-  O137  1  0.00662061  0.74502095  0.94080881  1
  O2-  O138  1  0.49520404  0.24568739  0.26797434  1
  O2-  O139  1  0.50757777  0.25031561  0.60685027  1
  O2-  O140  1  0.50465447  0.24387268  0.93598131  1
  O2-  O141  1  0.50404327  0.75399788  0.26975845  1
  O2-  O142  1  0.49948438  0.75325146  0.61339312  1
  O2-  O143  1  0.49367836  0.75503734  0.93712101  1
  O2-  O144  1  0.06962506  0.18223276  0.09088220  1
  O2-  O145  1  0.07138883  0.17569262  0.42221171  1
  O2-  O146  1  0.07689396  0.18120976  0.75672644  1
  O2-  O147  1  0.07630413  0.67390377  0.08802368  1
  O2-  O148  1  0.07136446  0.68038007  0.43147465  1
  O2-  O149  1  0.07403079  0.68300260  0.76499518  1
  O2-  O150  1  0.57341185  0.17742082  0.08603125  1
  O2-  O151  1  0.57357117  0.18239443  0.43228112  1
  O2-  O152  1  0.56549864  0.17428024  0.75751863  1
  O2-  O153  1  0.56930490  0.68111636  0.09702606  1
  O2-  O154  1  0.57377519  0.67927685  0.43375089  1
  O2-  O155  1  0.56827577  0.67953933  0.75806465  1
  O2-  O156  1  0.17553723  0.42743044  0.24388731  1
  O2-  O157  1  0.17798362  0.42009013  0.57851855  1
  O2-  O158  1  0.17849654  0.42620130  0.91013231  1
  O2-  O159  1  0.17963365  0.93210908  0.23449506  1
  O2-  O160  1  0.18132626  0.92798455  0.57892466  1
  O2-  O161  1  0.17684819  0.93172041  0.90970016  1
  O2-  O162  1  0.68231439  0.42877545  0.24057696  1
  O2-  O163  1  0.67901416  0.42991919  0.56716090  1
  O2-  O164  1  0.67763051  0.42814787  0.91223293  1
  O2-  O165  1  0.67938435  0.92622057  0.24477666  1
  O2-  O166  1  0.67124658  0.93363133  0.56804565  1
  O2-  O167  1  0.68231718  0.92947078  0.90374055  1
  O2-  O168  1  0.42779249  0.31692794  0.09601752  1
  O2-  O169  1  0.43041409  0.32257115  0.43098762  1
  O2-  O170  1  0.42693240  0.31810140  0.76407223  1
  O2-  O171  1  0.42371380  0.82038857  0.08871906  1
  O2-  O172  1  0.42738284  0.81619160  0.43439057  1
  O2-  O173  1  0.42792014  0.82520353  0.76075125  1
  O2-  O174  1  0.93075258  0.32447890  0.08854819  1
  O2-  O175  1  0.92938455  0.31908981  0.43407872  1
  O2-  O176  1  0.93256621  0.31806073  0.75993240  1
  O2-  O177  1  0.93420998  0.82077061  0.10071640  1
  O2-  O178  1  0.93247018  0.82580273  0.42296188  1
  O2-  O179  1  0.92956508  0.82129912  0.76225816  1
  O2-  O180  1  0.31815412  0.07604367  0.24657647  1
  O2-  O181  1  0.31641515  0.07220306  0.57479534  1
  O2-  O182  1  0.31518255  0.07235073  0.90006468  1
  O2-  O183  1  0.31912577  0.56713945  0.23089654  1
  O2-  O184  1  0.32129119  0.57244265  0.56810914  1
  O2-  O185  1  0.32091129  0.57034698  0.90975321  1
  O2-  O186  1  0.81925807  0.06854452  0.23176163  1
  O2-  O187  1  0.81952849  0.07430658  0.56921923  1
  O2-  O188  1  0.82601284  0.07425273  0.91212072  1
  O2-  O189  1  0.82352958  0.57113853  0.23340850  1
  O2-  O190  1  0.82392055  0.56698359  0.56734694  1
  O2-  O191  1  0.82058262  0.56737500  0.90154567  1
  O2-  O192  1  0.04309458  0.08245848  0.27010194  1
  O2-  O193  1  0.05194418  0.08467967  0.60525041  1
  O2-  O194  1  0.04616219  0.08880741  0.93659804  1
  O2-  O195  1  0.04430008  0.58220292  0.26381412  1
  O2-  O196  1  0.05149263  0.57622628  0.60136955  1
  O2-  O197  1  0.05007702  0.58091788  0.93699425  1
  O2-  O198  1  0.54840698  0.07942163  0.26536079  1
  O2-  O199  1  0.54020841  0.08635379  0.60355025  1
  O2-  O200  1  0.54627562  0.08024011  0.93806438  1
  O2-  O201  1  0.54532227  0.58322253  0.26444126  1
  O2-  O202  1  0.53878063  0.58965833  0.60558625  1
  O2-  O203  1  0.53868181  0.58514483  0.92877959  1
  O2-  O204  1  0.16453167  0.19893458  0.26949129  1
  O2-  O205  1  0.16029945  0.21138273  0.59938134  1
  O2-  O206  1  0.15892584  0.21351988  0.93676052  1
  O2-  O207  1  0.16375806  0.71434871  0.26339673  1
  O2-  O208  1  0.17006682  0.71271269  0.60083828  1
  O2-  O209  1  0.16926848  0.69991721  0.93685514  1
  O2-  O210  1  0.66692938  0.21046340  0.26000812  1
  O2-  O211  1  0.66768137  0.19902986  0.61122358  1
  O2-  O212  1  0.66760821  0.19892656  0.93471414  1
  O2-  O213  1  0.67333234  0.70956798  0.26658883  1
  O2-  O214  1  0.66185766  0.70530064  0.60569590  1
  O2-  O215  1  0.66608496  0.71364105  0.93139164  1
  O2-  O216  1  0.08703367  0.45334551  0.06313409  1
  O2-  O217  1  0.08447652  0.45392880  0.39633328  1
  O2-  O218  1  0.08593723  0.44889407  0.73202759  1
  O2-  O219  1  0.08534862  0.95972528  0.06220481  1
  O2-  O220  1  0.08722940  0.96319290  0.40593313  1
  O2-  O221  1  0.08820507  0.95744770  0.73090212  1
  O2-  O222  1  0.58207388  0.45491308  0.06119401  1
  O2-  O223  1  0.58482863  0.45189386  0.39054928  1
  O2-  O224  1  0.58050409  0.45994761  0.73574413  1
  O2-  O225  1  0.58416975  0.95528174  0.07159143  1
  O2-  O226  1  0.57970628  0.95021468  0.39304164  1
  O2-  O227  1  0.58006793  0.96142623  0.73785595  1
  O2-  O228  1  0.20911295  0.33871095  0.06427370  1
  O2-  O229  1  0.19545598  0.32962974  0.39427108  1
  O2-  O230  1  0.20756196  0.33245031  0.73143932  1
  O2-  O231  1  0.19725607  0.83200569  0.05912459  1
  O2-  O232  1  0.21159699  0.83304681  0.40309660  1
  O2-  O233  1  0.20884855  0.83948209  0.73467929  1
  O2-  O234  1  0.69866903  0.33129050  0.06110777  1
  O2-  O235  1  0.70842757  0.33699560  0.39248072  1
  O2-  O236  1  0.70231769  0.33173471  0.73735257  1
  O2-  O237  1  0.71660011  0.83433141  0.07059542  1
  O2-  O238  1  0.70277945  0.83593725  0.39886627  1
  O2-  O239  1  0.70190742  0.82988419  0.73418754  1
  O2-  O240  1  0.45848626  0.41749577  0.26142822  1
  O2-  O241  1  0.45943349  0.42065195  0.59981064  1
  O2-  O242  1  0.45906148  0.41449959  0.92870930  1
  O2-  O243  1  0.44472261  0.92199926  0.27006124  1
  O2-  O244  1  0.45395651  0.91558587  0.60683293  1
  O2-  O245  1  0.45195727  0.91895789  0.94129084  1
  O2-  O246  1  0.96390388  0.41413476  0.26255902  1
  O2-  O247  1  0.95963205  0.40840178  0.60607987  1
  O2-  O248  1  0.96236875  0.41199439  0.93432719  1
  O2-  O249  1  0.96187108  0.91594320  0.27149248  1
  O2-  O250  1  0.95964947  0.92005014  0.59770283  1
  O2-  O251  1  0.96050453  0.91645517  0.93166906  1
  O2-  O252  1  0.32634224  0.29628986  0.26713694  1
  O2-  O253  1  0.33415387  0.29061301  0.59611186  1
  O2-  O254  1  0.33159999  0.28630011  0.93074923  1
  O2-  O255  1  0.33105617  0.78864321  0.26462981  1
  O2-  O256  1  0.33597307  0.79522339  0.61050965  1
  O2-  O257  1  0.33164855  0.80041283  0.93709972  1
  O2-  O258  1  0.83549321  0.29039830  0.26180413  1
  O2-  O259  1  0.83419963  0.29325963  0.61024043  1
  O2-  O260  1  0.83429830  0.30024247  0.93780562  1
  O2-  O261  1  0.83333607  0.80484897  0.27518710  1
  O2-  O262  1  0.82526444  0.80078878  0.59796218  1
  O2-  O263  1  0.83594970  0.78631277  0.93342425  1
  O2-  O264  1  0.41672119  0.04709387  0.06913389  1
  O2-  O265  1  0.41877098  0.05421089  0.39554084  1
  O2-  O266  1  0.40979910  0.04624673  0.72814190  1
  O2-  O267  1  0.41349528  0.53872586  0.05984109  1
  O2-  O268  1  0.41907792  0.53947040  0.39742866  1
  O2-  O269  1  0.41475635  0.53974816  0.73743045  1
  O2-  O270  1  0.91849172  0.04823574  0.06212196  1
  O2-  O271  1  0.91499002  0.04368677  0.40032204  1
  O2-  O272  1  0.92485531  0.04884228  0.73243549  1
  O2-  O273  1  0.91861153  0.53850074  0.06611378  1
  O2-  O274  1  0.91909372  0.53710072  0.39828496  1
  O2-  O275  1  0.92195492  0.54008498  0.73413613  1
  O2-  O276  1  0.28184646  0.16524340  0.06876623  1
  O2-  O277  1  0.29192860  0.16609360  0.39925888  1
  O2-  O278  1  0.28748072  0.16430060  0.72620068  1
  O2-  O279  1  0.29804563  0.66441813  0.06111437  1
  O2-  O280  1  0.28741809  0.66335411  0.39801912  1
  O2-  O281  1  0.28925183  0.66681220  0.73924488  1
  O2-  O282  1  0.80050425  0.16998607  0.06070211  1
  O2-  O283  1  0.78875008  0.16947385  0.39644556  1
  O2-  O284  1  0.79458678  0.16744984  0.74039385  1
  O2-  O285  1  0.78888667  0.66471769  0.06804511  1
  O2-  O286  1  0.79648941  0.67014728  0.40141229  1
  O2-  O287  1  0.79514886  0.66989807  0.73109171  1
