# generated using pymatgen
data_Ca2Al2SiO7
_symmetry_space_group_name_H-M   'P 1'
_cell_length_a   15.45826876
_cell_length_b   15.45845797
_cell_length_c   15.28424935
_cell_angle_alpha   90.01335173
_cell_angle_beta   90.00116488
_cell_angle_gamma   90.00134628
_symmetry_Int_Tables_number   1
_chemical_formula_structural   Ca2Al2SiO7
_chemical_formula_sum   'Ca48 Al48 Si24 O168'
_cell_volume   3652.33937723
_cell_formula_units_Z   24
loop_
 _symmetry_equiv_pos_site_id
 _symmetry_equiv_pos_as_xyz
  1  'x, y, z'
loop_
 _atom_type_symbol
 _atom_type_oxidation_number
  Ca2+  2.0
  Al0+  0.0
  Si0+  0.0
  O2-  -2.0
loop_
 _atom_site_type_symbol
 _atom_site_label
 _atom_site_symmetry_multiplicity
 _atom_site_fract_x
 _atom_site_fract_y
 _atom_site_fract_z
 _atom_site_occupancy
  Ca2+  Ca0  1  0.16652615  0.08210936  0.16739514  1
  Ca2+  Ca1  1  0.17522834  0.08496942  0.50672880  1
  Ca2+  Ca2  1  0.15846838  0.07882992  0.83417983  1
  Ca2+  Ca3  1  0.16764699  0.57246170  0.16779734  1
  Ca2+  Ca4  1  0.16163194  0.57495951  0.50114819  1
  Ca2+  Ca5  1  0.17016679  0.57690871  0.84557468  1
  Ca2+  Ca6  1  0.67621614  0.07387221  0.17806483  1
  Ca2+  Ca7  1  0.67409805  0.07270889  0.50262787  1
  Ca2+  Ca8  1  0.66927289  0.07607712  0.83397595  1
  Ca2+  Ca9  1  0.66384680  0.58822916  0.16917838  1
  Ca2+  Ca10  1  0.67174220  0.57848789  0.50777818  1
  Ca2+  Ca11  1  0.67193184  0.58127086  0.83235809  1
  Ca2+  Ca12  1  0.07809168  0.33048596  0.15998685  1
  Ca2+  Ca13  1  0.07536229  0.33010299  0.49413469  1
  Ca2+  Ca14  1  0.08240456  0.32590877  0.82750837  1
  Ca2+  Ca15  1  0.07332533  0.84197330  0.15959658  1
  Ca2+  Ca16  1  0.07316916  0.83990837  0.50044341  1
  Ca2+  Ca17  1  0.07584188  0.84165443  0.82783547  1
  Ca2+  Ca18  1  0.57490478  0.33227019  0.16469882  1
  Ca2+  Ca19  1  0.57815156  0.33437104  0.49444298  1
  Ca2+  Ca20  1  0.58274803  0.33421678  0.82756090  1
  Ca2+  Ca21  1  0.58142596  0.82497179  0.16025010  1
  Ca2+  Ca22  1  0.59202949  0.82958138  0.49273514  1
  Ca2+  Ca23  1  0.57891550  0.83032134  0.83141881  1
  Ca2+  Ca24  1  0.32169673  0.41483928  0.17142000  1
  Ca2+  Ca25  1  0.32842963  0.41195440  0.49891790  1
  Ca2+  Ca26  1  0.32535643  0.42397919  0.84413514  1
  Ca2+  Ca27  1  0.32920507  0.91814897  0.16954767  1
  Ca2+  Ca28  1  0.32889164  0.92955270  0.51003317  1
  Ca2+  Ca29  1  0.32025930  0.91896074  0.84014828  1
  Ca2+  Ca30  1  0.83713972  0.41518126  0.17234276  1
  Ca2+  Ca31  1  0.83380256  0.42054763  0.51040637  1
  Ca2+  Ca32  1  0.83798070  0.41663228  0.83439928  1
  Ca2+  Ca33  1  0.83459040  0.92057275  0.17694410  1
  Ca2+  Ca34  1  0.82753112  0.91174170  0.50261710  1
  Ca2+  Ca35  1  0.83193290  0.90875440  0.83613059  1
  Ca2+  Ca36  1  0.41070746  0.16798403  0.17029414  1
  Ca2+  Ca37  1  0.41297619  0.16657099  0.49380496  1
  Ca2+  Ca38  1  0.41558594  0.16519958  0.82793412  1
  Ca2+  Ca39  1  0.42750041  0.66787829  0.15648452  1
  Ca2+  Ca40  1  0.42682731  0.67043673  0.49130762  1
  Ca2+  Ca41  1  0.41488990  0.66896153  0.83519495  1
  Ca2+  Ca42  1  0.91843595  0.17469197  0.15896483  1
  Ca2+  Ca43  1  0.91792060  0.17354732  0.49562808  1
  Ca2+  Ca44  1  0.92973019  0.17615751  0.82791600  1
  Ca2+  Ca45  1  0.91742091  0.68007762  0.16354769  1
  Ca2+  Ca46  1  0.90930149  0.67587791  0.49896742  1
  Ca2+  Ca47  1  0.91507521  0.67457941  0.82888916  1
  Al0+  Al48  1  -0.00073481  0.00312462  -0.00354824  1
  Al0+  Al49  1  0.00065893  0.00202621  0.33414213  1
  Al0+  Al50  1  0.00042415  0.00145201  0.65889898  1
  Al0+  Al51  1  -0.00295964  0.50265710  0.00297960  1
  Al0+  Al52  1  0.00015438  0.49968021  0.33408152  1
  Al0+  Al53  1  0.00031720  0.50176232  0.66898767  1
  Al0+  Al54  1  0.50007882  -0.00111449  -0.00201949  1
  Al0+  Al55  1  0.49989239  -0.00113367  0.34023817  1
  Al0+  Al56  1  0.50069859  0.00084179  0.67393616  1
  Al0+  Al57  1  0.50256629  0.49952218  -0.00152612  1
  Al0+  Al58  1  0.49893867  0.49989656  0.32436004  1
  Al0+  Al59  1  0.50121039  0.50024449  0.66923837  1
  Al0+  Al60  1  0.25039741  0.24869048  -0.00031693  1
  Al0+  Al61  1  0.24910637  0.25047910  0.33688284  1
  Al0+  Al62  1  0.25148356  0.25138639  0.66691222  1
  Al0+  Al63  1  0.25072443  0.75117028  0.00778563  1
  Al0+  Al64  1  0.25042804  0.74733737  0.33427464  1
  Al0+  Al65  1  0.25043691  0.75153613  0.66655740  1
  Al0+  Al66  1  0.74949079  0.25030717  -0.00300249  1
  Al0+  Al67  1  0.74891271  0.24930095  0.33322005  1
  Al0+  Al68  1  0.74722878  0.24870504  0.66623573  1
  Al0+  Al69  1  0.74821747  0.74760425  -0.00676925  1
  Al0+  Al70  1  0.75120386  0.74834265  0.32753302  1
  Al0+  Al71  1  0.74967668  0.74808748  0.67158465  1
  Al0+  Al72  1  0.92831408  0.32224210  0.65082659  1
  Al0+  Al73  1  0.57056815  0.68034303  0.32026865  1
  Al0+  Al74  1  0.17778914  0.92961020  0.68128563  1
  Al0+  Al75  1  0.92831863  0.81940626  0.65242305  1
  Al0+  Al76  1  0.17683858  0.93101553  0.01447146  1
  Al0+  Al77  1  0.92739750  0.32397265  0.98450675  1
  Al0+  Al78  1  0.82345357  0.07377617  0.34869973  1
  Al0+  Al79  1  0.93025177  0.82168399  0.98641959  1
  Al0+  Al80  1  0.82220663  0.56988304  0.68285062  1
  Al0+  Al81  1  0.57064959  0.67699046  0.97955532  1
  Al0+  Al82  1  0.42833401  0.31911492  0.31934986  1
  Al0+  Al83  1  0.92744343  0.32128926  0.31990865  1
  Al0+  Al84  1  0.32323963  0.57173635  0.01667539  1
  Al0+  Al85  1  0.32070562  0.07341991  0.68418984  1
  Al0+  Al86  1  0.68104505  0.92806686  0.68271230  1
  Al0+  Al87  1  0.31898118  0.06885713  0.34649850  1
  Al0+  Al88  1  0.17886156  0.43034176  0.34870849  1
  Al0+  Al89  1  0.17741939  0.42766031  0.01513809  1
  Al0+  Al90  1  0.68181533  0.92640680  0.34622602  1
  Al0+  Al91  1  0.93232266  0.82066374  0.32007615  1
  Al0+  Al92  1  0.67802876  0.42719193  0.68090018  1
  Al0+  Al93  1  0.07238401  0.18068222  0.98494081  1
  Al0+  Al94  1  0.42716170  0.82230792  0.98454055  1
  Al0+  Al95  1  0.07295896  0.18010229  0.64751266  1
  Si0+  Si96  1  0.67614579  0.42887314  0.34504557  1
  Si0+  Si97  1  0.67904053  0.92780122  0.01451548  1
  Si0+  Si98  1  0.81996906  0.56920273  0.34622287  1
  Si0+  Si99  1  0.57029372  0.17630294  0.65077237  1
  Si0+  Si100  1  0.32442110  0.57065058  0.35051248  1
  Si0+  Si101  1  0.56871675  0.67982205  0.65107274  1
  Si0+  Si102  1  0.82243407  0.07267197  0.68375251  1
  Si0+  Si103  1  0.68016720  0.42670408  0.01721587  1
  Si0+  Si104  1  0.81883303  0.07099290  0.01285068  1
  Si0+  Si105  1  0.32516725  0.07135286  0.01806903  1
  Si0+  Si106  1  0.57175511  0.17850221  0.98537555  1
  Si0+  Si107  1  0.07244320  0.17978949  0.31641738  1
  Si0+  Si108  1  0.42858614  0.82225669  0.65141668  1
  Si0+  Si109  1  0.81887456  0.57259042  0.01782413  1
  Si0+  Si110  1  0.07202290  0.67885678  0.98648922  1
  Si0+  Si111  1  0.17659881  0.92449536  0.35021308  1
  Si0+  Si112  1  0.07362325  0.67602039  0.31643281  1
  Si0+  Si113  1  0.07563706  0.67763115  0.65083226  1
  Si0+  Si114  1  0.57141319  0.17572997  0.31748675  1
  Si0+  Si115  1  0.42988824  0.31936806  0.98505297  1
  Si0+  Si116  1  0.32283103  0.57205200  0.67947020  1
  Si0+  Si117  1  0.42627308  0.82381819  0.31907400  1
  Si0+  Si118  1  0.18008814  0.43105753  0.68112442  1
  Si0+  Si119  1  0.43103278  0.32242618  0.65254048  1
  O2-  O120  1  0.25511978  0.00316564  0.06028863  1
  O2-  O121  1  0.24795233  -0.00905156  0.39309214  1
  O2-  O122  1  0.24754543  0.00286245  0.73321147  1
  O2-  O123  1  0.25062799  0.49923778  0.06515028  1
  O2-  O124  1  0.25325527  0.50581287  0.39664147  1
  O2-  O125  1  0.24874862  0.50486111  0.72207116  1
  O2-  O126  1  0.75112377  -0.00281216  0.05655845  1
  O2-  O127  1  0.75374819  -0.00182890  0.39706753  1
  O2-  O128  1  0.75821382  0.00015059  0.72996974  1
  O2-  O129  1  0.75075073  0.49797795  0.05963731  1
  O2-  O130  1  0.75095971  0.49542782  0.38735388  1
  O2-  O131  1  0.75480958  0.49275651  0.73239004  1
  O2-  O132  1  -0.00101134  0.24398234  0.27306680  1
  O2-  O133  1  -0.00075700  0.25102947  0.59827347  1
  O2-  O134  1  0.00495218  0.25779630  0.93616856  1
  O2-  O135  1  0.01180914  0.75118162  0.27275231  1
  O2-  O136  1  0.00592335  0.74603923  0.60742841  1
  O2-  O137  1  0.00814490  0.75037253  0.93998582  1
  O2-  O138  1  0.50249970  0.24379662  0.27201056  1
  O2-  O139  1  0.50008894  0.24938216  0.61041815  1
  O2-  O140  1  0.49920496  0.24742458  0.94196762  1
  O2-  O141  1  0.49496203  0.75501240  0.27539337  1
  O2-  O142  1  0.50023102  0.75244379  0.60761092  1
  O2-  O143  1  0.49627176  0.74815675  0.93222309  1
  O2-  O144  1  0.06941982  0.17906948  0.09884376  1
  O2-  O145  1  0.07455609  0.18313979  0.42164726  1
  O2-  O146  1  0.07354356  0.18327483  0.76098836  1
  O2-  O147  1  0.06671382  0.67740969  0.09209234  1
  O2-  O148  1  0.07138632  0.67350627  0.42206619  1
  O2-  O149  1  0.07888906  0.67646109  0.75620650  1
  O2-  O150  1  0.57326481  0.18013330  0.09033621  1
  O2-  O151  1  0.57124569  0.17745309  0.42301360  1
  O2-  O152  1  0.56949394  0.17607622  0.75639626  1
  O2-  O153  1  0.57279861  0.68014110  0.09343340  1
  O2-  O154  1  0.57026888  0.67886795  0.43392106  1
  O2-  O155  1  0.56539270  0.67844169  0.75562703  1
  O2-  O156  1  0.17913916  0.43092732  0.23604681  1
  O2-  O157  1  0.18144133  0.43145656  0.57590208  1
  O2-  O158  1  0.18103170  0.42950452  0.90088277  1
  O2-  O159  1  0.17634521  0.92578648  0.24445767  1
  O2-  O160  1  0.18286048  0.92692696  0.56760301  1
  O2-  O161  1  0.17518359  0.93288065  0.90186252  1
  O2-  O162  1  0.67543088  0.43003813  0.23975551  1
  O2-  O163  1  0.67158676  0.43266865  0.56708007  1
  O2-  O164  1  0.67940107  0.42468824  0.91246460  1
  O2-  O165  1  0.68259476  0.92752319  0.23215868  1
  O2-  O166  1  0.68044705  0.92767108  0.56970402  1
  O2-  O167  1  0.67884762  0.93028128  0.90933171  1
  O2-  O168  1  0.43118686  0.31814618  0.09011178  1
  O2-  O169  1  0.43156598  0.32028850  0.43278485  1
  O2-  O170  1  0.43246522  0.32409277  0.75787219  1
  O2-  O171  1  0.43310332  0.82566316  0.09838336  1
  O2-  O172  1  0.42620245  0.82143097  0.42499754  1
  O2-  O173  1  0.42768354  0.81887201  0.75611907  1
  O2-  O174  1  0.92408467  0.31929020  0.09829373  1
  O2-  O175  1  0.92862832  0.32412920  0.43254488  1
  O2-  O176  1  0.93228529  0.32174146  0.76415588  1
  O2-  O177  1  0.92902561  0.82119221  0.09975660  1
  O2-  O178  1  0.92932443  0.81644871  0.43295426  1
  O2-  O179  1  0.92850260  0.81670966  0.76552773  1
  O2-  O180  1  0.31760264  0.06874776  0.23326907  1
  O2-  O181  1  0.32210282  0.07194969  0.57038763  1
  O2-  O182  1  0.32892910  0.07139947  0.91308687  1
  O2-  O183  1  0.32508092  0.56839432  0.24561205  1
  O2-  O184  1  0.32567806  0.56962314  0.57440671  1
  O2-  O185  1  0.32121266  0.56816473  0.90196338  1
  O2-  O186  1  0.82072138  0.07338291  0.23420237  1
  O2-  O187  1  0.81708390  0.07365503  0.57839054  1
  O2-  O188  1  0.81477374  0.07129269  0.90797148  1
  O2-  O189  1  0.81902560  0.56999324  0.24097309  1
  O2-  O190  1  0.81708793  0.57232608  0.56857007  1
  O2-  O191  1  0.81800928  0.57394993  0.91319094  1
  O2-  O192  1  0.05287973  0.08394647  0.27248952  1
  O2-  O193  1  0.04824805  0.08143809  0.59397374  1
  O2-  O194  1  0.03659669  0.08616448  0.92927056  1
  O2-  O195  1  0.04066700  0.58582216  0.26830541  1
  O2-  O196  1  0.04925491  0.58427678  0.60441179  1
  O2-  O197  1  0.04258783  0.58703002  0.93851829  1
  O2-  O198  1  0.54523250  0.08175023  0.27208092  1
  O2-  O199  1  0.54067580  0.08501039  0.60338705  1
  O2-  O200  1  0.54602871  0.08651047  0.93747392  1
  O2-  O201  1  0.53978432  0.58543048  0.26279932  1
  O2-  O202  1  0.53842795  0.58829935  0.60344297  1
  O2-  O203  1  0.54571974  0.57685364  0.92824936  1
  O2-  O204  1  0.16387619  0.21062937  0.26950733  1
  O2-  O205  1  0.17217771  0.21203104  0.59688850  1
  O2-  O206  1  0.17297534  0.20221781  0.93272981  1
  O2-  O207  1  0.17060077  0.69252238  0.27333256  1
  O2-  O208  1  0.16889250  0.70179679  0.60168925  1
  O2-  O209  1  0.16853343  0.69755754  0.94521320  1
  O2-  O210  1  0.66377474  0.20253980  0.26952320  1
  O2-  O211  1  0.66152358  0.20224253  0.60199083  1
  O2-  O212  1  0.66112689  0.20879733  0.93490543  1
  O2-  O213  1  0.66574066  0.70979760  0.26300457  1
  O2-  O214  1  0.66156508  0.70634895  0.60605289  1
  O2-  O215  1  0.66715912  0.70810774  0.92532820  1
  O2-  O216  1  0.07878288  0.45767630  0.06743253  1
  O2-  O217  1  0.08312499  0.46354962  0.40378715  1
  O2-  O218  1  0.08853711  0.45648319  0.72894662  1
  O2-  O219  1  0.08096197  0.96648764  0.06856956  1
  O2-  O220  1  0.08403272  0.95237650  0.39624382  1
  O2-  O221  1  0.07719084  0.95644268  0.73016483  1
  O2-  O222  1  0.58793351  0.45435137  0.06398761  1
  O2-  O223  1  0.58525542  0.46056913  0.39198975  1
  O2-  O224  1  0.58215382  0.46179567  0.73718825  1
  O2-  O225  1  0.58781243  0.95771866  0.06162695  1
  O2-  O226  1  0.58326265  0.95227705  0.40030353  1
  O2-  O227  1  0.58622846  0.96231736  0.73805563  1
  O2-  O228  1  0.20830115  0.32933582  0.06718914  1
  O2-  O229  1  0.21284055  0.33591482  0.40402282  1
  O2-  O230  1  0.21240035  0.34127453  0.72868926  1
  O2-  O231  1  0.20282594  0.83414705  0.07038657  1
  O2-  O232  1  0.19754429  0.82880192  0.39455489  1
  O2-  O233  1  0.20724548  0.83058856  0.73381341  1
  O2-  O234  1  0.70663356  0.33442043  0.06519611  1
  O2-  O235  1  0.69709435  0.33530095  0.39141824  1
  O2-  O236  1  0.69607836  0.32571611  0.73170799  1
  O2-  O237  1  0.70514731  0.83407086  0.05797059  1
  O2-  O238  1  0.71249246  0.82796408  0.39870733  1
  O2-  O239  1  0.70849629  0.83157879  0.73745129  1
  O2-  O240  1  0.46015091  0.41335474  0.26189245  1
  O2-  O241  1  0.46090176  0.41343544  0.60393047  1
  O2-  O242  1  0.46011863  0.41003003  0.93717889  1
  O2-  O243  1  0.45105480  0.91785457  0.27418727  1
  O2-  O244  1  0.45702412  0.91544557  0.60776370  1
  O2-  O245  1  0.45870491  0.91952279  0.92994470  1
  O2-  O246  1  0.95984811  0.41793958  0.26648189  1
  O2-  O247  1  0.95595281  0.42289546  0.60120268  1
  O2-  O248  1  0.94748179  0.42617531  0.93711273  1
  O2-  O249  1  0.95826823  0.91964027  0.26758369  1
  O2-  O250  1  0.95492233  0.91626536  0.59719866  1
  O2-  O251  1  0.95645457  0.91882508  0.93265484  1
  O2-  O252  1  0.33214241  0.28669318  0.26595849  1
  O2-  O253  1  0.33906360  0.29697165  0.60488286  1
  O2-  O254  1  0.33812641  0.29390416  0.93695453  1
  O2-  O255  1  0.33204977  0.79915335  0.27336437  1
  O2-  O256  1  0.33774703  0.79393299  0.60209188  1
  O2-  O257  1  0.32667075  0.79582762  0.93483406  1
  O2-  O258  1  0.82870632  0.29498931  0.26690897  1
  O2-  O259  1  0.82696409  0.29620809  0.60180129  1
  O2-  O260  1  0.83032624  0.29081821  0.93105486  1
  O2-  O261  1  0.83836711  0.78487534  0.26389687  1
  O2-  O262  1  0.83166621  0.78380197  0.60005928  1
  O2-  O263  1  0.83518802  0.78688009  0.93263251  1
  O2-  O264  1  0.41887352  0.04562509  0.06531223  1
  O2-  O265  1  0.41652534  0.04377217  0.40236388  1
  O2-  O266  1  0.41880688  0.04500556  0.73725022  1
  O2-  O267  1  0.42293984  0.54157368  0.06614570  1
  O2-  O268  1  0.41728965  0.54076107  0.39647278  1
  O2-  O269  1  0.41203015  0.54060574  0.72940744  1
  O2-  O270  1  0.91098792  0.04615059  0.05976136  1
  O2-  O271  1  0.92320784  0.05052770  0.40002264  1
  O2-  O272  1  0.91846529  0.05165243  0.72465444  1
  O2-  O273  1  0.91126080  0.55033111  0.06672305  1
  O2-  O274  1  0.91182858  0.54471660  0.39446197  1
  O2-  O275  1  0.92243076  0.54901794  0.73606344  1
  O2-  O276  1  0.30002357  0.16561649  0.06308403  1
  O2-  O277  1  0.28784128  0.16489542  0.40132531  1
  O2-  O278  1  0.29745801  0.17413881  0.73517007  1
  O2-  O279  1  0.29912191  0.66994798  0.07126081  1
  O2-  O280  1  0.30355996  0.66603875  0.39614944  1
  O2-  O281  1  0.29903210  0.66506045  0.72568217  1
  O2-  O282  1  0.78685680  0.16171634  0.06087950  1
  O2-  O283  1  0.79012865  0.17054348  0.40275475  1
  O2-  O284  1  0.79095579  0.16388576  0.73139229  1
  O2-  O285  1  0.78556828  0.66326241  0.06529461  1
  O2-  O286  1  0.78840403  0.65956722  0.39364231  1
  O2-  O287  1  0.78662010  0.66435750  0.73857654  1
