# generated using pymatgen
data_Ca2Al2SiO7
_symmetry_space_group_name_H-M   'P 1'
_cell_length_a   15.46040209
_cell_length_b   15.46010312
_cell_length_c   15.28570326
_cell_angle_alpha   90.00998409
_cell_angle_beta   89.99947022
_cell_angle_gamma   90.02589995
_symmetry_Int_Tables_number   1
_chemical_formula_structural   Ca2Al2SiO7
_chemical_formula_sum   'Ca48 Al48 Si24 O168'
_cell_volume   3653.57935412
_cell_formula_units_Z   24
loop_
 _symmetry_equiv_pos_site_id
 _symmetry_equiv_pos_as_xyz
  1  'x, y, z'
loop_
 _atom_type_symbol
 _atom_type_oxidation_number
  Ca2+  2.0
  Al0+  0.0
  Si0+  0.0
  O2-  -2.0
loop_
 _atom_site_type_symbol
 _atom_site_label
 _atom_site_symmetry_multiplicity
 _atom_site_fract_x
 _atom_site_fract_y
 _atom_site_fract_z
 _atom_site_occupancy
  Ca2+  Ca0  1  0.17015524  0.07436850  0.16926567  1
  Ca2+  Ca1  1  0.17297230  0.07019184  0.50883938  1
  Ca2+  Ca2  1  0.17692454  0.07368886  0.83619086  1
  Ca2+  Ca3  1  0.16722258  0.58537053  0.17203884  1
  Ca2+  Ca4  1  0.17047649  0.58183817  0.50737575  1
  Ca2+  Ca5  1  0.17396392  0.58094865  0.82956881  1
  Ca2+  Ca6  1  0.66856563  0.07886719  0.16884454  1
  Ca2+  Ca7  1  0.67753315  0.07907390  0.50573489  1
  Ca2+  Ca8  1  0.66425209  0.07100629  0.83135445  1
  Ca2+  Ca9  1  0.66857165  0.57317073  0.17045147  1
  Ca2+  Ca10  1  0.66253157  0.57760953  0.50701670  1
  Ca2+  Ca11  1  0.67311822  0.58183194  0.83781849  1
  Ca2+  Ca12  1  0.06655592  0.33310174  0.15819943  1
  Ca2+  Ca13  1  0.07602840  0.33358371  0.49375620  1
  Ca2+  Ca14  1  0.07824324  0.33478465  0.82754012  1
  Ca2+  Ca15  1  0.08822268  0.83286301  0.16673152  1
  Ca2+  Ca16  1  0.08906284  0.82979668  0.49289851  1
  Ca2+  Ca17  1  0.08455184  0.83884124  0.82906848  1
  Ca2+  Ca18  1  0.58282367  0.33498900  0.15931866  1
  Ca2+  Ca19  1  0.58827853  0.33640521  0.49672441  1
  Ca2+  Ca20  1  0.58336399  0.33851110  0.83131597  1
  Ca2+  Ca21  1  0.58214637  0.83244093  0.16244822  1
  Ca2+  Ca22  1  0.57666093  0.82615942  0.49690714  1
  Ca2+  Ca23  1  0.58219542  0.83166013  0.81855486  1
  Ca2+  Ca24  1  0.33576180  0.41635357  0.16870123  1
  Ca2+  Ca25  1  0.32593070  0.42722125  0.51222719  1
  Ca2+  Ca26  1  0.33406950  0.42010677  0.83489250  1
  Ca2+  Ca27  1  0.32716480  0.91601344  0.17079019  1
  Ca2+  Ca28  1  0.32847727  0.91014065  0.50687109  1
  Ca2+  Ca29  1  0.33058358  0.92191689  0.83749599  1
  Ca2+  Ca30  1  0.82618140  0.41202414  0.17082337  1
  Ca2+  Ca31  1  0.82474560  0.42171838  0.50561520  1
  Ca2+  Ca32  1  0.82405857  0.42665560  0.83791300  1
  Ca2+  Ca33  1  0.82737005  0.92235006  0.17045532  1
  Ca2+  Ca34  1  0.83190024  0.92821044  0.50835064  1
  Ca2+  Ca35  1  0.82051817  0.91627494  0.83500310  1
  Ca2+  Ca36  1  0.41594455  0.17286046  0.15627640  1
  Ca2+  Ca37  1  0.41655967  0.16525404  0.50083531  1
  Ca2+  Ca38  1  0.41010509  0.16803321  0.83054161  1
  Ca2+  Ca39  1  0.42404803  0.67217049  0.16905221  1
  Ca2+  Ca40  1  0.42358939  0.67313747  0.49842001  1
  Ca2+  Ca41  1  0.42489001  0.67342847  0.81944059  1
  Ca2+  Ca42  1  0.90879441  0.17596136  0.16365619  1
  Ca2+  Ca43  1  0.91161131  0.16932195  0.49227951  1
  Ca2+  Ca44  1  0.91105023  0.17230327  0.82808736  1
  Ca2+  Ca45  1  0.92373695  0.66130183  0.16199150  1
  Ca2+  Ca46  1  0.92244654  0.66480937  0.49698114  1
  Ca2+  Ca47  1  0.91359492  0.66257032  0.82839401  1
  Al0+  Al48  1  0.00090472  -0.00134972  0.00253218  1
  Al0+  Al49  1  0.00210481  -0.00014593  0.33976767  1
  Al0+  Al50  1  0.00140690  0.00272910  0.67262462  1
  Al0+  Al51  1  0.00164578  0.50042821  -0.00443535  1
  Al0+  Al52  1  -0.00147564  0.49912981  0.32420611  1
  Al0+  Al53  1  -0.00175915  0.49936610  0.67107504  1
  Al0+  Al54  1  0.49924040  0.00094395  0.00784483  1
  Al0+  Al55  1  0.49938021  0.00146811  0.32897231  1
  Al0+  Al56  1  0.49975381  0.00281475  0.66585100  1
  Al0+  Al57  1  0.50065767  0.50054594  -0.00076976  1
  Al0+  Al58  1  0.49955574  0.50073168  0.33365048  1
  Al0+  Al59  1  0.49833303  0.49973318  0.66868728  1
  Al0+  Al60  1  0.24953853  0.25057150  -0.00080608  1
  Al0+  Al61  1  0.24877426  0.24871766  0.33289670  1
  Al0+  Al62  1  0.24699508  0.24835940  0.66982593  1
  Al0+  Al63  1  0.25097465  0.74876955  0.00212989  1
  Al0+  Al64  1  0.25079829  0.74937223  0.32828503  1
  Al0+  Al65  1  0.24900319  0.74823483  0.67103159  1
  Al0+  Al66  1  0.74832326  0.25005297  -0.00526895  1
  Al0+  Al67  1  0.74837672  0.25023949  0.33625977  1
  Al0+  Al68  1  0.74896967  0.25198077  0.67185072  1
  Al0+  Al69  1  0.75308310  0.74917759  0.00931215  1
  Al0+  Al70  1  0.75086295  0.74837307  0.32908370  1
  Al0+  Al71  1  0.75207830  0.74993457  0.66483762  1
  Al0+  Al72  1  0.67895639  0.42946667  0.01609701  1
  Al0+  Al73  1  0.17893679  0.92711430  0.01809781  1
  Al0+  Al74  1  0.42908736  0.32168222  0.98520624  1
  Al0+  Al75  1  0.82237971  0.07306288  0.68248785  1
  Al0+  Al76  1  0.17727829  0.42793027  0.68019373  1
  Al0+  Al77  1  0.17971704  0.92648275  0.68151723  1
  Al0+  Al78  1  0.32022517  0.07253420  0.01749242  1
  Al0+  Al79  1  0.67867150  0.92810863  0.01428785  1
  Al0+  Al80  1  0.82387107  0.57034178  0.01821593  1
  Al0+  Al81  1  0.92851299  0.31804730  0.32025660  1
  Al0+  Al82  1  0.18265415  0.92860103  0.34828928  1
  Al0+  Al83  1  0.57394965  0.67762259  0.65242085  1
  Al0+  Al84  1  0.81901261  0.06955185  0.34508054  1
  Al0+  Al85  1  0.67676345  0.42953613  0.68201166  1
  Al0+  Al86  1  0.42810250  0.82331976  0.65344727  1
  Al0+  Al87  1  0.67887917  0.43094386  0.34767396  1
  Al0+  Al88  1  0.32098796  0.57110289  0.68140995  1
  Al0+  Al89  1  0.82125623  0.57210062  0.67903363  1
  Al0+  Al90  1  0.57304691  0.67666275  0.31620910  1
  Al0+  Al91  1  0.67983592  0.92911559  0.67643821  1
  Al0+  Al92  1  0.06945580  0.67985062  0.32036385  1
  Al0+  Al93  1  0.32267898  0.07141930  0.68057948  1
  Al0+  Al94  1  0.92736140  0.32084665  0.98200584  1
  Al0+  Al95  1  0.43005841  0.82164141  0.31642274  1
  Si0+  Si96  1  0.67602105  0.92583879  0.34949198  1
  Si0+  Si97  1  0.57235078  0.68120704  0.98591393  1
  Si0+  Si98  1  0.57101281  0.17586065  0.98154732  1
  Si0+  Si99  1  0.06937916  0.67849935  0.65342200  1
  Si0+  Si100  1  0.42989076  0.82085978  0.98547966  1
  Si0+  Si101  1  0.17657406  0.42820338  0.34459960  1
  Si0+  Si102  1  0.82484338  0.57191937  0.34904686  1
  Si0+  Si103  1  0.92841645  0.82533533  0.31748233  1
  Si0+  Si104  1  0.93001913  0.82404036  0.65268075  1
  Si0+  Si105  1  0.57053863  0.18072965  0.31904708  1
  Si0+  Si106  1  0.17944256  0.42957071  0.01580202  1
  Si0+  Si107  1  0.82176290  0.07181639  0.01529990  1
  Si0+  Si108  1  0.07082127  0.17739453  0.98212265  1
  Si0+  Si109  1  0.31952202  0.56904186  0.34706566  1
  Si0+  Si110  1  0.32161103  0.57034384  0.01690900  1
  Si0+  Si111  1  0.92945199  0.82076817  0.98553337  1
  Si0+  Si112  1  0.42635877  0.32047571  0.65135534  1
  Si0+  Si113  1  0.57198468  0.18074444  0.65047308  1
  Si0+  Si114  1  0.42691435  0.32093410  0.32108388  1
  Si0+  Si115  1  0.07087098  0.17863252  0.65027029  1
  Si0+  Si116  1  0.07310897  0.17637927  0.31640143  1
  Si0+  Si117  1  0.32347226  0.07476114  0.35079612  1
  Si0+  Si118  1  0.92883513  0.32047127  0.65046422  1
  Si0+  Si119  1  0.07329076  0.67923268  0.98192077  1
  O2-  O120  1  0.25054769  -0.00087352  0.06827140  1
  O2-  O121  1  0.25800022  0.00297972  0.39382373  1
  O2-  O122  1  0.25565417  -0.00522679  0.72968702  1
  O2-  O123  1  0.25107877  0.49888112  0.06007196  1
  O2-  O124  1  0.24817877  0.49730854  0.38799493  1
  O2-  O125  1  0.25198327  0.49601394  0.73154582  1
  O2-  O126  1  0.75262054  0.00424090  0.06019008  1
  O2-  O127  1  0.74881119  -0.00911896  0.39224547  1
  O2-  O128  1  0.75222648  -0.00131389  0.73012058  1
  O2-  O129  1  0.75412019  0.49651285  0.06828495  1
  O2-  O130  1  0.75091150  0.50901165  0.39270049  1
  O2-  O131  1  0.74499029  0.50567514  0.72956479  1
  O2-  O132  1  0.00359544  0.24394961  0.27181349  1
  O2-  O133  1  -0.00159013  0.24829847  0.60732575  1
  O2-  O134  1  0.00054857  0.24370625  0.93608531  1
  O2-  O135  1  -0.00594426  0.75359786  0.27272804  1
  O2-  O136  1  0.00170520  0.75274157  0.61105515  1
  O2-  O137  1  0.00137351  0.75056278  0.94227086  1
  O2-  O138  1  0.49606336  0.24888170  0.27825180  1
  O2-  O139  1  0.49978373  0.25193087  0.60855708  1
  O2-  O140  1  0.50234230  0.24559075  0.93859936  1
  O2-  O141  1  0.50710521  0.75461594  0.26581359  1
  O2-  O142  1  0.50153532  0.75133414  0.60487025  1
  O2-  O143  1  0.50485295  0.75493875  0.94265647  1
  O2-  O144  1  0.06962721  0.18024381  0.08808304  1
  O2-  O145  1  0.07525360  0.17977151  0.42192041  1
  O2-  O146  1  0.07093752  0.17984257  0.75515092  1
  O2-  O147  1  0.07416911  0.67817893  0.08721171  1
  O2-  O148  1  0.06972028  0.67805814  0.43363739  1
  O2-  O149  1  0.06786330  0.67733004  0.75853908  1
  O2-  O150  1  0.57163170  0.17673495  0.08777274  1
  O2-  O151  1  0.57122466  0.18109999  0.42416727  1
  O2-  O152  1  0.57269640  0.17998889  0.75523626  1
  O2-  O153  1  0.56853102  0.68095418  0.09095419  1
  O2-  O154  1  0.56838980  0.67393476  0.42923867  1
  O2-  O155  1  0.57310983  0.67993602  0.76671554  1
  O2-  O156  1  0.17880772  0.42877332  0.23932294  1
  O2-  O157  1  0.17689306  0.43046825  0.56563784  1
  O2-  O158  1  0.17966722  0.43161873  0.91104704  1
  O2-  O159  1  0.18274377  0.93052756  0.23549902  1
  O2-  O160  1  0.17848398  0.92750585  0.56776122  1
  O2-  O161  1  0.18039069  0.92675590  0.90503367  1
  O2-  O162  1  0.67878234  0.42775439  0.23496965  1
  O2-  O163  1  0.68081931  0.42715198  0.56804023  1
  O2-  O164  1  0.67724123  0.43415464  0.90326324  1
  O2-  O165  1  0.67658425  0.92978694  0.24352647  1
  O2-  O166  1  0.68232626  0.93169989  0.56282542  1
  O2-  O167  1  0.67893739  0.92681600  0.90147288  1
  O2-  O168  1  0.42993181  0.32125686  0.09929149  1
  O2-  O169  1  0.42473888  0.32058677  0.42602936  1
  O2-  O170  1  0.42550697  0.31889982  0.75621897  1
  O2-  O171  1  0.42929244  0.81705802  0.09055540  1
  O2-  O172  1  0.42827033  0.81893047  0.42965474  1
  O2-  O173  1  0.42973338  0.82212057  0.76773424  1
  O2-  O174  1  0.92826141  0.31870974  0.09572299  1
  O2-  O175  1  0.93103443  0.31859331  0.43342820  1
  O2-  O176  1  0.93124286  0.31983792  0.75539776  1
  O2-  O177  1  0.93023257  0.82125322  0.09064158  1
  O2-  O178  1  0.93033999  0.82608647  0.42317024  1
  O2-  O179  1  0.93007119  0.82396693  0.75799322  1
  O2-  O180  1  0.32088105  0.07997548  0.24568967  1
  O2-  O181  1  0.31843908  0.07550583  0.56684938  1
  O2-  O182  1  0.31957281  0.07101216  0.90436280  1
  O2-  O183  1  0.31931479  0.56640844  0.24141397  1
  O2-  O184  1  0.31773928  0.57022015  0.56713503  1
  O2-  O185  1  0.32016016  0.57103935  0.91229157  1
  O2-  O186  1  0.81511339  0.07043277  0.23175854  1
  O2-  O187  1  0.82120274  0.07303318  0.56848902  1
  O2-  O188  1  0.82212641  0.06893200  0.91011037  1
  O2-  O189  1  0.82825548  0.56714996  0.24387690  1
  O2-  O190  1  0.82826729  0.56759650  0.56554886  1
  O2-  O191  1  0.82117196  0.57243785  0.90495268  1
  O2-  O192  1  0.04820850  0.08203680  0.27232409  1
  O2-  O193  1  0.04387716  0.08625189  0.60278222  1
  O2-  O194  1  0.04798385  0.08191920  0.93851236  1
  O2-  O195  1  0.04076230  0.58426112  0.26177201  1
  O2-  O196  1  0.03900573  0.58726308  0.60526132  1
  O2-  O197  1  0.04708994  0.58773427  0.93341509  1
  O2-  O198  1  0.54691472  0.08875091  0.26952772  1
  O2-  O199  1  0.54475780  0.09022460  0.59998579  1
  O2-  O200  1  0.54312310  0.08187982  0.93718656  1
  O2-  O201  1  0.53537466  0.58078636  0.26188414  1
  O2-  O202  1  0.54212884  0.57901305  0.60054574  1
  O2-  O203  1  0.54098861  0.59062046  0.93898841  1
  O2-  O204  1  0.16624754  0.20280285  0.26872605  1
  O2-  O205  1  0.16180400  0.20751401  0.60094470  1
  O2-  O206  1  0.16344333  0.20636792  0.93644172  1
  O2-  O207  1  0.16496406  0.70973537  0.26356899  1
  O2-  O208  1  0.16218929  0.70248237  0.60631185  1
  O2-  O209  1  0.16558745  0.70749071  0.93532358  1
  O2-  O210  1  0.65996072  0.21221483  0.26968886  1
  O2-  O211  1  0.66352455  0.21114856  0.60262387  1
  O2-  O212  1  0.66424277  0.19910036  0.93421946  1
  O2-  O213  1  0.67446512  0.69604379  0.26483554  1
  O2-  O214  1  0.67276531  0.70348126  0.59806262  1
  O2-  O215  1  0.66716537  0.70612716  0.94389438  1
  O2-  O216  1  0.08833081  0.46002761  0.06268981  1
  O2-  O217  1  0.08480414  0.45729654  0.39051682  1
  O2-  O218  1  0.08185559  0.45961989  0.73563429  1
  O2-  O219  1  0.07951533  0.95449335  0.07039432  1
  O2-  O220  1  0.08602077  0.95746677  0.40301741  1
  O2-  O221  1  0.08392250  0.96025007  0.73613081  1
  O2-  O222  1  0.58060281  0.46070808  0.06883476  1
  O2-  O223  1  0.58048591  0.45813049  0.40061488  1
  O2-  O224  1  0.57630050  0.44957897  0.73225406  1
  O2-  O225  1  0.58370146  0.95878005  0.07104020  1
  O2-  O226  1  0.58319352  0.95641572  0.39348013  1
  O2-  O227  1  0.58307480  0.96029217  0.73019853  1
  O2-  O228  1  0.20469774  0.33749294  0.06315428  1
  O2-  O229  1  0.20163545  0.33540631  0.39167780  1
  O2-  O230  1  0.20142798  0.32961821  0.73329244  1
  O2-  O231  1  0.20866598  0.82799743  0.06968361  1
  O2-  O232  1  0.21271528  0.83022164  0.39914962  1
  O2-  O233  1  0.19995183  0.82736257  0.73477748  1
  O2-  O234  1  0.70286522  0.32735034  0.06404876  1
  O2-  O235  1  0.71127090  0.33526053  0.40205404  1
  O2-  O236  1  0.70789543  0.33356768  0.73683361  1
  O2-  O237  1  0.71242916  0.83476281  0.07205994  1
  O2-  O238  1  0.69697283  0.82948793  0.39079125  1
  O2-  O239  1  0.70797501  0.83159334  0.73010827  1
  O2-  O240  1  0.45469394  0.41204601  0.27282008  1
  O2-  O241  1  0.45098458  0.41309696  0.60388815  1
  O2-  O242  1  0.45968014  0.41872849  0.93146029  1
  O2-  O243  1  0.45239580  0.92247004  0.26396678  1
  O2-  O244  1  0.45319378  0.92259539  0.60001127  1
  O2-  O245  1  0.45283160  0.91598743  0.94368562  1
  O2-  O246  1  0.95990899  0.41241267  0.26237936  1
  O2-  O247  1  0.95946377  0.41196375  0.60365080  1
  O2-  O248  1  0.96331236  0.41652164  0.92941349  1
  O2-  O249  1  0.95796688  0.91770113  0.27055637  1
  O2-  O250  1  0.95803705  0.91676205  0.60657297  1
  O2-  O251  1  0.95584621  0.91309876  0.93786071  1
  O2-  O252  1  0.33455319  0.29520337  0.27189456  1
  O2-  O253  1  0.33445691  0.29108044  0.60374552  1
  O2-  O254  1  0.33091574  0.29382041  0.93238915  1
  O2-  O255  1  0.33490560  0.78563940  0.26104622  1
  O2-  O256  1  0.32914762  0.79062051  0.60282964  1
  O2-  O257  1  0.33888386  0.78852172  0.93924565  1
  O2-  O258  1  0.83232516  0.28439910  0.26663391  1
  O2-  O259  1  0.83580680  0.29328912  0.60507115  1
  O2-  O260  1  0.83050979  0.29183089  0.92787151  1
  O2-  O261  1  0.83346534  0.80485595  0.27185055  1
  O2-  O262  1  0.83986851  0.79699777  0.60207424  1
  O2-  O263  1  0.83736220  0.79118876  0.93926688  1
  O2-  O264  1  0.41876417  0.04780104  0.07155673  1
  O2-  O265  1  0.41945634  0.05334207  0.39341213  1
  O2-  O266  1  0.42266539  0.05211662  0.73254257  1
  O2-  O267  1  0.41273717  0.54188650  0.06466884  1
  O2-  O268  1  0.40976837  0.53997081  0.39548605  1
  O2-  O269  1  0.41820453  0.54404741  0.73554908  1
  O2-  O270  1  0.91492387  0.04645154  0.06224166  1
  O2-  O271  1  0.91698534  0.04488795  0.39946484  1
  O2-  O272  1  0.92067633  0.04903111  0.73574571  1
  O2-  O273  1  0.92539150  0.54432179  0.06595677  1
  O2-  O274  1  0.91723375  0.54049835  0.39491933  1
  O2-  O275  1  0.91622195  0.53937930  0.73627617  1
  O2-  O276  1  0.29031188  0.17162980  0.06944992  1
  O2-  O277  1  0.29528405  0.16765689  0.39847205  1
  O2-  O278  1  0.28861098  0.16707508  0.73528016  1
  O2-  O279  1  0.29146142  0.66068650  0.06568509  1
  O2-  O280  1  0.28954781  0.66012090  0.39249869  1
  O2-  O281  1  0.28875883  0.66571037  0.73834208  1
  O2-  O282  1  0.79494917  0.16584234  0.05931601  1
  O2-  O283  1  0.78383995  0.16354026  0.40108666  1
  O2-  O284  1  0.79096639  0.16935159  0.73557919  1
  O2-  O285  1  0.79748075  0.66781508  0.07348761  1
  O2-  O286  1  0.80775343  0.66927898  0.39072608  1
  O2-  O287  1  0.80112494  0.67235676  0.73098451  1
