# generated using pymatgen
data_Ca2Al2SiO7
_symmetry_space_group_name_H-M   'P 1'
_cell_length_a   15.45641940
_cell_length_b   15.45762341
_cell_length_c   15.28296568
_cell_angle_alpha   89.99210330
_cell_angle_beta   90.00279578
_cell_angle_gamma   89.98618510
_symmetry_Int_Tables_number   1
_chemical_formula_structural   Ca2Al2SiO7
_chemical_formula_sum   'Ca48 Al48 Si24 O168'
_cell_volume   3651.39853427
_cell_formula_units_Z   24
loop_
 _symmetry_equiv_pos_site_id
 _symmetry_equiv_pos_as_xyz
  1  'x, y, z'
loop_
 _atom_type_symbol
 _atom_type_oxidation_number
  Ca2+  2.0
  Al0+  0.0
  Si0+  0.0
  O2-  -2.0
loop_
 _atom_site_type_symbol
 _atom_site_label
 _atom_site_symmetry_multiplicity
 _atom_site_fract_x
 _atom_site_fract_y
 _atom_site_fract_z
 _atom_site_occupancy
  Ca2+  Ca0  1  0.16838114  0.07917452  0.17622810  1
  Ca2+  Ca1  1  0.17636612  0.07738451  0.50183991  1
  Ca2+  Ca2  1  0.17097248  0.08959233  0.84038509  1
  Ca2+  Ca3  1  0.17220153  0.58530384  0.16667358  1
  Ca2+  Ca4  1  0.17108476  0.58849881  0.50279144  1
  Ca2+  Ca5  1  0.16552646  0.58164446  0.84495083  1
  Ca2+  Ca6  1  0.66973875  0.08163699  0.17114799  1
  Ca2+  Ca7  1  0.65710614  0.07165496  0.50299965  1
  Ca2+  Ca8  1  0.66843482  0.08171254  0.83779520  1
  Ca2+  Ca9  1  0.66261716  0.58514741  0.17195153  1
  Ca2+  Ca10  1  0.67414033  0.58510945  0.50514892  1
  Ca2+  Ca11  1  0.67462488  0.58412079  0.84000113  1
  Ca2+  Ca12  1  0.07598287  0.33033884  0.15862400  1
  Ca2+  Ca13  1  0.07207532  0.33419115  0.49671085  1
  Ca2+  Ca14  1  0.07746775  0.33473505  0.83382388  1
  Ca2+  Ca15  1  0.07585782  0.83709756  0.16013130  1
  Ca2+  Ca16  1  0.07988690  0.83005744  0.49284570  1
  Ca2+  Ca17  1  0.07799516  0.82365605  0.83276570  1
  Ca2+  Ca18  1  0.58167285  0.32058229  0.16219788  1
  Ca2+  Ca19  1  0.58474353  0.31710072  0.49392179  1
  Ca2+  Ca20  1  0.58464056  0.31991439  0.83090688  1
  Ca2+  Ca21  1  0.58031991  0.82635259  0.16859850  1
  Ca2+  Ca22  1  0.58128546  0.83345929  0.48809708  1
  Ca2+  Ca23  1  0.58616849  0.83070499  0.83213793  1
  Ca2+  Ca24  1  0.32929350  0.42686995  0.16880407  1
  Ca2+  Ca25  1  0.33488843  0.42407405  0.50092184  1
  Ca2+  Ca26  1  0.32302099  0.42334218  0.84719426  1
  Ca2+  Ca27  1  0.32584850  0.91842306  0.17859556  1
  Ca2+  Ca28  1  0.33577877  0.92291175  0.49758915  1
  Ca2+  Ca29  1  0.33176606  0.92203888  0.83360118  1
  Ca2+  Ca30  1  0.83722133  0.41494457  0.16953905  1
  Ca2+  Ca31  1  0.83740646  0.41962850  0.50600877  1
  Ca2+  Ca32  1  0.84109132  0.41776588  0.83536004  1
  Ca2+  Ca33  1  0.83515352  0.92092428  0.17301769  1
  Ca2+  Ca34  1  0.81999152  0.90876705  0.50212087  1
  Ca2+  Ca35  1  0.82873846  0.92074026  0.84161750  1
  Ca2+  Ca36  1  0.42773292  0.15435910  0.16536403  1
  Ca2+  Ca37  1  0.42287139  0.15528809  0.49634158  1
  Ca2+  Ca38  1  0.42585901  0.16110525  0.82669629  1
  Ca2+  Ca39  1  0.42019512  0.66496168  0.16387640  1
  Ca2+  Ca40  1  0.42357682  0.67421844  0.48576295  1
  Ca2+  Ca41  1  0.42020318  0.66328542  0.83425778  1
  Ca2+  Ca42  1  0.91921435  0.17434824  0.15512605  1
  Ca2+  Ca43  1  0.91050920  0.18005469  0.49460073  1
  Ca2+  Ca44  1  0.91662095  0.17460813  0.83531161  1
  Ca2+  Ca45  1  0.92171720  0.68323123  0.16015432  1
  Ca2+  Ca46  1  0.92068361  0.66832701  0.49657106  1
  Ca2+  Ca47  1  0.92760347  0.66284485  0.82961163  1
  Al0+  Al48  1  -0.00121880  0.00304588  -0.00533484  1
  Al0+  Al49  1  -0.00013588  0.00224545  0.33854081  1
  Al0+  Al50  1  -0.00056484  -0.00076040  0.66600138  1
  Al0+  Al51  1  -0.00084000  0.50119882  0.00114233  1
  Al0+  Al52  1  -0.00021999  0.50008785  0.32937274  1
  Al0+  Al53  1  0.00122953  0.50075013  0.66149751  1
  Al0+  Al54  1  0.50059844  -0.00267674  -0.00402474  1
  Al0+  Al55  1  0.50119192  -0.00242752  0.33024533  1
  Al0+  Al56  1  0.49933002  -0.00213788  0.67291673  1
  Al0+  Al57  1  0.50114805  0.50013007  -0.00118048  1
  Al0+  Al58  1  0.50104372  0.49660165  0.33689535  1
  Al0+  Al59  1  0.50108045  0.49840955  0.66758895  1
  Al0+  Al60  1  0.25072149  0.25212715  0.00454769  1
  Al0+  Al61  1  0.24986195  0.25246104  0.34009088  1
  Al0+  Al62  1  0.25049993  0.25104926  0.66994900  1
  Al0+  Al63  1  0.25080928  0.75277209  -0.00014357  1
  Al0+  Al64  1  0.25051084  0.74918882  0.33882780  1
  Al0+  Al65  1  0.25035134  0.75100618  0.66351727  1
  Al0+  Al66  1  0.74913484  0.24928399  -0.00382510  1
  Al0+  Al67  1  0.74868443  0.25143574  0.32550537  1
  Al0+  Al68  1  0.74863877  0.24850011  0.65764417  1
  Al0+  Al69  1  0.74662419  0.75058177  -0.00555173  1
  Al0+  Al70  1  0.75263375  0.74948596  0.32962298  1
  Al0+  Al71  1  0.75088126  0.74851504  0.67753645  1
  Al0+  Al72  1  0.32211090  0.07136520  0.34697177  1
  Al0+  Al73  1  0.92940059  0.32122618  0.31767848  1
  Al0+  Al74  1  0.17612348  0.42894562  0.01725688  1
  Al0+  Al75  1  0.81947291  0.07070106  0.01282015  1
  Al0+  Al76  1  0.32220009  0.57323669  0.01513602  1
  Al0+  Al77  1  0.92829773  0.32197539  0.98430581  1
  Al0+  Al78  1  0.31853669  0.06972022  0.68221566  1
  Al0+  Al79  1  0.42784754  0.82039825  0.31838059  1
  Al0+  Al80  1  0.56924606  0.17752582  0.98511734  1
  Al0+  Al81  1  0.92677755  0.82431576  0.98379398  1
  Al0+  Al82  1  0.67953684  0.92907419  0.68196542  1
  Al0+  Al83  1  0.82147043  0.56791915  0.68086171  1
  Al0+  Al84  1  0.57233630  0.67667132  0.32090709  1
  Al0+  Al85  1  0.56928535  0.67724821  0.98470389  1
  Al0+  Al86  1  0.93131521  0.31876837  0.65186549  1
  Al0+  Al87  1  0.07115107  0.68168435  0.98736808  1
  Al0+  Al88  1  0.07097143  0.68030770  0.65137668  1
  Al0+  Al89  1  0.17519827  0.92782155  0.34888854  1
  Al0+  Al90  1  0.56814816  0.17784678  0.65155487  1
  Al0+  Al91  1  0.07402412  0.17945987  0.98665392  1
  Al0+  Al92  1  0.56789816  0.17761639  0.31834098  1
  Al0+  Al93  1  0.68289810  0.92897055  0.34387190  1
  Al0+  Al94  1  0.93007431  0.82238865  0.32218772  1
  Al0+  Al95  1  0.32219734  0.56987687  0.34877824  1
  Si0+  Si96  1  0.67676298  0.92672839  0.01930038  1
  Si0+  Si97  1  0.32264487  0.57275189  0.68119676  1
  Si0+  Si98  1  0.57286373  0.67736995  0.65322253  1
  Si0+  Si99  1  0.42611623  0.32306822  0.65016703  1
  Si0+  Si100  1  0.32320956  0.07122761  0.01416531  1
  Si0+  Si101  1  0.67780612  0.42535054  0.68299482  1
  Si0+  Si102  1  0.17627955  0.92649499  0.68505772  1
  Si0+  Si103  1  0.82077573  0.56973560  0.34641569  1
  Si0+  Si104  1  0.82250400  0.07446547  0.68157392  1
  Si0+  Si105  1  0.17594387  0.43008164  0.35298420  1
  Si0+  Si106  1  0.82038648  0.57286744  0.01654578  1
  Si0+  Si107  1  0.67996247  0.42915102  0.01478186  1
  Si0+  Si108  1  0.42609315  0.32299073  0.31711704  1
  Si0+  Si109  1  0.82136820  0.07543101  0.34982063  1
  Si0+  Si110  1  0.42909078  0.32245868  0.98446870  1
  Si0+  Si111  1  0.17905689  0.93177502  0.01240040  1
  Si0+  Si112  1  0.67939901  0.42658608  0.34866470  1
  Si0+  Si113  1  0.07280325  0.67833254  0.31681731  1
  Si0+  Si114  1  0.43076887  0.81877489  0.65168111  1
  Si0+  Si115  1  0.07559017  0.17622431  0.64877072  1
  Si0+  Si116  1  0.92598046  0.82204267  0.65046452  1
  Si0+  Si117  1  0.42733267  0.82189418  0.98086626  1
  Si0+  Si118  1  0.07333611  0.17957189  0.32013726  1
  Si0+  Si119  1  0.18010876  0.43147206  0.68093005  1
  O2-  O120  1  0.24758618  0.00520624  0.05487226  1
  O2-  O121  1  0.24953839  -0.00067145  0.39682395  1
  O2-  O122  1  0.23915801  0.00038077  0.73018062  1
  O2-  O123  1  0.24818750  0.50280717  0.06448516  1
  O2-  O124  1  0.24553970  0.49781729  0.39773253  1
  O2-  O125  1  0.25317496  0.50064149  0.72304512  1
  O2-  O126  1  0.74794648  -0.00632299  0.06147606  1
  O2-  O127  1  0.75583163  0.00391710  0.39431361  1
  O2-  O128  1  0.75659160  0.00295974  0.72564338  1
  O2-  O129  1  0.75004415  0.50074840  0.05845680  1
  O2-  O130  1  0.74989193  0.49877910  0.38978012  1
  O2-  O131  1  0.74612892  0.49362734  0.72830925  1
  O2-  O132  1  0.00342018  0.24550413  0.27409129  1
  O2-  O133  1  0.00281921  0.24079975  0.60457042  1
  O2-  O134  1  0.00333435  0.25237801  0.93573848  1
  O2-  O135  1  0.00997152  0.75340299  0.27508766  1
  O2-  O136  1  -0.00269516  0.75651429  0.60558822  1
  O2-  O137  1  -0.00368317  0.74922993  0.93480089  1
  O2-  O138  1  0.48893975  0.24900596  0.27280114  1
  O2-  O139  1  0.49350964  0.25343423  0.60549036  1
  O2-  O140  1  0.49186767  0.24943561  0.93832749  1
  O2-  O141  1  0.49693266  0.74454209  0.27024535  1
  O2-  O142  1  0.50102643  0.74633977  0.61039763  1
  O2-  O143  1  0.49448572  0.75120908  0.93708400  1
  O2-  O144  1  0.07283886  0.17788100  0.10036094  1
  O2-  O145  1  0.07253622  0.18259051  0.42596564  1
  O2-  O146  1  0.07800912  0.17944339  0.75405047  1
  O2-  O147  1  0.07148768  0.68577486  0.10087174  1
  O2-  O148  1  0.06859633  0.67527598  0.42277583  1
  O2-  O149  1  0.07155595  0.67940033  0.76417420  1
  O2-  O150  1  0.56841630  0.17800158  0.09815984  1
  O2-  O151  1  0.56856693  0.17852417  0.43159017  1
  O2-  O152  1  0.56789626  0.17992800  0.76472473  1
  O2-  O153  1  0.56973409  0.67712190  0.09732176  1
  O2-  O154  1  0.57384748  0.67871451  0.43528663  1
  O2-  O155  1  0.57004325  0.67686400  0.75825655  1
  O2-  O156  1  0.17506243  0.43033392  0.24798291  1
  O2-  O157  1  0.18109110  0.43231086  0.57572622  1
  O2-  O158  1  0.17832009  0.42972836  0.90271296  1
  O2-  O159  1  0.17378065  0.93099414  0.23476686  1
  O2-  O160  1  0.17881228  0.92506151  0.57985671  1
  O2-  O161  1  0.18255707  0.93052163  0.90710406  1
  O2-  O162  1  0.67929907  0.42528082  0.24345493  1
  O2-  O163  1  0.67696405  0.42760856  0.57725120  1
  O2-  O164  1  0.67998351  0.43022785  0.90950797  1
  O2-  O165  1  0.68452107  0.92922681  0.23128283  1
  O2-  O166  1  0.67820833  0.92741440  0.56861264  1
  O2-  O167  1  0.67549709  0.92909596  0.91328621  1
  O2-  O168  1  0.43301096  0.32409175  0.08989101  1
  O2-  O169  1  0.43062149  0.32627918  0.42289217  1
  O2-  O170  1  0.42678266  0.32450591  0.75566718  1
  O2-  O171  1  0.42726331  0.82510161  0.08576981  1
  O2-  O172  1  0.43223446  0.82075401  0.43272206  1
  O2-  O173  1  0.42918127  0.81709106  0.75699926  1
  O2-  O174  1  0.92763130  0.31920225  0.09779238  1
  O2-  O175  1  0.92976817  0.32269503  0.43120310  1
  O2-  O176  1  0.93328607  0.31988784  0.76427709  1
  O2-  O177  1  0.92928076  0.82417188  0.09781029  1
  O2-  O178  1  0.92660729  0.81549972  0.43534679  1
  O2-  O179  1  0.92710572  0.82084236  0.75574138  1
  O2-  O180  1  0.31980451  0.07011098  0.23294430  1
  O2-  O181  1  0.32003952  0.06612453  0.56959508  1
  O2-  O182  1  0.32405311  0.06875619  0.90874335  1
  O2-  O183  1  0.32257790  0.56746552  0.23623877  1
  O2-  O184  1  0.32314311  0.57164008  0.57622726  1
  O2-  O185  1  0.32209964  0.56980868  0.90061293  1
  O2-  O186  1  0.82030412  0.07578286  0.24420204  1
  O2-  O187  1  0.82118545  0.07549928  0.57588544  1
  O2-  O188  1  0.81606332  0.07142808  0.89941118  1
  O2-  O189  1  0.82039348  0.56883733  0.24135771  1
  O2-  O190  1  0.81931508  0.56848313  0.56713221  1
  O2-  O191  1  0.81994559  0.57115114  0.91122933  1
  O2-  O192  1  0.05090360  0.08463279  0.27647755  1
  O2-  O193  1  0.05505477  0.07992591  0.60588441  1
  O2-  O194  1  0.04589203  0.08337354  0.92943714  1
  O2-  O195  1  0.04126361  0.58763415  0.26905437  1
  O2-  O196  1  0.03928271  0.58546087  0.59491499  1
  O2-  O197  1  0.04357776  0.58264145  0.93562593  1
  O2-  O198  1  0.54061959  0.08162759  0.26270510  1
  O2-  O199  1  0.53394986  0.08031741  0.60149632  1
  O2-  O200  1  0.53984454  0.08081646  0.93074144  1
  O2-  O201  1  0.54759539  0.57584884  0.27147991  1
  O2-  O202  1  0.54870936  0.58369432  0.60705857  1
  O2-  O203  1  0.54081307  0.58069708  0.92849031  1
  O2-  O204  1  0.16726376  0.20598722  0.27525590  1
  O2-  O205  1  0.16788337  0.20680937  0.60241334  1
  O2-  O206  1  0.17390682  0.20683959  0.93473424  1
  O2-  O207  1  0.16911595  0.69656943  0.27573783  1
  O2-  O208  1  0.16814731  0.71051755  0.59719520  1
  O2-  O209  1  0.16901490  0.71135427  0.93318130  1
  O2-  O210  1  0.66196933  0.21390971  0.26314442  1
  O2-  O211  1  0.66345932  0.20735599  0.59475642  1
  O2-  O212  1  0.66314993  0.21296124  0.93000592  1
  O2-  O213  1  0.66898559  0.70676090  0.26619242  1
  O2-  O214  1  0.66613883  0.70534362  0.60976655  1
  O2-  O215  1  0.66452392  0.70821311  0.92810567  1
  O2-  O216  1  0.07763101  0.45670982  0.07014891  1
  O2-  O217  1  0.08246038  0.45896700  0.39888808  1
  O2-  O218  1  0.08930577  0.46232759  0.72730079  1
  O2-  O219  1  0.08626417  0.95763269  0.05796487  1
  O2-  O220  1  0.07864863  0.95759839  0.40689998  1
  O2-  O221  1  0.07975766  0.94489560  0.72812298  1
  O2-  O222  1  0.58831395  0.45658016  0.06253453  1
  O2-  O223  1  0.58832790  0.45063088  0.39903918  1
  O2-  O224  1  0.58376643  0.44953788  0.72992211  1
  O2-  O225  1  0.58302513  0.95511339  0.06346715  1
  O2-  O226  1  0.58588353  0.95882235  0.39769855  1
  O2-  O227  1  0.58450962  0.96031629  0.73856672  1
  O2-  O228  1  0.20670229  0.33160333  0.07227949  1
  O2-  O229  1  0.19991938  0.33698471  0.40143139  1
  O2-  O230  1  0.20491525  0.33915473  0.72897790  1
  O2-  O231  1  0.20898222  0.84169142  0.06147404  1
  O2-  O232  1  0.20132239  0.82925382  0.40246207  1
  O2-  O233  1  0.21013472  0.83510014  0.73173866  1
  O2-  O234  1  0.70789361  0.33740473  0.06207444  1
  O2-  O235  1  0.71039533  0.33566349  0.39669158  1
  O2-  O236  1  0.70376506  0.33074184  0.72626053  1
  O2-  O237  1  0.69829770  0.83090792  0.06181347  1
  O2-  O238  1  0.71483260  0.83231798  0.39915992  1
  O2-  O239  1  0.70838161  0.83341126  0.73916103  1
  O2-  O240  1  0.45874343  0.41318864  0.26901029  1
  O2-  O241  1  0.45320832  0.41680200  0.60345045  1
  O2-  O242  1  0.45899981  0.41328855  0.93522639  1
  O2-  O243  1  0.45867794  0.91606969  0.26289837  1
  O2-  O244  1  0.46099514  0.91024381  0.60651012  1
  O2-  O245  1  0.45694325  0.91311624  0.93110075  1
  O2-  O246  1  0.96019859  0.41762482  0.26373032  1
  O2-  O247  1  0.96560048  0.41374855  0.59645021  1
  O2-  O248  1  0.95393367  0.42178654  0.93359730  1
  O2-  O249  1  0.95450592  0.92241802  0.27184698  1
  O2-  O250  1  0.94587497  0.91760500  0.60531988  1
  O2-  O251  1  0.95682485  0.92054322  0.92863966  1
  O2-  O252  1  0.32918249  0.30535503  0.27560812  1
  O2-  O253  1  0.33179966  0.30011529  0.60447088  1
  O2-  O254  1  0.33334341  0.30232430  0.94133456  1
  O2-  O255  1  0.32731300  0.79519182  0.26892431  1
  O2-  O256  1  0.33907726  0.79299174  0.60341079  1
  O2-  O257  1  0.33407837  0.79847267  0.93300164  1
  O2-  O258  1  0.83289192  0.29338840  0.26316265  1
  O2-  O259  1  0.83388786  0.29209705  0.59626634  1
  O2-  O260  1  0.83125707  0.29142322  0.92996073  1
  O2-  O261  1  0.83791783  0.78627480  0.26388930  1
  O2-  O262  1  0.83252901  0.79059876  0.60712739  1
  O2-  O263  1  0.82724240  0.79882628  0.93304691  1
  O2-  O264  1  0.41352079  0.03697659  0.06057455  1
  O2-  O265  1  0.41982370  0.03901031  0.39927217  1
  O2-  O266  1  0.41217882  0.03289728  0.73836430  1
  O2-  O267  1  0.42044409  0.54108525  0.06655740  1
  O2-  O268  1  0.41793068  0.53584274  0.40477373  1
  O2-  O269  1  0.41568787  0.54641095  0.72776824  1
  O2-  O270  1  0.91821518  0.04408000  0.06529319  1
  O2-  O271  1  0.91592484  0.05668507  0.39626923  1
  O2-  O272  1  0.91829294  0.05348007  0.72603313  1
  O2-  O273  1  0.91195114  0.54746159  0.06479080  1
  O2-  O274  1  0.91261073  0.54091428  0.39406918  1
  O2-  O275  1  0.91859511  0.53530941  0.73273562  1
  O2-  O276  1  0.30423363  0.16514085  0.06002351  1
  O2-  O277  1  0.29763012  0.17069584  0.40164753  1
  O2-  O278  1  0.29433064  0.16904588  0.73514753  1
  O2-  O279  1  0.29638261  0.67314590  0.06606715  1
  O2-  O280  1  0.29447873  0.66626029  0.40477996  1
  O2-  O281  1  0.29492589  0.66502653  0.72710947  1
  O2-  O282  1  0.78589666  0.16700217  0.06650875  1
  O2-  O283  1  0.79066544  0.16870653  0.39422266  1
  O2-  O284  1  0.79251581  0.16725615  0.72680888  1
  O2-  O285  1  0.78967842  0.66510781  0.06143683  1
  O2-  O286  1  0.79296760  0.66064629  0.39516066  1
  O2-  O287  1  0.79174408  0.66241811  0.73890216  1
