# generated using pymatgen
data_Ca2Al2SiO7
_symmetry_space_group_name_H-M   'P 1'
_cell_length_a   15.46220947
_cell_length_b   15.46176477
_cell_length_c   15.28648026
_cell_angle_alpha   90.00634153
_cell_angle_beta   90.01145062
_cell_angle_gamma   90.02058396
_symmetry_Int_Tables_number   1
_chemical_formula_structural   Ca2Al2SiO7
_chemical_formula_sum   'Ca48 Al48 Si24 O168'
_cell_volume   3654.58506222
_cell_formula_units_Z   24
loop_
 _symmetry_equiv_pos_site_id
 _symmetry_equiv_pos_as_xyz
  1  'x, y, z'
loop_
 _atom_type_symbol
 _atom_type_oxidation_number
  Ca2+  2.0
  Al0+  0.0
  Si0+  0.0
  O2-  -2.0
loop_
 _atom_site_type_symbol
 _atom_site_label
 _atom_site_symmetry_multiplicity
 _atom_site_fract_x
 _atom_site_fract_y
 _atom_site_fract_z
 _atom_site_occupancy
  Ca2+  Ca0  1  0.15940103  0.07529662  0.16924890  1
  Ca2+  Ca1  1  0.16734428  0.08302702  0.51183824  1
  Ca2+  Ca2  1  0.16615999  0.07521833  0.83117719  1
  Ca2+  Ca3  1  0.15353550  0.57426218  0.16970568  1
  Ca2+  Ca4  1  0.15946138  0.57179308  0.50261759  1
  Ca2+  Ca5  1  0.16184646  0.57195483  0.83946058  1
  Ca2+  Ca6  1  0.68182204  0.07471741  0.17074676  1
  Ca2+  Ca7  1  0.67252309  0.08202352  0.49925294  1
  Ca2+  Ca8  1  0.67416343  0.07792723  0.84310937  1
  Ca2+  Ca9  1  0.68065487  0.57992799  0.17232745  1
  Ca2+  Ca10  1  0.67118554  0.57849563  0.50488496  1
  Ca2+  Ca11  1  0.66909221  0.57616522  0.83786721  1
  Ca2+  Ca12  1  0.08634576  0.33030858  0.16425452  1
  Ca2+  Ca13  1  0.08761321  0.32501503  0.49603595  1
  Ca2+  Ca14  1  0.07865952  0.33035103  0.82220861  1
  Ca2+  Ca15  1  0.07650317  0.82064083  0.15458376  1
  Ca2+  Ca16  1  0.08493800  0.82817394  0.49346953  1
  Ca2+  Ca17  1  0.08324682  0.83368426  0.83319903  1
  Ca2+  Ca18  1  0.58816053  0.33924676  0.16277199  1
  Ca2+  Ca19  1  0.57929539  0.34360225  0.49839417  1
  Ca2+  Ca20  1  0.57958674  0.33844966  0.82285197  1
  Ca2+  Ca21  1  0.58782590  0.83953812  0.16162322  1
  Ca2+  Ca22  1  0.57940919  0.83444031  0.49797166  1
  Ca2+  Ca23  1  0.58232549  0.82767242  0.82310050  1
  Ca2+  Ca24  1  0.32086582  0.41921349  0.16904127  1
  Ca2+  Ca25  1  0.32270965  0.41273004  0.50724235  1
  Ca2+  Ca26  1  0.32231361  0.40969245  0.83293825  1
  Ca2+  Ca27  1  0.32580257  0.91526685  0.16683821  1
  Ca2+  Ca28  1  0.32672441  0.92317221  0.51299354  1
  Ca2+  Ca29  1  0.32573267  0.91560430  0.83186347  1
  Ca2+  Ca30  1  0.82844288  0.42799002  0.17176176  1
  Ca2+  Ca31  1  0.82809427  0.41824682  0.50458998  1
  Ca2+  Ca32  1  0.82528200  0.41832589  0.83946737  1
  Ca2+  Ca33  1  0.83218833  0.92050473  0.16887110  1
  Ca2+  Ca34  1  0.83337096  0.92144919  0.49940440  1
  Ca2+  Ca35  1  0.83142532  0.92251721  0.84542847  1
  Ca2+  Ca36  1  0.42169258  0.16970664  0.16289261  1
  Ca2+  Ca37  1  0.41179289  0.17163357  0.50110857  1
  Ca2+  Ca38  1  0.41846946  0.17044996  0.82378441  1
  Ca2+  Ca39  1  0.42124445  0.66738887  0.16177939  1
  Ca2+  Ca40  1  0.42196880  0.66862885  0.50206743  1
  Ca2+  Ca41  1  0.42534817  0.67277246  0.82191609  1
  Ca2+  Ca42  1  0.91556583  0.16274460  0.16510529  1
  Ca2+  Ca43  1  0.92564948  0.17151032  0.49622469  1
  Ca2+  Ca44  1  0.91898648  0.17332208  0.82424099  1
  Ca2+  Ca45  1  0.91984960  0.66410490  0.15941512  1
  Ca2+  Ca46  1  0.92099400  0.66571796  0.49271251  1
  Ca2+  Ca47  1  0.91576132  0.66876508  0.83749364  1
  Al0+  Al48  1  0.00275422  -0.00096038  0.00335205  1
  Al0+  Al49  1  -0.00023226  -0.00035831  0.33323599  1
  Al0+  Al50  1  0.00003063  -0.00030915  0.66667007  1
  Al0+  Al51  1  -0.00049297  0.49716684  0.00239422  1
  Al0+  Al52  1  -0.00046480  0.49770019  0.33807031  1
  Al0+  Al53  1  -0.00255065  0.50157371  0.66825494  1
  Al0+  Al54  1  0.49943777  0.00221698  0.00101388  1
  Al0+  Al55  1  0.49891341  0.00198139  0.33441510  1
  Al0+  Al56  1  0.49996067  0.00027938  0.66633707  1
  Al0+  Al57  1  0.49607003  0.49992468  0.00063736  1
  Al0+  Al58  1  0.49820983  0.50291408  0.33233172  1
  Al0+  Al59  1  0.50074282  0.50021232  0.66079601  1
  Al0+  Al60  1  0.25157433  0.25050671  0.00328705  1
  Al0+  Al61  1  0.25022738  0.25009707  0.32914090  1
  Al0+  Al62  1  0.25197888  0.24870084  0.66808688  1
  Al0+  Al63  1  0.25121457  0.74914459  -0.00105902  1
  Al0+  Al64  1  0.25097441  0.74944174  0.32770528  1
  Al0+  Al65  1  0.25037588  0.74968368  0.66573943  1
  Al0+  Al66  1  0.74964338  0.24791119  0.00581872  1
  Al0+  Al67  1  0.74907731  0.24907260  0.33932103  1
  Al0+  Al68  1  0.75027282  0.25096749  0.66611322  1
  Al0+  Al69  1  0.74996744  0.74922237  0.00133992  1
  Al0+  Al70  1  0.74814055  0.75044449  0.34063767  1
  Al0+  Al71  1  0.75212892  0.74951134  0.66197954  1
  Al0+  Al72  1  0.57306130  0.67914541  0.64989188  1
  Al0+  Al73  1  0.07139215  0.67598909  0.98290110  1
  Al0+  Al74  1  0.82408521  0.07057251  0.35193410  1
  Al0+  Al75  1  0.82066404  0.57024220  0.01399310  1
  Al0+  Al76  1  0.18101539  0.42898695  0.34771500  1
  Al0+  Al77  1  0.67771631  0.92818391  0.01156743  1
  Al0+  Al78  1  0.18084385  0.92781497  0.01490522  1
  Al0+  Al79  1  0.67689317  0.42969573  0.34966918  1
  Al0+  Al80  1  0.07181047  0.17871391  0.31765564  1
  Al0+  Al81  1  0.67949070  0.43025471  0.68026704  1
  Al0+  Al82  1  0.67689223  0.92966169  0.35081977  1
  Al0+  Al83  1  0.67544893  0.42862287  0.01350228  1
  Al0+  Al84  1  0.82220470  0.57098031  0.35082603  1
  Al0+  Al85  1  0.42999957  0.31993827  0.65281931  1
  Al0+  Al86  1  0.17900969  0.42835213  0.01333408  1
  Al0+  Al87  1  0.07021667  0.67766186  0.32014036  1
  Al0+  Al88  1  0.07010613  0.17995848  0.65359352  1
  Al0+  Al89  1  0.32260941  0.07126256  0.68195283  1
  Al0+  Al90  1  0.42835389  0.82219515  0.65099376  1
  Al0+  Al91  1  0.82403397  0.07124358  0.01364656  1
  Al0+  Al92  1  0.17685804  0.92623879  0.68109278  1
  Al0+  Al93  1  0.92687601  0.32379018  0.65160946  1
  Al0+  Al94  1  0.17848581  0.42950469  0.67994558  1
  Al0+  Al95  1  0.92859756  0.82139211  0.98513132  1
  Si0+  Si96  1  0.82248042  0.57501631  0.68576889  1
  Si0+  Si97  1  0.42880504  0.32105767  0.98451260  1
  Si0+  Si98  1  0.92670268  0.31994213  0.31572988  1
  Si0+  Si99  1  0.07138994  0.67856717  0.65245986  1
  Si0+  Si100  1  0.31989592  0.07094437  0.34689820  1
  Si0+  Si101  1  0.57003597  0.67852214  0.98650487  1
  Si0+  Si102  1  0.32228166  0.57448422  0.35038510  1
  Si0+  Si103  1  0.82068761  0.07054775  0.68147397  1
  Si0+  Si104  1  0.18068366  0.92772199  0.34607762  1
  Si0+  Si105  1  0.42972623  0.82354605  0.31583262  1
  Si0+  Si106  1  0.57042326  0.68060705  0.31607986  1
  Si0+  Si107  1  0.42909606  0.82300442  0.98477601  1
  Si0+  Si108  1  0.57089865  0.18003819  0.98592034  1
  Si0+  Si109  1  0.42927991  0.32215867  0.31595883  1
  Si0+  Si110  1  0.32223091  0.57156834  0.68208626  1
  Si0+  Si111  1  0.92680215  0.82129235  0.31745136  1
  Si0+  Si112  1  0.57080242  0.17872787  0.31714264  1
  Si0+  Si113  1  0.92962713  0.82199540  0.65093457  1
  Si0+  Si114  1  0.68048351  0.92847943  0.68048542  1
  Si0+  Si115  1  0.57369666  0.17702113  0.64962657  1
  Si0+  Si116  1  0.32192192  0.07256374  0.01852423  1
  Si0+  Si117  1  0.07380802  0.17877569  0.98505926  1
  Si0+  Si118  1  0.32139047  0.57256005  0.01573032  1
  Si0+  Si119  1  0.92821483  0.31843069  0.98701362  1
  O2-  O120  1  0.25369776  0.00395962  0.06323711  1
  O2-  O121  1  0.24768100  0.00165180  0.38884781  1
  O2-  O122  1  0.25061421  -0.00201874  0.72952813  1
  O2-  O123  1  0.24855135  0.50826577  0.05961927  1
  O2-  O124  1  0.25280573  0.50674962  0.39398521  1
  O2-  O125  1  0.25273614  0.50458735  0.72752899  1
  O2-  O126  1  0.75395205  -0.00435179  0.06096626  1
  O2-  O127  1  0.75133295  -0.00140531  0.40131781  1
  O2-  O128  1  0.74919579  0.00030812  0.72392802  1
  O2-  O129  1  0.74693964  0.49986942  0.06374396  1
  O2-  O130  1  0.75003316  0.49917080  0.40070819  1
  O2-  O131  1  0.75432813  0.50421033  0.72724433  1
  O2-  O132  1  -0.00475252  0.25123409  0.27005072  1
  O2-  O133  1  0.00215838  0.25481517  0.60192111  1
  O2-  O134  1  -0.00034840  0.24727742  0.94465343  1
  O2-  O135  1  -0.00634390  0.75058963  0.27394208  1
  O2-  O136  1  0.00236759  0.75184562  0.61061486  1
  O2-  O137  1  0.00094850  0.75005982  0.93324786  1
  O2-  O138  1  0.50446623  0.25484645  0.27425666  1
  O2-  O139  1  0.50546672  0.24627546  0.60515342  1
  O2-  O140  1  0.50395697  0.25435236  0.94306827  1
  O2-  O141  1  0.50208766  0.75426098  0.27276935  1
  O2-  O142  1  0.50159239  0.75234121  0.59968342  1
  O2-  O143  1  0.50284306  0.75384250  0.94462556  1
  O2-  O144  1  0.07553946  0.18109105  0.09039817  1
  O2-  O145  1  0.07567558  0.17986701  0.43019969  1
  O2-  O146  1  0.06637111  0.17864956  0.76769613  1
  O2-  O147  1  0.06963703  0.67679937  0.09664543  1
  O2-  O148  1  0.07247790  0.68214498  0.43368463  1
  O2-  O149  1  0.07052596  0.67688030  0.75726343  1
  O2-  O150  1  0.56715209  0.17857698  0.09107551  1
  O2-  O151  1  0.56641497  0.17507410  0.42197325  1
  O2-  O152  1  0.57382743  0.17711235  0.75556726  1
  O2-  O153  1  0.56611292  0.67692431  0.09173609  1
  O2-  O154  1  0.56661345  0.67931482  0.42064141  1
  O2-  O155  1  0.57235091  0.68113481  0.76433565  1
  O2-  O156  1  0.18367207  0.42845001  0.23439458  1
  O2-  O157  1  0.18046863  0.43046158  0.56681628  1
  O2-  O158  1  0.18178861  0.42511132  0.90043494  1
  O2-  O159  1  0.18435787  0.92755419  0.24092952  1
  O2-  O160  1  0.17709712  0.92665345  0.56680106  1
  O2-  O161  1  0.18301274  0.92888072  0.90233304  1
  O2-  O162  1  0.67679113  0.43336623  0.23597258  1
  O2-  O163  1  0.67998585  0.43248447  0.56765748  1
  O2-  O164  1  0.67477440  0.43002379  0.89987294  1
  O2-  O165  1  0.67521422  0.93257174  0.23741740  1
  O2-  O166  1  0.68211808  0.92980100  0.57557177  1
  O2-  O167  1  0.67479270  0.93198893  0.89756755  1
  O2-  O168  1  0.42714532  0.31921490  0.08989229  1
  O2-  O169  1  0.42674118  0.31975399  0.42076998  1
  O2-  O170  1  0.43135975  0.31901355  0.76634669  1
  O2-  O171  1  0.42872741  0.82221196  0.09039881  1
  O2-  O172  1  0.42817264  0.82370457  0.42037537  1
  O2-  O173  1  0.43124951  0.82006675  0.76508097  1
  O2-  O174  1  0.92857713  0.31818834  0.09212314  1
  O2-  O175  1  0.92865840  0.31892486  0.42108530  1
  O2-  O176  1  0.92595891  0.32023777  0.76608162  1
  O2-  O177  1  0.93009188  0.82112578  0.09867392  1
  O2-  O178  1  0.93101800  0.82274785  0.42360976  1
  O2-  O179  1  0.92606381  0.82280931  0.75565046  1
  O2-  O180  1  0.32203872  0.06919524  0.24156240  1
  O2-  O181  1  0.32101028  0.07102577  0.56768697  1
  O2-  O182  1  0.32330846  0.07385077  0.91360904  1
  O2-  O183  1  0.32567834  0.57305595  0.24462134  1
  O2-  O184  1  0.32012387  0.57134164  0.57633547  1
  O2-  O185  1  0.32615104  0.56998997  0.91058014  1
  O2-  O186  1  0.82276054  0.06853509  0.23846578  1
  O2-  O187  1  0.82069609  0.06846712  0.57663429  1
  O2-  O188  1  0.81962294  0.07393676  0.89954356  1
  O2-  O189  1  0.82065754  0.57112976  0.23726054  1
  O2-  O190  1  0.82289320  0.57751523  0.58047330  1
  O2-  O191  1  0.81864141  0.56867741  0.90037473  1
  O2-  O192  1  0.04258414  0.08036921  0.26512815  1
  O2-  O193  1  0.04003817  0.08171238  0.60026940  1
  O2-  O194  1  0.05098435  0.08506191  0.94042665  1
  O2-  O195  1  0.04096438  0.57915220  0.26925245  1
  O2-  O196  1  0.04051465  0.58828413  0.60383898  1
  O2-  O197  1  0.04156818  0.57663209  0.93193381  1
  O2-  O198  1  0.53574665  0.08981740  0.26759361  1
  O2-  O199  1  0.54774889  0.08399916  0.60279510  1
  O2-  O200  1  0.53931010  0.08992697  0.93649043  1
  O2-  O201  1  0.53850236  0.59044812  0.26681235  1
  O2-  O202  1  0.54143491  0.58319397  0.59472202  1
  O2-  O203  1  0.53657121  0.58845916  0.93814174  1
  O2-  O204  1  0.16787675  0.21041504  0.26153679  1
  O2-  O205  1  0.16996110  0.20482150  0.60277022  1
  O2-  O206  1  0.16537250  0.20982709  0.93898864  1
  O2-  O207  1  0.16712569  0.70773498  0.26502751  1
  O2-  O208  1  0.16364125  0.70277617  0.60461924  1
  O2-  O209  1  0.17205683  0.70232914  0.93306541  1
  O2-  O210  1  0.66456629  0.20217457  0.27191140  1
  O2-  O211  1  0.66690029  0.20177784  0.60332902  1
  O2-  O212  1  0.66448849  0.20247146  0.93970618  1
  O2-  O213  1  0.66378127  0.70685533  0.27134275  1
  O2-  O214  1  0.67112238  0.70753313  0.59641640  1
  O2-  O215  1  0.66250894  0.70127954  0.93923476  1
  O2-  O216  1  0.08216727  0.45367416  0.06822718  1
  O2-  O217  1  0.08432176  0.45551926  0.40176676  1
  O2-  O218  1  0.08144888  0.46029716  0.73311649  1
  O2-  O219  1  0.08558277  0.95772294  0.07079271  1
  O2-  O220  1  0.08725410  0.95012262  0.39106663  1
  O2-  O221  1  0.07928818  0.95664891  0.73501825  1
  O2-  O222  1  0.57567706  0.45465805  0.06497970  1
  O2-  O223  1  0.57725546  0.46020721  0.39907968  1
  O2-  O224  1  0.58143404  0.46117875  0.73178697  1
  O2-  O225  1  0.58067842  0.96060859  0.06598670  1
  O2-  O226  1  0.57882621  0.96255152  0.40291382  1
  O2-  O227  1  0.58761540  0.95336305  0.72632448  1
  O2-  O228  1  0.21654377  0.33481142  0.06980599  1
  O2-  O229  1  0.21731883  0.33290852  0.39925868  1
  O2-  O230  1  0.21139734  0.33384293  0.73352316  1
  O2-  O231  1  0.21422678  0.83164232  0.06871216  1
  O2-  O232  1  0.21217642  0.83673521  0.39268072  1
  O2-  O233  1  0.20572840  0.82796083  0.73413562  1
  O2-  O234  1  0.70195753  0.33000263  0.06591793  1
  O2-  O235  1  0.69829020  0.32924907  0.40010189  1
  O2-  O236  1  0.70701846  0.33187511  0.73338087  1
  O2-  O237  1  0.69917053  0.82873907  0.06403756  1
  O2-  O238  1  0.69990410  0.83073194  0.40391589  1
  O2-  O239  1  0.71000615  0.83644206  0.72598345  1
  O2-  O240  1  0.45264898  0.41579905  0.26934472  1
  O2-  O241  1  0.45789687  0.41590229  0.59649699  1
  O2-  O242  1  0.45062017  0.41431478  0.93733189  1
  O2-  O243  1  0.45564607  0.91624524  0.26835345  1
  O2-  O244  1  0.45590838  0.92107642  0.59827877  1
  O2-  O245  1  0.45330613  0.91647140  0.93916437  1
  O2-  O246  1  0.95430177  0.41362642  0.27114163  1
  O2-  O247  1  0.94986646  0.42438670  0.60158840  1
  O2-  O248  1  0.95564596  0.40960228  0.93902359  1
  O2-  O249  1  0.95407839  0.91412450  0.27128714  1
  O2-  O250  1  0.95684770  0.91313020  0.60209168  1
  O2-  O251  1  0.95841027  0.92079569  0.93329080  1
  O2-  O252  1  0.34062237  0.28869642  0.26537622  1
  O2-  O253  1  0.33485131  0.28693335  0.59740990  1
  O2-  O254  1  0.33854794  0.28799141  0.93686145  1
  O2-  O255  1  0.33946805  0.79303830  0.26589358  1
  O2-  O256  1  0.33012564  0.79295663  0.59734082  1
  O2-  O257  1  0.33899228  0.79281364  0.93637705  1
  O2-  O258  1  0.83187679  0.29460633  0.27141722  1
  O2-  O259  1  0.83015271  0.29154389  0.59776842  1
  O2-  O260  1  0.83571999  0.29013256  0.94012304  1
  O2-  O261  1  0.83057003  0.79913925  0.27583407  1
  O2-  O262  1  0.83957898  0.79320345  0.60051411  1
  O2-  O263  1  0.82898082  0.79411605  0.93202372  1
  O2-  O264  1  0.41502776  0.04637726  0.06588345  1
  O2-  O265  1  0.41049751  0.04299864  0.39539613  1
  O2-  O266  1  0.42179469  0.04422496  0.73541229  1
  O2-  O267  1  0.41162143  0.54149859  0.06660699  1
  O2-  O268  1  0.41494831  0.54804857  0.39701330  1
  O2-  O269  1  0.41612641  0.54553658  0.72658874  1
  O2-  O270  1  0.92273888  0.04759540  0.06674271  1
  O2-  O271  1  0.92233449  0.04071043  0.40509362  1
  O2-  O272  1  0.91154384  0.04135595  0.72890211  1
  O2-  O273  1  0.91737501  0.53907398  0.06787331  1
  O2-  O274  1  0.91966608  0.54242828  0.40485595  1
  O2-  O275  1  0.91584877  0.55137080  0.73241493  1
  O2-  O276  1  0.29692073  0.16562199  0.06614913  1
  O2-  O277  1  0.29379341  0.16367558  0.39218802  1
  O2-  O278  1  0.29509087  0.16850255  0.73694544  1
  O2-  O279  1  0.30294419  0.66741861  0.06184344  1
  O2-  O280  1  0.29845823  0.66921207  0.39457805  1
  O2-  O281  1  0.29926137  0.66571110  0.72791939  1
  O2-  O282  1  0.79107866  0.16600178  0.07104403  1
  O2-  O283  1  0.79361138  0.16796443  0.40458269  1
  O2-  O284  1  0.79333565  0.16246613  0.72835730  1
  O2-  O285  1  0.79375591  0.66838734  0.06742309  1
  O2-  O286  1  0.79462383  0.66937333  0.40371436  1
  O2-  O287  1  0.79449169  0.66846694  0.73156638  1
