# generated using pymatgen
data_Ca2Al2SiO7
_symmetry_space_group_name_H-M   'P 1'
_cell_length_a   15.46177749
_cell_length_b   15.46078384
_cell_length_c   15.28537144
_cell_angle_alpha   89.98411842
_cell_angle_beta   89.98866266
_cell_angle_gamma   90.02450987
_symmetry_Int_Tables_number   1
_chemical_formula_structural   Ca2Al2SiO7
_chemical_formula_sum   'Ca48 Al48 Si24 O168'
_cell_volume   3653.98583247
_cell_formula_units_Z   24
loop_
 _symmetry_equiv_pos_site_id
 _symmetry_equiv_pos_as_xyz
  1  'x, y, z'
loop_
 _atom_type_symbol
 _atom_type_oxidation_number
  Ca2+  2.0
  Al0+  0.0
  Si0+  0.0
  O2-  -2.0
loop_
 _atom_site_type_symbol
 _atom_site_label
 _atom_site_symmetry_multiplicity
 _atom_site_fract_x
 _atom_site_fract_y
 _atom_site_fract_z
 _atom_site_occupancy
  Ca2+  Ca0  1  0.16822177  0.08642681  0.16448387  1
  Ca2+  Ca1  1  0.17081058  0.07588147  0.51423936  1
  Ca2+  Ca2  1  0.17105183  0.08453889  0.83629539  1
  Ca2+  Ca3  1  0.17076485  0.58481710  0.17026587  1
  Ca2+  Ca4  1  0.17091805  0.58434330  0.50822622  1
  Ca2+  Ca5  1  0.17469827  0.57411518  0.83824023  1
  Ca2+  Ca6  1  0.68017345  0.08829751  0.16696599  1
  Ca2+  Ca7  1  0.67312172  0.07729108  0.50745810  1
  Ca2+  Ca8  1  0.66653165  0.07993195  0.83826630  1
  Ca2+  Ca9  1  0.67656794  0.58049743  0.16517173  1
  Ca2+  Ca10  1  0.68019024  0.58915278  0.50443024  1
  Ca2+  Ca11  1  0.67686393  0.58044998  0.83903897  1
  Ca2+  Ca12  1  0.08286528  0.32870652  0.15779804  1
  Ca2+  Ca13  1  0.09152915  0.32868472  0.50460664  1
  Ca2+  Ca14  1  0.09538515  0.32614749  0.83049719  1
  Ca2+  Ca15  1  0.07284635  0.82423657  0.16397530  1
  Ca2+  Ca16  1  0.07491052  0.83019551  0.49569468  1
  Ca2+  Ca17  1  0.07080483  0.83684926  0.82643101  1
  Ca2+  Ca18  1  0.58410832  0.33065258  0.15537871  1
  Ca2+  Ca19  1  0.58409837  0.32738270  0.49910359  1
  Ca2+  Ca20  1  0.58933102  0.32235578  0.82964594  1
  Ca2+  Ca21  1  0.58105177  0.83023809  0.16238264  1
  Ca2+  Ca22  1  0.57809545  0.83724423  0.50494336  1
  Ca2+  Ca23  1  0.57703265  0.83519308  0.82287090  1
  Ca2+  Ca24  1  0.32765735  0.42536377  0.16686346  1
  Ca2+  Ca25  1  0.32677081  0.42950340  0.50870290  1
  Ca2+  Ca26  1  0.32541056  0.42180339  0.83771975  1
  Ca2+  Ca27  1  0.33272748  0.92402895  0.16699647  1
  Ca2+  Ca28  1  0.32410631  0.91804855  0.51462053  1
  Ca2+  Ca29  1  0.33001452  0.92362393  0.83138867  1
  Ca2+  Ca30  1  0.83068990  0.42419384  0.16794636  1
  Ca2+  Ca31  1  0.83919195  0.43121087  0.50423905  1
  Ca2+  Ca32  1  0.83175061  0.42864644  0.83980581  1
  Ca2+  Ca33  1  0.84596167  0.92509693  0.16714210  1
  Ca2+  Ca34  1  0.83380777  0.91575311  0.50572387  1
  Ca2+  Ca35  1  0.83042178  0.91580136  0.83752830  1
  Ca2+  Ca36  1  0.42384830  0.16895383  0.15348739  1
  Ca2+  Ca37  1  0.42182041  0.16090815  0.50295730  1
  Ca2+  Ca38  1  0.42455266  0.15824274  0.82625041  1
  Ca2+  Ca39  1  0.41251181  0.66276342  0.16214108  1
  Ca2+  Ca40  1  0.40682333  0.67106087  0.49772699  1
  Ca2+  Ca41  1  0.41443400  0.66716346  0.82602010  1
  Ca2+  Ca42  1  0.91912052  0.16419169  0.15546944  1
  Ca2+  Ca43  1  0.92344506  0.16369549  0.49738872  1
  Ca2+  Ca44  1  0.92863729  0.16384302  0.83015842  1
  Ca2+  Ca45  1  0.90943677  0.67395531  0.16224537  1
  Ca2+  Ca46  1  0.91757278  0.67510243  0.49203348  1
  Ca2+  Ca47  1  0.90969694  0.67376724  0.82683724  1
  Al0+  Al48  1  -0.00031232  -0.00122584  -0.00490522  1
  Al0+  Al49  1  0.00116979  -0.00005930  0.33369035  1
  Al0+  Al50  1  -0.00023347  0.00077721  0.66045237  1
  Al0+  Al51  1  0.00092995  0.50153785  0.00749398  1
  Al0+  Al52  1  0.00087714  0.49654435  0.33375204  1
  Al0+  Al53  1  0.00047932  0.49963887  0.67542046  1
  Al0+  Al54  1  0.49884611  -0.00056903  0.00138899  1
  Al0+  Al55  1  0.50189748  0.00039508  0.33055804  1
  Al0+  Al56  1  0.50176967  -0.00201017  0.66279065  1
  Al0+  Al57  1  0.49970779  0.49999507  0.00476815  1
  Al0+  Al58  1  0.49765787  0.49918844  0.33723248  1
  Al0+  Al59  1  0.50290925  0.49851178  0.66709240  1
  Al0+  Al60  1  0.25151210  0.25034620  0.00455082  1
  Al0+  Al61  1  0.25296341  0.25104542  0.33210078  1
  Al0+  Al62  1  0.25329407  0.25064680  0.66597107  1
  Al0+  Al63  1  0.24761755  0.75149197  0.00244514  1
  Al0+  Al64  1  0.24867898  0.75185088  0.33071402  1
  Al0+  Al65  1  0.24822114  0.75172219  0.67158013  1
  Al0+  Al66  1  0.75059785  0.24905289  0.00079854  1
  Al0+  Al67  1  0.75122918  0.24786333  0.33806674  1
  Al0+  Al68  1  0.75194695  0.25067045  0.65835461  1
  Al0+  Al69  1  0.74615725  0.75059526  -0.00075864  1
  Al0+  Al70  1  0.74611625  0.75107630  0.33154541  1
  Al0+  Al71  1  0.74841618  0.75206173  0.66972797  1
  Al0+  Al72  1  0.92689440  0.82019684  0.65229187  1
  Al0+  Al73  1  0.17939854  0.42850474  0.68203237  1
  Al0+  Al74  1  0.17883693  0.42782403  0.01766513  1
  Al0+  Al75  1  0.81994834  0.57174269  0.67961729  1
  Al0+  Al76  1  0.07161458  0.18063581  0.98662058  1
  Al0+  Al77  1  0.32143747  0.06954330  0.01396804  1
  Al0+  Al78  1  0.32007998  0.57322632  0.01584339  1
  Al0+  Al79  1  0.57232757  0.17797618  0.65069150  1
  Al0+  Al80  1  0.68013255  0.42747127  0.01290939  1
  Al0+  Al81  1  0.07258496  0.18059468  0.65265985  1
  Al0+  Al82  1  0.92653498  0.82063176  0.31715142  1
  Al0+  Al83  1  0.17477504  0.92911106  0.68222479  1
  Al0+  Al84  1  0.42770897  0.81814883  0.65417177  1
  Al0+  Al85  1  0.32215871  0.07016599  0.67974125  1
  Al0+  Al86  1  0.82051161  0.57105547  0.34714629  1
  Al0+  Al87  1  0.57217679  0.17913219  0.98621619  1
  Al0+  Al88  1  0.82128380  0.06804498  0.00980120  1
  Al0+  Al89  1  0.07152053  0.67687913  0.31908614  1
  Al0+  Al90  1  0.82245629  0.06957752  0.34815094  1
  Al0+  Al91  1  0.32304351  0.57323705  0.68124768  1
  Al0+  Al92  1  0.68089157  0.93120652  0.67977906  1
  Al0+  Al93  1  0.82090369  0.57422207  0.01557706  1
  Al0+  Al94  1  0.31861232  0.57151428  0.34849664  1
  Al0+  Al95  1  0.92829860  0.81839116  0.98438381  1
  Si0+  Si96  1  0.67571032  0.92818647  0.01751457  1
  Si0+  Si97  1  0.32332675  0.07212017  0.34767564  1
  Si0+  Si98  1  0.07235973  0.17954889  0.31852546  1
  Si0+  Si99  1  0.56819949  0.67864009  0.98515775  1
  Si0+  Si100  1  0.92789305  0.31934211  0.31812211  1
  Si0+  Si101  1  0.18121518  0.93158715  0.34716958  1
  Si0+  Si102  1  0.42942464  0.32262423  0.98298981  1
  Si0+  Si103  1  0.43050542  0.32132510  0.31676753  1
  Si0+  Si104  1  0.42691595  0.82172397  0.98538722  1
  Si0+  Si105  1  0.17577880  0.92921345  0.01867844  1
  Si0+  Si106  1  0.57181586  0.67654116  0.65030160  1
  Si0+  Si107  1  0.17817810  0.42475966  0.35151991  1
  Si0+  Si108  1  0.67482414  0.92847977  0.35041585  1
  Si0+  Si109  1  0.07311241  0.67687155  0.98187452  1
  Si0+  Si110  1  0.82278725  0.07420556  0.68234764  1
  Si0+  Si111  1  0.42837067  0.82163158  0.31741990  1
  Si0+  Si112  1  0.92783052  0.32412420  0.98457989  1
  Si0+  Si113  1  0.92866689  0.32402353  0.64935021  1
  Si0+  Si114  1  0.56915543  0.67730964  0.31803543  1
  Si0+  Si115  1  0.67912272  0.42508604  0.68130083  1
  Si0+  Si116  1  0.57161005  0.17936248  0.31642669  1
  Si0+  Si117  1  0.67753441  0.42723161  0.35133824  1
  Si0+  Si118  1  0.07005400  0.67702987  0.65341987  1
  Si0+  Si119  1  0.42958580  0.32345881  0.64801001  1
  O2-  O120  1  0.24561911  -0.00266052  0.06334559  1
  O2-  O121  1  0.25208899  0.00263514  0.38997956  1
  O2-  O122  1  0.24617015  0.00300914  0.73022254  1
  O2-  O123  1  0.24697532  0.50355258  0.06748391  1
  O2-  O124  1  0.24072673  0.49981443  0.39394607  1
  O2-  O125  1  0.25217268  0.50044096  0.73028509  1
  O2-  O126  1  0.74653323  -0.00507595  0.06054740  1
  O2-  O127  1  0.74880409  -0.00738721  0.39230509  1
  O2-  O128  1  0.75417192  0.00638694  0.72695467  1
  O2-  O129  1  0.75271991  0.49776914  0.06447328  1
  O2-  O130  1  0.74568611  0.49642449  0.39522809  1
  O2-  O131  1  0.74603849  0.49524331  0.72437855  1
  O2-  O132  1  -0.00006282  0.24891599  0.27626689  1
  O2-  O133  1  -0.00222124  0.25525763  0.60500776  1
  O2-  O134  1  -0.00048011  0.25846668  0.94051122  1
  O2-  O135  1  -0.00644212  0.74286824  0.26850583  1
  O2-  O136  1  0.00142732  0.74469796  0.60707936  1
  O2-  O137  1  0.00016393  0.74087909  0.93775749  1
  O2-  O138  1  0.50178109  0.25085809  0.27360330  1
  O2-  O139  1  0.49795182  0.25350885  0.60368046  1
  O2-  O140  1  0.49794445  0.25382392  0.93870342  1
  O2-  O141  1  0.49727909  0.74828859  0.27575067  1
  O2-  O142  1  0.49725424  0.73881533  0.60543484  1
  O2-  O143  1  0.49461009  0.74733589  0.94434554  1
  O2-  O144  1  0.06862496  0.17991106  0.10069235  1
  O2-  O145  1  0.07391684  0.18081904  0.42345384  1
  O2-  O146  1  0.07131528  0.18082094  0.76549197  1
  O2-  O147  1  0.07557896  0.68098288  0.08753291  1
  O2-  O148  1  0.07362160  0.68167156  0.43279528  1
  O2-  O149  1  0.06767898  0.67737079  0.75878501  1
  O2-  O150  1  0.57051622  0.17984800  0.10012931  1
  O2-  O151  1  0.56937876  0.17852132  0.42143122  1
  O2-  O152  1  0.57288000  0.17898561  0.76358522  1
  O2-  O153  1  0.56912673  0.68097642  0.09081176  1
  O2-  O154  1  0.57032306  0.67792254  0.42292539  1
  O2-  O155  1  0.57308711  0.67881350  0.75589786  1
  O2-  O156  1  0.18227981  0.41848172  0.24664065  1
  O2-  O157  1  0.18030848  0.43033595  0.56781738  1
  O2-  O158  1  0.18340529  0.42678459  0.90459919  1
  O2-  O159  1  0.18294541  0.93368060  0.24201436  1
  O2-  O160  1  0.17686096  0.92922071  0.56763891  1
  O2-  O161  1  0.17622363  0.92952793  0.91355477  1
  O2-  O162  1  0.67777925  0.42601081  0.24596670  1
  O2-  O163  1  0.67977674  0.42527201  0.57538398  1
  O2-  O164  1  0.68118783  0.42937034  0.89931695  1
  O2-  O165  1  0.66641031  0.93175181  0.24532632  1
  O2-  O166  1  0.68119778  0.93144116  0.56633235  1
  O2-  O167  1  0.67328980  0.92848317  0.91211421  1
  O2-  O168  1  0.43157969  0.32065853  0.08941384  1
  O2-  O169  1  0.43068481  0.31985429  0.42161653  1
  O2-  O170  1  0.43117014  0.32545001  0.75311598  1
  O2-  O171  1  0.42979761  0.82334304  0.09124772  1
  O2-  O172  1  0.42853774  0.82370569  0.42214356  1
  O2-  O173  1  0.43172566  0.81976757  0.76723365  1
  O2-  O174  1  0.92679948  0.32007522  0.09079818  1
  O2-  O175  1  0.92718121  0.31909367  0.42310252  1
  O2-  O176  1  0.92425177  0.32276042  0.75438602  1
  O2-  O177  1  0.93058778  0.81954383  0.09757749  1
  O2-  O178  1  0.92882699  0.82145357  0.43069641  1
  O2-  O179  1  0.92573520  0.81901550  0.76533907  1
  O2-  O180  1  0.32380929  0.07129736  0.24253102  1
  O2-  O181  1  0.32087456  0.06697277  0.56505343  1
  O2-  O182  1  0.32460763  0.06616853  0.90180587  1
  O2-  O183  1  0.32066949  0.56856415  0.23588773  1
  O2-  O184  1  0.31987738  0.57244090  0.56715102  1
  O2-  O185  1  0.32148726  0.57270683  0.90285372  1
  O2-  O186  1  0.82143822  0.07199531  0.23493904  1
  O2-  O187  1  0.82107004  0.07271637  0.57619206  1
  O2-  O188  1  0.82075318  0.06666122  0.89719101  1
  O2-  O189  1  0.81647977  0.56941778  0.23463761  1
  O2-  O190  1  0.81948527  0.57148235  0.56597621  1
  O2-  O191  1  0.81656765  0.57520491  0.90211777  1
  O2-  O192  1  0.04646715  0.08737169  0.27162228  1
  O2-  O193  1  0.04069745  0.08575937  0.59500063  1
  O2-  O194  1  0.03905849  0.08525597  0.93222755  1
  O2-  O195  1  0.05287471  0.57424875  0.27067746  1
  O2-  O196  1  0.04622646  0.58228538  0.60841276  1
  O2-  O197  1  0.05294714  0.58017601  0.94055363  1
  O2-  O198  1  0.54347400  0.08779879  0.26862947  1
  O2-  O199  1  0.53962290  0.08310818  0.59416215  1
  O2-  O200  1  0.53972270  0.08156269  0.93502245  1
  O2-  O201  1  0.54091733  0.58486177  0.27194939  1
  O2-  O202  1  0.55647027  0.58028470  0.60514446  1
  O2-  O203  1  0.54323541  0.58579815  0.93880801  1
  O2-  O204  1  0.16497571  0.20787777  0.27156666  1
  O2-  O205  1  0.16965622  0.21062495  0.59722805  1
  O2-  O206  1  0.17044608  0.20874863  0.93586522  1
  O2-  O207  1  0.16692173  0.71346323  0.26298932  1
  O2-  O208  1  0.16386709  0.70361248  0.60824471  1
  O2-  O209  1  0.16574730  0.70667261  0.93566822  1
  O2-  O210  1  0.66498753  0.20685539  0.27206727  1
  O2-  O211  1  0.66815442  0.20918594  0.59346670  1
  O2-  O212  1  0.66893175  0.20821519  0.93185395  1
  O2-  O213  1  0.65879751  0.70693151  0.26725179  1
  O2-  O214  1  0.66162168  0.71199072  0.60220147  1
  O2-  O215  1  0.65805886  0.70890697  0.93579984  1
  O2-  O216  1  0.07938152  0.45077349  0.07105739  1
  O2-  O217  1  0.08190578  0.44077881  0.39490974  1
  O2-  O218  1  0.08170327  0.45250610  0.73740534  1
  O2-  O219  1  0.08366161  0.95773647  0.06526277  1
  O2-  O220  1  0.08999357  0.95920468  0.39500483  1
  O2-  O221  1  0.07622442  0.95885292  0.73297571  1
  O2-  O222  1  0.58291272  0.45682068  0.06829208  1
  O2-  O223  1  0.58366197  0.45188056  0.39714273  1
  O2-  O224  1  0.58512465  0.44649590  0.72734447  1
  O2-  O225  1  0.58336568  0.95440909  0.06590040  1
  O2-  O226  1  0.58353031  0.96042665  0.39935016  1
  O2-  O227  1  0.58439529  0.96126517  0.73306274  1
  O2-  O228  1  0.21062105  0.33132453  0.07313426  1
  O2-  O229  1  0.21256132  0.33377065  0.39958095  1
  O2-  O230  1  0.21075979  0.33074568  0.73321571  1
  O2-  O231  1  0.20232742  0.83635966  0.06583898  1
  O2-  O232  1  0.21003651  0.84040119  0.39414185  1
  O2-  O233  1  0.20312057  0.83258248  0.73698503  1
  O2-  O234  1  0.70675683  0.32960228  0.06818029  1
  O2-  O235  1  0.70374847  0.33374913  0.39754260  1
  O2-  O236  1  0.70679651  0.33152206  0.72590783  1
  O2-  O237  1  0.69866941  0.83406583  0.06317988  1
  O2-  O238  1  0.69348891  0.83273451  0.39403372  1
  O2-  O239  1  0.70868294  0.83553700  0.73626322  1
  O2-  O240  1  0.45754633  0.41364012  0.26977023  1
  O2-  O241  1  0.45779955  0.41618947  0.59923230  1
  O2-  O242  1  0.45431251  0.41698916  0.93854622  1
  O2-  O243  1  0.45966815  0.91265054  0.26844677  1
  O2-  O244  1  0.46386163  0.91159556  0.59635204  1
  O2-  O245  1  0.45896273  0.91153303  0.93759051  1
  O2-  O246  1  0.95409624  0.41087474  0.26950043  1
  O2-  O247  1  0.95703998  0.41782769  0.60410862  1
  O2-  O248  1  0.94922454  0.42047077  0.94249076  1
  O2-  O249  1  0.96282852  0.91819642  0.26550837  1
  O2-  O250  1  0.95639746  0.91664747  0.59720385  1
  O2-  O251  1  0.96144575  0.91370714  0.92982714  1
  O2-  O252  1  0.33933771  0.29223834  0.26811115  1
  O2-  O253  1  0.33708547  0.29794688  0.59963414  1
  O2-  O254  1  0.33573089  0.29623320  0.93959703  1
  O2-  O255  1  0.33691315  0.79713644  0.26828894  1
  O2-  O256  1  0.32930347  0.79234163  0.59992553  1
  O2-  O257  1  0.33308547  0.79889900  0.94063386  1
  O2-  O258  1  0.83567845  0.29045441  0.27157052  1
  O2-  O259  1  0.83672820  0.29982124  0.59807866  1
  O2-  O260  1  0.83563928  0.29619541  0.93768923  1
  O2-  O261  1  0.82489965  0.79975354  0.26650923  1
  O2-  O262  1  0.82981552  0.78923375  0.59891202  1
  O2-  O263  1  0.82853125  0.79209595  0.93373563  1
  O2-  O264  1  0.41620231  0.03540499  0.07144250  1
  O2-  O265  1  0.41596612  0.04380277  0.39278898  1
  O2-  O266  1  0.41928096  0.03694849  0.73059419  1
  O2-  O267  1  0.41809817  0.54390695  0.06967336  1
  O2-  O268  1  0.41486770  0.53914650  0.40286764  1
  O2-  O269  1  0.42383980  0.54673651  0.73024783  1
  O2-  O270  1  0.91722911  0.03623383  0.06546131  1
  O2-  O271  1  0.92025832  0.04190365  0.40143970  1
  O2-  O272  1  0.91688628  0.04905573  0.72510970  1
  O2-  O273  1  0.92026848  0.55255913  0.06800675  1
  O2-  O274  1  0.91762630  0.53883613  0.39969409  1
  O2-  O275  1  0.91484613  0.54238413  0.73597315  1
  O2-  O276  1  0.29385744  0.16591303  0.06977222  1
  O2-  O277  1  0.29788670  0.16505169  0.39340703  1
  O2-  O278  1  0.30166403  0.17055876  0.72949261  1
  O2-  O279  1  0.29402740  0.67299935  0.06876516  1
  O2-  O280  1  0.29172263  0.67128395  0.39797933  1
  O2-  O281  1  0.29597984  0.67075105  0.73445595  1
  O2-  O282  1  0.79180031  0.16434588  0.06555729  1
  O2-  O283  1  0.79018049  0.16498711  0.40408091  1
  O2-  O284  1  0.79855145  0.16948883  0.72426735  1
  O2-  O285  1  0.78296788  0.66965594  0.06919598  1
  O2-  O286  1  0.78650389  0.66826630  0.39871845  1
  O2-  O287  1  0.78467933  0.66578104  0.73414011  1
