# generated using pymatgen
data_Ca2Al2SiO7
_symmetry_space_group_name_H-M   'P 1'
_cell_length_a   15.45439382
_cell_length_b   15.45420394
_cell_length_c   15.28099342
_cell_angle_alpha   89.99930188
_cell_angle_beta   90.00856992
_cell_angle_gamma   90.00400453
_symmetry_Int_Tables_number   1
_chemical_formula_structural   Ca2Al2SiO7
_chemical_formula_sum   'Ca48 Al48 Si24 O168'
_cell_volume   3649.64142080
_cell_formula_units_Z   24
loop_
 _symmetry_equiv_pos_site_id
 _symmetry_equiv_pos_as_xyz
  1  'x, y, z'
loop_
 _atom_type_symbol
 _atom_type_oxidation_number
  Ca2+  2.0
  Al0+  0.0
  Si0+  0.0
  O2-  -2.0
loop_
 _atom_site_type_symbol
 _atom_site_label
 _atom_site_symmetry_multiplicity
 _atom_site_fract_x
 _atom_site_fract_y
 _atom_site_fract_z
 _atom_site_occupancy
  Ca2+  Ca0  1  0.17171163  0.07099086  0.17458401  1
  Ca2+  Ca1  1  0.16512673  0.07951260  0.50381042  1
  Ca2+  Ca2  1  0.16773229  0.07823770  0.84003383  1
  Ca2+  Ca3  1  0.17456538  0.58946980  0.17647762  1
  Ca2+  Ca4  1  0.16691988  0.58476275  0.50425853  1
  Ca2+  Ca5  1  0.16322361  0.58102785  0.83024870  1
  Ca2+  Ca6  1  0.65782261  0.07855850  0.16944315  1
  Ca2+  Ca7  1  0.67323519  0.08616604  0.50368994  1
  Ca2+  Ca8  1  0.67145872  0.07921022  0.83903287  1
  Ca2+  Ca9  1  0.67395818  0.57698329  0.17244101  1
  Ca2+  Ca10  1  0.67184341  0.57488682  0.50555094  1
  Ca2+  Ca11  1  0.66208415  0.57806585  0.84160564  1
  Ca2+  Ca12  1  0.07219547  0.34048406  0.16698162  1
  Ca2+  Ca13  1  0.08038046  0.33052828  0.49650042  1
  Ca2+  Ca14  1  0.08235264  0.32717983  0.82077013  1
  Ca2+  Ca15  1  0.07592999  0.83559772  0.16591168  1
  Ca2+  Ca16  1  0.07912313  0.82384191  0.49030603  1
  Ca2+  Ca17  1  0.07922062  0.83017930  0.82961037  1
  Ca2+  Ca18  1  0.59410961  0.32414409  0.16403976  1
  Ca2+  Ca19  1  0.58597063  0.33238295  0.49560292  1
  Ca2+  Ca20  1  0.58226065  0.33617407  0.82970293  1
  Ca2+  Ca21  1  0.58424813  0.82630918  0.15533937  1
  Ca2+  Ca22  1  0.57963111  0.82838055  0.50017172  1
  Ca2+  Ca23  1  0.58737281  0.82175261  0.82959665  1
  Ca2+  Ca24  1  0.33149713  0.42516445  0.17329275  1
  Ca2+  Ca25  1  0.33215449  0.42225048  0.50698370  1
  Ca2+  Ca26  1  0.32887935  0.41035334  0.82938594  1
  Ca2+  Ca27  1  0.31983219  0.91699519  0.17696959  1
  Ca2+  Ca28  1  0.33171793  0.91953018  0.50029212  1
  Ca2+  Ca29  1  0.32857904  0.91104864  0.83738518  1
  Ca2+  Ca30  1  0.82696706  0.42679237  0.17397386  1
  Ca2+  Ca31  1  0.82564984  0.41413041  0.50129531  1
  Ca2+  Ca32  1  0.81967898  0.42623040  0.84127500  1
  Ca2+  Ca33  1  0.83067732  0.90928786  0.16721264  1
  Ca2+  Ca34  1  0.83768346  0.92156266  0.50230346  1
  Ca2+  Ca35  1  0.83218843  0.92103266  0.83988379  1
  Ca2+  Ca36  1  0.42654097  0.16167371  0.16565092  1
  Ca2+  Ca37  1  0.41938768  0.17440437  0.49228842  1
  Ca2+  Ca38  1  0.42559689  0.17147491  0.82770443  1
  Ca2+  Ca39  1  0.42221381  0.66336689  0.16223231  1
  Ca2+  Ca40  1  0.41839616  0.66671631  0.50006410  1
  Ca2+  Ca41  1  0.43014089  0.67179136  0.82478950  1
  Ca2+  Ca42  1  0.91303759  0.17544277  0.16707832  1
  Ca2+  Ca43  1  0.91890282  0.17016390  0.49670646  1
  Ca2+  Ca44  1  0.92190680  0.16499995  0.82542712  1
  Ca2+  Ca45  1  0.91219791  0.67247770  0.16461196  1
  Ca2+  Ca46  1  0.92760363  0.66493746  0.48904094  1
  Ca2+  Ca47  1  0.91394212  0.67234457  0.83193272  1
  Al0+  Al48  1  0.00098123  0.00011744  0.00125460  1
  Al0+  Al49  1  -0.00099601  -0.00100803  0.33288723  1
  Al0+  Al50  1  0.00138860  0.00093606  0.66774553  1
  Al0+  Al51  1  -0.00025678  0.50039288  0.00137678  1
  Al0+  Al52  1  0.00067938  0.50005434  0.32687158  1
  Al0+  Al53  1  -0.00070267  0.49985226  0.66859431  1
  Al0+  Al54  1  0.50030479  0.00220030  -0.00277484  1
  Al0+  Al55  1  0.49894110  -0.00045842  0.33450505  1
  Al0+  Al56  1  0.50047076  -0.00008497  0.66449369  1
  Al0+  Al57  1  0.49781921  0.49798498  -0.00034315  1
  Al0+  Al58  1  0.49854867  0.49875414  0.34096828  1
  Al0+  Al59  1  0.49959214  0.50012509  0.66337834  1
  Al0+  Al60  1  0.25002772  0.25035567  0.00299351  1
  Al0+  Al61  1  0.25163672  0.24952249  0.33338663  1
  Al0+  Al62  1  0.25113963  0.24904408  0.66244487  1
  Al0+  Al63  1  0.24799523  0.74934684  0.00395146  1
  Al0+  Al64  1  0.25039270  0.75030634  0.33926558  1
  Al0+  Al65  1  0.24976650  0.75098586  0.66118176  1
  Al0+  Al66  1  0.75082590  0.25040072  -0.00425675  1
  Al0+  Al67  1  0.74963759  0.24837291  0.32740856  1
  Al0+  Al68  1  0.75108923  0.25041897  0.67865012  1
  Al0+  Al69  1  0.75146666  0.75211718  -0.00304517  1
  Al0+  Al70  1  0.75009024  0.74863340  0.33637399  1
  Al0+  Al71  1  0.75011256  0.75134141  0.66073186  1
  Al0+  Al72  1  0.82188167  0.06966712  0.67998542  1
  Al0+  Al73  1  0.42836373  0.82267444  0.65090246  1
  Al0+  Al74  1  0.57014335  0.67896457  0.98926927  1
  Al0+  Al75  1  0.67945159  0.93130255  0.01174736  1
  Al0+  Al76  1  0.17689880  0.93046485  0.35215585  1
  Al0+  Al77  1  0.57297994  0.67775571  0.64909258  1
  Al0+  Al78  1  0.56952071  0.17950714  0.32065684  1
  Al0+  Al79  1  0.67783936  0.43103051  0.68219824  1
  Al0+  Al80  1  0.93080641  0.82133372  0.98454494  1
  Al0+  Al81  1  0.06840368  0.67801681  0.65399923  1
  Al0+  Al82  1  0.07300305  0.67929285  0.31673784  1
  Al0+  Al83  1  0.07131029  0.17839739  0.65379672  1
  Al0+  Al84  1  0.42978057  0.31920692  0.65241115  1
  Al0+  Al85  1  0.57155835  0.17859516  0.98355932  1
  Al0+  Al86  1  0.67612317  0.42856295  0.01645280  1
  Al0+  Al87  1  0.17927715  0.42843737  0.67860496  1
  Al0+  Al88  1  0.32262889  0.07099767  0.34981528  1
  Al0+  Al89  1  0.32097532  0.57078423  0.34849154  1
  Al0+  Al90  1  0.82225769  0.57189841  0.35013658  1
  Al0+  Al91  1  0.68094826  0.42647275  0.34904344  1
  Al0+  Al92  1  0.92952318  0.31971278  0.32014629  1
  Al0+  Al93  1  0.82161692  0.57280838  0.01506290  1
  Al0+  Al94  1  0.92727045  0.82178996  0.31763012  1
  Al0+  Al95  1  0.17924747  0.92852243  0.01334277  1
  Si0+  Si96  1  0.67743200  0.92717135  0.34782218  1
  Si0+  Si97  1  0.07080774  0.18132330  0.98696341  1
  Si0+  Si98  1  0.67685472  0.92765877  0.68283857  1
  Si0+  Si99  1  0.43069657  0.82083629  0.31763552  1
  Si0+  Si100  1  0.82347245  0.07248324  0.01785824  1
  Si0+  Si101  1  0.07471798  0.67686814  0.98210932  1
  Si0+  Si102  1  0.17674665  0.42715322  0.34861948  1
  Si0+  Si103  1  0.81915905  0.07083590  0.34531816  1
  Si0+  Si104  1  0.92981623  0.32307847  0.98220910  1
  Si0+  Si105  1  0.32183492  0.07366529  0.01606349  1
  Si0+  Si106  1  0.92888221  0.82351340  0.65017428  1
  Si0+  Si107  1  0.18046234  0.92911497  0.68252932  1
  Si0+  Si108  1  0.32068050  0.57356354  0.68483519  1
  Si0+  Si109  1  0.31901872  0.57005034  0.01213178  1
  Si0+  Si110  1  0.56981115  0.67772659  0.31902571  1
  Si0+  Si111  1  0.17835199  0.42649608  0.01454085  1
  Si0+  Si112  1  0.42536187  0.32166196  0.98290234  1
  Si0+  Si113  1  0.92742937  0.32094278  0.65281214  1
  Si0+  Si114  1  0.32232446  0.07159755  0.68255983  1
  Si0+  Si115  1  0.82236913  0.57407264  0.68311763  1
  Si0+  Si116  1  0.57467845  0.17898567  0.65124343  1
  Si0+  Si117  1  0.42697598  0.32387049  0.31563390  1
  Si0+  Si118  1  0.42559737  0.82176315  0.98667979  1
  Si0+  Si119  1  0.07394986  0.17731513  0.31538412  1
  O2-  O120  1  0.25732709  0.00046077  0.05864397  1
  O2-  O121  1  0.24710871  0.00446309  0.40224630  1
  O2-  O122  1  0.25288943  -0.00106366  0.72554098  1
  O2-  O123  1  0.24660082  0.50051470  0.05496414  1
  O2-  O124  1  0.24479888  0.49618820  0.39252654  1
  O2-  O125  1  0.25223374  0.50375643  0.72871005  1
  O2-  O126  1  0.75165919  0.00699807  0.06187786  1
  O2-  O127  1  0.75119160  -0.00319326  0.38760247  1
  O2-  O128  1  0.74713947  -0.00493778  0.72639329  1
  O2-  O129  1  0.74790606  0.50177963  0.06411663  1
  O2-  O130  1  0.75137508  0.49912808  0.40025227  1
  O2-  O131  1  0.74907215  0.51017214  0.72746256  1
  O2-  O132  1  0.00739882  0.24804830  0.27113385  1
  O2-  O133  1  -0.00308002  0.25334646  0.60780341  1
  O2-  O134  1  0.00113055  0.25155014  0.94131536  1
  O2-  O135  1  -0.00125600  0.74919644  0.26720675  1
  O2-  O136  1  -0.00820480  0.74986112  0.60690381  1
  O2-  O137  1  0.00467086  0.74483560  0.93906549  1
  O2-  O138  1  0.49556652  0.25478176  0.27215317  1
  O2-  O139  1  0.50731690  0.24759672  0.60583708  1
  O2-  O140  1  0.49710615  0.25520861  0.94005403  1
  O2-  O141  1  0.50052118  0.74951092  0.27448266  1
  O2-  O142  1  0.50018495  0.75041882  0.60069608  1
  O2-  O143  1  0.49687219  0.75595013  0.94289262  1
  O2-  O144  1  0.07085192  0.18377908  0.09184414  1
  O2-  O145  1  0.07195363  0.17765466  0.42107031  1
  O2-  O146  1  0.07102944  0.17831834  0.76767068  1
  O2-  O147  1  0.07948488  0.67718968  0.08694734  1
  O2-  O148  1  0.07156894  0.67989502  0.43055897  1
  O2-  O149  1  0.06886437  0.68105698  0.76754686  1
  O2-  O150  1  0.56841449  0.17641756  0.09666837  1
  O2-  O151  1  0.57116061  0.17985167  0.43380733  1
  O2-  O152  1  0.57167167  0.17802931  0.75688523  1
  O2-  O153  1  0.56635717  0.67939981  0.10269724  1
  O2-  O154  1  0.56850882  0.68025785  0.42379248  1
  O2-  O155  1  0.57139782  0.67929937  0.76335828  1
  O2-  O156  1  0.17979278  0.42666978  0.24220667  1
  O2-  O157  1  0.17988221  0.42834543  0.56606557  1
  O2-  O158  1  0.17939517  0.42264607  0.90957080  1
  O2-  O159  1  0.17888202  0.93170016  0.23811256  1
  O2-  O160  1  0.17868519  0.93113728  0.57810586  1
  O2-  O161  1  0.18057914  0.92995190  0.89954295  1
  O2-  O162  1  0.68210954  0.42680228  0.23554175  1
  O2-  O163  1  0.68224354  0.42643719  0.56953042  1
  O2-  O164  1  0.67629576  0.43123343  0.90262902  1
  O2-  O165  1  0.67455828  0.92741504  0.24267731  1
  O2-  O166  1  0.67653597  0.92930685  0.57690699  1
  O2-  O167  1  0.68172292  0.93178362  0.89869064  1
  O2-  O168  1  0.41945718  0.32112064  0.08808085  1
  O2-  O169  1  0.42656580  0.32283626  0.42110329  1
  O2-  O170  1  0.42802406  0.31504790  0.76588777  1
  O2-  O171  1  0.42430511  0.81894603  0.09244870  1
  O2-  O172  1  0.43360591  0.82242707  0.42246822  1
  O2-  O173  1  0.42751642  0.82076723  0.76517328  1
  O2-  O174  1  0.93108504  0.32263084  0.08740482  1
  O2-  O175  1  0.92898163  0.31491463  0.43340844  1
  O2-  O176  1  0.93086249  0.31925064  0.75869162  1
  O2-  O177  1  0.93203239  0.82279796  0.09692340  1
  O2-  O178  1  0.92881827  0.82355960  0.43139102  1
  O2-  O179  1  0.93083922  0.82525811  0.75601234  1
  O2-  O180  1  0.32318369  0.06596135  0.23570756  1
  O2-  O181  1  0.32170156  0.07176061  0.57800347  1
  O2-  O182  1  0.31843401  0.07753928  0.91023170  1
  O2-  O183  1  0.32252097  0.56901768  0.23429970  1
  O2-  O184  1  0.31881702  0.57266251  0.57937945  1
  O2-  O185  1  0.31851770  0.57089512  0.90739295  1
  O2-  O186  1  0.81770545  0.07252712  0.24035751  1
  O2-  O187  1  0.82082867  0.07017347  0.56633682  1
  O2-  O188  1  0.82532967  0.06970128  0.91203864  1
  O2-  O189  1  0.81797061  0.57314742  0.23662831  1
  O2-  O190  1  0.82426724  0.57075757  0.57789914  1
  O2-  O191  1  0.82340885  0.56971984  0.90105192  1
  O2-  O192  1  0.04414219  0.08514202  0.26939356  1
  O2-  O193  1  0.03885498  0.08306122  0.59891000  1
  O2-  O194  1  0.04324359  0.08953148  0.93938745  1
  O2-  O195  1  0.05167374  0.57938142  0.26373467  1
  O2-  O196  1  0.04130560  0.58014113  0.60052792  1
  O2-  O197  1  0.05030411  0.58177121  0.93762777  1
  O2-  O198  1  0.53687901  0.08256824  0.26641335  1
  O2-  O199  1  0.55102080  0.08478779  0.60595625  1
  O2-  O200  1  0.53955966  0.08297303  0.92691646  1
  O2-  O201  1  0.53896762  0.58561265  0.27407951  1
  O2-  O202  1  0.54333289  0.58042486  0.59625107  1
  O2-  O203  1  0.53616480  0.58329153  0.93495889  1
  O2-  O204  1  0.16889343  0.19951747  0.27011553  1
  O2-  O205  1  0.16646564  0.20800320  0.59831538  1
  O2-  O206  1  0.16340805  0.20849408  0.93982558  1
  O2-  O207  1  0.17254164  0.71014691  0.26654919  1
  O2-  O208  1  0.16446124  0.70894774  0.60045025  1
  O2-  O209  1  0.16765527  0.70446209  0.93459497  1
  O2-  O210  1  0.66475558  0.20777039  0.26285097  1
  O2-  O211  1  0.66978567  0.20535242  0.60933385  1
  O2-  O212  1  0.66949926  0.20588889  0.93006268  1
  O2-  O213  1  0.66208113  0.70531506  0.27335404  1
  O2-  O214  1  0.67082525  0.70661496  0.59463864  1
  O2-  O215  1  0.66528082  0.71022643  0.93363970  1
  O2-  O216  1  0.08600252  0.45205386  0.06127834  1
  O2-  O217  1  0.08241332  0.45004892  0.39263952  1
  O2-  O218  1  0.08270422  0.45762438  0.73519377  1
  O2-  O219  1  0.08507230  0.96418101  0.06817395  1
  O2-  O220  1  0.07747635  0.95805422  0.40359870  1
  O2-  O221  1  0.08962936  0.95905600  0.73098671  1
  O2-  O222  1  0.57562460  0.45209854  0.06741502  1
  O2-  O223  1  0.58167132  0.45221573  0.40057584  1
  O2-  O224  1  0.57913297  0.45874744  0.73411544  1
  O2-  O225  1  0.58104654  0.95934642  0.06527327  1
  O2-  O226  1  0.58775010  0.95815319  0.39690876  1
  O2-  O227  1  0.58361261  0.95365302  0.72959323  1
  O2-  O228  1  0.20784084  0.33693549  0.06577641  1
  O2-  O229  1  0.20062001  0.33255883  0.39327272  1
  O2-  O230  1  0.21309392  0.33193944  0.73309991  1
  O2-  O231  1  0.20723114  0.83196970  0.06893823  1
  O2-  O232  1  0.20886499  0.83348402  0.40436410  1
  O2-  O233  1  0.20836298  0.83688670  0.72945433  1
  O2-  O234  1  0.70833352  0.32900711  0.06438147  1
  O2-  O235  1  0.71240205  0.32757959  0.39985290  1
  O2-  O236  1  0.71021448  0.33638745  0.73987021  1
  O2-  O237  1  0.71063231  0.83537915  0.06587864  1
  O2-  O238  1  0.70371646  0.83642055  0.39748410  1
  O2-  O239  1  0.70228974  0.83292583  0.72687006  1
  O2-  O240  1  0.45215181  0.41828239  0.27088525  1
  O2-  O241  1  0.45463172  0.41723764  0.59993739  1
  O2-  O242  1  0.44820660  0.41524558  0.93558969  1
  O2-  O243  1  0.45870118  0.91186720  0.26917784  1
  O2-  O244  1  0.45685909  0.92116749  0.59707746  1
  O2-  O245  1  0.44620373  0.91684165  0.94199449  1
  O2-  O246  1  0.95943155  0.41466967  0.26199629  1
  O2-  O247  1  0.95161516  0.41448533  0.60737993  1
  O2-  O248  1  0.95900250  0.41445672  0.93483037  1
  O2-  O249  1  0.95460325  0.92090537  0.26426646  1
  O2-  O250  1  0.96024398  0.91506328  0.60385998  1
  O2-  O251  1  0.96361548  0.91850885  0.93096688  1
  O2-  O252  1  0.33280310  0.29980857  0.26868017  1
  O2-  O253  1  0.33555359  0.28622366  0.59606002  1
  O2-  O254  1  0.33241645  0.29219889  0.93541187  1
  O2-  O255  1  0.33796183  0.79262968  0.27302109  1
  O2-  O256  1  0.33086595  0.79501888  0.59631399  1
  O2-  O257  1  0.33310468  0.79247237  0.93962104  1
  O2-  O258  1  0.83687084  0.28317434  0.26206024  1
  O2-  O259  1  0.83411351  0.29144436  0.60932895  1
  O2-  O260  1  0.83870881  0.29522562  0.93401543  1
  O2-  O261  1  0.82703557  0.79407479  0.26654177  1
  O2-  O262  1  0.83318581  0.80690197  0.60543694  1
  O2-  O263  1  0.83476404  0.79279921  0.92809577  1
  O2-  O264  1  0.41702330  0.05195299  0.05911402  1
  O2-  O265  1  0.41910886  0.03835857  0.40447516  1
  O2-  O266  1  0.41530439  0.04533692  0.72965681  1
  O2-  O267  1  0.40895951  0.54013415  0.06190873  1
  O2-  O268  1  0.41501589  0.53915259  0.40648296  1
  O2-  O269  1  0.41441341  0.54679859  0.72925983  1
  O2-  O270  1  0.91608059  0.04592872  0.06484083  1
  O2-  O271  1  0.91171228  0.04659426  0.39309660  1
  O2-  O272  1  0.91832439  0.03871146  0.73578049  1
  O2-  O273  1  0.92032832  0.54287663  0.06774130  1
  O2-  O274  1  0.92268622  0.54263846  0.39744372  1
  O2-  O275  1  0.91397525  0.54548545  0.73187989  1
  O2-  O276  1  0.29189561  0.16474370  0.06545985  1
  O2-  O277  1  0.29998436  0.17244275  0.39919173  1
  O2-  O278  1  0.29177917  0.16199705  0.73064698  1
  O2-  O279  1  0.29328730  0.66113557  0.06269588  1
  O2-  O280  1  0.29332959  0.66691133  0.40383231  1
  O2-  O281  1  0.29330773  0.66723592  0.72999368  1
  O2-  O282  1  0.80063037  0.16814780  0.05976867  1
  O2-  O283  1  0.78754317  0.16011653  0.39456018  1
  O2-  O284  1  0.79354314  0.16420438  0.73950647  1
  O2-  O285  1  0.79496266  0.67215142  0.06495916  1
  O2-  O286  1  0.79404936  0.66991906  0.40436620  1
  O2-  O287  1  0.80096711  0.67096321  0.72494952  1
