# generated using pymatgen
data_Ca2Al2SiO7
_symmetry_space_group_name_H-M   'P 1'
_cell_length_a   15.45844262
_cell_length_b   15.45971400
_cell_length_c   15.28395797
_cell_angle_alpha   89.97918499
_cell_angle_beta   89.99693389
_cell_angle_gamma   90.01873675
_symmetry_Int_Tables_number   1
_chemical_formula_structural   Ca2Al2SiO7
_chemical_formula_sum   'Ca48 Al48 Si24 O168'
_cell_volume   3652.60724212
_cell_formula_units_Z   24
loop_
 _symmetry_equiv_pos_site_id
 _symmetry_equiv_pos_as_xyz
  1  'x, y, z'
loop_
 _atom_type_symbol
 _atom_type_oxidation_number
  Ca2+  2.0
  Al0+  0.0
  Si0+  0.0
  O2-  -2.0
loop_
 _atom_site_type_symbol
 _atom_site_label
 _atom_site_symmetry_multiplicity
 _atom_site_fract_x
 _atom_site_fract_y
 _atom_site_fract_z
 _atom_site_occupancy
  Ca2+  Ca0  1  0.17216763  0.08283179  0.16683013  1
  Ca2+  Ca1  1  0.17548069  0.07700382  0.51084289  1
  Ca2+  Ca2  1  0.16592102  0.07771883  0.84016141  1
  Ca2+  Ca3  1  0.17853038  0.58403260  0.16927462  1
  Ca2+  Ca4  1  0.17675314  0.59161276  0.50669557  1
  Ca2+  Ca5  1  0.17792708  0.59381399  0.83725853  1
  Ca2+  Ca6  1  0.67651425  0.08579504  0.17156956  1
  Ca2+  Ca7  1  0.67018671  0.07343015  0.49884393  1
  Ca2+  Ca8  1  0.67143428  0.08423445  0.84293368  1
  Ca2+  Ca9  1  0.66588113  0.58231619  0.16125982  1
  Ca2+  Ca10  1  0.67110237  0.58003434  0.51283628  1
  Ca2+  Ca11  1  0.67009241  0.57716078  0.84039236  1
  Ca2+  Ca12  1  0.07435660  0.32431438  0.15372994  1
  Ca2+  Ca13  1  0.08655062  0.32589166  0.49917947  1
  Ca2+  Ca14  1  0.08134916  0.32309309  0.83017465  1
  Ca2+  Ca15  1  0.07807512  0.83936684  0.16388857  1
  Ca2+  Ca16  1  0.08318004  0.83134363  0.50041735  1
  Ca2+  Ca17  1  0.08590728  0.83402699  0.82782908  1
  Ca2+  Ca18  1  0.58341350  0.32755969  0.15572381  1
  Ca2+  Ca19  1  0.58361953  0.33476122  0.50079017  1
  Ca2+  Ca20  1  0.58950279  0.33289115  0.83417596  1
  Ca2+  Ca21  1  0.57728388  0.83447715  0.16223295  1
  Ca2+  Ca22  1  0.57945291  0.82787839  0.49199012  1
  Ca2+  Ca23  1  0.58318419  0.81793785  0.82874714  1
  Ca2+  Ca24  1  0.33947880  0.42929094  0.16775588  1
  Ca2+  Ca25  1  0.33373020  0.42941127  0.50484658  1
  Ca2+  Ca26  1  0.33363654  0.42739310  0.83560944  1
  Ca2+  Ca27  1  0.33176185  0.92457900  0.16989207  1
  Ca2+  Ca28  1  0.33448601  0.92411203  0.50593184  1
  Ca2+  Ca29  1  0.31953537  0.92408239  0.83815898  1
  Ca2+  Ca30  1  0.83082602  0.41515357  0.16264970  1
  Ca2+  Ca31  1  0.82553605  0.42389990  0.51047300  1
  Ca2+  Ca32  1  0.82743426  0.42443231  0.84051148  1
  Ca2+  Ca33  1  0.82870050  0.92666121  0.17364116  1
  Ca2+  Ca34  1  0.83384228  0.91392548  0.49544432  1
  Ca2+  Ca35  1  0.83256149  0.92222548  0.83980858  1
  Ca2+  Ca36  1  0.42101827  0.16166692  0.15789467  1
  Ca2+  Ca37  1  0.41333203  0.16361597  0.49501535  1
  Ca2+  Ca38  1  0.41822527  0.16066733  0.83062088  1
  Ca2+  Ca39  1  0.41763373  0.67056772  0.16065239  1
  Ca2+  Ca40  1  0.41793473  0.66958236  0.49486692  1
  Ca2+  Ca41  1  0.42522435  0.65759573  0.82826834  1
  Ca2+  Ca42  1  0.91655132  0.16741701  0.15231362  1
  Ca2+  Ca43  1  0.92300248  0.16167065  0.49702376  1
  Ca2+  Ca44  1  0.92429314  0.16740650  0.83365941  1
  Ca2+  Ca45  1  0.91184279  0.67415530  0.16050899  1
  Ca2+  Ca46  1  0.92144306  0.66928020  0.49688578  1
  Ca2+  Ca47  1  0.91955804  0.66359404  0.82562454  1
  Al0+  Al48  1  -0.00168267  -0.00085029  0.00325174  1
  Al0+  Al49  1  0.00121140  -0.00112155  0.33292323  1
  Al0+  Al50  1  -0.00025562  0.00052321  0.66356772  1
  Al0+  Al51  1  -0.00053357  0.50197479  -0.00005795  1
  Al0+  Al52  1  0.00072080  0.49680855  0.33198299  1
  Al0+  Al53  1  0.00030171  0.49968407  0.66240207  1
  Al0+  Al54  1  0.49716197  -0.00129252  -0.00512298  1
  Al0+  Al55  1  0.50145726  -0.00137930  0.33624884  1
  Al0+  Al56  1  0.50161864  -0.00014364  0.66944237  1
  Al0+  Al57  1  0.50084060  0.50001075  0.00430580  1
  Al0+  Al58  1  0.50003080  0.49907152  0.33697649  1
  Al0+  Al59  1  0.50055602  0.49756988  0.66827955  1
  Al0+  Al60  1  0.24997247  0.25049875  -0.00138222  1
  Al0+  Al61  1  0.25055873  0.25147053  0.33420615  1
  Al0+  Al62  1  0.25241584  0.25188468  0.66394267  1
  Al0+  Al63  1  0.24798894  0.75253671  0.00984106  1
  Al0+  Al64  1  0.25218944  0.74989619  0.33208609  1
  Al0+  Al65  1  0.24981342  0.75310979  0.66984800  1
  Al0+  Al66  1  0.74871734  0.25158626  -0.00202133  1
  Al0+  Al67  1  0.75119935  0.25016947  0.33961013  1
  Al0+  Al68  1  0.74890677  0.24953257  0.66679210  1
  Al0+  Al69  1  0.74842641  0.74929861  -0.00188031  1
  Al0+  Al70  1  0.75144131  0.74822170  0.33171304  1
  Al0+  Al71  1  0.74954552  0.75025976  0.66446238  1
  Al0+  Al72  1  0.07154581  0.17924422  0.65129916  1
  Al0+  Al73  1  0.92736444  0.32353189  0.98319991  1
  Al0+  Al74  1  0.31912138  0.57178751  0.67953643  1
  Al0+  Al75  1  0.56935304  0.17794413  0.98735436  1
  Al0+  Al76  1  0.92977928  0.81926882  0.31793554  1
  Al0+  Al77  1  0.32175982  0.07275753  0.01503228  1
  Al0+  Al78  1  0.82309488  0.07220494  0.34962436  1
  Al0+  Al79  1  0.17760842  0.93097516  0.68118717  1
  Al0+  Al80  1  0.67883064  0.42825516  0.68320633  1
  Al0+  Al81  1  0.07224780  0.67920903  0.65447438  1
  Al0+  Al82  1  0.56845617  0.67999294  0.98624979  1
  Al0+  Al83  1  0.32045214  0.57103004  0.34862628  1
  Al0+  Al84  1  0.82275679  0.57291397  0.68030496  1
  Al0+  Al85  1  0.17707114  0.92988238  0.01856371  1
  Al0+  Al86  1  0.32100731  0.07114899  0.34696337  1
  Al0+  Al87  1  0.32088522  0.57030459  0.01427080  1
  Al0+  Al88  1  0.57021049  0.67708666  0.65246951  1
  Al0+  Al89  1  0.07104336  0.17740762  0.98487351  1
  Al0+  Al90  1  0.32285510  0.07350514  0.68224097  1
  Al0+  Al91  1  0.81776746  0.07018581  0.01051358  1
  Al0+  Al92  1  0.68000610  0.42955634  0.01698995  1
  Al0+  Al93  1  0.42999004  0.82180612  0.31941719  1
  Al0+  Al94  1  0.67944538  0.92701078  0.34718087  1
  Al0+  Al95  1  0.82306881  0.57314871  0.01620153  1
  Si0+  Si96  1  0.57104932  0.18029040  0.32091049  1
  Si0+  Si97  1  0.92820693  0.82013491  0.98516570  1
  Si0+  Si98  1  0.17756597  0.42734570  0.68202313  1
  Si0+  Si99  1  0.82030487  0.06992448  0.68116491  1
  Si0+  Si100  1  0.57248105  0.17673486  0.64925771  1
  Si0+  Si101  1  0.67659238  0.92628279  0.01351840  1
  Si0+  Si102  1  0.17693314  0.42836447  0.35036933  1
  Si0+  Si103  1  0.67968187  0.42879303  0.34947215  1
  Si0+  Si104  1  0.42965486  0.32198430  0.31867634  1
  Si0+  Si105  1  0.42403956  0.82187259  0.98142313  1
  Si0+  Si106  1  0.92776432  0.32005259  0.31852635  1
  Si0+  Si107  1  0.92698105  0.32040791  0.64785596  1
  Si0+  Si108  1  0.43009327  0.32046025  0.65013709  1
  Si0+  Si109  1  0.07283836  0.67604308  0.31539551  1
  Si0+  Si110  1  0.17789716  0.92805673  0.35132394  1
  Si0+  Si111  1  0.92659651  0.82309647  0.64953910  1
  Si0+  Si112  1  0.17685296  0.42750804  0.01517873  1
  Si0+  Si113  1  0.82285324  0.57042436  0.34793120  1
  Si0+  Si114  1  0.43001068  0.82190888  0.65104044  1
  Si0+  Si115  1  0.42789886  0.32336048  0.98339959  1
  Si0+  Si116  1  0.67853349  0.92823972  0.68242680  1
  Si0+  Si117  1  0.57203395  0.67545984  0.31637876  1
  Si0+  Si118  1  0.07189121  0.17979304  0.31841810  1
  Si0+  Si119  1  0.07189189  0.68026749  0.98729628  1
  O2-  O120  1  0.24937690  0.00255012  0.06671877  1
  O2-  O121  1  0.24748787  -0.00381502  0.39472871  1
  O2-  O122  1  0.24638593  0.00615212  0.73054358  1
  O2-  O123  1  0.24658808  0.49465547  0.06070622  1
  O2-  O124  1  0.24241628  0.49970289  0.39501317  1
  O2-  O125  1  0.23982946  0.50169975  0.72628110  1
  O2-  O126  1  0.73990821  -0.00053065  0.05791068  1
  O2-  O127  1  0.75310540  -0.00262599  0.39860780  1
  O2-  O128  1  0.75013617  -0.00131002  0.72373571  1
  O2-  O129  1  0.75292187  0.50020697  0.06793442  1
  O2-  O130  1  0.74990043  0.50123543  0.38990413  1
  O2-  O131  1  0.75051124  0.50164302  0.73031364  1
  O2-  O132  1  -0.00314426  0.24708235  0.27683097  1
  O2-  O133  1  -0.00316037  0.25343031  0.60207501  1
  O2-  O134  1  0.00077305  0.25170559  0.93503184  1
  O2-  O135  1  0.00406561  0.74413164  0.27034296  1
  O2-  O136  1  -0.00557056  0.75144168  0.60816358  1
  O2-  O137  1  -0.00149949  0.74825033  0.94418404  1
  O2-  O138  1  0.49816258  0.24864279  0.27721202  1
  O2-  O139  1  0.49918094  0.24630413  0.60831247  1
  O2-  O140  1  0.49208302  0.25005900  0.93969434  1
  O2-  O141  1  0.50491791  0.74627423  0.27337182  1
  O2-  O142  1  0.49588537  0.75133416  0.60482579  1
  O2-  O143  1  0.49202148  0.75211047  0.93762948  1
  O2-  O144  1  0.06909953  0.17896910  0.09923291  1
  O2-  O145  1  0.07276914  0.18314484  0.42371668  1
  O2-  O146  1  0.06894944  0.17950055  0.76370439  1
  O2-  O147  1  0.07211753  0.68116939  0.09254921  1
  O2-  O148  1  0.07159027  0.67582466  0.42112193  1
  O2-  O149  1  0.07288364  0.68197979  0.76762722  1
  O2-  O150  1  0.57006480  0.17966014  0.10117711  1
  O2-  O151  1  0.57099128  0.18322260  0.42639754  1
  O2-  O152  1  0.57461353  0.17570886  0.75396083  1
  O2-  O153  1  0.56764463  0.68248069  0.09967619  1
  O2-  O154  1  0.57051644  0.67370069  0.42221718  1
  O2-  O155  1  0.56975579  0.67827405  0.76540338  1
  O2-  O156  1  0.17697360  0.42787355  0.24499802  1
  O2-  O157  1  0.18210667  0.42534463  0.57605113  1
  O2-  O158  1  0.17775557  0.42912575  0.90962412  1
  O2-  O159  1  0.17648203  0.93089656  0.24603453  1
  O2-  O160  1  0.17887184  0.93057689  0.56726737  1
  O2-  O161  1  0.17666922  0.92807992  0.90523431  1
  O2-  O162  1  0.67894409  0.42546670  0.24511621  1
  O2-  O163  1  0.68046478  0.42811089  0.56843863  1
  O2-  O164  1  0.67925510  0.43155678  0.90403835  1
  O2-  O165  1  0.67911792  0.93093831  0.23367890  1
  O2-  O166  1  0.67705435  0.92924595  0.57735584  1
  O2-  O167  1  0.68151888  0.92502241  0.90748356  1
  O2-  O168  1  0.43066639  0.32495182  0.08957635  1
  O2-  O169  1  0.43155568  0.32386688  0.42389612  1
  O2-  O170  1  0.42953613  0.32231117  0.75475144  1
  O2-  O171  1  0.42660907  0.82200927  0.08739800  1
  O2-  O172  1  0.43076975  0.82029085  0.43276980  1
  O2-  O173  1  0.43331587  0.82207307  0.75629778  1
  O2-  O174  1  0.92929675  0.32039027  0.09793618  1
  O2-  O175  1  0.92874423  0.32213120  0.42357706  1
  O2-  O176  1  0.92638629  0.31842599  0.75274759  1
  O2-  O177  1  0.92793988  0.82004890  0.09033071  1
  O2-  O178  1  0.93061644  0.81588112  0.43112181  1
  O2-  O179  1  0.92521505  0.82610555  0.75508156  1
  O2-  O180  1  0.32000686  0.07303708  0.23449938  1
  O2-  O181  1  0.32313184  0.07028725  0.56801296  1
  O2-  O182  1  0.32206489  0.06998167  0.90195684  1
  O2-  O183  1  0.32173742  0.56777789  0.23560745  1
  O2-  O184  1  0.31959692  0.56999829  0.56619233  1
  O2-  O185  1  0.32007284  0.56967636  0.90112693  1
  O2-  O186  1  0.81988839  0.07602770  0.23634579  1
  O2-  O187  1  0.81915031  0.06921546  0.57598756  1
  O2-  O188  1  0.81841089  0.06647051  0.89695960  1
  O2-  O189  1  0.82377244  0.56934144  0.24330079  1
  O2-  O190  1  0.82093836  0.57102453  0.56560150  1
  O2-  O191  1  0.82234105  0.57501666  0.90315856  1
  O2-  O192  1  0.04932134  0.08608520  0.27379140  1
  O2-  O193  1  0.03888602  0.08362316  0.59558580  1
  O2-  O194  1  0.03734480  0.07979722  0.93330464  1
  O2-  O195  1  0.04841138  0.58109828  0.27092330  1
  O2-  O196  1  0.04726854  0.58154816  0.59769695  1
  O2-  O197  1  0.04941827  0.58775395  0.93958081  1
  O2-  O198  1  0.54695177  0.08759837  0.27515594  1
  O2-  O199  1  0.54582599  0.08419368  0.60186960  1
  O2-  O200  1  0.54319108  0.08078355  0.93068300  1
  O2-  O201  1  0.54298288  0.58217094  0.27094711  1
  O2-  O202  1  0.54067690  0.57968126  0.59927003  1
  O2-  O203  1  0.53817481  0.58219763  0.93477461  1
  O2-  O204  1  0.16232595  0.21231596  0.27066370  1
  O2-  O205  1  0.16831274  0.21197014  0.59719213  1
  O2-  O206  1  0.17029056  0.20462433  0.93262306  1
  O2-  O207  1  0.16691228  0.70112340  0.27052871  1
  O2-  O208  1  0.16767364  0.71426572  0.59896195  1
  O2-  O209  1  0.16334125  0.71177349  0.94115839  1
  O2-  O210  1  0.66312366  0.21152269  0.27557075  1
  O2-  O211  1  0.66314638  0.20693891  0.60001506  1
  O2-  O212  1  0.66407765  0.21092100  0.93131392  1
  O2-  O213  1  0.66705431  0.69694275  0.27212423  1
  O2-  O214  1  0.66669755  0.70918022  0.59798015  1
  O2-  O215  1  0.66453410  0.71211395  0.93105383  1
  O2-  O216  1  0.08437839  0.45444583  0.06278000  1
  O2-  O217  1  0.08202268  0.44900399  0.39686815  1
  O2-  O218  1  0.08101753  0.44448321  0.72329175  1
  O2-  O219  1  0.07887945  0.95819550  0.07170475  1
  O2-  O220  1  0.08485699  0.95364663  0.39802749  1
  O2-  O221  1  0.07734068  0.95621103  0.73203139  1
  O2-  O222  1  0.58273188  0.45912765  0.07207512  1
  O2-  O223  1  0.58785099  0.45548062  0.39767276  1
  O2-  O224  1  0.58020949  0.45340451  0.73497333  1
  O2-  O225  1  0.58026117  0.94614432  0.05456821  1
  O2-  O226  1  0.58382649  0.95844240  0.40405565  1
  O2-  O227  1  0.58846535  0.95688150  0.73170292  1
  O2-  O228  1  0.20017718  0.33373941  0.06183837  1
  O2-  O229  1  0.20696175  0.33661335  0.39804818  1
  O2-  O230  1  0.21024241  0.33699200  0.72972034  1
  O2-  O231  1  0.20474575  0.83317852  0.07564115  1
  O2-  O232  1  0.20209162  0.83290974  0.39407245  1
  O2-  O233  1  0.20823418  0.83468810  0.73640490  1
  O2-  O234  1  0.70786121  0.33104241  0.07000991  1
  O2-  O235  1  0.70859500  0.33876668  0.40018432  1
  O2-  O236  1  0.70680895  0.32869033  0.73367569  1
  O2-  O237  1  0.70635969  0.83563358  0.06191271  1
  O2-  O238  1  0.70706669  0.82750157  0.39952161  1
  O2-  O239  1  0.70639418  0.83657699  0.72931364  1
  O2-  O240  1  0.46130329  0.41247123  0.27039416  1
  O2-  O241  1  0.46230822  0.40993748  0.59965679  1
  O2-  O242  1  0.45888846  0.41498214  0.93670374  1
  O2-  O243  1  0.46258943  0.91805827  0.26486019  1
  O2-  O244  1  0.45973734  0.91493881  0.60451959  1
  O2-  O245  1  0.44861172  0.91435391  0.93325932  1
  O2-  O246  1  0.95644771  0.41108900  0.26941326  1
  O2-  O247  1  0.95075956  0.41429279  0.60060539  1
  O2-  O248  1  0.95544157  0.42297755  0.93208983  1
  O2-  O249  1  0.95986634  0.91715568  0.26498977  1
  O2-  O250  1  0.95429582  0.91490682  0.60048201  1
  O2-  O251  1  0.95700972  0.91118919  0.93725598  1
  O2-  O252  1  0.33636724  0.29882392  0.27220648  1
  O2-  O253  1  0.33864525  0.29713780  0.59898518  1
  O2-  O254  1  0.33251896  0.30499386  0.93846831  1
  O2-  O255  1  0.33341753  0.79164844  0.26469023  1
  O2-  O256  1  0.33541272  0.79918523  0.60629465  1
  O2-  O257  1  0.32901345  0.79548952  0.93984955  1
  O2-  O258  1  0.83440313  0.29423550  0.27317877  1
  O2-  O259  1  0.83373858  0.29187618  0.60089912  1
  O2-  O260  1  0.82980222  0.29472758  0.93059914  1
  O2-  O261  1  0.83299107  0.78906219  0.26332730  1
  O2-  O262  1  0.83326584  0.79906579  0.60171324  1
  O2-  O263  1  0.83658541  0.79415121  0.93641178  1
  O2-  O264  1  0.42092757  0.04187285  0.06660567  1
  O2-  O265  1  0.41807087  0.04234347  0.40061774  1
  O2-  O266  1  0.42121305  0.04314814  0.73383146  1
  O2-  O267  1  0.41557008  0.53812098  0.07042538  1
  O2-  O268  1  0.41585883  0.53581875  0.40288084  1
  O2-  O269  1  0.41344668  0.53400154  0.73224132  1
  O2-  O270  1  0.91162824  0.03685232  0.06683276  1
  O2-  O271  1  0.92204612  0.04326700  0.40116538  1
  O2-  O272  1  0.91217095  0.04253514  0.72721105  1
  O2-  O273  1  0.92256783  0.54874532  0.06938529  1
  O2-  O274  1  0.91467724  0.54020347  0.39469636  1
  O2-  O275  1  0.92256497  0.54523611  0.73019755  1
  O2-  O276  1  0.29856186  0.17361709  0.06606323  1
  O2-  O277  1  0.29171604  0.16939218  0.39968893  1
  O2-  O278  1  0.30151540  0.17514629  0.72967357  1
  O2-  O279  1  0.28873467  0.66521968  0.07010901  1
  O2-  O280  1  0.29206274  0.66862203  0.40144555  1
  O2-  O281  1  0.29281036  0.66868207  0.73363423  1
  O2-  O282  1  0.78962802  0.16711833  0.06383287  1
  O2-  O283  1  0.79268583  0.16900490  0.40581289  1
  O2-  O284  1  0.79129508  0.16138843  0.72711452  1
  O2-  O285  1  0.78957947  0.67076410  0.06892964  1
  O2-  O286  1  0.79771547  0.66242286  0.39520521  1
  O2-  O287  1  0.79752560  0.67295911  0.73047170  1
