# generated using pymatgen
data_Ca2Al2SiO7
_symmetry_space_group_name_H-M   'P 1'
_cell_length_a   15.45413923
_cell_length_b   15.45339203
_cell_length_c   15.28077726
_cell_angle_alpha   90.00038536
_cell_angle_beta   89.99447545
_cell_angle_gamma   89.99765068
_symmetry_Int_Tables_number   1
_chemical_formula_structural   Ca2Al2SiO7
_chemical_formula_sum   'Ca48 Al48 Si24 O168'
_cell_volume   3649.33796892
_cell_formula_units_Z   24
loop_
 _symmetry_equiv_pos_site_id
 _symmetry_equiv_pos_as_xyz
  1  'x, y, z'
loop_
 _atom_type_symbol
 _atom_type_oxidation_number
  Ca2+  2.0
  Al0+  0.0
  Si0+  0.0
  O2-  -2.0
loop_
 _atom_site_type_symbol
 _atom_site_label
 _atom_site_symmetry_multiplicity
 _atom_site_fract_x
 _atom_site_fract_y
 _atom_site_fract_z
 _atom_site_occupancy
  Ca2+  Ca0  1  0.17293165  0.08040170  0.17912697  1
  Ca2+  Ca1  1  0.16339107  0.07677224  0.49938423  1
  Ca2+  Ca2  1  0.16567058  0.07589257  0.83518898  1
  Ca2+  Ca3  1  0.16859826  0.58008050  0.17205821  1
  Ca2+  Ca4  1  0.16626311  0.57896291  0.50199823  1
  Ca2+  Ca5  1  0.18086151  0.58223688  0.83814826  1
  Ca2+  Ca6  1  0.66900171  0.07988713  0.16911787  1
  Ca2+  Ca7  1  0.66471372  0.07834462  0.50179864  1
  Ca2+  Ca8  1  0.66711345  0.08962691  0.83942274  1
  Ca2+  Ca9  1  0.68029019  0.58378024  0.17086409  1
  Ca2+  Ca10  1  0.67900566  0.58056246  0.50977798  1
  Ca2+  Ca11  1  0.67020742  0.58052693  0.83384941  1
  Ca2+  Ca12  1  0.07741205  0.33406845  0.16944862  1
  Ca2+  Ca13  1  0.07944032  0.33243848  0.48566758  1
  Ca2+  Ca14  1  0.07616297  0.33557742  0.83421533  1
  Ca2+  Ca15  1  0.07668111  0.83241254  0.16640111  1
  Ca2+  Ca16  1  0.08077875  0.82935954  0.48966157  1
  Ca2+  Ca17  1  0.07752278  0.83459446  0.83037927  1
  Ca2+  Ca18  1  0.57613958  0.32496318  0.15575610  1
  Ca2+  Ca19  1  0.58057394  0.33622476  0.50339220  1
  Ca2+  Ca20  1  0.58050838  0.32874658  0.82524822  1
  Ca2+  Ca21  1  0.57825073  0.83593713  0.16224850  1
  Ca2+  Ca22  1  0.58771382  0.82629638  0.49506449  1
  Ca2+  Ca23  1  0.57492816  0.82665768  0.82947444  1
  Ca2+  Ca24  1  0.33016652  0.41836096  0.17033254  1
  Ca2+  Ca25  1  0.32680347  0.41717735  0.50591713  1
  Ca2+  Ca26  1  0.34565429  0.42350134  0.83575165  1
  Ca2+  Ca27  1  0.32975719  0.92233161  0.17674663  1
  Ca2+  Ca28  1  0.32004317  0.92106946  0.50137496  1
  Ca2+  Ca29  1  0.32676143  0.90986574  0.83803196  1
  Ca2+  Ca30  1  0.84578044  0.42498964  0.17018482  1
  Ca2+  Ca31  1  0.83515550  0.42727176  0.50537356  1
  Ca2+  Ca32  1  0.82873052  0.42501678  0.84034533  1
  Ca2+  Ca33  1  0.83258276  0.91640099  0.17082096  1
  Ca2+  Ca34  1  0.82976887  0.91166186  0.49870759  1
  Ca2+  Ca35  1  0.83088525  0.92394692  0.84414093  1
  Ca2+  Ca36  1  0.41940969  0.16863290  0.15793511  1
  Ca2+  Ca37  1  0.41734881  0.16721420  0.49845503  1
  Ca2+  Ca38  1  0.42847621  0.17822837  0.82679982  1
  Ca2+  Ca39  1  0.41569140  0.67317611  0.15755893  1
  Ca2+  Ca40  1  0.42330958  0.65834796  0.50190184  1
  Ca2+  Ca41  1  0.41771910  0.66429751  0.82688720  1
  Ca2+  Ca42  1  0.91858434  0.17470772  0.16095474  1
  Ca2+  Ca43  1  0.92442274  0.17671098  0.48905116  1
  Ca2+  Ca44  1  0.90942430  0.17281068  0.83440948  1
  Ca2+  Ca45  1  0.91743655  0.67244739  0.16561388  1
  Ca2+  Ca46  1  0.92026090  0.66708359  0.48707059  1
  Ca2+  Ca47  1  0.90830601  0.66997487  0.83233877  1
  Al0+  Al48  1  -0.00150641  -0.00135075  0.00078338  1
  Al0+  Al49  1  -0.00038907  0.00093340  0.32999640  1
  Al0+  Al50  1  -0.00086461  -0.00015126  0.67057818  1
  Al0+  Al51  1  0.00183584  0.49936065  -0.00184764  1
  Al0+  Al52  1  0.00296526  0.50169013  0.33398711  1
  Al0+  Al53  1  0.00119354  0.50229018  0.67209187  1
  Al0+  Al54  1  0.49822211  -0.00204813  -0.01006936  1
  Al0+  Al55  1  0.50120505  -0.00032834  0.34284482  1
  Al0+  Al56  1  0.49792667  0.00064136  0.66321680  1
  Al0+  Al57  1  0.50078027  0.50078067  0.00461364  1
  Al0+  Al58  1  0.50268328  0.49957303  0.33017124  1
  Al0+  Al59  1  0.50086550  0.50012416  0.66411114  1
  Al0+  Al60  1  0.24927102  0.24890562  -0.00570571  1
  Al0+  Al61  1  0.25120968  0.25199205  0.33754304  1
  Al0+  Al62  1  0.24907000  0.24767225  0.66539368  1
  Al0+  Al63  1  0.24912235  0.74817589  0.00145225  1
  Al0+  Al64  1  0.25224461  0.75095467  0.33373767  1
  Al0+  Al65  1  0.24663615  0.75005020  0.67388110  1
  Al0+  Al66  1  0.75191627  0.24932440  -0.00158199  1
  Al0+  Al67  1  0.74724942  0.25087573  0.32924440  1
  Al0+  Al68  1  0.75015901  0.25019798  0.66327366  1
  Al0+  Al69  1  0.75029050  0.74976869  0.00026131  1
  Al0+  Al70  1  0.75015354  0.74917448  0.33686040  1
  Al0+  Al71  1  0.74843578  0.75302662  0.66757102  1
  Al0+  Al72  1  0.07314467  0.17896241  0.31881918  1
  Al0+  Al73  1  0.57122097  0.17835300  0.98576825  1
  Al0+  Al74  1  0.17667378  0.92835281  0.34687650  1
  Al0+  Al75  1  0.32252181  0.57023176  0.01517644  1
  Al0+  Al76  1  0.82059096  0.56838983  0.34614929  1
  Al0+  Al77  1  0.93075790  0.32185416  0.98493701  1
  Al0+  Al78  1  0.07457979  0.67910323  0.31846354  1
  Al0+  Al79  1  0.68059692  0.92979053  0.34662943  1
  Al0+  Al80  1  0.57052046  0.68101334  0.65264511  1
  Al0+  Al81  1  0.57321983  0.17813251  0.64713130  1
  Al0+  Al82  1  0.18142227  0.43196963  0.34564234  1
  Al0+  Al83  1  0.82302784  0.57372395  0.68333545  1
  Al0+  Al84  1  0.82142922  0.57128276  0.01572426  1
  Al0+  Al85  1  0.31942283  0.56823612  0.67862510  1
  Al0+  Al86  1  0.32210640  0.07281136  0.34851923  1
  Al0+  Al87  1  0.17849232  0.93038624  0.68252096  1
  Al0+  Al88  1  0.92682279  0.82084374  0.31877410  1
  Al0+  Al89  1  0.82068668  0.07170336  0.01453445  1
  Al0+  Al90  1  0.42698689  0.81955628  0.98725273  1
  Al0+  Al91  1  0.42848884  0.32193792  0.64863710  1
  Al0+  Al92  1  0.42732748  0.32259135  0.98561427  1
  Al0+  Al93  1  0.68074010  0.42849341  0.68143504  1
  Al0+  Al94  1  0.92755463  0.32211195  0.31919588  1
  Al0+  Al95  1  0.92907735  0.82010712  0.98533596  1
  Si0+  Si96  1  0.17699415  0.42424813  0.68466008  1
  Si0+  Si97  1  0.32590920  0.57345651  0.34941445  1
  Si0+  Si98  1  0.56921528  0.17637048  0.31786321  1
  Si0+  Si99  1  0.32011931  0.06948071  0.01123130  1
  Si0+  Si100  1  0.67901734  0.42729998  0.01798771  1
  Si0+  Si101  1  0.32253099  0.07232494  0.68674126  1
  Si0+  Si102  1  0.43160229  0.82138429  0.32146343  1
  Si0+  Si103  1  0.81983644  0.06950712  0.68009232  1
  Si0+  Si104  1  0.07191743  0.67765684  0.98105355  1
  Si0+  Si105  1  0.57171844  0.67836672  0.31773231  1
  Si0+  Si106  1  0.57250969  0.67848503  0.98494869  1
  Si0+  Si107  1  0.06903985  0.17718277  0.65284083  1
  Si0+  Si108  1  0.93122024  0.32274630  0.65253414  1
  Si0+  Si109  1  0.42965301  0.32184036  0.31800234  1
  Si0+  Si110  1  0.67625028  0.92848014  0.01431052  1
  Si0+  Si111  1  0.07186053  0.17588255  0.98188155  1
  Si0+  Si112  1  0.92925240  0.82241389  0.65276643  1
  Si0+  Si113  1  0.17858506  0.42611053  0.01640873  1
  Si0+  Si114  1  0.67524290  0.42638749  0.34938020  1
  Si0+  Si115  1  0.17813998  0.92836821  0.01638609  1
  Si0+  Si116  1  0.67640306  0.92915830  0.68272354  1
  Si0+  Si117  1  0.42391594  0.82111935  0.64837278  1
  Si0+  Si118  1  0.07071368  0.68022468  0.65357676  1
  Si0+  Si119  1  0.82167291  0.07492301  0.34899624  1
  O2-  O120  1  0.24981330  -0.00042528  0.05651710  1
  O2-  O121  1  0.24571398  0.00371904  0.39667467  1
  O2-  O122  1  0.25540468  0.00192268  0.73115769  1
  O2-  O123  1  0.25034875  0.49238234  0.05970251  1
  O2-  O124  1  0.25556409  0.50683274  0.39315931  1
  O2-  O125  1  0.24964868  0.48934831  0.72726975  1
  O2-  O126  1  0.74399398  -0.00222868  0.05883959  1
  O2-  O127  1  0.75663053  0.00310923  0.39443441  1
  O2-  O128  1  0.74427549  0.00352425  0.72333361  1
  O2-  O129  1  0.74883770  0.49453438  0.06289106  1
  O2-  O130  1  0.74841622  0.49092152  0.39193254  1
  O2-  O131  1  0.75231010  0.50024918  0.73268543  1
  O2-  O132  1  -0.00272381  0.24720900  0.26936979  1
  O2-  O133  1  0.00523931  0.25460710  0.61077535  1
  O2-  O134  1  0.00351249  0.24509919  0.93741038  1
  O2-  O135  1  0.00242242  0.75187331  0.26947239  1
  O2-  O136  1  -0.00507634  0.74634131  0.61177664  1
  O2-  O137  1  0.00132119  0.74442726  0.93611412  1
  O2-  O138  1  0.49917230  0.24872995  0.27651682  1
  O2-  O139  1  0.49939915  0.24880718  0.59773123  1
  O2-  O140  1  0.50214320  0.25332744  0.93645368  1
  O2-  O141  1  0.49926759  0.74835886  0.27667202  1
  O2-  O142  1  0.49507473  0.75506358  0.60377104  1
  O2-  O143  1  0.50000995  0.74340415  0.94083271  1
  O2-  O144  1  0.07411039  0.17542800  0.08683325  1
  O2-  O145  1  0.07060893  0.18140673  0.43330678  1
  O2-  O146  1  0.06551986  0.17490305  0.75805879  1
  O2-  O147  1  0.07334093  0.67932769  0.08634834  1
  O2-  O148  1  0.07312122  0.67902786  0.43285410  1
  O2-  O149  1  0.07255496  0.68252002  0.75858551  1
  O2-  O150  1  0.56698921  0.17597000  0.09998399  1
  O2-  O151  1  0.56962947  0.17613461  0.42260175  1
  O2-  O152  1  0.57316102  0.17842492  0.76048527  1
  O2-  O153  1  0.57280016  0.68194949  0.09096451  1
  O2-  O154  1  0.57119843  0.67787981  0.42287571  1
  O2-  O155  1  0.57017744  0.68394295  0.76584045  1
  O2-  O156  1  0.18456165  0.43090038  0.23255576  1
  O2-  O157  1  0.17358975  0.42635299  0.57916945  1
  O2-  O158  1  0.17645385  0.42816876  0.91058339  1
  O2-  O159  1  0.18269384  0.92749178  0.23300623  1
  O2-  O160  1  0.17604692  0.93206546  0.57000134  1
  O2-  O161  1  0.17804541  0.92931011  0.91081459  1
  O2-  O162  1  0.66892143  0.42929888  0.24413237  1
  O2-  O163  1  0.68511316  0.42971993  0.56748828  1
  O2-  O164  1  0.67897755  0.42917352  0.91248489  1
  O2-  O165  1  0.67582214  0.93235527  0.23360571  1
  O2-  O166  1  0.68016298  0.92653078  0.57761833  1
  O2-  O167  1  0.67766252  0.92769908  0.90846167  1
  O2-  O168  1  0.42655530  0.31833018  0.09988630  1
  O2-  O169  1  0.43159164  0.32504075  0.42265279  1
  O2-  O170  1  0.43053123  0.32067012  0.76208345  1
  O2-  O171  1  0.42914470  0.82205294  0.10083448  1
  O2-  O172  1  0.43308222  0.82022444  0.42643297  1
  O2-  O173  1  0.42511342  0.81890474  0.75433416  1
  O2-  O174  1  0.93397319  0.32206956  0.09747285  1
  O2-  O175  1  0.92922908  0.32144515  0.43366842  1
  O2-  O176  1  0.93139909  0.32079015  0.75773886  1
  O2-  O177  1  0.93030999  0.82080475  0.09772894  1
  O2-  O178  1  0.92549840  0.81706284  0.43315598  1
  O2-  O179  1  0.93117908  0.82511580  0.75798889  1
  O2-  O180  1  0.32573502  0.06955298  0.23402751  1
  O2-  O181  1  0.32051172  0.07179112  0.58131451  1
  O2-  O182  1  0.31716630  0.06739709  0.90635042  1
  O2-  O183  1  0.32800795  0.57165363  0.24384240  1
  O2-  O184  1  0.31493432  0.56961325  0.56545453  1
  O2-  O185  1  0.32083447  0.57164337  0.90196215  1
  O2-  O186  1  0.81739508  0.07635034  0.24366596  1
  O2-  O187  1  0.82333980  0.06619787  0.57516686  1
  O2-  O188  1  0.82071127  0.06939756  0.90059009  1
  O2-  O189  1  0.81832445  0.56986570  0.23296912  1
  O2-  O190  1  0.82508989  0.57267045  0.56968651  1
  O2-  O191  1  0.81748104  0.57182646  0.90283193  1
  O2-  O192  1  0.05060872  0.07952608  0.26608212  1
  O2-  O193  1  0.03372924  0.08800945  0.60466518  1
  O2-  O194  1  0.04406625  0.08288144  0.93544598  1
  O2-  O195  1  0.04621789  0.58162573  0.26487932  1
  O2-  O196  1  0.04821735  0.58586079  0.60794005  1
  O2-  O197  1  0.05034630  0.58335894  0.93529823  1
  O2-  O198  1  0.54005054  0.08414917  0.27231010  1
  O2-  O199  1  0.54466755  0.07802985  0.59594473  1
  O2-  O200  1  0.54219424  0.08173375  0.92928734  1
  O2-  O201  1  0.54583206  0.58684527  0.26844227  1
  O2-  O202  1  0.54129471  0.58526756  0.59696146  1
  O2-  O203  1  0.54983916  0.58360744  0.94144179  1
  O2-  O204  1  0.17163093  0.21038386  0.26728446  1
  O2-  O205  1  0.16351224  0.19589175  0.60782229  1
  O2-  O206  1  0.16441482  0.20096456  0.93248380  1
  O2-  O207  1  0.17420603  0.70559440  0.26566293  1
  O2-  O208  1  0.16063308  0.71238125  0.60555348  1
  O2-  O209  1  0.16434551  0.70745430  0.93454896  1
  O2-  O210  1  0.66087029  0.20242515  0.26920741  1
  O2-  O211  1  0.67221443  0.20552621  0.59382051  1
  O2-  O212  1  0.67062729  0.20374003  0.93424755  1
  O2-  O213  1  0.66207072  0.70931398  0.27060649  1
  O2-  O214  1  0.66660170  0.71525392  0.59787153  1
  O2-  O215  1  0.66375844  0.70756724  0.93678174  1
  O2-  O216  1  0.08669457  0.45542585  0.06325926  1
  O2-  O217  1  0.08619177  0.46209323  0.40283063  1
  O2-  O218  1  0.08601729  0.45508048  0.73357638  1
  O2-  O219  1  0.08673248  0.95668614  0.06276658  1
  O2-  O220  1  0.07668317  0.95295603  0.39907283  1
  O2-  O221  1  0.08326835  0.96540090  0.73857706  1
  O2-  O222  1  0.58608184  0.45324600  0.06591932  1
  O2-  O223  1  0.58403025  0.45757219  0.39804292  1
  O2-  O224  1  0.58197286  0.45730887  0.73224743  1
  O2-  O225  1  0.58122810  0.95386393  0.05822649  1
  O2-  O226  1  0.58700097  0.96065509  0.40628776  1
  O2-  O227  1  0.58181923  0.95212552  0.72691579  1
  O2-  O228  1  0.20142803  0.33054097  0.05996413  1
  O2-  O229  1  0.21156452  0.33688090  0.40288448  1
  O2-  O230  1  0.19615242  0.32831348  0.72872112  1
  O2-  O231  1  0.20572233  0.83647830  0.06232434  1
  O2-  O232  1  0.21025837  0.83154547  0.40156971  1
  O2-  O233  1  0.20699597  0.83457466  0.73941781  1
  O2-  O234  1  0.70295268  0.33275245  0.06227228  1
  O2-  O235  1  0.69485792  0.33053168  0.39308852  1
  O2-  O236  1  0.70914799  0.32910932  0.73304811  1
  O2-  O237  1  0.70232309  0.83563147  0.06133030  1
  O2-  O238  1  0.71047287  0.83374491  0.40292633  1
  O2-  O239  1  0.70665991  0.83977992  0.73291095  1
  O2-  O240  1  0.45922733  0.41276892  0.26852016  1
  O2-  O241  1  0.45652480  0.41990193  0.59493587  1
  O2-  O242  1  0.45496924  0.42306322  0.93720091  1
  O2-  O243  1  0.46320167  0.91271065  0.27499681  1
  O2-  O244  1  0.44606093  0.91625397  0.60479845  1
  O2-  O245  1  0.45698809  0.91292105  0.92679670  1
  O2-  O246  1  0.96264929  0.41836966  0.26716812  1
  O2-  O247  1  0.95798490  0.41630543  0.60783937  1
  O2-  O248  1  0.96363477  0.41695746  0.92857137  1
  O2-  O249  1  0.94889193  0.92119838  0.26755050  1
  O2-  O250  1  0.96180737  0.91259488  0.60501427  1
  O2-  O251  1  0.96142422  0.91639263  0.93056419  1
  O2-  O252  1  0.33759335  0.29580852  0.27164828  1
  O2-  O253  1  0.32766589  0.29336460  0.59870727  1
  O2-  O254  1  0.32987780  0.29434118  0.93053942  1
  O2-  O255  1  0.33966481  0.79752796  0.27279028  1
  O2-  O256  1  0.32992827  0.79271407  0.60518541  1
  O2-  O257  1  0.33018346  0.78937643  0.93331741  1
  O2-  O258  1  0.82750064  0.29870373  0.26653691  1
  O2-  O259  1  0.84107125  0.29284006  0.60439562  1
  O2-  O260  1  0.83458179  0.29085485  0.93070159  1
  O2-  O261  1  0.82899151  0.78912534  0.26583059  1
  O2-  O262  1  0.83499688  0.80128295  0.60791787  1
  O2-  O263  1  0.83124307  0.79184594  0.93160647  1
  O2-  O264  1  0.41266577  0.04076995  0.05662828  1
  O2-  O265  1  0.41674264  0.03941628  0.40598924  1
  O2-  O266  1  0.41748332  0.04813748  0.73053487  1
  O2-  O267  1  0.42005597  0.54592982  0.07115610  1
  O2-  O268  1  0.41939021  0.54437415  0.39452947  1
  O2-  O269  1  0.41763023  0.54256552  0.73128206  1
  O2-  O270  1  0.91682091  0.03909523  0.06810500  1
  O2-  O271  1  0.91690890  0.05398481  0.39309607  1
  O2-  O272  1  0.90862590  0.03759372  0.73117233  1
  O2-  O273  1  0.92021641  0.54120410  0.06532550  1
  O2-  O274  1  0.91792345  0.54120141  0.39982877  1
  O2-  O275  1  0.92184297  0.54768588  0.73716189  1
  O2-  O276  1  0.29346905  0.16220744  0.05785180  1
  O2-  O277  1  0.29784849  0.17132272  0.40226326  1
  O2-  O278  1  0.29405655  0.16531530  0.73270464  1
  O2-  O279  1  0.28835431  0.66618014  0.06969407  1
  O2-  O280  1  0.30512631  0.66807646  0.39455077  1
  O2-  O281  1  0.28530957  0.66287476  0.73522113  1
  O2-  O282  1  0.79296721  0.16882413  0.06865201  1
  O2-  O283  1  0.79178734  0.16743090  0.39607477  1
  O2-  O284  1  0.79609921  0.16313180  0.72570228  1
  O2-  O285  1  0.78841469  0.66775497  0.06930531  1
  O2-  O286  1  0.78636912  0.66301822  0.40156841  1
  O2-  O287  1  0.79185131  0.67283058  0.73378615  1
