# generated using pymatgen
data_Ca2Al2SiO7
_symmetry_space_group_name_H-M   'P 1'
_cell_length_a   15.47049592
_cell_length_b   15.46948273
_cell_length_c   15.29202549
_cell_angle_alpha   89.98202290
_cell_angle_beta   89.98079994
_cell_angle_gamma   90.01609171
_symmetry_Int_Tables_number   1
_chemical_formula_structural   Ca2Al2SiO7
_chemical_formula_sum   'Ca48 Al48 Si24 O168'
_cell_volume   3659.69571904
_cell_formula_units_Z   24
loop_
 _symmetry_equiv_pos_site_id
 _symmetry_equiv_pos_as_xyz
  1  'x, y, z'
loop_
 _atom_type_symbol
 _atom_type_oxidation_number
  Ca2+  2.0
  Al0+  0.0
  Si0+  0.0
  O2-  -2.0
loop_
 _atom_site_type_symbol
 _atom_site_label
 _atom_site_symmetry_multiplicity
 _atom_site_fract_x
 _atom_site_fract_y
 _atom_site_fract_z
 _atom_site_occupancy
  Ca2+  Ca0  1  0.17156816  0.09563823  0.16565264  1
  Ca2+  Ca1  1  0.16982680  0.07964141  0.51348336  1
  Ca2+  Ca2  1  0.17134323  0.09372182  0.83648896  1
  Ca2+  Ca3  1  0.17428800  0.57490053  0.16805890  1
  Ca2+  Ca4  1  0.17681105  0.58037857  0.50540343  1
  Ca2+  Ca5  1  0.17391422  0.57380453  0.84016864  1
  Ca2+  Ca6  1  0.66902538  0.08292972  0.17539778  1
  Ca2+  Ca7  1  0.67230543  0.08296894  0.50528251  1
  Ca2+  Ca8  1  0.66519554  0.08592646  0.83215469  1
  Ca2+  Ca9  1  0.67576707  0.57712178  0.17185416  1
  Ca2+  Ca10  1  0.67750336  0.57754346  0.50392601  1
  Ca2+  Ca11  1  0.67785106  0.57684485  0.83581183  1
  Ca2+  Ca12  1  0.07463777  0.33383318  0.16031946  1
  Ca2+  Ca13  1  0.07436515  0.32797647  0.50149763  1
  Ca2+  Ca14  1  0.08035593  0.32863133  0.83302304  1
  Ca2+  Ca15  1  0.07545484  0.83079471  0.16604591  1
  Ca2+  Ca16  1  0.07798000  0.83323806  0.49451330  1
  Ca2+  Ca17  1  0.08731281  0.82934128  0.82670294  1
  Ca2+  Ca18  1  0.58012744  0.32219275  0.16617135  1
  Ca2+  Ca19  1  0.57904253  0.32052220  0.49432889  1
  Ca2+  Ca20  1  0.58171642  0.32058786  0.82906934  1
  Ca2+  Ca21  1  0.58675679  0.83225157  0.16401198  1
  Ca2+  Ca22  1  0.59123757  0.83539309  0.49656535  1
  Ca2+  Ca23  1  0.58339333  0.83296233  0.82576843  1
  Ca2+  Ca24  1  0.32972951  0.41691158  0.17415013  1
  Ca2+  Ca25  1  0.34301018  0.42476232  0.50328234  1
  Ca2+  Ca26  1  0.33002011  0.42534065  0.84428901  1
  Ca2+  Ca27  1  0.33007033  0.92257056  0.16588341  1
  Ca2+  Ca28  1  0.32473265  0.92262263  0.50894492  1
  Ca2+  Ca29  1  0.32433551  0.92836140  0.83013402  1
  Ca2+  Ca30  1  0.84347289  0.42292106  0.17181711  1
  Ca2+  Ca31  1  0.84575010  0.42319738  0.50381720  1
  Ca2+  Ca32  1  0.84684627  0.42303320  0.83745270  1
  Ca2+  Ca33  1  0.82777632  0.92497325  0.17924842  1
  Ca2+  Ca34  1  0.82735309  0.92912889  0.50056004  1
  Ca2+  Ca35  1  0.83123167  0.92838296  0.82854275  1
  Ca2+  Ca36  1  0.42787870  0.16290580  0.16094203  1
  Ca2+  Ca37  1  0.42706142  0.16231477  0.49533422  1
  Ca2+  Ca38  1  0.42279851  0.15579954  0.82794790  1
  Ca2+  Ca39  1  0.41159779  0.66557955  0.16315013  1
  Ca2+  Ca40  1  0.41468878  0.66650289  0.49368581  1
  Ca2+  Ca41  1  0.41099342  0.66631477  0.82640316  1
  Ca2+  Ca42  1  0.91759588  0.17731158  0.15852642  1
  Ca2+  Ca43  1  0.91335040  0.17163574  0.49487626  1
  Ca2+  Ca44  1  0.92369487  0.17910647  0.82151887  1
  Ca2+  Ca45  1  0.90471360  0.67206544  0.16437390  1
  Ca2+  Ca46  1  0.90978974  0.67283273  0.49272047  1
  Ca2+  Ca47  1  0.91237856  0.66557185  0.82794167  1
  Al0+  Al48  1  -0.00120696  -0.00126233  -0.00333924  1
  Al0+  Al49  1  -0.00036016  -0.00296105  0.33047670  1
  Al0+  Al50  1  -0.00249106  -0.00306306  0.67053039  1
  Al0+  Al51  1  0.00286191  0.50441197  0.00598494  1
  Al0+  Al52  1  0.00481828  0.49943039  0.33542770  1
  Al0+  Al53  1  0.00394503  0.50245489  0.66677536  1
  Al0+  Al54  1  0.49742162  -0.00327525  -0.00075530  1
  Al0+  Al55  1  0.49769811  -0.00421351  0.33131134  1
  Al0+  Al56  1  0.49738750  -0.00295082  0.66737423  1
  Al0+  Al57  1  0.50484657  0.50141581  0.00274487  1
  Al0+  Al58  1  0.50114576  0.50040069  0.33328659  1
  Al0+  Al59  1  0.50437179  0.50224179  0.67068428  1
  Al0+  Al60  1  0.25041968  0.25136782  0.00715799  1
  Al0+  Al61  1  0.24934062  0.25145811  0.33488708  1
  Al0+  Al62  1  0.24962397  0.25284207  0.66528112  1
  Al0+  Al63  1  0.24868644  0.75225051  0.00222640  1
  Al0+  Al64  1  0.25071681  0.74857332  0.33453888  1
  Al0+  Al65  1  0.25095441  0.75071374  0.67142739  1
  Al0+  Al66  1  0.74822133  0.25130082  -0.00860338  1
  Al0+  Al67  1  0.74989475  0.25144517  0.32775623  1
  Al0+  Al68  1  0.74817188  0.25214679  0.66089628  1
  Al0+  Al69  1  0.74796669  0.75032588  0.00002081  1
  Al0+  Al70  1  0.74971317  0.74939227  0.33432477  1
  Al0+  Al71  1  0.74932517  0.74857160  0.67249393  1
  Al0+  Al72  1  0.32373207  0.57286311  0.01578672  1
  Al0+  Al73  1  0.82241837  0.56875879  0.34714804  1
  Al0+  Al74  1  0.42864291  0.32207759  0.31922577  1
  Al0+  Al75  1  0.56875041  0.17646387  0.98423979  1
  Al0+  Al76  1  0.56806946  0.17683906  0.65194066  1
  Al0+  Al77  1  0.92977238  0.32397717  0.98520488  1
  Al0+  Al78  1  0.32324542  0.56971157  0.68021546  1
  Al0+  Al79  1  0.67700278  0.92872546  0.34625548  1
  Al0+  Al80  1  0.92970419  0.32290924  0.65081881  1
  Al0+  Al81  1  0.18071370  0.42888953  0.01761158  1
  Al0+  Al82  1  0.92824633  0.81871052  0.31958530  1
  Al0+  Al83  1  0.82049580  0.07542484  0.68157174  1
  Al0+  Al84  1  0.17549575  0.92861305  0.68004837  1
  Al0+  Al85  1  0.31849423  0.07328670  0.67918253  1
  Al0+  Al86  1  0.93045718  0.32156376  0.31936787  1
  Al0+  Al87  1  0.31993559  0.06985046  0.01470586  1
  Al0+  Al88  1  0.07171368  0.17665372  0.65202848  1
  Al0+  Al89  1  0.67850869  0.92987186  0.68171518  1
  Al0+  Al90  1  0.82035983  0.57048757  0.01458488  1
  Al0+  Al91  1  0.82155097  0.07399265  0.34488728  1
  Al0+  Al92  1  0.07223808  0.17819596  0.98574180  1
  Al0+  Al93  1  0.56959937  0.17578378  0.31782395  1
  Al0+  Al94  1  0.32150478  0.56942698  0.34831748  1
  Al0+  Al95  1  0.82249461  0.56851384  0.67970322  1
  Si0+  Si96  1  0.17503709  0.92778348  0.01861229  1
  Si0+  Si97  1  0.07177546  0.17499732  0.31824091  1
  Si0+  Si98  1  0.07122316  0.68302692  0.98478040  1
  Si0+  Si99  1  0.07304454  0.68175697  0.65187164  1
  Si0+  Si100  1  0.82024970  0.07212070  0.01218619  1
  Si0+  Si101  1  0.07427372  0.67873431  0.31643076  1
  Si0+  Si102  1  0.92573249  0.81907067  0.65152165  1
  Si0+  Si103  1  0.67803383  0.42812777  0.68386543  1
  Si0+  Si104  1  0.57111091  0.67969455  0.31799479  1
  Si0+  Si105  1  0.57262441  0.67944424  0.98363460  1
  Si0+  Si106  1  0.17896127  0.42962688  0.68416251  1
  Si0+  Si107  1  0.31963064  0.07068645  0.34722611  1
  Si0+  Si108  1  0.17872943  0.42632598  0.35528294  1
  Si0+  Si109  1  0.57237707  0.67944832  0.65031159  1
  Si0+  Si110  1  0.17949735  0.92758459  0.34651982  1
  Si0+  Si111  1  0.42929918  0.32308046  0.98553821  1
  Si0+  Si112  1  0.42593073  0.81880311  0.31647856  1
  Si0+  Si113  1  0.67885567  0.93017706  0.01410530  1
  Si0+  Si114  1  0.67785176  0.42800251  0.35021332  1
  Si0+  Si115  1  0.42921300  0.32615263  0.65332403  1
  Si0+  Si116  1  0.42874065  0.81814265  0.65014263  1
  Si0+  Si117  1  0.67858005  0.42553910  0.01826657  1
  Si0+  Si118  1  0.92536346  0.82066859  0.98238339  1
  Si0+  Si119  1  0.42751675  0.81834469  0.98282395  1
  O2-  O120  1  0.23912514  0.00111182  0.06223531  1
  O2-  O121  1  0.24454571  0.00372272  0.38843600  1
  O2-  O122  1  0.23875722  0.00892311  0.72905401  1
  O2-  O123  1  0.25806005  0.49659850  0.06696226  1
  O2-  O124  1  0.25148948  0.49237838  0.39754179  1
  O2-  O125  1  0.25391034  0.49205923  0.72769395  1
  O2-  O126  1  0.74806268  0.00243191  0.05554225  1
  O2-  O127  1  0.74482598  0.00553070  0.39361624  1
  O2-  O128  1  0.74540860  0.00583941  0.73240454  1
  O2-  O129  1  0.75139697  0.49098772  0.06136867  1
  O2-  O130  1  0.75234780  0.49063011  0.39481369  1
  O2-  O131  1  0.75442230  0.48888064  0.72751824  1
  O2-  O132  1  0.00095570  0.24177595  0.27470053  1
  O2-  O133  1  -0.00451006  0.24416047  0.60151657  1
  O2-  O134  1  -0.00120468  0.24872725  0.93626479  1
  O2-  O135  1  0.00034083  0.74162313  0.27139919  1
  O2-  O136  1  0.00070857  0.75129270  0.60997780  1
  O2-  O137  1  -0.00180374  0.75120738  0.94077561  1
  O2-  O138  1  0.49593647  0.24654832  0.26787652  1
  O2-  O139  1  0.49088317  0.25125584  0.60880685  1
  O2-  O140  1  0.49286804  0.25119832  0.93886753  1
  O2-  O141  1  0.49948286  0.75008780  0.27491596  1
  O2-  O142  1  0.50070181  0.74880018  0.60679519  1
  O2-  O143  1  0.49492010  0.74321251  0.94156094  1
  O2-  O144  1  0.06780813  0.17712157  0.09973489  1
  O2-  O145  1  0.07318978  0.17393842  0.42357513  1
  O2-  O146  1  0.07256429  0.18177504  0.76513605  1
  O2-  O147  1  0.07337224  0.68664602  0.08963887  1
  O2-  O148  1  0.07773451  0.68366720  0.42208619  1
  O2-  O149  1  0.07344807  0.68251352  0.75722250  1
  O2-  O150  1  0.56895955  0.17456363  0.09701885  1
  O2-  O151  1  0.56679771  0.17484877  0.43124675  1
  O2-  O152  1  0.56549574  0.17751523  0.76526807  1
  O2-  O153  1  0.57666937  0.68424553  0.08868480  1
  O2-  O154  1  0.57058204  0.68053348  0.42318467  1
  O2-  O155  1  0.57180195  0.68039240  0.75556256  1
  O2-  O156  1  0.17762793  0.42797778  0.24998120  1
  O2-  O157  1  0.17710542  0.43422159  0.57871365  1
  O2-  O158  1  0.18125362  0.43272686  0.90372002  1
  O2-  O159  1  0.18228026  0.92415303  0.24151869  1
  O2-  O160  1  0.18125461  0.92328671  0.56614744  1
  O2-  O161  1  0.17825689  0.92183406  0.91369805  1
  O2-  O162  1  0.67518225  0.43246251  0.24464793  1
  O2-  O163  1  0.67149781  0.43429576  0.57877419  1
  O2-  O164  1  0.67372298  0.42905333  0.91290122  1
  O2-  O165  1  0.67935478  0.92658630  0.23196699  1
  O2-  O166  1  0.68189227  0.92709653  0.56874360  1
  O2-  O167  1  0.67915088  0.92764836  0.90936545  1
  O2-  O168  1  0.43353727  0.32305814  0.09087256  1
  O2-  O169  1  0.43231625  0.32266582  0.43304512  1
  O2-  O170  1  0.43351083  0.33100631  0.75871318  1
  O2-  O171  1  0.42838645  0.81946320  0.08829851  1
  O2-  O172  1  0.42137662  0.81729235  0.42126666  1
  O2-  O173  1  0.42819145  0.81568711  0.75538391  1
  O2-  O174  1  0.93045978  0.32242348  0.09900619  1
  O2-  O175  1  0.93472067  0.32436230  0.43198537  1
  O2-  O176  1  0.93515396  0.32729328  0.76405863  1
  O2-  O177  1  0.92406020  0.81969528  0.08755355  1
  O2-  O178  1  0.93066196  0.81845345  0.43264104  1
  O2-  O179  1  0.92372455  0.81517476  0.75695928  1
  O2-  O180  1  0.31994812  0.06783165  0.24194833  1
  O2-  O181  1  0.32061533  0.06714467  0.56518680  1
  O2-  O182  1  0.32236132  0.06525867  0.90223148  1
  O2-  O183  1  0.31840385  0.57195249  0.23581490  1
  O2-  O184  1  0.32180639  0.57121609  0.56706981  1
  O2-  O185  1  0.32015741  0.57339837  0.90206846  1
  O2-  O186  1  0.82229979  0.07054838  0.23046858  1
  O2-  O187  1  0.82084465  0.07261579  0.56811547  1
  O2-  O188  1  0.81951057  0.06918743  0.90748954  1
  O2-  O189  1  0.81775127  0.57018963  0.23405977  1
  O2-  O190  1  0.81949882  0.57119613  0.56676837  1
  O2-  O191  1  0.81762433  0.57295325  0.90149653  1
  O2-  O192  1  0.05246630  0.08040028  0.27140749  1
  O2-  O193  1  0.05012270  0.07357496  0.60503158  1
  O2-  O194  1  0.04967872  0.07696244  0.93517318  1
  O2-  O195  1  0.05550584  0.58307307  0.27377017  1
  O2-  O196  1  0.04827283  0.59004910  0.60384710  1
  O2-  O197  1  0.04562441  0.59071178  0.93853983  1
  O2-  O198  1  0.54000246  0.07672171  0.26506036  1
  O2-  O199  1  0.53694115  0.07946753  0.59944507  1
  O2-  O200  1  0.53654815  0.07905975  0.93207522  1
  O2-  O201  1  0.54402888  0.58849327  0.26969814  1
  O2-  O202  1  0.54579479  0.58739245  0.60301357  1
  O2-  O203  1  0.55382147  0.58493542  0.93791478  1
  O2-  O204  1  0.16524276  0.20402627  0.27325278  1
  O2-  O205  1  0.16999120  0.20753148  0.59760906  1
  O2-  O206  1  0.17246844  0.20771672  0.93693018  1
  O2-  O207  1  0.16471070  0.71191704  0.26775042  1
  O2-  O208  1  0.16432179  0.71191591  0.60408940  1
  O2-  O209  1  0.16196097  0.71378255  0.93582334  1
  O2-  O210  1  0.66724451  0.20550631  0.26410013  1
  O2-  O211  1  0.66368314  0.20862592  0.59719216  1
  O2-  O212  1  0.66404670  0.20791994  0.92844875  1
  O2-  O213  1  0.66140440  0.70905786  0.26852516  1
  O2-  O214  1  0.66378306  0.70914312  0.60312544  1
  O2-  O215  1  0.66062614  0.71492656  0.93301421  1
  O2-  O216  1  0.08620043  0.46634564  0.07310982  1
  O2-  O217  1  0.08845908  0.45831092  0.40371152  1
  O2-  O218  1  0.09011205  0.46501333  0.73311868  1
  O2-  O219  1  0.07868047  0.94625209  0.06225023  1
  O2-  O220  1  0.08563851  0.94851461  0.39201976  1
  O2-  O221  1  0.07422870  0.93984195  0.73152766  1
  O2-  O222  1  0.58822191  0.45699960  0.06801541  1
  O2-  O223  1  0.58788511  0.46139728  0.39877936  1
  O2-  O224  1  0.59030777  0.46387327  0.73596016  1
  O2-  O225  1  0.58581518  0.95357034  0.06083833  1
  O2-  O226  1  0.57494104  0.94673840  0.39644941  1
  O2-  O227  1  0.57787097  0.95103083  0.73316092  1
  O2-  O228  1  0.20298505  0.33071505  0.07326928  1
  O2-  O229  1  0.20023072  0.33174001  0.40118807  1
  O2-  O230  1  0.19742368  0.33431679  0.72800985  1
  O2-  O231  1  0.20788090  0.83761216  0.06790518  1
  O2-  O232  1  0.21303239  0.83855681  0.39563490  1
  O2-  O233  1  0.21555980  0.83533700  0.73709534  1
  O2-  O234  1  0.69974805  0.33003713  0.06166957  1
  O2-  O235  1  0.69678100  0.33211825  0.39248331  1
  O2-  O236  1  0.69434216  0.33198714  0.72616721  1
  O2-  O237  1  0.70866814  0.83897657  0.06183065  1
  O2-  O238  1  0.70886529  0.83181072  0.39955321  1
  O2-  O239  1  0.70991948  0.83267120  0.73673664  1
  O2-  O240  1  0.45930867  0.42010081  0.26597972  1
  O2-  O241  1  0.46312064  0.41740637  0.60545603  1
  O2-  O242  1  0.45861029  0.41669995  0.93996347  1
  O2-  O243  1  0.45105483  0.91016141  0.26694399  1
  O2-  O244  1  0.45433275  0.90950015  0.60184211  1
  O2-  O245  1  0.46042437  0.90740547  0.93428188  1
  O2-  O246  1  0.96665787  0.41786022  0.26639784  1
  O2-  O247  1  0.96648810  0.42043760  0.59871652  1
  O2-  O248  1  0.96184363  0.42406276  0.93718215  1
  O2-  O249  1  0.96166657  0.91326363  0.26196910  1
  O2-  O250  1  0.94865655  0.91201062  0.60522468  1
  O2-  O251  1  0.95128903  0.91258873  0.93504591  1
  O2-  O252  1  0.32738206  0.29914222  0.26990866  1
  O2-  O253  1  0.33287707  0.31106243  0.60977952  1
  O2-  O254  1  0.33318966  0.30344553  0.94391956  1
  O2-  O255  1  0.33620983  0.78751306  0.26630163  1
  O2-  O256  1  0.33755758  0.78761384  0.60245357  1
  O2-  O257  1  0.33446252  0.79384393  0.93620856  1
  O2-  O258  1  0.83188257  0.30009893  0.26515506  1
  O2-  O259  1  0.82817306  0.30514868  0.60009975  1
  O2-  O260  1  0.83013422  0.30132018  0.93236612  1
  O2-  O261  1  0.83195786  0.78753294  0.26427226  1
  O2-  O262  1  0.83620997  0.78412934  0.60448784  1
  O2-  O263  1  0.83476230  0.78943625  0.93477861  1
  O2-  O264  1  0.41359945  0.02923028  0.06954612  1
  O2-  O265  1  0.40929868  0.03667702  0.39400791  1
  O2-  O266  1  0.41236968  0.03347549  0.73352414  1
  O2-  O267  1  0.42648269  0.55449146  0.06341677  1
  O2-  O268  1  0.42028832  0.54395220  0.40094325  1
  O2-  O269  1  0.42165853  0.54597233  0.73374483  1
  O2-  O270  1  0.91167852  0.04231424  0.05900398  1
  O2-  O271  1  0.91878150  0.03903154  0.39694198  1
  O2-  O272  1  0.91611015  0.04096364  0.73662290  1
  O2-  O273  1  0.91895108  0.55055292  0.06822003  1
  O2-  O274  1  0.92200148  0.54546553  0.39843583  1
  O2-  O275  1  0.92169242  0.54571095  0.73244757  1
  O2-  O276  1  0.29677643  0.16718207  0.07016967  1
  O2-  O277  1  0.29777565  0.16398851  0.39334293  1
  O2-  O278  1  0.30091250  0.17488513  0.72994384  1
  O2-  O279  1  0.28996619  0.67059836  0.06747400  1
  O2-  O280  1  0.28796309  0.66593991  0.40197762  1
  O2-  O281  1  0.28900413  0.66469820  0.73415938  1
  O2-  O282  1  0.79319018  0.16535968  0.05631734  1
  O2-  O283  1  0.79757380  0.17400041  0.39553414  1
  O2-  O284  1  0.79458984  0.17558773  0.73145167  1
  O2-  O285  1  0.78229793  0.66630389  0.06709275  1
  O2-  O286  1  0.78681441  0.66403843  0.40014097  1
  O2-  O287  1  0.78540333  0.66171995  0.73601837  1
