# generated using pymatgen
data_Ca2Al2SiO7
_symmetry_space_group_name_H-M   'P 1'
_cell_length_a   15.46477562
_cell_length_b   15.46291568
_cell_length_c   15.28835098
_cell_angle_alpha   89.99860608
_cell_angle_beta   89.99793928
_cell_angle_gamma   90.00350875
_symmetry_Int_Tables_number   1
_chemical_formula_structural   Ca2Al2SiO7
_chemical_formula_sum   'Ca48 Al48 Si24 O168'
_cell_volume   3655.91133139
_cell_formula_units_Z   24
loop_
 _symmetry_equiv_pos_site_id
 _symmetry_equiv_pos_as_xyz
  1  'x, y, z'
loop_
 _atom_type_symbol
 _atom_type_oxidation_number
  Ca2+  2.0
  Al0+  0.0
  Si0+  0.0
  O2-  -2.0
loop_
 _atom_site_type_symbol
 _atom_site_label
 _atom_site_symmetry_multiplicity
 _atom_site_fract_x
 _atom_site_fract_y
 _atom_site_fract_z
 _atom_site_occupancy
  Ca2+  Ca0  1  0.16250617  0.06976768  0.17412946  1
  Ca2+  Ca1  1  0.16294313  0.07593094  0.50870193  1
  Ca2+  Ca2  1  0.15805365  0.06809225  0.83283107  1
  Ca2+  Ca3  1  0.16286524  0.58019382  0.17035003  1
  Ca2+  Ca4  1  0.16533747  0.57896289  0.50747837  1
  Ca2+  Ca5  1  0.16661189  0.59497096  0.83322656  1
  Ca2+  Ca6  1  0.67386724  0.08388367  0.16870113  1
  Ca2+  Ca7  1  0.67055783  0.08838443  0.50739459  1
  Ca2+  Ca8  1  0.67771279  0.08628120  0.83437346  1
  Ca2+  Ca9  1  0.67739511  0.57858670  0.17422560  1
  Ca2+  Ca10  1  0.67374461  0.58019335  0.50038074  1
  Ca2+  Ca11  1  0.67634866  0.57555348  0.84387228  1
  Ca2+  Ca12  1  0.09057417  0.32625896  0.16584776  1
  Ca2+  Ca13  1  0.08499752  0.32294034  0.49535053  1
  Ca2+  Ca14  1  0.07236317  0.32363637  0.82099720  1
  Ca2+  Ca15  1  0.07719846  0.83112961  0.16020645  1
  Ca2+  Ca16  1  0.07583527  0.83889308  0.49849467  1
  Ca2+  Ca17  1  0.07876339  0.82884069  0.82967757  1
  Ca2+  Ca18  1  0.59520070  0.33332026  0.16707216  1
  Ca2+  Ca19  1  0.58424084  0.32317365  0.49415845  1
  Ca2+  Ca20  1  0.58701004  0.32896948  0.82625488  1
  Ca2+  Ca21  1  0.57329912  0.83295427  0.16011534  1
  Ca2+  Ca22  1  0.57204608  0.83887844  0.49791743  1
  Ca2+  Ca23  1  0.56875198  0.84030322  0.82930675  1
  Ca2+  Ca24  1  0.32655101  0.42006216  0.17409857  1
  Ca2+  Ca25  1  0.32720009  0.42137923  0.50382022  1
  Ca2+  Ca26  1  0.33265634  0.42400660  0.83252015  1
  Ca2+  Ca27  1  0.32007087  0.90957736  0.16834617  1
  Ca2+  Ca28  1  0.31978481  0.91931699  0.51176487  1
  Ca2+  Ca29  1  0.32364723  0.91302190  0.83320101  1
  Ca2+  Ca30  1  0.82883055  0.43187801  0.17166168  1
  Ca2+  Ca31  1  0.83250144  0.41471055  0.50161484  1
  Ca2+  Ca32  1  0.83204450  0.41958730  0.84145515  1
  Ca2+  Ca33  1  0.84505160  0.91956281  0.16856805  1
  Ca2+  Ca34  1  0.83692932  0.91980298  0.50803355  1
  Ca2+  Ca35  1  0.84904095  0.92728902  0.83518337  1
  Ca2+  Ca36  1  0.42457010  0.16734804  0.16510838  1
  Ca2+  Ca37  1  0.42815741  0.15403200  0.49791570  1
  Ca2+  Ca38  1  0.42382818  0.16310589  0.82361320  1
  Ca2+  Ca39  1  0.41811894  0.67113389  0.15875868  1
  Ca2+  Ca40  1  0.41044161  0.66937270  0.50425542  1
  Ca2+  Ca41  1  0.41324039  0.67711573  0.82616954  1
  Ca2+  Ca42  1  0.92193922  0.16483472  0.16474833  1
  Ca2+  Ca43  1  0.92625931  0.16608184  0.50278903  1
  Ca2+  Ca44  1  0.91443218  0.16932307  0.82217718  1
  Ca2+  Ca45  1  0.91708810  0.67388574  0.15839937  1
  Ca2+  Ca46  1  0.91803948  0.67724804  0.49582966  1
  Ca2+  Ca47  1  0.92597806  0.67111806  0.82667579  1
  Al0+  Al48  1  0.00258784  -0.00097964  0.00694503  1
  Al0+  Al49  1  0.00024792  0.00089686  0.33009855  1
  Al0+  Al50  1  -0.00143511  0.00083907  0.66843665  1
  Al0+  Al51  1  0.00090192  0.49779355  0.00086270  1
  Al0+  Al52  1  0.00087475  0.50090400  0.34246038  1
  Al0+  Al53  1  -0.00250418  0.49995234  0.65996965  1
  Al0+  Al54  1  0.50085188  0.00248435  -0.00385627  1
  Al0+  Al55  1  0.50111261  0.00103519  0.32408897  1
  Al0+  Al56  1  0.49890983  -0.00105978  0.66121279  1
  Al0+  Al57  1  0.49854797  0.49795547  0.00371971  1
  Al0+  Al58  1  0.50134730  0.50038285  0.33676139  1
  Al0+  Al59  1  0.49882304  0.49926293  0.67049215  1
  Al0+  Al60  1  0.25376301  0.24892063  -0.00260403  1
  Al0+  Al61  1  0.25324039  0.25018275  0.33238081  1
  Al0+  Al62  1  0.25144341  0.25096997  0.66814869  1
  Al0+  Al63  1  0.24988978  0.75025825  -0.00132034  1
  Al0+  Al64  1  0.24789024  0.75162561  0.33733617  1
  Al0+  Al65  1  0.25049006  0.74839701  0.66601050  1
  Al0+  Al66  1  0.75147196  0.24797064  0.00862507  1
  Al0+  Al67  1  0.75105044  0.25048991  0.33111477  1
  Al0+  Al68  1  0.74820930  0.24914913  0.66234675  1
  Al0+  Al69  1  0.74844453  0.75318698  -0.00179030  1
  Al0+  Al70  1  0.74812166  0.75233211  0.33275772  1
  Al0+  Al71  1  0.74798182  0.74787739  0.66641967  1
  Al0+  Al72  1  0.17996634  0.42721009  0.34706743  1
  Al0+  Al73  1  0.82139984  0.06813081  0.01537396  1
  Al0+  Al74  1  0.81790060  0.06933580  0.67798351  1
  Al0+  Al75  1  0.82161791  0.57508038  0.35097781  1
  Al0+  Al76  1  0.42979978  0.81967488  0.65140607  1
  Al0+  Al77  1  0.07256801  0.17889543  0.65382350  1
  Al0+  Al78  1  0.32346973  0.07236104  0.68093255  1
  Al0+  Al79  1  0.82336126  0.57360969  0.01315646  1
  Al0+  Al80  1  0.07192006  0.67922869  0.64929751  1
  Al0+  Al81  1  0.67852527  0.42882680  0.01522841  1
  Al0+  Al82  1  0.92718216  0.82344634  0.98464391  1
  Al0+  Al83  1  0.92853616  0.82044787  0.31873579  1
  Al0+  Al84  1  0.56842725  0.17989344  0.65406661  1
  Al0+  Al85  1  0.42951112  0.82041380  0.98614516  1
  Al0+  Al86  1  0.17832299  0.93064762  0.34857584  1
  Al0+  Al87  1  0.18213975  0.92914027  0.01565329  1
  Al0+  Al88  1  0.92791379  0.82114263  0.65212602  1
  Al0+  Al89  1  0.07231628  0.18065698  0.31865457  1
  Al0+  Al90  1  0.68027516  0.42877561  0.35175157  1
  Al0+  Al91  1  0.06925747  0.67611671  0.98636977  1
  Al0+  Al92  1  0.92632971  0.32129709  0.65175032  1
  Al0+  Al93  1  0.17768087  0.92945594  0.68307211  1
  Al0+  Al94  1  0.31921765  0.56888677  0.68142124  1
  Al0+  Al95  1  0.57269700  0.17979669  0.31583972  1
  Si0+  Si96  1  0.57123350  0.67545540  0.98433896  1
  Si0+  Si97  1  0.82044189  0.06979155  0.34853350  1
  Si0+  Si98  1  0.57235332  0.18234768  0.98428002  1
  Si0+  Si99  1  0.31932305  0.57023440  0.01464996  1
  Si0+  Si100  1  0.57117329  0.67459697  0.65026062  1
  Si0+  Si101  1  0.82149422  0.57226861  0.68247892  1
  Si0+  Si102  1  0.32239645  0.57323081  0.34930830  1
  Si0+  Si103  1  0.07270019  0.67728522  0.31781833  1
  Si0+  Si104  1  0.92929871  0.32389278  0.31504530  1
  Si0+  Si105  1  0.67619723  0.92516505  0.68199876  1
  Si0+  Si106  1  0.67569252  0.93055639  0.34691497  1
  Si0+  Si107  1  0.56982769  0.67891292  0.31857460  1
  Si0+  Si108  1  0.32487596  0.07375064  0.01787134  1
  Si0+  Si109  1  0.43028914  0.32439022  0.31569197  1
  Si0+  Si110  1  0.42747375  0.82027104  0.31763798  1
  Si0+  Si111  1  0.42754634  0.32223329  0.98348459  1
  Si0+  Si112  1  0.68030267  0.42946171  0.68076489  1
  Si0+  Si113  1  0.07344170  0.17847299  0.98640340  1
  Si0+  Si114  1  0.67304619  0.92984563  0.01611867  1
  Si0+  Si115  1  0.42817918  0.32493450  0.65007954  1
  Si0+  Si116  1  0.32426948  0.07070996  0.34728950  1
  Si0+  Si117  1  0.17472317  0.42748728  0.68433564  1
  Si0+  Si118  1  0.92999639  0.31769170  0.98856264  1
  Si0+  Si119  1  0.18001271  0.42502561  0.01297966  1
  O2-  O120  1  0.25686233  0.00502986  0.06218772  1
  O2-  O121  1  0.25310887  0.00635924  0.39247487  1
  O2-  O122  1  0.24902949  0.00389189  0.73222118  1
  O2-  O123  1  0.24789040  0.49934126  0.05569269  1
  O2-  O124  1  0.25271062  0.50489732  0.39164745  1
  O2-  O125  1  0.24169726  0.49753045  0.72986076  1
  O2-  O126  1  0.74918348  -0.01024768  0.06109223  1
  O2-  O127  1  0.74786715  -0.00039120  0.38944681  1
  O2-  O128  1  0.74782802  -0.00947343  0.72619314  1
  O2-  O129  1  0.74658652  0.50568374  0.06277083  1
  O2-  O130  1  0.75345072  0.49903204  0.40186328  1
  O2-  O131  1  0.75176475  0.49907642  0.72371152  1
  O2-  O132  1  0.00069703  0.25804515  0.26985469  1
  O2-  O133  1  0.00362905  0.25391913  0.60365495  1
  O2-  O134  1  0.00098883  0.24779662  0.94491896  1
  O2-  O135  1  0.00135867  0.74281683  0.27370090  1
  O2-  O136  1  0.00074177  0.75180973  0.59950811  1
  O2-  O137  1  -0.00608164  0.74521311  0.93748932  1
  O2-  O138  1  0.50009458  0.25736568  0.26994676  1
  O2-  O139  1  0.48956091  0.24980972  0.60638318  1
  O2-  O140  1  0.50211591  0.25437724  0.94280523  1
  O2-  O141  1  0.49632342  0.74713184  0.27546888  1
  O2-  O142  1  0.50610743  0.74615594  0.60461793  1
  O2-  O143  1  0.50598145  0.74690657  0.93951373  1
  O2-  O144  1  0.07469623  0.18149379  0.09175841  1
  O2-  O145  1  0.07048673  0.17976555  0.43105408  1
  O2-  O146  1  0.06819307  0.17961706  0.76812221  1
  O2-  O147  1  0.07167092  0.67494548  0.10023729  1
  O2-  O148  1  0.07584908  0.67993930  0.42275983  1
  O2-  O149  1  0.06901737  0.67861767  0.76297370  1
  O2-  O150  1  0.57084420  0.18205511  0.08937895  1
  O2-  O151  1  0.57013068  0.17711600  0.42853054  1
  O2-  O152  1  0.57163888  0.18414642  0.76751930  1
  O2-  O153  1  0.56670044  0.67486297  0.09035760  1
  O2-  O154  1  0.56925976  0.68020970  0.42348380  1
  O2-  O155  1  0.56906869  0.67261526  0.75581267  1
  O2-  O156  1  0.18332482  0.42793055  0.23299983  1
  O2-  O157  1  0.17851869  0.42734736  0.57879482  1
  O2-  O158  1  0.18285298  0.42045522  0.90860408  1
  O2-  O159  1  0.18160856  0.92815540  0.23521388  1
  O2-  O160  1  0.17808156  0.93135406  0.56931103  1
  O2-  O161  1  0.18184636  0.92950244  0.90327869  1
  O2-  O162  1  0.68093365  0.43292002  0.23825701  1
  O2-  O163  1  0.67929257  0.43061520  0.57608238  1
  O2-  O164  1  0.67991522  0.42690237  0.90103724  1
  O2-  O165  1  0.67188752  0.93179688  0.24189408  1
  O2-  O166  1  0.67525670  0.92665945  0.57595152  1
  O2-  O167  1  0.66369725  0.93717581  0.91147075  1
  O2-  O168  1  0.42228583  0.32117241  0.08821366  1
  O2-  O169  1  0.43041079  0.32519062  0.42084464  1
  O2-  O170  1  0.43385427  0.32913591  0.75595097  1
  O2-  O171  1  0.42996552  0.81654330  0.10001932  1
  O2-  O172  1  0.42962794  0.82157873  0.42230523  1
  O2-  O173  1  0.43147661  0.81898837  0.76457892  1
  O2-  O174  1  0.93240494  0.31723598  0.09348471  1
  O2-  O175  1  0.92826982  0.31964890  0.42026783  1
  O2-  O176  1  0.92472056  0.31966757  0.76648947  1
  O2-  O177  1  0.93289650  0.82361955  0.09856461  1
  O2-  O178  1  0.92798177  0.82270523  0.43135424  1
  O2-  O179  1  0.92749253  0.81890235  0.76537330  1
  O2-  O180  1  0.32549443  0.06810668  0.24134344  1
  O2-  O181  1  0.32625577  0.06691998  0.56720902  1
  O2-  O182  1  0.32580801  0.07632421  0.91295317  1
  O2-  O183  1  0.32343074  0.57348498  0.24313266  1
  O2-  O184  1  0.32206992  0.56458561  0.56831163  1
  O2-  O185  1  0.32173216  0.56879288  0.90999455  1
  O2-  O186  1  0.81995685  0.06815497  0.24307491  1
  O2-  O187  1  0.81566905  0.07051069  0.56476046  1
  O2-  O188  1  0.81874355  0.07357322  0.90261012  1
  O2-  O189  1  0.81845059  0.57603803  0.23716018  1
  O2-  O190  1  0.81805921  0.57467156  0.57781192  1
  O2-  O191  1  0.82318381  0.56679457  0.89937610  1
  O2-  O192  1  0.03645645  0.08649990  0.26267027  1
  O2-  O193  1  0.03916710  0.08291903  0.60034774  1
  O2-  O194  1  0.04568977  0.08597805  0.94298057  1
  O2-  O195  1  0.05167309  0.58085664  0.27528251  1
  O2-  O196  1  0.04367021  0.58065414  0.59693256  1
  O2-  O197  1  0.04759543  0.57533291  0.93345130  1
  O2-  O198  1  0.53935005  0.08509514  0.25802401  1
  O2-  O199  1  0.54283463  0.08303321  0.59788985  1
  O2-  O200  1  0.54407085  0.09150856  0.93615403  1
  O2-  O201  1  0.54331956  0.58656358  0.27116705  1
  O2-  O202  1  0.54040089  0.58286467  0.60309416  1
  O2-  O203  1  0.54251994  0.58202500  0.93914575  1
  O2-  O204  1  0.17060110  0.20896767  0.26496794  1
  O2-  O205  1  0.17285261  0.20350714  0.60237613  1
  O2-  O206  1  0.16495641  0.20660041  0.93916135  1
  O2-  O207  1  0.16638378  0.70492919  0.27106000  1
  O2-  O208  1  0.17210644  0.70147481  0.59863375  1
  O2-  O209  1  0.16743209  0.70745481  0.93478271  1
  O2-  O210  1  0.66982015  0.20927866  0.26179810  1
  O2-  O211  1  0.66150008  0.21484582  0.59701216  1
  O2-  O212  1  0.66521486  0.21030753  0.93929013  1
  O2-  O213  1  0.65921697  0.71033293  0.26915886  1
  O2-  O214  1  0.66540712  0.69646663  0.60458321  1
  O2-  O215  1  0.66610089  0.69605533  0.93954553  1
  O2-  O216  1  0.08798601  0.44865401  0.06134183  1
  O2-  O217  1  0.08379202  0.45241825  0.40292383  1
  O2-  O218  1  0.07909288  0.45070362  0.72706216  1
  O2-  O219  1  0.08777911  0.96178259  0.07259553  1
  O2-  O220  1  0.08198529  0.96432109  0.40001766  1
  O2-  O221  1  0.07986636  0.95871469  0.73678554  1
  O2-  O222  1  0.57758571  0.45058450  0.06738479  1
  O2-  O223  1  0.58116198  0.45735816  0.40335420  1
  O2-  O224  1  0.58902697  0.45722209  0.72959045  1
  O2-  O225  1  0.58339917  0.96366173  0.06724880  1
  O2-  O226  1  0.58413878  0.96109855  0.39399387  1
  O2-  O227  1  0.58395941  0.95568445  0.72735375  1
  O2-  O228  1  0.21348066  0.33530139  0.06254512  1
  O2-  O229  1  0.21526430  0.33215827  0.40157245  1
  O2-  O230  1  0.20157620  0.33475126  0.73177512  1
  O2-  O231  1  0.21554154  0.83283045  0.06982661  1
  O2-  O232  1  0.20935953  0.83449452  0.40270130  1
  O2-  O233  1  0.21032111  0.83138085  0.73311420  1
  O2-  O234  1  0.71074440  0.33287901  0.07012819  1
  O2-  O235  1  0.70729519  0.32824093  0.40103356  1
  O2-  O236  1  0.70773550  0.33746841  0.72762983  1
  O2-  O237  1  0.68714665  0.83213936  0.05757531  1
  O2-  O238  1  0.69854739  0.83804533  0.39404485  1
  O2-  O239  1  0.69386451  0.82950721  0.72723722  1
  O2-  O240  1  0.45371026  0.41917305  0.26963028  1
  O2-  O241  1  0.46092362  0.41514353  0.60140115  1
  O2-  O242  1  0.45204736  0.41553855  0.93712044  1
  O2-  O243  1  0.45855611  0.90961166  0.26727862  1
  O2-  O244  1  0.46102916  0.91428816  0.59418136  1
  O2-  O245  1  0.45962823  0.91795337  0.93358066  1
  O2-  O246  1  0.95278042  0.42005729  0.27345441  1
  O2-  O247  1  0.94766769  0.42025121  0.59830406  1
  O2-  O248  1  0.95662002  0.40904290  0.94009633  1
  O2-  O249  1  0.96257482  0.91595517  0.26453850  1
  O2-  O250  1  0.95401646  0.92062926  0.60096317  1
  O2-  O251  1  0.96445111  0.92085080  0.93461395  1
  O2-  O252  1  0.33796650  0.29683397  0.26739774  1
  O2-  O253  1  0.33155138  0.30876383  0.60808193  1
  O2-  O254  1  0.33831094  0.29214163  0.93198905  1
  O2-  O255  1  0.33509116  0.79229986  0.27138659  1
  O2-  O256  1  0.33532871  0.78559898  0.59689655  1
  O2-  O257  1  0.33507755  0.78640082  0.93209285  1
  O2-  O258  1  0.83706232  0.29503524  0.26806998  1
  O2-  O259  1  0.83109807  0.28809243  0.59629408  1
  O2-  O260  1  0.83778174  0.28841928  0.94272017  1
  O2-  O261  1  0.82916938  0.79543469  0.26611386  1
  O2-  O262  1  0.82752268  0.79335131  0.60115829  1
  O2-  O263  1  0.82339517  0.81084363  0.93667781  1
  O2-  O264  1  0.41928841  0.04891926  0.06310678  1
  O2-  O265  1  0.41772916  0.04050412  0.39124063  1
  O2-  O266  1  0.42182481  0.04050912  0.73347558  1
  O2-  O267  1  0.40999597  0.54139671  0.06466215  1
  O2-  O268  1  0.41529067  0.54763734  0.39617605  1
  O2-  O269  1  0.41471009  0.53514170  0.73784256  1
  O2-  O270  1  0.91796764  0.04099464  0.07149121  1
  O2-  O271  1  0.91170605  0.04071670  0.39465995  1
  O2-  O272  1  0.91443628  0.04375917  0.73415154  1
  O2-  O273  1  0.91954438  0.53908861  0.06804405  1
  O2-  O274  1  0.92080394  0.55177589  0.40322787  1
  O2-  O275  1  0.91394901  0.54457799  0.72781340  1
  O2-  O276  1  0.29958750  0.16795267  0.06416640  1
  O2-  O277  1  0.30669878  0.16669875  0.39026071  1
  O2-  O278  1  0.30578164  0.17471586  0.73118806  1
  O2-  O279  1  0.29272918  0.66133158  0.06338789  1
  O2-  O280  1  0.29765740  0.66656511  0.39569922  1
  O2-  O281  1  0.29241335  0.66599527  0.73548079  1
  O2-  O282  1  0.78746727  0.16192212  0.07340258  1
  O2-  O283  1  0.79316104  0.16232718  0.39307709  1
  O2-  O284  1  0.78203788  0.16511548  0.73223654  1
  O2-  O285  1  0.79852667  0.67465980  0.06270117  1
  O2-  O286  1  0.78510278  0.67177319  0.40325181  1
  O2-  O287  1  0.79121431  0.66243026  0.73190977  1
