# generated using pymatgen
data_Ca2Al2SiO7
_symmetry_space_group_name_H-M   'P 1'
_cell_length_a   15.46835532
_cell_length_b   15.46873947
_cell_length_c   15.29163072
_cell_angle_alpha   90.00681538
_cell_angle_beta   89.99550175
_cell_angle_gamma   90.03202846
_symmetry_Int_Tables_number   1
_chemical_formula_structural   Ca2Al2SiO7
_chemical_formula_sum   'Ca48 Al48 Si24 O168'
_cell_volume   3658.91898852
_cell_formula_units_Z   24
loop_
 _symmetry_equiv_pos_site_id
 _symmetry_equiv_pos_as_xyz
  1  'x, y, z'
loop_
 _atom_type_symbol
 _atom_type_oxidation_number
  Ca2+  2.0
  Al0+  0.0
  Si0+  0.0
  O2-  -2.0
loop_
 _atom_site_type_symbol
 _atom_site_label
 _atom_site_symmetry_multiplicity
 _atom_site_fract_x
 _atom_site_fract_y
 _atom_site_fract_z
 _atom_site_occupancy
  Ca2+  Ca0  1  0.16669737  0.07411347  0.17542833  1
  Ca2+  Ca1  1  0.16537510  0.07550451  0.50374639  1
  Ca2+  Ca2  1  0.17510751  0.07268227  0.84071644  1
  Ca2+  Ca3  1  0.16975200  0.59098972  0.16968678  1
  Ca2+  Ca4  1  0.16731826  0.59016984  0.49716222  1
  Ca2+  Ca5  1  0.17041516  0.57962454  0.84494761  1
  Ca2+  Ca6  1  0.67001849  0.07687796  0.16499678  1
  Ca2+  Ca7  1  0.67036362  0.07793425  0.50522611  1
  Ca2+  Ca8  1  0.66701138  0.07166962  0.83542593  1
  Ca2+  Ca9  1  0.68203733  0.58224212  0.16795479  1
  Ca2+  Ca10  1  0.68328546  0.57704432  0.50778237  1
  Ca2+  Ca11  1  0.67865368  0.57499969  0.83884102  1
  Ca2+  Ca12  1  0.08599608  0.33091031  0.16563423  1
  Ca2+  Ca13  1  0.07330785  0.32675533  0.49189316  1
  Ca2+  Ca14  1  0.08078698  0.33540525  0.82796841  1
  Ca2+  Ca15  1  0.08099692  0.82735165  0.15984033  1
  Ca2+  Ca16  1  0.08062531  0.83118492  0.48924709  1
  Ca2+  Ca17  1  0.08926406  0.82813413  0.83379175  1
  Ca2+  Ca18  1  0.58152503  0.33524619  0.15939273  1
  Ca2+  Ca19  1  0.58386693  0.33529065  0.49719266  1
  Ca2+  Ca20  1  0.58607908  0.33689583  0.82873455  1
  Ca2+  Ca21  1  0.58027664  0.83265254  0.15841368  1
  Ca2+  Ca22  1  0.57483967  0.84107501  0.49981645  1
  Ca2+  Ca23  1  0.57874351  0.83753299  0.82599304  1
  Ca2+  Ca24  1  0.32528339  0.42790986  0.16534133  1
  Ca2+  Ca25  1  0.33267602  0.42396649  0.49917110  1
  Ca2+  Ca26  1  0.32620579  0.42377204  0.84442108  1
  Ca2+  Ca27  1  0.31740221  0.92259352  0.17039442  1
  Ca2+  Ca28  1  0.31874117  0.92258801  0.50577459  1
  Ca2+  Ca29  1  0.32494118  0.91993009  0.83535633  1
  Ca2+  Ca30  1  0.83996400  0.42831803  0.17062074  1
  Ca2+  Ca31  1  0.84180472  0.42464965  0.50655047  1
  Ca2+  Ca32  1  0.83146433  0.42489483  0.83780346  1
  Ca2+  Ca33  1  0.82990401  0.89951253  0.16810438  1
  Ca2+  Ca34  1  0.82932774  0.91225645  0.50511784  1
  Ca2+  Ca35  1  0.82288243  0.90779212  0.84037510  1
  Ca2+  Ca36  1  0.41287914  0.16042975  0.16184876  1
  Ca2+  Ca37  1  0.41387568  0.16008428  0.49675763  1
  Ca2+  Ca38  1  0.41363377  0.16094679  0.82940949  1
  Ca2+  Ca39  1  0.41562306  0.66129547  0.16006441  1
  Ca2+  Ca40  1  0.41669273  0.67327650  0.49508892  1
  Ca2+  Ca41  1  0.41689279  0.67198643  0.82664902  1
  Ca2+  Ca42  1  0.92308742  0.17126976  0.16706413  1
  Ca2+  Ca43  1  0.91863193  0.17929688  0.49096192  1
  Ca2+  Ca44  1  0.91766922  0.17587515  0.82707576  1
  Ca2+  Ca45  1  0.92405004  0.67081673  0.16228391  1
  Ca2+  Ca46  1  0.91996197  0.66900129  0.49042001  1
  Ca2+  Ca47  1  0.91723692  0.66419601  0.83628612  1
  Al0+  Al48  1  -0.00203994  0.00176523  -0.00404136  1
  Al0+  Al49  1  -0.00527208  0.00159680  0.33060273  1
  Al0+  Al50  1  0.00076439  -0.00143082  0.67119575  1
  Al0+  Al51  1  0.00002993  0.49917983  0.00253166  1
  Al0+  Al52  1  0.00083998  0.50156527  0.33105678  1
  Al0+  Al53  1  0.00217060  0.50083256  0.66554523  1
  Al0+  Al54  1  0.50277793  0.00007212  0.00556249  1
  Al0+  Al55  1  0.49904037  0.00015158  0.33374998  1
  Al0+  Al56  1  0.50022443  0.00083064  0.66667534  1
  Al0+  Al57  1  0.50017885  0.49855827  0.00326844  1
  Al0+  Al58  1  0.49957001  0.49936842  0.33674856  1
  Al0+  Al59  1  0.50204007  0.50003735  0.66622876  1
  Al0+  Al60  1  0.25248425  0.25242836  0.00391681  1
  Al0+  Al61  1  0.25228906  0.25174156  0.33250951  1
  Al0+  Al62  1  0.25171890  0.25043990  0.66675920  1
  Al0+  Al63  1  0.25091066  0.75255853  0.00132707  1
  Al0+  Al64  1  0.25148870  0.75235721  0.33799595  1
  Al0+  Al65  1  0.25159823  0.75142304  0.66406314  1
  Al0+  Al66  1  0.74766127  0.24698655  0.00030944  1
  Al0+  Al67  1  0.74652878  0.24811940  0.32747425  1
  Al0+  Al68  1  0.74887170  0.25032923  0.66359505  1
  Al0+  Al69  1  0.74811203  0.74784697  0.00317794  1
  Al0+  Al70  1  0.74656558  0.74569741  0.33720713  1
  Al0+  Al71  1  0.75094521  0.74741611  0.67348986  1
  Al0+  Al72  1  0.92424476  0.82112620  0.32140973  1
  Al0+  Al73  1  0.17452047  0.93061365  0.34861770  1
  Al0+  Al74  1  0.82538235  0.57021801  0.68354177  1
  Al0+  Al75  1  0.32116653  0.07223716  0.34922953  1
  Al0+  Al76  1  0.92979541  0.32080654  0.65428310  1
  Al0+  Al77  1  0.92705546  0.82093294  0.98285677  1
  Al0+  Al78  1  0.31988283  0.07186877  0.68155240  1
  Al0+  Al79  1  0.67861583  0.42743439  0.68062398  1
  Al0+  Al80  1  0.07217871  0.17906608  0.31884722  1
  Al0+  Al81  1  0.92769113  0.32217478  0.31668830  1
  Al0+  Al82  1  0.07247868  0.67916333  0.98372421  1
  Al0+  Al83  1  0.67923430  0.42641348  0.01556802  1
  Al0+  Al84  1  0.43052961  0.82149060  0.65182893  1
  Al0+  Al85  1  0.17567312  0.92974042  0.01586988  1
  Al0+  Al86  1  0.07347276  0.68207096  0.31875994  1
  Al0+  Al87  1  0.32018077  0.57315327  0.01197901  1
  Al0+  Al88  1  0.17635241  0.92632395  0.68343955  1
  Al0+  Al89  1  0.32184334  0.57165057  0.34881156  1
  Al0+  Al90  1  0.17709839  0.42858090  0.01441693  1
  Al0+  Al91  1  0.68061875  0.92972436  0.67846422  1
  Al0+  Al92  1  0.82148706  0.57009071  0.01764442  1
  Al0+  Al93  1  0.32130287  0.07033401  0.01483768  1
  Al0+  Al94  1  0.68166063  0.92886037  0.01392158  1
  Al0+  Al95  1  0.82183003  0.56909763  0.34857419  1
  Si0+  Si96  1  0.43022950  0.32352358  0.31654102  1
  Si0+  Si97  1  0.67837055  0.42621675  0.34954552  1
  Si0+  Si98  1  0.07389096  0.18051615  0.98393500  1
  Si0+  Si99  1  0.57310483  0.67697982  0.64915043  1
  Si0+  Si100  1  0.56964435  0.67703768  0.98455173  1
  Si0+  Si101  1  0.18133005  0.42987161  0.67862537  1
  Si0+  Si102  1  0.57042075  0.17740425  0.98244332  1
  Si0+  Si103  1  0.92709212  0.82067760  0.65394203  1
  Si0+  Si104  1  0.43102305  0.82192499  0.31677838  1
  Si0+  Si105  1  0.43040602  0.32093758  0.98374555  1
  Si0+  Si106  1  0.07217221  0.67993591  0.65176067  1
  Si0+  Si107  1  0.43156011  0.82242237  0.98567279  1
  Si0+  Si108  1  0.82257403  0.07296229  0.68156161  1
  Si0+  Si109  1  0.56884083  0.17713786  0.31592976  1
  Si0+  Si110  1  0.17843669  0.42857886  0.35159830  1
  Si0+  Si111  1  0.81801886  0.07377586  0.34772985  1
  Si0+  Si112  1  0.56973801  0.17933986  0.65067425  1
  Si0+  Si113  1  0.32199476  0.57141236  0.67931850  1
  Si0+  Si114  1  0.67888175  0.92804230  0.34821097  1
  Si0+  Si115  1  0.56818810  0.67768341  0.31839825  1
  Si0+  Si116  1  0.07313973  0.17765278  0.65228957  1
  Si0+  Si117  1  0.82229270  0.07330318  0.01606581  1
  Si0+  Si118  1  0.42823093  0.32323212  0.65073660  1
  Si0+  Si119  1  0.92774876  0.31934206  0.98509024  1
  O2-  O120  1  0.24482694  0.00476773  0.06512138  1
  O2-  O121  1  0.24441174  0.00558753  0.39818843  1
  O2-  O122  1  0.24713598  0.00114610  0.73053630  1
  O2-  O123  1  0.24287342  0.50739517  0.06236303  1
  O2-  O124  1  0.24458385  0.50006434  0.39643935  1
  O2-  O125  1  0.25275972  0.49973040  0.72140726  1
  O2-  O126  1  0.76196205  -0.00297213  0.06066651  1
  O2-  O127  1  0.75282952  -0.00353222  0.38929601  1
  O2-  O128  1  0.75875838  0.00004137  0.72603192  1
  O2-  O129  1  0.75247708  0.49448120  0.06724949  1
  O2-  O130  1  0.75214096  0.48840570  0.39391249  1
  O2-  O131  1  0.75223747  0.49712116  0.72989569  1
  O2-  O132  1  0.00214133  0.25246373  0.26702380  1
  O2-  O133  1  0.00116307  0.24269663  0.60799266  1
  O2-  O134  1  0.00187278  0.25143149  0.94204559  1
  O2-  O135  1  0.00147540  0.75534924  0.27118777  1
  O2-  O136  1  0.00069535  0.75221124  0.61225262  1
  O2-  O137  1  0.00129511  0.75150821  0.93153685  1
  O2-  O138  1  0.49764661  0.24839319  0.27504472  1
  O2-  O139  1  0.49951669  0.25182096  0.60898468  1
  O2-  O140  1  0.50013166  0.24902848  0.94037793  1
  O2-  O141  1  0.49827184  0.74811249  0.27331756  1
  O2-  O142  1  0.50619046  0.74718120  0.60399040  1
  O2-  O143  1  0.49834573  0.74763424  0.94224269  1
  O2-  O144  1  0.07317513  0.18119384  0.08867984  1
  O2-  O145  1  0.06869222  0.18096672  0.43306377  1
  O2-  O146  1  0.07371064  0.18181362  0.75802868  1
  O2-  O147  1  0.07364739  0.68088272  0.09659880  1
  O2-  O148  1  0.07171834  0.68236008  0.43335516  1
  O2-  O149  1  0.07496084  0.67718909  0.75632969  1
  O2-  O150  1  0.57027661  0.17631707  0.08761152  1
  O2-  O151  1  0.57067112  0.17602457  0.42115901  1
  O2-  O152  1  0.56971640  0.17797585  0.75554108  1
  O2-  O153  1  0.56832360  0.67861160  0.09002265  1
  O2-  O154  1  0.56732023  0.67957554  0.42344621  1
  O2-  O155  1  0.56937442  0.67551528  0.75471769  1
  O2-  O156  1  0.18186071  0.42677534  0.24653517  1
  O2-  O157  1  0.18242105  0.42968303  0.57372292  1
  O2-  O158  1  0.18182276  0.42645760  0.89978179  1
  O2-  O159  1  0.17765261  0.92944272  0.23553824  1
  O2-  O160  1  0.17481318  0.92612080  0.57011034  1
  O2-  O161  1  0.18027246  0.92950082  0.90229692  1
  O2-  O162  1  0.67497271  0.42873335  0.24444077  1
  O2-  O163  1  0.67619257  0.42923891  0.56704942  1
  O2-  O164  1  0.68002773  0.42737222  0.90209395  1
  O2-  O165  1  0.67661501  0.92910608  0.24329108  1
  O2-  O166  1  0.68098379  0.93293345  0.56487848  1
  O2-  O167  1  0.67758807  0.93246095  0.90089911  1
  O2-  O168  1  0.43244575  0.32179917  0.08872651  1
  O2-  O169  1  0.43362189  0.32682028  0.42195998  1
  O2-  O170  1  0.42707241  0.32518940  0.75543015  1
  O2-  O171  1  0.43554459  0.82296204  0.09087492  1
  O2-  O172  1  0.43522154  0.82278763  0.42195017  1
  O2-  O173  1  0.43157679  0.81866239  0.76521809  1
  O2-  O174  1  0.92548600  0.31544859  0.08967072  1
  O2-  O175  1  0.92743647  0.31925886  0.43078063  1
  O2-  O176  1  0.93221784  0.31966731  0.76773721  1
  O2-  O177  1  0.92583302  0.81690397  0.09604298  1
  O2-  O178  1  0.92141656  0.81759086  0.43579766  1
  O2-  O179  1  0.92468804  0.81979970  0.75829626  1
  O2-  O180  1  0.32489766  0.06700416  0.23631107  1
  O2-  O181  1  0.31811137  0.07233972  0.56838930  1
  O2-  O182  1  0.32217777  0.06824267  0.90125911  1
  O2-  O183  1  0.32600607  0.56790076  0.23654782  1
  O2-  O184  1  0.32159373  0.57024986  0.57422483  1
  O2-  O185  1  0.32336708  0.56885118  0.89768809  1
  O2-  O186  1  0.81301004  0.07974256  0.24327136  1
  O2-  O187  1  0.81970078  0.07371008  0.57572494  1
  O2-  O188  1  0.81642445  0.07876114  0.91046845  1
  O2-  O189  1  0.81778277  0.57167603  0.23630854  1
  O2-  O190  1  0.82549078  0.56999419  0.56969151  1
  O2-  O191  1  0.81959964  0.56815373  0.90409853  1
  O2-  O192  1  0.03920061  0.08288209  0.26439540  1
  O2-  O193  1  0.05077201  0.08191656  0.60938271  1
  O2-  O194  1  0.04634958  0.08965613  0.93440956  1
  O2-  O195  1  0.04821157  0.58250862  0.26828027  1
  O2-  O196  1  0.04501060  0.58848418  0.60299764  1
  O2-  O197  1  0.04516187  0.57813706  0.93295455  1
  O2-  O198  1  0.54076610  0.08553957  0.26757696  1
  O2-  O199  1  0.54118105  0.08899601  0.60055264  1
  O2-  O200  1  0.54100083  0.08566907  0.93518894  1
  O2-  O201  1  0.53991474  0.58575065  0.27183817  1
  O2-  O202  1  0.54541598  0.58443775  0.60113537  1
  O2-  O203  1  0.54163449  0.58506181  0.93735378  1
  O2-  O204  1  0.17196271  0.20619480  0.26742443  1
  O2-  O205  1  0.16515840  0.20719710  0.60509904  1
  O2-  O206  1  0.16571100  0.21091921  0.93749820  1
  O2-  O207  1  0.17388533  0.70830203  0.26874258  1
  O2-  O208  1  0.16376889  0.70707646  0.60317749  1
  O2-  O209  1  0.17272932  0.70718087  0.93113484  1
  O2-  O210  1  0.65923839  0.20373542  0.26537214  1
  O2-  O211  1  0.66121123  0.20520882  0.60060948  1
  O2-  O212  1  0.66218987  0.20337708  0.93362639  1
  O2-  O213  1  0.65931756  0.70654940  0.27114099  1
  O2-  O214  1  0.66828081  0.70160597  0.60601501  1
  O2-  O215  1  0.66059480  0.70591717  0.93729384  1
  O2-  O216  1  0.07692829  0.44521387  0.06543683  1
  O2-  O217  1  0.08427093  0.45215301  0.39678760  1
  O2-  O218  1  0.09086258  0.45858868  0.72694385  1
  O2-  O219  1  0.07507922  0.95567020  0.06392923  1
  O2-  O220  1  0.07356186  0.95582937  0.39894691  1
  O2-  O221  1  0.07751375  0.95064065  0.73734683  1
  O2-  O222  1  0.58152129  0.45606829  0.06839005  1
  O2-  O223  1  0.58703334  0.45689621  0.39767516  1
  O2-  O224  1  0.57991454  0.45643110  0.73379507  1
  O2-  O225  1  0.58911207  0.96603765  0.07152772  1
  O2-  O226  1  0.58904982  0.96192935  0.39586614  1
  O2-  O227  1  0.58620096  0.96523603  0.73267319  1
  O2-  O228  1  0.21446983  0.33504820  0.07054254  1
  O2-  O229  1  0.20864264  0.33674542  0.39895320  1
  O2-  O230  1  0.20813995  0.33845219  0.72687328  1
  O2-  O231  1  0.20908326  0.83343957  0.06827531  1
  O2-  O232  1  0.20916064  0.83481881  0.40323495  1
  O2-  O233  1  0.21175235  0.82924935  0.73498175  1
  O2-  O234  1  0.70042715  0.32511183  0.06534770  1
  O2-  O235  1  0.69600637  0.32898930  0.39152130  1
  O2-  O236  1  0.70163141  0.32689428  0.73108959  1
  O2-  O237  1  0.70411535  0.83112741  0.06856665  1
  O2-  O238  1  0.70114755  0.83570634  0.39658937  1
  O2-  O239  1  0.70480093  0.83228528  0.73281764  1
  O2-  O240  1  0.46357513  0.41315374  0.26815145  1
  O2-  O241  1  0.45708885  0.41442932  0.60130929  1
  O2-  O242  1  0.45967012  0.41225874  0.93514867  1
  O2-  O243  1  0.46404163  0.91172108  0.26871688  1
  O2-  O244  1  0.46445458  0.91718141  0.59744894  1
  O2-  O245  1  0.46682840  0.91223598  0.93881684  1
  O2-  O246  1  0.95571265  0.42045926  0.26567908  1
  O2-  O247  1  0.96544611  0.41568637  0.59967687  1
  O2-  O248  1  0.95198635  0.41217069  0.93880138  1
  O2-  O249  1  0.93767236  0.92356766  0.27197040  1
  O2-  O250  1  0.94974931  0.91533268  0.60842742  1
  O2-  O251  1  0.94494008  0.92373667  0.93276674  1
  O2-  O252  1  0.33747479  0.30119755  0.26977816  1
  O2-  O253  1  0.33700442  0.29580592  0.60139700  1
  O2-  O254  1  0.33811575  0.29521200  0.93561602  1
  O2-  O255  1  0.33806291  0.79659008  0.27276409  1
  O2-  O256  1  0.33521901  0.78868784  0.59602978  1
  O2-  O257  1  0.33891747  0.79911626  0.93875016  1
  O2-  O258  1  0.82924657  0.29083605  0.26483435  1
  O2-  O259  1  0.83248120  0.29251053  0.59979911  1
  O2-  O260  1  0.83700992  0.28624331  0.93737617  1
  O2-  O261  1  0.82632131  0.78680425  0.26975488  1
  O2-  O262  1  0.83518539  0.79175760  0.60630951  1
  O2-  O263  1  0.82723413  0.78869560  0.93245857  1
  O2-  O264  1  0.41871411  0.03978577  0.06797468  1
  O2-  O265  1  0.41934757  0.03931117  0.40200780  1
  O2-  O266  1  0.41898644  0.04376629  0.73208951  1
  O2-  O267  1  0.41579171  0.53821508  0.06644633  1
  O2-  O268  1  0.41654989  0.53568929  0.40508860  1
  O2-  O269  1  0.41439013  0.54515715  0.72542359  1
  O2-  O270  1  0.91886752  0.05901939  0.05791295  1
  O2-  O271  1  0.91082938  0.05398766  0.39517763  1
  O2-  O272  1  0.91734792  0.05445933  0.72712441  1
  O2-  O273  1  0.91998925  0.54354803  0.06907867  1
  O2-  O274  1  0.92013432  0.54280729  0.40125199  1
  O2-  O275  1  0.92340067  0.54020694  0.73587953  1
  O2-  O276  1  0.30146902  0.17160548  0.06391663  1
  O2-  O277  1  0.30395774  0.17514993  0.39740254  1
  O2-  O278  1  0.29573986  0.17218457  0.73391758  1
  O2-  O279  1  0.30117907  0.67286116  0.06439750  1
  O2-  O280  1  0.29567793  0.66889008  0.40350448  1
  O2-  O281  1  0.29420983  0.66281525  0.72577718  1
  O2-  O282  1  0.78611258  0.16133151  0.06629176  1
  O2-  O283  1  0.78182686  0.16219796  0.39789792  1
  O2-  O284  1  0.79116309  0.16432643  0.72828117  1
  O2-  O285  1  0.78606831  0.66554408  0.07070624  1
  O2-  O286  1  0.78258498  0.66220283  0.40527668  1
  O2-  O287  1  0.79555401  0.66694386  0.73780461  1
