# generated using pymatgen
data_Ca2Al2SiO7
_symmetry_space_group_name_H-M   'P 1'
_cell_length_a   15.47933130
_cell_length_b   15.47386522
_cell_length_c   15.29809727
_cell_angle_alpha   90.00270903
_cell_angle_beta   90.01754833
_cell_angle_gamma   90.03462243
_symmetry_Int_Tables_number   1
_chemical_formula_structural   Ca2Al2SiO7
_chemical_formula_sum   'Ca48 Al48 Si24 O168'
_cell_volume   3664.27722263
_cell_formula_units_Z   24
loop_
 _symmetry_equiv_pos_site_id
 _symmetry_equiv_pos_as_xyz
  1  'x, y, z'
loop_
 _atom_type_symbol
 _atom_type_oxidation_number
  Ca2+  2.0
  Al0+  0.0
  Si0+  0.0
  O2-  -2.0
loop_
 _atom_site_type_symbol
 _atom_site_label
 _atom_site_symmetry_multiplicity
 _atom_site_fract_x
 _atom_site_fract_y
 _atom_site_fract_z
 _atom_site_occupancy
  Ca2+  Ca0  1  0.16470447  0.07706774  0.17298163  1
  Ca2+  Ca1  1  0.16822310  0.08019661  0.50442662  1
  Ca2+  Ca2  1  0.16945820  0.08049601  0.83992256  1
  Ca2+  Ca3  1  0.15623636  0.57538811  0.17054178  1
  Ca2+  Ca4  1  0.15687199  0.57004665  0.50045964  1
  Ca2+  Ca5  1  0.16888326  0.57166923  0.84373859  1
  Ca2+  Ca6  1  0.67704792  0.08343612  0.16727669  1
  Ca2+  Ca7  1  0.67038900  0.08411159  0.50132491  1
  Ca2+  Ca8  1  0.67749812  0.08599492  0.84127630  1
  Ca2+  Ca9  1  0.67476296  0.57425770  0.17279604  1
  Ca2+  Ca10  1  0.67275030  0.57486067  0.49916895  1
  Ca2+  Ca11  1  0.66707919  0.57106731  0.83847755  1
  Ca2+  Ca12  1  0.09528067  0.32363783  0.16335675  1
  Ca2+  Ca13  1  0.09824853  0.32237200  0.49508106  1
  Ca2+  Ca14  1  0.09819053  0.32201873  0.83058670  1
  Ca2+  Ca15  1  0.08464612  0.82563418  0.15964689  1
  Ca2+  Ca16  1  0.08450840  0.82880209  0.48903952  1
  Ca2+  Ca17  1  0.08932589  0.83422094  0.83568126  1
  Ca2+  Ca18  1  0.57755197  0.34243268  0.16430883  1
  Ca2+  Ca19  1  0.57228904  0.34264723  0.49581338  1
  Ca2+  Ca20  1  0.57712948  0.33671879  0.82631014  1
  Ca2+  Ca21  1  0.57820845  0.83232292  0.16135826  1
  Ca2+  Ca22  1  0.57941619  0.83194744  0.49283072  1
  Ca2+  Ca23  1  0.57860975  0.83160639  0.82869214  1
  Ca2+  Ca24  1  0.32289754  0.41952205  0.16747652  1
  Ca2+  Ca25  1  0.32656617  0.40897365  0.50019081  1
  Ca2+  Ca26  1  0.32473706  0.41595843  0.83582747  1
  Ca2+  Ca27  1  0.31953399  0.92735054  0.17120839  1
  Ca2+  Ca28  1  0.31975367  0.92845229  0.50518278  1
  Ca2+  Ca29  1  0.32161847  0.92918628  0.83967349  1
  Ca2+  Ca30  1  0.82264607  0.41808431  0.17665040  1
  Ca2+  Ca31  1  0.82627976  0.41890899  0.50243133  1
  Ca2+  Ca32  1  0.81898621  0.40705245  0.83914396  1
  Ca2+  Ca33  1  0.84610436  0.91658414  0.16611935  1
  Ca2+  Ca34  1  0.83853684  0.91526197  0.49919733  1
  Ca2+  Ca35  1  0.83665806  0.92163430  0.84170412  1
  Ca2+  Ca36  1  0.40865747  0.16964739  0.16574062  1
  Ca2+  Ca37  1  0.40708940  0.17548940  0.49515415  1
  Ca2+  Ca38  1  0.41070776  0.16999106  0.82618815  1
  Ca2+  Ca39  1  0.41717261  0.66036061  0.15857212  1
  Ca2+  Ca40  1  0.41813266  0.66733930  0.49428534  1
  Ca2+  Ca41  1  0.41128767  0.66375525  0.83304652  1
  Ca2+  Ca42  1  0.93009460  0.16380652  0.16062118  1
  Ca2+  Ca43  1  0.93122123  0.16954428  0.49632762  1
  Ca2+  Ca44  1  0.92934208  0.16324461  0.83440333  1
  Ca2+  Ca45  1  0.92496735  0.67290207  0.16453176  1
  Ca2+  Ca46  1  0.92173988  0.67205061  0.48723677  1
  Ca2+  Ca47  1  0.92308175  0.67093345  0.83626777  1
  Al0+  Al48  1  -0.00044264  0.00082754  -0.00095549  1
  Al0+  Al49  1  -0.00091955  0.00090942  0.33255634  1
  Al0+  Al50  1  -0.00106063  -0.00061818  0.66566039  1
  Al0+  Al51  1  -0.00383764  0.49987721  -0.00205022  1
  Al0+  Al52  1  -0.00225435  0.49969115  0.33973652  1
  Al0+  Al53  1  -0.00198665  0.50127422  0.67265465  1
  Al0+  Al54  1  0.50159304  0.00044993  0.00111754  1
  Al0+  Al55  1  0.50135627  0.00165478  0.33570605  1
  Al0+  Al56  1  0.50085192  -0.00043331  0.66754251  1
  Al0+  Al57  1  0.49995955  0.49874472  0.00429501  1
  Al0+  Al58  1  0.49958534  0.49975829  0.33133793  1
  Al0+  Al59  1  0.50254936  0.50091189  0.66468053  1
  Al0+  Al60  1  0.25277996  0.25299531  0.00070102  1
  Al0+  Al61  1  0.25320072  0.25202292  0.32907162  1
  Al0+  Al62  1  0.25226545  0.25098682  0.66482309  1
  Al0+  Al63  1  0.25307840  0.75103930  -0.00042903  1
  Al0+  Al64  1  0.25067500  0.75085097  0.33163324  1
  Al0+  Al65  1  0.24980750  0.75132062  0.66665008  1
  Al0+  Al66  1  0.74836721  0.24718894  0.00897679  1
  Al0+  Al67  1  0.74728976  0.24763400  0.33917623  1
  Al0+  Al68  1  0.75026842  0.24945590  0.66912613  1
  Al0+  Al69  1  0.74786995  0.74813845  -0.00640695  1
  Al0+  Al70  1  0.74922098  0.74946277  0.33247165  1
  Al0+  Al71  1  0.75021876  0.74927198  0.66634940  1
  Al0+  Al72  1  0.68002017  0.42856402  0.01477123  1
  Al0+  Al73  1  0.82071221  0.57140885  0.34857213  1
  Al0+  Al74  1  0.43145837  0.32076608  0.31599152  1
  Al0+  Al75  1  0.17621840  0.92815100  0.68289667  1
  Al0+  Al76  1  0.17641609  0.92874519  0.34858047  1
  Al0+  Al77  1  0.07214612  0.18267613  0.98664406  1
  Al0+  Al78  1  0.67693726  0.42749104  0.35044471  1
  Al0+  Al79  1  0.82119409  0.06828278  0.01400647  1
  Al0+  Al80  1  0.07249800  0.67671300  0.31948223  1
  Al0+  Al81  1  0.32072299  0.07193035  0.68154899  1
  Al0+  Al82  1  0.07408892  0.67683278  0.98293213  1
  Al0+  Al83  1  0.17804925  0.93021525  0.01595184  1
  Al0+  Al84  1  0.32317490  0.07303588  0.01547139  1
  Al0+  Al85  1  0.07069865  0.18220519  0.31991219  1
  Al0+  Al86  1  0.68022810  0.43028244  0.68122767  1
  Al0+  Al87  1  0.32121967  0.07179061  0.34924758  1
  Al0+  Al88  1  0.92785151  0.82115044  0.31870737  1
  Al0+  Al89  1  0.17923932  0.42972771  0.67950432  1
  Al0+  Al90  1  0.07022766  0.18099074  0.65358263  1
  Al0+  Al91  1  0.32038241  0.57066950  0.01253549  1
  Al0+  Al92  1  0.43164838  0.32066146  0.65284411  1
  Al0+  Al93  1  0.92966048  0.82046151  0.98276253  1
  Al0+  Al94  1  0.17968553  0.43053373  0.34648966  1
  Al0+  Al95  1  0.17580296  0.43003203  0.01482285  1
  Si0+  Si96  1  0.67806655  0.92541558  0.01507170  1
  Si0+  Si97  1  0.82006680  0.06966979  0.68123802  1
  Si0+  Si98  1  0.57499804  0.17627463  0.65023104  1
  Si0+  Si99  1  0.82178256  0.07067158  0.35038502  1
  Si0+  Si100  1  0.07168123  0.67804009  0.65225723  1
  Si0+  Si101  1  0.56921947  0.68029597  0.31687376  1
  Si0+  Si102  1  0.43263634  0.32085299  0.98348227  1
  Si0+  Si103  1  0.32331773  0.57343434  0.34914976  1
  Si0+  Si104  1  0.92792778  0.81944973  0.65134220  1
  Si0+  Si105  1  0.67872464  0.92870543  0.34753426  1
  Si0+  Si106  1  0.57165038  0.68059786  0.64979712  1
  Si0+  Si107  1  0.32322884  0.57338900  0.67974546  1
  Si0+  Si108  1  0.56849937  0.67762434  0.98320373  1
  Si0+  Si109  1  0.43065783  0.82377999  0.98327573  1
  Si0+  Si110  1  0.82029969  0.57429990  0.01609076  1
  Si0+  Si111  1  0.92411052  0.32102755  0.32002977  1
  Si0+  Si112  1  0.67900388  0.92688061  0.68062422  1
  Si0+  Si113  1  0.57261975  0.17776013  0.98528391  1
  Si0+  Si114  1  0.42924676  0.82204904  0.65027496  1
  Si0+  Si115  1  0.92477279  0.32280671  0.65182113  1
  Si0+  Si116  1  0.42995040  0.82324661  0.31790876  1
  Si0+  Si117  1  0.82109326  0.57462552  0.68697678  1
  Si0+  Si118  1  0.57398637  0.17535654  0.31453340  1
  Si0+  Si119  1  0.92291674  0.32088722  0.98631295  1
  O2-  O120  1  0.24719535  0.00556467  0.06475621  1
  O2-  O121  1  0.24683677  0.00223572  0.39852520  1
  O2-  O122  1  0.24677011  0.00232260  0.73112560  1
  O2-  O123  1  0.24089767  0.50915467  0.06381119  1
  O2-  O124  1  0.25095802  0.50936345  0.39333784  1
  O2-  O125  1  0.25294831  0.50686615  0.72332725  1
  O2-  O126  1  0.75050872  -0.01122359  0.05981511  1
  O2-  O127  1  0.75134051  -0.00266499  0.39069675  1
  O2-  O128  1  0.74743286  -0.00059975  0.72269677  1
  O2-  O129  1  0.75834932  0.49937643  0.05968196  1
  O2-  O130  1  0.75210445  0.49631718  0.39941806  1
  O2-  O131  1  0.75712927  0.50107379  0.73041937  1
  O2-  O132  1  -0.00414268  0.25758591  0.27391260  1
  O2-  O133  1  -0.00106811  0.26046172  0.60759068  1
  O2-  O134  1  -0.00128903  0.26071366  0.94103547  1
  O2-  O135  1  0.00330672  0.75224304  0.27075794  1
  O2-  O136  1  0.00092168  0.75025053  0.61089003  1
  O2-  O137  1  0.00392249  0.75123996  0.93181923  1
  O2-  O138  1  0.50716217  0.24547544  0.27073576  1
  O2-  O139  1  0.50541935  0.24359610  0.60683262  1
  O2-  O140  1  0.50015210  0.24585434  0.94185545  1
  O2-  O141  1  0.49666483  0.74879947  0.27377074  1
  O2-  O142  1  0.49956228  0.75020454  0.60685813  1
  O2-  O143  1  0.49857520  0.74917546  0.94013606  1
  O2-  O144  1  0.07034246  0.18210717  0.09954486  1
  O2-  O145  1  0.06874494  0.18168357  0.43340322  1
  O2-  O146  1  0.06766426  0.17984650  0.76662482  1
  O2-  O147  1  0.07089711  0.67638258  0.09593199  1
  O2-  O148  1  0.07038127  0.67726290  0.43397133  1
  O2-  O149  1  0.07125370  0.67747762  0.75682943  1
  O2-  O150  1  0.57445886  0.17694240  0.08983414  1
  O2-  O151  1  0.57559566  0.17174808  0.42005168  1
  O2-  O152  1  0.57841348  0.17615709  0.75583386  1
  O2-  O153  1  0.56889045  0.67904734  0.08825349  1
  O2-  O154  1  0.56886110  0.68273458  0.42246456  1
  O2-  O155  1  0.57244534  0.68206625  0.75485339  1
  O2-  O156  1  0.18085159  0.42973172  0.23397733  1
  O2-  O157  1  0.18049019  0.42997356  0.56651596  1
  O2-  O158  1  0.18261737  0.42674049  0.90102291  1
  O2-  O159  1  0.17817600  0.92838265  0.23555160  1
  O2-  O160  1  0.17739343  0.92546029  0.56967176  1
  O2-  O161  1  0.18122519  0.93185704  0.90218980  1
  O2-  O162  1  0.67794123  0.43095288  0.23694206  1
  O2-  O163  1  0.68025504  0.43355617  0.56892456  1
  O2-  O164  1  0.67809064  0.42994408  0.90123352  1
  O2-  O165  1  0.67501380  0.92919272  0.24294385  1
  O2-  O166  1  0.67959425  0.92489446  0.57546284  1
  O2-  O167  1  0.67567193  0.92781100  0.90909877  1
  O2-  O168  1  0.43537971  0.32294477  0.08816981  1
  O2-  O169  1  0.43293305  0.32128522  0.42931144  1
  O2-  O170  1  0.43457666  0.32224777  0.76607034  1
  O2-  O171  1  0.43621077  0.82533880  0.08816026  1
  O2-  O172  1  0.43509028  0.82166402  0.42338658  1
  O2-  O173  1  0.43314573  0.82137691  0.75520219  1
  O2-  O174  1  0.91741064  0.31605113  0.09141320  1
  O2-  O175  1  0.92142876  0.31611915  0.42576349  1
  O2-  O176  1  0.91769659  0.31738159  0.75688974  1
  O2-  O177  1  0.92580536  0.81616596  0.09540474  1
  O2-  O178  1  0.92575272  0.81860168  0.43310650  1
  O2-  O179  1  0.92216295  0.81831106  0.75570490  1
  O2-  O180  1  0.32288034  0.06808138  0.23614915  1
  O2-  O181  1  0.32138699  0.06945819  0.56843206  1
  O2-  O182  1  0.32587705  0.07048225  0.90191512  1
  O2-  O183  1  0.32796104  0.57093710  0.24420449  1
  O2-  O184  1  0.32471046  0.57542245  0.57433235  1
  O2-  O185  1  0.32540052  0.56433023  0.89869726  1
  O2-  O186  1  0.82008759  0.07227925  0.24576494  1
  O2-  O187  1  0.81922556  0.06833714  0.57603939  1
  O2-  O188  1  0.81699783  0.06946814  0.90034398  1
  O2-  O189  1  0.81626375  0.57240337  0.23513826  1
  O2-  O190  1  0.81814219  0.57859088  0.58188200  1
  O2-  O191  1  0.81487801  0.57657734  0.91026878  1
  O2-  O192  1  0.03644733  0.08632525  0.26754785  1
  O2-  O193  1  0.03395226  0.08526843  0.59993810  1
  O2-  O194  1  0.03706456  0.08734273  0.93287634  1
  O2-  O195  1  0.03949950  0.57827211  0.26906217  1
  O2-  O196  1  0.04174998  0.58584910  0.60601689  1
  O2-  O197  1  0.04198739  0.57846371  0.92888825  1
  O2-  O198  1  0.54901091  0.08154106  0.26799126  1
  O2-  O199  1  0.55337693  0.08068919  0.60530582  1
  O2-  O200  1  0.55004852  0.08435876  0.93735750  1
  O2-  O201  1  0.54278854  0.58868942  0.26941441  1
  O2-  O202  1  0.54491914  0.58953643  0.60121409  1
  O2-  O203  1  0.53794150  0.58637385  0.93588341  1
  O2-  O204  1  0.16653243  0.21260362  0.26606930  1
  O2-  O205  1  0.16696326  0.21043459  0.60003508  1
  O2-  O206  1  0.16948229  0.21324269  0.93284221  1
  O2-  O207  1  0.17299186  0.69961468  0.26808287  1
  O2-  O208  1  0.16417051  0.70372672  0.60511178  1
  O2-  O209  1  0.17479023  0.70264895  0.93181217  1
  O2-  O210  1  0.66886596  0.19942700  0.26998458  1
  O2-  O211  1  0.66839101  0.20233123  0.60331506  1
  O2-  O212  1  0.66377951  0.20833194  0.93742391  1
  O2-  O213  1  0.65923865  0.71114773  0.26887183  1
  O2-  O214  1  0.66233659  0.71170183  0.60165954  1
  O2-  O215  1  0.65879469  0.70429964  0.93227086  1
  O2-  O216  1  0.07305853  0.44786933  0.06274735  1
  O2-  O217  1  0.08217518  0.45448083  0.40237079  1
  O2-  O218  1  0.08123536  0.45535578  0.73327418  1
  O2-  O219  1  0.07837074  0.95430694  0.06558055  1
  O2-  O220  1  0.07722101  0.95560744  0.40075545  1
  O2-  O221  1  0.07616570  0.95357424  0.73323832  1
  O2-  O222  1  0.58662223  0.46568674  0.06895216  1
  O2-  O223  1  0.58067465  0.46432340  0.40206635  1
  O2-  O224  1  0.58510601  0.46618833  0.73515674  1
  O2-  O225  1  0.58741806  0.95556211  0.06377662  1
  O2-  O226  1  0.58935138  0.95848243  0.39912644  1
  O2-  O227  1  0.58679380  0.95100996  0.72847608  1
  O2-  O228  1  0.21435438  0.33563247  0.06813007  1
  O2-  O229  1  0.21783467  0.33609592  0.39934808  1
  O2-  O230  1  0.21507231  0.33523702  0.73297759  1
  O2-  O231  1  0.21063396  0.83212571  0.06592435  1
  O2-  O232  1  0.20801613  0.82997942  0.40024248  1
  O2-  O233  1  0.20857422  0.83010693  0.73483570  1
  O2-  O234  1  0.70512770  0.33190639  0.06974031  1
  O2-  O235  1  0.69940002  0.32736091  0.40244274  1
  O2-  O236  1  0.70756238  0.33176917  0.73416078  1
  O2-  O237  1  0.69677580  0.82918087  0.05776885  1
  O2-  O238  1  0.70372869  0.83673613  0.39608672  1
  O2-  O239  1  0.70762783  0.83584859  0.72921967  1
  O2-  O240  1  0.46353596  0.41750462  0.26222500  1
  O2-  O241  1  0.46482304  0.41710553  0.59874842  1
  O2-  O242  1  0.46657433  0.41090853  0.93611062  1
  O2-  O243  1  0.46513920  0.91257934  0.27095963  1
  O2-  O244  1  0.46085629  0.91237499  0.60198272  1
  O2-  O245  1  0.46523113  0.91286335  0.93372648  1
  O2-  O246  1  0.94279949  0.41741037  0.27890314  1
  O2-  O247  1  0.94250135  0.42060060  0.61179138  1
  O2-  O248  1  0.93498280  0.41786397  0.94268397  1
  O2-  O249  1  0.94950751  0.92188230  0.26942414  1
  O2-  O250  1  0.95127702  0.91253648  0.60462048  1
  O2-  O251  1  0.95349996  0.92058541  0.93108695  1
  O2-  O252  1  0.33653493  0.29027230  0.25985101  1
  O2-  O253  1  0.33587995  0.29096181  0.59725076  1
  O2-  O254  1  0.34033007  0.29670787  0.93596585  1
  O2-  O255  1  0.33755761  0.80038747  0.27132794  1
  O2-  O256  1  0.33770057  0.79440696  0.60261030  1
  O2-  O257  1  0.33933620  0.79942245  0.93442182  1
  O2-  O258  1  0.83088743  0.29178119  0.27438615  1
  O2-  O259  1  0.83403132  0.29082502  0.60224532  1
  O2-  O260  1  0.83205480  0.28522614  0.93832844  1
  O2-  O261  1  0.82871410  0.79296016  0.26618548  1
  O2-  O262  1  0.83609239  0.79049858  0.60279798  1
  O2-  O263  1  0.82968552  0.79122153  0.92901164  1
  O2-  O264  1  0.42153473  0.04142355  0.06714872  1
  O2-  O265  1  0.42037541  0.04227059  0.40135194  1
  O2-  O266  1  0.42084654  0.04276118  0.73243445  1
  O2-  O267  1  0.41551300  0.53543459  0.06847274  1
  O2-  O268  1  0.41573222  0.54486573  0.39670902  1
  O2-  O269  1  0.41731412  0.54839153  0.72513038  1
  O2-  O270  1  0.91705747  0.04102739  0.06876848  1
  O2-  O271  1  0.91186664  0.04314552  0.40044636  1
  O2-  O272  1  0.90992638  0.03913288  0.72936277  1
  O2-  O273  1  0.91592285  0.55655156  0.05845483  1
  O2-  O274  1  0.91742032  0.54627339  0.40586407  1
  O2-  O275  1  0.91562079  0.55486668  0.73241495  1
  O2-  O276  1  0.30135489  0.17369854  0.06400081  1
  O2-  O277  1  0.29464954  0.17163986  0.39807071  1
  O2-  O278  1  0.29553092  0.17105913  0.73268698  1
  O2-  O279  1  0.30990135  0.67403153  0.05971086  1
  O2-  O280  1  0.30547619  0.66950609  0.39321530  1
  O2-  O281  1  0.30060999  0.66750433  0.72600834  1
  O2-  O282  1  0.78407668  0.16009710  0.07187769  1
  O2-  O283  1  0.79055481  0.15961039  0.40139337  1
  O2-  O284  1  0.79242822  0.16059859  0.72970955  1
  O2-  O285  1  0.78504998  0.66459485  0.06227640  1
  O2-  O286  1  0.78503193  0.66811121  0.40257587  1
  O2-  O287  1  0.78801785  0.66581150  0.73413013  1
