# generated using pymatgen
data_Ca2Al2SiO7
_symmetry_space_group_name_H-M   'P 1'
_cell_length_a   15.47072510
_cell_length_b   15.47373875
_cell_length_c   15.29263673
_cell_angle_alpha   90.01039970
_cell_angle_beta   89.98857616
_cell_angle_gamma   89.99032425
_symmetry_Int_Tables_number   1
_chemical_formula_structural   Ca2Al2SiO7
_chemical_formula_sum   'Ca48 Al48 Si24 O168'
_cell_volume   3660.90348858
_cell_formula_units_Z   24
loop_
 _symmetry_equiv_pos_site_id
 _symmetry_equiv_pos_as_xyz
  1  'x, y, z'
loop_
 _atom_type_symbol
 _atom_type_oxidation_number
  Ca2+  2.0
  Al0+  0.0
  Si0+  0.0
  O2-  -2.0
loop_
 _atom_site_type_symbol
 _atom_site_label
 _atom_site_symmetry_multiplicity
 _atom_site_fract_x
 _atom_site_fract_y
 _atom_site_fract_z
 _atom_site_occupancy
  Ca2+  Ca0  1  0.16348248  0.07444148  0.16601566  1
  Ca2+  Ca1  1  0.17010597  0.07083569  0.50383814  1
  Ca2+  Ca2  1  0.16533290  0.07136932  0.83959658  1
  Ca2+  Ca3  1  0.17647499  0.57899063  0.17319571  1
  Ca2+  Ca4  1  0.17753730  0.58322983  0.51077718  1
  Ca2+  Ca5  1  0.17352589  0.58993236  0.83209818  1
  Ca2+  Ca6  1  0.67125209  0.09388304  0.16367576  1
  Ca2+  Ca7  1  0.66967581  0.07425549  0.50932773  1
  Ca2+  Ca8  1  0.66862200  0.07742690  0.83936113  1
  Ca2+  Ca9  1  0.66879958  0.59061862  0.16313991  1
  Ca2+  Ca10  1  0.66998404  0.58111414  0.51399271  1
  Ca2+  Ca11  1  0.67417815  0.59200023  0.83681777  1
  Ca2+  Ca12  1  0.07854867  0.32292060  0.15207211  1
  Ca2+  Ca13  1  0.08905518  0.33516902  0.50068246  1
  Ca2+  Ca14  1  0.08208216  0.33033460  0.82924166  1
  Ca2+  Ca15  1  0.08149439  0.84014868  0.16432410  1
  Ca2+  Ca16  1  0.07926195  0.83315384  0.49917346  1
  Ca2+  Ca17  1  0.07871323  0.83169801  0.82281251  1
  Ca2+  Ca18  1  0.57218245  0.33067129  0.15793432  1
  Ca2+  Ca19  1  0.58080057  0.33696430  0.49748604  1
  Ca2+  Ca20  1  0.58762078  0.32888817  0.83400941  1
  Ca2+  Ca21  1  0.56694763  0.82866035  0.15683043  1
  Ca2+  Ca22  1  0.57520714  0.82854502  0.50062874  1
  Ca2+  Ca23  1  0.57898603  0.82574912  0.82337108  1
  Ca2+  Ca24  1  0.34188411  0.42008267  0.17336269  1
  Ca2+  Ca25  1  0.33428724  0.42908730  0.50761640  1
  Ca2+  Ca26  1  0.33213436  0.42103004  0.83354721  1
  Ca2+  Ca27  1  0.32301634  0.90630988  0.17078400  1
  Ca2+  Ca28  1  0.32628417  0.90627561  0.50585869  1
  Ca2+  Ca29  1  0.32201599  0.89982498  0.83609974  1
  Ca2+  Ca30  1  0.83684741  0.42202292  0.16431837  1
  Ca2+  Ca31  1  0.82477422  0.42565991  0.51324017  1
  Ca2+  Ca32  1  0.83090861  0.42802810  0.83769857  1
  Ca2+  Ca33  1  0.83350075  0.92288262  0.16966293  1
  Ca2+  Ca34  1  0.83021567  0.90978206  0.50773908  1
  Ca2+  Ca35  1  0.82644687  0.91335728  0.83715770  1
  Ca2+  Ca36  1  0.41831059  0.17959122  0.15742865  1
  Ca2+  Ca37  1  0.41674505  0.17551207  0.49551523  1
  Ca2+  Ca38  1  0.41640936  0.17222517  0.83425276  1
  Ca2+  Ca39  1  0.41669023  0.67286391  0.16151166  1
  Ca2+  Ca40  1  0.41025427  0.67230033  0.50057601  1
  Ca2+  Ca41  1  0.42613443  0.67323228  0.82760219  1
  Ca2+  Ca42  1  0.92047001  0.17144346  0.15204265  1
  Ca2+  Ca43  1  0.91934754  0.16838474  0.49757747  1
  Ca2+  Ca44  1  0.91522189  0.16784707  0.83662617  1
  Ca2+  Ca45  1  0.91698022  0.67251611  0.16223919  1
  Ca2+  Ca46  1  0.91711141  0.67535838  0.50358464  1
  Ca2+  Ca47  1  0.92107512  0.66570997  0.82172734  1
  Al0+  Al48  1  -0.00142828  0.00009437  0.00468614  1
  Al0+  Al49  1  -0.00010220  0.00054596  0.33442795  1
  Al0+  Al50  1  0.00206729  0.00325735  0.66498172  1
  Al0+  Al51  1  -0.00071779  0.50037447  0.00320928  1
  Al0+  Al52  1  -0.00020403  0.50067627  0.33420975  1
  Al0+  Al53  1  -0.00048017  0.49769785  0.66634243  1
  Al0+  Al54  1  0.49424425  0.00131904  -0.00574135  1
  Al0+  Al55  1  0.50149658  -0.00037789  0.32856500  1
  Al0+  Al56  1  0.50155922  0.00207620  0.66611487  1
  Al0+  Al57  1  0.50052548  0.50173916  -0.00620088  1
  Al0+  Al58  1  0.50245866  0.49949881  0.33388537  1
  Al0+  Al59  1  0.49986970  0.49737693  0.67264825  1
  Al0+  Al60  1  0.24809042  0.24722226  -0.00785441  1
  Al0+  Al61  1  0.25012572  0.24767378  0.32832673  1
  Al0+  Al62  1  0.25049740  0.24892197  0.66791486  1
  Al0+  Al63  1  0.24757035  0.74743281  0.00440169  1
  Al0+  Al64  1  0.24912785  0.74729219  0.33751881  1
  Al0+  Al65  1  0.24898491  0.74877629  0.66870913  1
  Al0+  Al66  1  0.74881366  0.25146483  -0.00202140  1
  Al0+  Al67  1  0.75257766  0.25068392  0.33522431  1
  Al0+  Al68  1  0.75106484  0.25042312  0.66790652  1
  Al0+  Al69  1  0.74948120  0.75095503  0.00590361  1
  Al0+  Al70  1  0.75250891  0.75148625  0.32886336  1
  Al0+  Al71  1  0.74940953  0.75117343  0.66702009  1
  Al0+  Al72  1  0.32220428  0.56831652  0.34656165  1
  Al0+  Al73  1  0.32105052  0.57222754  0.68515220  1
  Al0+  Al74  1  0.57101304  0.17834590  0.98400531  1
  Al0+  Al75  1  0.06883215  0.17621932  0.98250928  1
  Al0+  Al76  1  0.42730340  0.32301743  0.98220507  1
  Al0+  Al77  1  0.82217869  0.57260245  0.01658223  1
  Al0+  Al78  1  0.81920305  0.57190199  0.68075456  1
  Al0+  Al79  1  0.67734484  0.42647129  0.68328818  1
  Al0+  Al80  1  0.57128456  0.67672423  0.65177546  1
  Al0+  Al81  1  0.57239599  0.68238986  0.98497048  1
  Al0+  Al82  1  0.81717880  0.07008959  0.01316336  1
  Al0+  Al83  1  0.92955027  0.82353770  0.65404208  1
  Al0+  Al84  1  0.42366282  0.82042471  0.98550459  1
  Al0+  Al85  1  0.43100507  0.32085998  0.32218059  1
  Al0+  Al86  1  0.42917072  0.82163904  0.65152399  1
  Al0+  Al87  1  0.07125807  0.67631558  0.65177369  1
  Al0+  Al88  1  0.17931870  0.42665953  0.68170371  1
  Al0+  Al89  1  0.18043324  0.92837520  0.01461094  1
  Al0+  Al90  1  0.18052345  0.93012004  0.67954578  1
  Al0+  Al91  1  0.92880516  0.32365083  0.98347193  1
  Al0+  Al92  1  0.93013512  0.82136836  0.31727882  1
  Al0+  Al93  1  0.17991133  0.93029222  0.34871146  1
  Al0+  Al94  1  0.42737501  0.81964929  0.31954214  1
  Al0+  Al95  1  0.67948282  0.92978023  0.67898493  1
  Si0+  Si96  1  0.06921221  0.67840704  0.98801491  1
  Si0+  Si97  1  0.32065226  0.56811517  0.01625971  1
  Si0+  Si98  1  0.57351615  0.18032830  0.65026651  1
  Si0+  Si99  1  0.06975234  0.17932726  0.31812800  1
  Si0+  Si100  1  0.32151608  0.07478891  0.01764527  1
  Si0+  Si101  1  0.67757241  0.42975340  0.01859910  1
  Si0+  Si102  1  0.57396260  0.67786652  0.31726082  1
  Si0+  Si103  1  0.07156100  0.67699112  0.31561002  1
  Si0+  Si104  1  0.32422385  0.07356903  0.34828533  1
  Si0+  Si105  1  0.68222205  0.42924749  0.34711807  1
  Si0+  Si106  1  0.82247109  0.57313092  0.34915402  1
  Si0+  Si107  1  0.82330257  0.07313133  0.68233521  1
  Si0+  Si108  1  0.92975856  0.82135513  0.98799511  1
  Si0+  Si109  1  0.17886028  0.42703244  0.01420868  1
  Si0+  Si110  1  0.57510259  0.17794787  0.31827048  1
  Si0+  Si111  1  0.92857734  0.31936110  0.64983688  1
  Si0+  Si112  1  0.42771142  0.31893875  0.65106234  1
  Si0+  Si113  1  0.82011989  0.07165230  0.34901944  1
  Si0+  Si114  1  0.67370869  0.92811972  0.01793731  1
  Si0+  Si115  1  0.32333793  0.07290207  0.68290258  1
  Si0+  Si116  1  0.92873153  0.32173612  0.31915247  1
  Si0+  Si117  1  0.07301708  0.17973837  0.64843514  1
  Si0+  Si118  1  0.67892417  0.92838112  0.34687921  1
  Si0+  Si119  1  0.17723644  0.42500912  0.34679314  1
  O2-  O120  1  0.25735059  0.00139656  0.06152195  1
  O2-  O121  1  0.26033693  0.00086333  0.39321147  1
  O2-  O122  1  0.26047497  -0.00115293  0.72623187  1
  O2-  O123  1  0.25408131  0.49230700  0.05860435  1
  O2-  O124  1  0.24731724  0.49174557  0.39022047  1
  O2-  O125  1  0.24616698  0.50158448  0.73382851  1
  O2-  O126  1  0.73950076  -0.00013421  0.06320141  1
  O2-  O127  1  0.74884073  0.00104777  0.38987214  1
  O2-  O128  1  0.75843245  0.00069380  0.72453320  1
  O2-  O129  1  0.74627341  0.49848126  0.06393371  1
  O2-  O130  1  0.75122564  0.50182142  0.38944341  1
  O2-  O131  1  0.74414118  0.50367816  0.73163494  1
  O2-  O132  1  0.00312202  0.25491046  0.27712298  1
  O2-  O133  1  0.00215492  0.25126021  0.60593206  1
  O2-  O134  1  -0.00028062  0.25107049  0.93285791  1
  O2-  O135  1  0.00468090  0.74680293  0.26990648  1
  O2-  O136  1  0.00130165  0.75151078  0.60280302  1
  O2-  O137  1  -0.00339210  0.74734297  0.94636003  1
  O2-  O138  1  0.50335254  0.24387331  0.27575186  1
  O2-  O139  1  0.50254516  0.25146124  0.60843883  1
  O2-  O140  1  0.49937228  0.25030495  0.93346124  1
  O2-  O141  1  0.50309683  0.74505688  0.27439267  1
  O2-  O142  1  0.49815384  0.74684507  0.60019394  1
  O2-  O143  1  0.50330907  0.75733630  0.93653182  1
  O2-  O144  1  0.06691359  0.17786250  0.09720042  1
  O2-  O145  1  0.06862439  0.17942080  0.42341297  1
  O2-  O146  1  0.07252174  0.17827405  0.75268596  1
  O2-  O147  1  0.07016426  0.67868452  0.09349568  1
  O2-  O148  1  0.06890956  0.67467777  0.42045349  1
  O2-  O149  1  0.06940745  0.67830919  0.76598732  1
  O2-  O150  1  0.57085812  0.18350854  0.09849116  1
  O2-  O151  1  0.57784666  0.17910065  0.42392487  1
  O2-  O152  1  0.57485561  0.18031433  0.75460398  1
  O2-  O153  1  0.56963169  0.68213653  0.09955054  1
  O2-  O154  1  0.57735286  0.67815724  0.42224529  1
  O2-  O155  1  0.57258794  0.68144056  0.76473392  1
  O2-  O156  1  0.17494177  0.42582197  0.24109223  1
  O2-  O157  1  0.18558210  0.42362585  0.56731587  1
  O2-  O158  1  0.17679407  0.43091569  0.90989029  1
  O2-  O159  1  0.17802710  0.93383310  0.23560355  1
  O2-  O160  1  0.17902719  0.93407381  0.56615446  1
  O2-  O161  1  0.17902373  0.92768034  0.90196668  1
  O2-  O162  1  0.68401386  0.42570071  0.24246903  1
  O2-  O163  1  0.68234070  0.42304593  0.56846560  1
  O2-  O164  1  0.67936285  0.42957624  0.91373668  1
  O2-  O165  1  0.68027307  0.92960639  0.24206135  1
  O2-  O166  1  0.67900900  0.93339739  0.56500158  1
  O2-  O167  1  0.67907175  0.92655708  0.91270323  1
  O2-  O168  1  0.42889940  0.32269285  0.09677318  1
  O2-  O169  1  0.43321099  0.31989510  0.43527090  1
  O2-  O170  1  0.42379468  0.31413864  0.75531037  1
  O2-  O171  1  0.42217771  0.81463350  0.09986406  1
  O2-  O172  1  0.42875793  0.82039060  0.43196785  1
  O2-  O173  1  0.43116976  0.82191891  0.76453369  1
  O2-  O174  1  0.93280113  0.32244803  0.09848076  1
  O2-  O175  1  0.92602750  0.31915808  0.42412211  1
  O2-  O176  1  0.92657801  0.31644651  0.75409224  1
  O2-  O177  1  0.93212275  0.82135186  0.09360365  1
  O2-  O178  1  0.92768566  0.82075794  0.42964971  1
  O2-  O179  1  0.93130255  0.82536507  0.76786200  1
  O2-  O180  1  0.32105763  0.07860560  0.24337902  1
  O2-  O181  1  0.31988481  0.07813637  0.57686545  1
  O2-  O182  1  0.31856756  0.07926648  0.91254432  1
  O2-  O183  1  0.32113870  0.56627586  0.23285354  1
  O2-  O184  1  0.32147615  0.56893891  0.57096772  1
  O2-  O185  1  0.31736140  0.57055331  0.91199907  1
  O2-  O186  1  0.81949836  0.07481382  0.24424921  1
  O2-  O187  1  0.82038931  0.07663452  0.57591288  1
  O2-  O188  1  0.81897344  0.06535591  0.90049640  1
  O2-  O189  1  0.82372303  0.57143657  0.24406041  1
  O2-  O190  1  0.81890626  0.56837761  0.56613458  1
  O2-  O191  1  0.82457741  0.57332696  0.90457364  1
  O2-  O192  1  0.03645281  0.08999166  0.27049261  1
  O2-  O193  1  0.04314814  0.09015577  0.59751770  1
  O2-  O194  1  0.03511886  0.07895931  0.93156646  1
  O2-  O195  1  0.04457090  0.58310364  0.26856950  1
  O2-  O196  1  0.04350721  0.57754374  0.59810222  1
  O2-  O197  1  0.04359414  0.58665613  0.94147923  1
  O2-  O198  1  0.55548598  0.08385587  0.27160606  1
  O2-  O199  1  0.54539241  0.08970416  0.60056523  1
  O2-  O200  1  0.54499298  0.07982939  0.93069235  1
  O2-  O201  1  0.55079559  0.58338974  0.27185519  1
  O2-  O202  1  0.54796579  0.57439260  0.60356927  1
  O2-  O203  1  0.54540943  0.58448831  0.93309187  1
  O2-  O204  1  0.16231051  0.20139919  0.26952515  1
  O2-  O205  1  0.16432399  0.20872825  0.59995371  1
  O2-  O206  1  0.16696294  0.20040849  0.92951296  1
  O2-  O207  1  0.16579228  0.70062848  0.27064602  1
  O2-  O208  1  0.16971194  0.70409672  0.59972447  1
  O2-  O209  1  0.15999169  0.70769316  0.94107974  1
  O2-  O210  1  0.66791492  0.20833852  0.27216517  1
  O2-  O211  1  0.66522387  0.20812375  0.60139742  1
  O2-  O212  1  0.66911356  0.20620763  0.93113454  1
  O2-  O213  1  0.66649601  0.70525148  0.26941248  1
  O2-  O214  1  0.66890303  0.70756815  0.59821317  1
  O2-  O215  1  0.67279719  0.70898773  0.93588534  1
  O2-  O216  1  0.08941196  0.45827029  0.06501731  1
  O2-  O217  1  0.08338665  0.45046154  0.39364825  1
  O2-  O218  1  0.07738122  0.44513546  0.72923596  1
  O2-  O219  1  0.08486586  0.96253241  0.06988375  1
  O2-  O220  1  0.08446020  0.96693671  0.40198322  1
  O2-  O221  1  0.08519512  0.96669761  0.73264057  1
  O2-  O222  1  0.58332045  0.45712613  0.06376272  1
  O2-  O223  1  0.59035974  0.45475523  0.39505246  1
  O2-  O224  1  0.57661014  0.44150232  0.73382619  1
  O2-  O225  1  0.57710398  0.95058254  0.05926101  1
  O2-  O226  1  0.58654397  0.95483699  0.39393474  1
  O2-  O227  1  0.58512297  0.96534979  0.73377824  1
  O2-  O228  1  0.20124449  0.33209673  0.05816207  1
  O2-  O229  1  0.19975815  0.32975774  0.39080424  1
  O2-  O230  1  0.21080456  0.32933283  0.73516246  1
  O2-  O231  1  0.20887129  0.83138162  0.07125803  1
  O2-  O232  1  0.20506275  0.83161832  0.39995638  1
  O2-  O233  1  0.20441248  0.83247538  0.73314315  1
  O2-  O234  1  0.70320448  0.33623385  0.06515707  1
  O2-  O235  1  0.71172144  0.33825900  0.39660962  1
  O2-  O236  1  0.71306388  0.33033174  0.73607255  1
  O2-  O237  1  0.70308664  0.83731538  0.06777895  1
  O2-  O238  1  0.71006121  0.83723688  0.39334297  1
  O2-  O239  1  0.70826638  0.83443584  0.73435762  1
  O2-  O240  1  0.46514463  0.41561917  0.26637628  1
  O2-  O241  1  0.45288831  0.41187538  0.60575424  1
  O2-  O242  1  0.45476469  0.42077176  0.93022244  1
  O2-  O243  1  0.45616112  0.91746388  0.26548542  1
  O2-  O244  1  0.45783805  0.92144027  0.59948977  1
  O2-  O245  1  0.43607953  0.92331054  0.93855803  1
  O2-  O246  1  0.95170965  0.41549233  0.27342917  1
  O2-  O247  1  0.95320033  0.41083746  0.60058354  1
  O2-  O248  1  0.95890109  0.42195516  0.93296094  1
  O2-  O249  1  0.96035462  0.91948749  0.26522037  1
  O2-  O250  1  0.95655715  0.92284862  0.59999036  1
  O2-  O251  1  0.95943649  0.91152276  0.94115912  1
  O2-  O252  1  0.33362951  0.29307481  0.26719949  1
  O2-  O253  1  0.33829494  0.28603320  0.60109875  1
  O2-  O254  1  0.32945557  0.29413152  0.92986204  1
  O2-  O255  1  0.33045537  0.78648944  0.26749690  1
  O2-  O256  1  0.32974995  0.79300257  0.60112073  1
  O2-  O257  1  0.32817324  0.78173648  0.93419597  1
  O2-  O258  1  0.83863017  0.29012500  0.27056746  1
  O2-  O259  1  0.83861690  0.28683621  0.59990583  1
  O2-  O260  1  0.83015518  0.29678180  0.93348490  1
  O2-  O261  1  0.83420022  0.79120568  0.26104464  1
  O2-  O262  1  0.83168789  0.79464413  0.60009210  1
  O2-  O263  1  0.83550567  0.79799284  0.94533360  1
  O2-  O264  1  0.41750385  0.05667620  0.06224596  1
  O2-  O265  1  0.42098552  0.05464104  0.39092016  1
  O2-  O266  1  0.41952796  0.05636951  0.72553950  1
  O2-  O267  1  0.41439272  0.54417722  0.06179436  1
  O2-  O268  1  0.41922932  0.53817998  0.40010418  1
  O2-  O269  1  0.41791428  0.54083518  0.73782420  1
  O2-  O270  1  0.91186753  0.03694119  0.07076074  1
  O2-  O271  1  0.91174420  0.04468157  0.39662759  1
  O2-  O272  1  0.91892169  0.05454442  0.72521015  1
  O2-  O273  1  0.91767630  0.53948329  0.07370792  1
  O2-  O274  1  0.91409139  0.54476573  0.39645464  1
  O2-  O275  1  0.91682205  0.53921225  0.73172233  1
  O2-  O276  1  0.29014154  0.16697180  0.06535780  1
  O2-  O277  1  0.29299666  0.16537650  0.39704932  1
  O2-  O278  1  0.29055420  0.16276442  0.73139527  1
  O2-  O279  1  0.28570774  0.65646428  0.06675519  1
  O2-  O280  1  0.28921437  0.66281352  0.40199226  1
  O2-  O281  1  0.29208739  0.66961191  0.73884176  1
  O2-  O282  1  0.78975217  0.16869116  0.06768475  1
  O2-  O283  1  0.79335155  0.16345553  0.39865438  1
  O2-  O284  1  0.79300581  0.16406681  0.72963285  1
  O2-  O285  1  0.79103517  0.66864212  0.07378380  1
  O2-  O286  1  0.79520182  0.66590566  0.39383701  1
  O2-  O287  1  0.79645649  0.67121551  0.73285506  1
