# generated using pymatgen
data_Ca2Al2SiO7
_symmetry_space_group_name_H-M   'P 1'
_cell_length_a   15.45451657
_cell_length_b   15.45631085
_cell_length_c   15.28117422
_cell_angle_alpha   90.01187929
_cell_angle_beta   89.99854463
_cell_angle_gamma   89.99340067
_symmetry_Int_Tables_number   1
_chemical_formula_structural   Ca2Al2SiO7
_chemical_formula_sum   'Ca48 Al48 Si24 O168'
_cell_volume   3650.21111165
_cell_formula_units_Z   24
loop_
 _symmetry_equiv_pos_site_id
 _symmetry_equiv_pos_as_xyz
  1  'x, y, z'
loop_
 _atom_type_symbol
 _atom_type_oxidation_number
  Ca2+  2.0
  Al0+  0.0
  Si0+  0.0
  O2-  -2.0
loop_
 _atom_site_type_symbol
 _atom_site_label
 _atom_site_symmetry_multiplicity
 _atom_site_fract_x
 _atom_site_fract_y
 _atom_site_fract_z
 _atom_site_occupancy
  Ca2+  Ca0  1  0.16786525  0.08083449  0.16762863  1
  Ca2+  Ca1  1  0.16438923  0.07807073  0.50242176  1
  Ca2+  Ca2  1  0.17042421  0.09149596  0.83902959  1
  Ca2+  Ca3  1  0.17718118  0.58933715  0.17311313  1
  Ca2+  Ca4  1  0.16953291  0.58557719  0.50596165  1
  Ca2+  Ca5  1  0.16877256  0.57966029  0.83460918  1
  Ca2+  Ca6  1  0.67503755  0.07183250  0.16808294  1
  Ca2+  Ca7  1  0.66565094  0.07220945  0.50392561  1
  Ca2+  Ca8  1  0.67234589  0.07237042  0.84172250  1
  Ca2+  Ca9  1  0.66348366  0.58204299  0.16398300  1
  Ca2+  Ca10  1  0.67144746  0.57913788  0.50599803  1
  Ca2+  Ca11  1  0.66146228  0.57251802  0.84012065  1
  Ca2+  Ca12  1  0.07512797  0.32600885  0.15547162  1
  Ca2+  Ca13  1  0.08601915  0.33063376  0.50257255  1
  Ca2+  Ca14  1  0.07624635  0.32478835  0.82412581  1
  Ca2+  Ca15  1  0.07752756  0.83550348  0.16656924  1
  Ca2+  Ca16  1  0.08274136  0.82242586  0.48865290  1
  Ca2+  Ca17  1  0.07637565  0.82945026  0.82935284  1
  Ca2+  Ca18  1  0.57851917  0.33613735  0.16187511  1
  Ca2+  Ca19  1  0.57299835  0.34047335  0.49797694  1
  Ca2+  Ca20  1  0.58048358  0.33589175  0.82697298  1
  Ca2+  Ca21  1  0.58387580  0.83120440  0.16104191  1
  Ca2+  Ca22  1  0.57412950  0.84159463  0.49575049  1
  Ca2+  Ca23  1  0.58274619  0.83229876  0.82895101  1
  Ca2+  Ca24  1  0.33646835  0.42984661  0.17244359  1
  Ca2+  Ca25  1  0.33175782  0.42082188  0.50574077  1
  Ca2+  Ca26  1  0.32641824  0.41714044  0.83821168  1
  Ca2+  Ca27  1  0.32960744  0.92103582  0.17424918  1
  Ca2+  Ca28  1  0.32980974  0.90877695  0.50232952  1
  Ca2+  Ca29  1  0.33285396  0.92256297  0.83872352  1
  Ca2+  Ca30  1  0.82740544  0.40981566  0.16623410  1
  Ca2+  Ca31  1  0.82971935  0.41678255  0.51122722  1
  Ca2+  Ca32  1  0.82634751  0.40827822  0.83829479  1
  Ca2+  Ca33  1  0.82897282  0.90912587  0.16984104  1
  Ca2+  Ca34  1  0.82266107  0.90816032  0.50272967  1
  Ca2+  Ca35  1  0.82546375  0.91817411  0.84423330  1
  Ca2+  Ca36  1  0.41397486  0.17126020  0.16291265  1
  Ca2+  Ca37  1  0.41516718  0.18102077  0.49752298  1
  Ca2+  Ca38  1  0.41666273  0.17030279  0.82659978  1
  Ca2+  Ca39  1  0.41668056  0.66998032  0.16258563  1
  Ca2+  Ca40  1  0.41488219  0.67656833  0.49408693  1
  Ca2+  Ca41  1  0.42029749  0.66855546  0.83276746  1
  Ca2+  Ca42  1  0.92150345  0.16637390  0.15347742  1
  Ca2+  Ca43  1  0.91758814  0.17126121  0.50281815  1
  Ca2+  Ca44  1  0.92135253  0.17061967  0.83204353  1
  Ca2+  Ca45  1  0.92018307  0.67782090  0.16382671  1
  Ca2+  Ca46  1  0.93046337  0.66716944  0.49387388  1
  Ca2+  Ca47  1  0.91956971  0.67141382  0.83066361  1
  Al0+  Al48  1  0.00084424  -0.00055668  -0.00688819  1
  Al0+  Al49  1  0.00016002  0.00147342  0.33597550  1
  Al0+  Al50  1  -0.00050071  -0.00006030  0.66264928  1
  Al0+  Al51  1  -0.00191432  0.50000192  -0.00304352  1
  Al0+  Al52  1  0.00063961  0.49846691  0.32765483  1
  Al0+  Al53  1  0.00159629  0.50052646  0.66426876  1
  Al0+  Al54  1  0.49830976  0.00134063  0.00873747  1
  Al0+  Al55  1  0.50153613  0.00303815  0.33323235  1
  Al0+  Al56  1  0.49933602  0.00006468  0.66661577  1
  Al0+  Al57  1  0.49920209  0.50169831  0.00369308  1
  Al0+  Al58  1  0.49854308  0.50059963  0.33475377  1
  Al0+  Al59  1  0.50132001  0.50243233  0.66616170  1
  Al0+  Al60  1  0.24938274  0.25093422  0.00270701  1
  Al0+  Al61  1  0.25031316  0.25199781  0.32791240  1
  Al0+  Al62  1  0.25017785  0.25103997  0.66178837  1
  Al0+  Al63  1  0.25065298  0.75018696  0.00253866  1
  Al0+  Al64  1  0.25256650  0.75072813  0.33311894  1
  Al0+  Al65  1  0.25073963  0.75118742  0.66316448  1
  Al0+  Al66  1  0.74733725  0.24789486  0.00579070  1
  Al0+  Al67  1  0.74893197  0.24825408  0.33563033  1
  Al0+  Al68  1  0.75023599  0.24774320  0.66636646  1
  Al0+  Al69  1  0.74855242  0.74566401  -0.00604021  1
  Al0+  Al70  1  0.75042222  0.74799571  0.33681594  1
  Al0+  Al71  1  0.74910086  0.74847580  0.67169572  1
  Al0+  Al72  1  0.07063191  0.68039591  0.65394195  1
  Al0+  Al73  1  0.67796863  0.92907956  0.68183216  1
  Al0+  Al74  1  0.92824683  0.82102460  0.32018449  1
  Al0+  Al75  1  0.31945716  0.57033916  0.01317188  1
  Al0+  Al76  1  0.43024823  0.32274776  0.65505722  1
  Al0+  Al77  1  0.82240082  0.06872809  0.01413108  1
  Al0+  Al78  1  0.43129111  0.82186141  0.65422738  1
  Al0+  Al79  1  0.92908103  0.81979921  0.98535284  1
  Al0+  Al80  1  0.07318067  0.67754812  0.31648729  1
  Al0+  Al81  1  0.07275811  0.17785212  0.64851840  1
  Al0+  Al82  1  0.67937319  0.42858064  0.01454785  1
  Al0+  Al83  1  0.92773892  0.32048694  0.65117732  1
  Al0+  Al84  1  0.32049997  0.07320395  0.01358450  1
  Al0+  Al85  1  0.18021550  0.42876772  0.67998939  1
  Al0+  Al86  1  0.43057332  0.82299863  0.31862536  1
  Al0+  Al87  1  0.67904074  0.42908493  0.67959620  1
  Al0+  Al88  1  0.56878204  0.67895272  0.98622067  1
  Al0+  Al89  1  0.18029549  0.93145012  0.34707099  1
  Al0+  Al90  1  0.42968179  0.32197007  0.31752643  1
  Al0+  Al91  1  0.32064694  0.57107960  0.34944530  1
  Al0+  Al92  1  0.68002660  0.92788305  0.34827436  1
  Al0+  Al93  1  0.07249355  0.17902241  0.98457695  1
  Al0+  Al94  1  0.67928342  0.92496670  0.01575668  1
  Al0+  Al95  1  0.92544776  0.32124174  0.98510163  1
  Si0+  Si96  1  0.43053525  0.32171321  0.98582137  1
  Si0+  Si97  1  0.07053589  0.17954777  0.31749795  1
  Si0+  Si98  1  0.82373736  0.57167112  0.01714496  1
  Si0+  Si99  1  0.07491449  0.67792953  0.98293794  1
  Si0+  Si100  1  0.32186744  0.57440186  0.68380089  1
  Si0+  Si101  1  0.17820200  0.92747099  0.68076900  1
  Si0+  Si102  1  0.42741438  0.82432449  0.98482002  1
  Si0+  Si103  1  0.17600150  0.42879101  0.01647744  1
  Si0+  Si104  1  0.57166508  0.17710880  0.65101338  1
  Si0+  Si105  1  0.57316698  0.17941488  0.31454588  1
  Si0+  Si106  1  0.82267181  0.56918874  0.34765972  1
  Si0+  Si107  1  0.32235865  0.07527196  0.35151873  1
  Si0+  Si108  1  0.31874598  0.07095951  0.67895110  1
  Si0+  Si109  1  0.17704894  0.42749653  0.34903757  1
  Si0+  Si110  1  0.82363434  0.57099370  0.68421989  1
  Si0+  Si111  1  0.92641996  0.32030376  0.31812661  1
  Si0+  Si112  1  0.56902986  0.17756195  0.98639520  1
  Si0+  Si113  1  0.82274627  0.07356408  0.35286969  1
  Si0+  Si114  1  0.57254745  0.67780582  0.31783902  1
  Si0+  Si115  1  0.17819578  0.92728753  0.01487420  1
  Si0+  Si116  1  0.82339811  0.07091403  0.68423870  1
  Si0+  Si117  1  0.92599439  0.82159645  0.65019873  1
  Si0+  Si118  1  0.57287993  0.67798425  0.64934229  1
  Si0+  Si119  1  0.67964708  0.42828602  0.34896429  1
  O2-  O120  1  0.24613920  -0.00253034  0.05818596  1
  O2-  O121  1  0.25669660  0.00417419  0.39639740  1
  O2-  O122  1  0.24608196  0.00188445  0.72231671  1
  O2-  O123  1  0.24145469  0.49982659  0.06139650  1
  O2-  O124  1  0.24306484  0.49821765  0.39411260  1
  O2-  O125  1  0.25572954  0.50282142  0.72732283  1
  O2-  O126  1  0.75541810  -0.00719091  0.06579329  1
  O2-  O127  1  0.75682061  0.00110816  0.39534787  1
  O2-  O128  1  0.75636725  -0.00007962  0.72726754  1
  O2-  O129  1  0.75793934  0.49952155  0.06137560  1
  O2-  O130  1  0.75277625  0.49697030  0.39061485  1
  O2-  O131  1  0.75564324  0.50092370  0.72746382  1
  O2-  O132  1  -0.00222044  0.24962691  0.27675357  1
  O2-  O133  1  0.00051208  0.25031350  0.59892316  1
  O2-  O134  1  -0.00016571  0.25126802  0.93616938  1
  O2-  O135  1  0.00186013  0.75139443  0.26868106  1
  O2-  O136  1  -0.00400184  0.75471308  0.60638389  1
  O2-  O137  1  0.00488890  0.74534913  0.93925315  1
  O2-  O138  1  0.50400736  0.24755717  0.26999161  1
  O2-  O139  1  0.50831014  0.25138004  0.60744660  1
  O2-  O140  1  0.49837144  0.24838385  0.94268213  1
  O2-  O141  1  0.50704456  0.74951185  0.27369031  1
  O2-  O142  1  0.50712583  0.74910388  0.60569090  1
  O2-  O143  1  0.49786914  0.75785472  0.94021985  1
  O2-  O144  1  0.07278655  0.18111324  0.09891104  1
  O2-  O145  1  0.07182777  0.18097450  0.42238877  1
  O2-  O146  1  0.07422977  0.17917745  0.76142309  1
  O2-  O147  1  0.07619913  0.67920395  0.08823627  1
  O2-  O148  1  0.07034026  0.67632305  0.43031138  1
  O2-  O149  1  0.07088507  0.68335353  0.76726982  1
  O2-  O150  1  0.56744647  0.17899922  0.09150260  1
  O2-  O151  1  0.57422318  0.18140785  0.42037137  1
  O2-  O152  1  0.56805183  0.17477497  0.75676651  1
  O2-  O153  1  0.56605623  0.67754470  0.09942654  1
  O2-  O154  1  0.57259674  0.67582418  0.42356200  1
  O2-  O155  1  0.57047050  0.67575994  0.75477693  1
  O2-  O156  1  0.17822473  0.42625488  0.24348827  1
  O2-  O157  1  0.18298288  0.42945389  0.56674094  1
  O2-  O158  1  0.17902838  0.42795999  0.91085804  1
  O2-  O159  1  0.17953589  0.93573681  0.23388711  1
  O2-  O160  1  0.18050082  0.92640504  0.57573135  1
  O2-  O161  1  0.18129541  0.92390783  0.90891673  1
  O2-  O162  1  0.68013753  0.42768775  0.24391976  1
  O2-  O163  1  0.67878304  0.43331189  0.56583001  1
  O2-  O164  1  0.67630245  0.42978994  0.90153698  1
  O2-  O165  1  0.68121814  0.92793930  0.23570761  1
  O2-  O166  1  0.67757970  0.93131765  0.56840189  1
  O2-  O167  1  0.67779416  0.92906199  0.90197801  1
  O2-  O168  1  0.43281093  0.32132159  0.09102495  1
  O2-  O169  1  0.43133365  0.32174418  0.43090039  1
  O2-  O170  1  0.42978580  0.31963972  0.76847393  1
  O2-  O171  1  0.42615568  0.82294845  0.09029522  1
  O2-  O172  1  0.43159885  0.82092677  0.43205406  1
  O2-  O173  1  0.43043502  0.82253165  0.76739442  1
  O2-  O174  1  0.92777096  0.31932045  0.09969156  1
  O2-  O175  1  0.92434645  0.32070850  0.42294680  1
  O2-  O176  1  0.92599828  0.31734500  0.76407905  1
  O2-  O177  1  0.93025369  0.81843834  0.09836703  1
  O2-  O178  1  0.92767242  0.81609846  0.43389684  1
  O2-  O179  1  0.92710644  0.82065107  0.75591871  1
  O2-  O180  1  0.31912901  0.07593887  0.24588005  1
  O2-  O181  1  0.31949359  0.07017626  0.57395965  1
  O2-  O182  1  0.32215654  0.07292580  0.89983105  1
  O2-  O183  1  0.32241639  0.56858533  0.23619101  1
  O2-  O184  1  0.32070136  0.57496322  0.57819447  1
  O2-  O185  1  0.31943408  0.56811854  0.89984869  1
  O2-  O186  1  0.82127313  0.07865778  0.24781347  1
  O2-  O187  1  0.82203344  0.07122044  0.57827534  1
  O2-  O188  1  0.81815371  0.06887970  0.90052448  1
  O2-  O189  1  0.82143162  0.56870146  0.24279953  1
  O2-  O190  1  0.82126108  0.57175869  0.57798063  1
  O2-  O191  1  0.82328877  0.57236574  0.91163196  1
  O2-  O192  1  0.04345722  0.08772471  0.27074500  1
  O2-  O193  1  0.04410397  0.07887984  0.59534273  1
  O2-  O194  1  0.04957098  0.08039486  0.93024439  1
  O2-  O195  1  0.04437516  0.57925496  0.26270400  1
  O2-  O196  1  0.04183749  0.58445502  0.59815103  1
  O2-  O197  1  0.05000744  0.58375985  0.93759829  1
  O2-  O198  1  0.54828913  0.08626612  0.26824966  1
  O2-  O199  1  0.53875425  0.08725223  0.60164835  1
  O2-  O200  1  0.53994956  0.08576105  0.93937934  1
  O2-  O201  1  0.54405556  0.58518960  0.27152210  1
  O2-  O202  1  0.54625684  0.58601111  0.60049248  1
  O2-  O203  1  0.53205353  0.58391786  0.93136432  1
  O2-  O204  1  0.16165967  0.20783428  0.26903576  1
  O2-  O205  1  0.17003237  0.20728160  0.59373456  1
  O2-  O206  1  0.17138850  0.20987937  0.93256832  1
  O2-  O207  1  0.17139595  0.70740013  0.26583797  1
  O2-  O208  1  0.16631884  0.71205749  0.59909209  1
  O2-  O209  1  0.16796933  0.70519788  0.93602900  1
  O2-  O210  1  0.66653497  0.20681455  0.26843522  1
  O2-  O211  1  0.66660393  0.19587218  0.60562757  1
  O2-  O212  1  0.66049815  0.20523652  0.93938689  1
  O2-  O213  1  0.66731009  0.69981479  0.27286582  1
  O2-  O214  1  0.66854368  0.70005433  0.60545632  1
  O2-  O215  1  0.66572962  0.70089529  0.92937808  1
  O2-  O216  1  0.08038461  0.45038454  0.06048580  1
  O2-  O217  1  0.08115596  0.44858153  0.39301488  1
  O2-  O218  1  0.08340978  0.45969842  0.73330642  1
  O2-  O219  1  0.08440643  0.95272525  0.05923003  1
  O2-  O220  1  0.08404617  0.96231408  0.40278901  1
  O2-  O221  1  0.08404116  0.95111167  0.72553654  1
  O2-  O222  1  0.58508118  0.46489266  0.07005152  1
  O2-  O223  1  0.58870856  0.45884013  0.39590349  1
  O2-  O224  1  0.58295873  0.46212250  0.73435669  1
  O2-  O225  1  0.58228831  0.95697939  0.06930232  1
  O2-  O226  1  0.58406242  0.96409148  0.40176162  1
  O2-  O227  1  0.58199621  0.96329585  0.73521011  1
  O2-  O228  1  0.20416569  0.33687468  0.06439262  1
  O2-  O229  1  0.20634016  0.33440918  0.39476378  1
  O2-  O230  1  0.21247804  0.33202958  0.73328845  1
  O2-  O231  1  0.20445178  0.83520647  0.06366923  1
  O2-  O232  1  0.21131035  0.83465585  0.40031431  1
  O2-  O233  1  0.21009923  0.83791646  0.73003999  1
  O2-  O234  1  0.70487552  0.33207828  0.07157672  1
  O2-  O235  1  0.70511389  0.33574198  0.39636904  1
  O2-  O236  1  0.70410058  0.32953247  0.73065652  1
  O2-  O237  1  0.70410968  0.82381489  0.06396701  1
  O2-  O238  1  0.70811849  0.83044175  0.40337083  1
  O2-  O239  1  0.70382221  0.83041589  0.73432003  1
  O2-  O240  1  0.46325892  0.41808484  0.26440485  1
  O2-  O241  1  0.45949515  0.41981060  0.60053154  1
  O2-  O242  1  0.46076981  0.41223938  0.93878805  1
  O2-  O243  1  0.45740864  0.92196590  0.26743706  1
  O2-  O244  1  0.46015373  0.91833599  0.59846903  1
  O2-  O245  1  0.45064219  0.91979604  0.94144454  1
  O2-  O246  1  0.95227578  0.41142536  0.26880155  1
  O2-  O247  1  0.95420730  0.41973829  0.59926872  1
  O2-  O248  1  0.94853378  0.42160394  0.93366995  1
  O2-  O249  1  0.95365131  0.92177104  0.27062963  1
  O2-  O250  1  0.94749699  0.91588861  0.60472868  1
  O2-  O251  1  0.95920036  0.91482160  0.92838235  1
  O2-  O252  1  0.33343653  0.29209759  0.26219954  1
  O2-  O253  1  0.33698174  0.28858985  0.59755500  1
  O2-  O254  1  0.33704825  0.29610905  0.94130272  1
  O2-  O255  1  0.33497186  0.79174317  0.26444890  1
  O2-  O256  1  0.33566923  0.79005140  0.59918884  1
  O2-  O257  1  0.33429618  0.79657204  0.93815210  1
  O2-  O258  1  0.83379856  0.29217365  0.27213560  1
  O2-  O259  1  0.82941062  0.29013099  0.59653691  1
  O2-  O260  1  0.82584901  0.29109381  0.93602253  1
  O2-  O261  1  0.83072793  0.78780466  0.26779553  1
  O2-  O262  1  0.83188359  0.79343601  0.60624581  1
  O2-  O263  1  0.83396643  0.78654627  0.92993209  1
  O2-  O264  1  0.41505384  0.04474553  0.07251117  1
  O2-  O265  1  0.41817531  0.05559665  0.39480129  1
  O2-  O266  1  0.40972553  0.04199265  0.72758031  1
  O2-  O267  1  0.41315877  0.53579200  0.06980318  1
  O2-  O268  1  0.41667948  0.53784645  0.40419968  1
  O2-  O269  1  0.41706466  0.55164726  0.72726293  1
  O2-  O270  1  0.92396613  0.04599666  0.06293514  1
  O2-  O271  1  0.91733988  0.05303324  0.39844157  1
  O2-  O272  1  0.91847893  0.04752039  0.72836320  1
  O2-  O273  1  0.91879092  0.55116767  0.06333621  1
  O2-  O274  1  0.91500918  0.54052710  0.39422154  1
  O2-  O275  1  0.91786778  0.54858305  0.72914969  1
  O2-  O276  1  0.29023350  0.16917376  0.07017474  1
  O2-  O277  1  0.29233785  0.16867944  0.39633942  1
  O2-  O278  1  0.29280600  0.16313925  0.72641462  1
  O2-  O279  1  0.29277725  0.66820135  0.06755296  1
  O2-  O280  1  0.29280061  0.66840414  0.40275613  1
  O2-  O281  1  0.29262359  0.66686306  0.73061654  1
  O2-  O282  1  0.78913122  0.16430743  0.07037103  1
  O2-  O283  1  0.79130585  0.16519757  0.40196869  1
  O2-  O284  1  0.79568922  0.16355824  0.73039384  1
  O2-  O285  1  0.79200111  0.66278963  0.06409263  1
  O2-  O286  1  0.79385035  0.65874018  0.39880390  1
  O2-  O287  1  0.79710405  0.66380657  0.73176522  1
