# generated using pymatgen
data_Ca2Al2SiO7
_symmetry_space_group_name_H-M   'P 1'
_cell_length_a   15.46022786
_cell_length_b   15.46000298
_cell_length_c   15.28491400
_cell_angle_alpha   89.99965355
_cell_angle_beta   89.99876472
_cell_angle_gamma   89.96994313
_symmetry_Int_Tables_number   1
_chemical_formula_structural   Ca2Al2SiO7
_chemical_formula_sum   'Ca48 Al48 Si24 O168'
_cell_volume   3653.32579459
_cell_formula_units_Z   24
loop_
 _symmetry_equiv_pos_site_id
 _symmetry_equiv_pos_as_xyz
  1  'x, y, z'
loop_
 _atom_type_symbol
 _atom_type_oxidation_number
  Ca2+  2.0
  Al0+  0.0
  Si0+  0.0
  O2-  -2.0
loop_
 _atom_site_type_symbol
 _atom_site_label
 _atom_site_symmetry_multiplicity
 _atom_site_fract_x
 _atom_site_fract_y
 _atom_site_fract_z
 _atom_site_occupancy
  Ca2+  Ca0  1  0.16187468  0.08185010  0.17386280  1
  Ca2+  Ca1  1  0.16099439  0.08042229  0.50150196  1
  Ca2+  Ca2  1  0.16437523  0.09053496  0.83552873  1
  Ca2+  Ca3  1  0.16178232  0.57593537  0.17284067  1
  Ca2+  Ca4  1  0.17416189  0.58706287  0.50669505  1
  Ca2+  Ca5  1  0.17603541  0.57591655  0.83951631  1
  Ca2+  Ca6  1  0.66346971  0.07900778  0.16813706  1
  Ca2+  Ca7  1  0.67329116  0.07519233  0.51417937  1
  Ca2+  Ca8  1  0.66094562  0.07604144  0.83844688  1
  Ca2+  Ca9  1  0.67269881  0.58253171  0.17517656  1
  Ca2+  Ca10  1  0.67283379  0.59230064  0.50530322  1
  Ca2+  Ca11  1  0.66983448  0.58520331  0.83104275  1
  Ca2+  Ca12  1  0.08216071  0.32449608  0.15712171  1
  Ca2+  Ca13  1  0.08411111  0.32126485  0.49737136  1
  Ca2+  Ca14  1  0.08326387  0.32743040  0.83498885  1
  Ca2+  Ca15  1  0.07450894  0.83210154  0.16754995  1
  Ca2+  Ca16  1  0.07140053  0.82960204  0.48997992  1
  Ca2+  Ca17  1  0.06733259  0.83733359  0.82803157  1
  Ca2+  Ca18  1  0.57209273  0.32937624  0.15838890  1
  Ca2+  Ca19  1  0.57315188  0.33519500  0.49838538  1
  Ca2+  Ca20  1  0.57652327  0.32449195  0.82528055  1
  Ca2+  Ca21  1  0.58679190  0.82840323  0.16513742  1
  Ca2+  Ca22  1  0.58498458  0.82404914  0.49703246  1
  Ca2+  Ca23  1  0.59051341  0.83112085  0.82632556  1
  Ca2+  Ca24  1  0.32969706  0.40814593  0.16853548  1
  Ca2+  Ca25  1  0.33697138  0.41835475  0.50693781  1
  Ca2+  Ca26  1  0.33504445  0.41452016  0.83639224  1
  Ca2+  Ca27  1  0.32624418  0.91937249  0.17915464  1
  Ca2+  Ca28  1  0.32431007  0.90637102  0.50033882  1
  Ca2+  Ca29  1  0.33074094  0.92147438  0.83974074  1
  Ca2+  Ca30  1  0.83654423  0.42110948  0.17387011  1
  Ca2+  Ca31  1  0.83462531  0.43312754  0.50579857  1
  Ca2+  Ca32  1  0.84051181  0.42325228  0.83834434  1
  Ca2+  Ca33  1  0.83383647  0.91149690  0.16719411  1
  Ca2+  Ca34  1  0.83175950  0.91643107  0.51014217  1
  Ca2+  Ca35  1  0.82603404  0.91843696  0.83293564  1
  Ca2+  Ca36  1  0.41861869  0.17693996  0.16001435  1
  Ca2+  Ca37  1  0.42068765  0.17630665  0.49924985  1
  Ca2+  Ca38  1  0.42613878  0.17505768  0.82971512  1
  Ca2+  Ca39  1  0.41936626  0.67286544  0.17034012  1
  Ca2+  Ca40  1  0.42789886  0.66626882  0.49456126  1
  Ca2+  Ca41  1  0.42311984  0.66529155  0.82364510  1
  Ca2+  Ca42  1  0.92838858  0.17039972  0.15898472  1
  Ca2+  Ca43  1  0.92508450  0.15771192  0.49862657  1
  Ca2+  Ca44  1  0.92581872  0.16392596  0.82778061  1
  Ca2+  Ca45  1  0.91619411  0.67380308  0.16784051  1
  Ca2+  Ca46  1  0.91226117  0.67579316  0.49335077  1
  Ca2+  Ca47  1  0.91015307  0.67758351  0.82729253  1
  Al0+  Al48  1  -0.00126263  -0.00165666  -0.00700170  1
  Al0+  Al49  1  0.00048597  -0.00070908  0.32925572  1
  Al0+  Al50  1  -0.00173733  -0.00087721  0.66287721  1
  Al0+  Al51  1  0.00411924  0.50091936  0.00251963  1
  Al0+  Al52  1  -0.00043865  0.49981374  0.33901496  1
  Al0+  Al53  1  0.00188866  0.49954035  0.67292409  1
  Al0+  Al54  1  0.49916719  -0.00158943  0.00473605  1
  Al0+  Al55  1  0.49914365  0.00143309  0.33460085  1
  Al0+  Al56  1  0.49650864  0.00022820  0.66637904  1
  Al0+  Al57  1  0.50164441  0.50314868  -0.00108948  1
  Al0+  Al58  1  0.49910377  0.49868342  0.32397263  1
  Al0+  Al59  1  0.50040984  0.50215022  0.66406214  1
  Al0+  Al60  1  0.25089028  0.25146692  -0.00236734  1
  Al0+  Al61  1  0.25047133  0.24859103  0.32825486  1
  Al0+  Al62  1  0.24840968  0.24860243  0.65934758  1
  Al0+  Al63  1  0.25119760  0.75024910  0.00163099  1
  Al0+  Al64  1  0.24930902  0.74868084  0.33104350  1
  Al0+  Al65  1  0.24835420  0.74868337  0.67631680  1
  Al0+  Al66  1  0.75124106  0.25036391  -0.00447485  1
  Al0+  Al67  1  0.74911200  0.24971746  0.33710509  1
  Al0+  Al68  1  0.75250146  0.25096453  0.66575921  1
  Al0+  Al69  1  0.75014355  0.75095410  0.00140634  1
  Al0+  Al70  1  0.74975982  0.74995669  0.32926864  1
  Al0+  Al71  1  0.74931302  0.75069547  0.66704677  1
  Al0+  Al72  1  0.32206998  0.57034415  0.67954872  1
  Al0+  Al73  1  0.81971263  0.57063656  0.34719977  1
  Al0+  Al74  1  0.82301748  0.07277179  0.68187214  1
  Al0+  Al75  1  0.17912250  0.92884579  0.34697292  1
  Al0+  Al76  1  0.56950433  0.68193282  0.65439493  1
  Al0+  Al77  1  0.07222564  0.67588883  0.32018524  1
  Al0+  Al78  1  0.92850781  0.82115248  0.31742963  1
  Al0+  Al79  1  0.43053802  0.32054922  0.65113681  1
  Al0+  Al80  1  0.43013050  0.32290943  0.98341127  1
  Al0+  Al81  1  0.67724102  0.93062518  0.68049264  1
  Al0+  Al82  1  0.07021527  0.17863064  0.98416519  1
  Al0+  Al83  1  0.92896236  0.81787457  0.98354843  1
  Al0+  Al84  1  0.67954204  0.92990318  0.01660808  1
  Al0+  Al85  1  0.06810091  0.18025237  0.65081404  1
  Al0+  Al86  1  0.18244048  0.43035050  0.01514794  1
  Al0+  Al87  1  0.92852872  0.32475423  0.98641229  1
  Al0+  Al88  1  0.92996171  0.81779085  0.65248818  1
  Al0+  Al89  1  0.57409574  0.17579822  0.65097539  1
  Al0+  Al90  1  0.43003480  0.31974954  0.31781903  1
  Al0+  Al91  1  0.42808120  0.82253647  0.31994036  1
  Al0+  Al92  1  0.57158072  0.67977325  0.31643777  1
  Al0+  Al93  1  0.57163424  0.17617718  0.98645102  1
  Al0+  Al94  1  0.06884158  0.17987172  0.31919046  1
  Al0+  Al95  1  0.82113885  0.57108616  0.68156524  1
  Si0+  Si96  1  0.67799377  0.92950911  0.34832924  1
  Si0+  Si97  1  0.82090386  0.07126360  0.34656412  1
  Si0+  Si98  1  0.32535535  0.57442697  0.02031409  1
  Si0+  Si99  1  0.92759421  0.32705555  0.64891625  1
  Si0+  Si100  1  0.57470529  0.17748385  0.31767373  1
  Si0+  Si101  1  0.32117080  0.56949949  0.34737436  1
  Si0+  Si102  1  0.92682772  0.32255545  0.32061054  1
  Si0+  Si103  1  0.31872792  0.07215518  0.68148208  1
  Si0+  Si104  1  0.82069555  0.57047568  0.01543480  1
  Si0+  Si105  1  0.57109623  0.68149388  0.98387783  1
  Si0+  Si106  1  0.42741662  0.82086463  0.98557923  1
  Si0+  Si107  1  0.31969505  0.06980866  0.01516539  1
  Si0+  Si108  1  0.17966177  0.42506611  0.68344154  1
  Si0+  Si109  1  0.17811699  0.92901327  0.68253449  1
  Si0+  Si110  1  0.32193718  0.07338554  0.35177788  1
  Si0+  Si111  1  0.82376879  0.07260749  0.01688336  1
  Si0+  Si112  1  0.42257411  0.82310126  0.65303277  1
  Si0+  Si113  1  0.67580677  0.42734424  0.34946240  1
  Si0+  Si114  1  0.17960523  0.42639582  0.34942002  1
  Si0+  Si115  1  0.07364442  0.67664499  0.65344164  1
  Si0+  Si116  1  0.67773041  0.42864993  0.68276348  1
  Si0+  Si117  1  0.07487395  0.67785771  0.98223185  1
  Si0+  Si118  1  0.17713795  0.92847043  0.01471813  1
  Si0+  Si119  1  0.67826392  0.42822670  0.01371157  1
  O2-  O120  1  0.24637851  0.00090455  0.05720999  1
  O2-  O121  1  0.25611232  0.00116753  0.39542743  1
  O2-  O122  1  0.25027220  -0.00119382  0.72497547  1
  O2-  O123  1  0.25745040  0.50460457  0.06373897  1
  O2-  O124  1  0.24946146  0.49919614  0.39060361  1
  O2-  O125  1  0.24870210  0.49448304  0.72618018  1
  O2-  O126  1  0.75237067  0.00709860  0.06294425  1
  O2-  O127  1  0.74840518  0.00160682  0.38854882  1
  O2-  O128  1  0.74386946  0.00779520  0.73104310  1
  O2-  O129  1  0.75424550  0.49431676  0.05653069  1
  O2-  O130  1  0.74397478  0.49636371  0.39376596  1
  O2-  O131  1  0.75068720  0.49238366  0.72871973  1
  O2-  O132  1  -0.00563947  0.25472904  0.27405488  1
  O2-  O133  1  -0.00856690  0.25359184  0.60476610  1
  O2-  O134  1  -0.00386198  0.24918841  0.93546087  1
  O2-  O135  1  0.00046432  0.74755690  0.26933105  1
  O2-  O136  1  0.00323648  0.74128835  0.60722066  1
  O2-  O137  1  0.00570172  0.74496649  0.93704306  1
  O2-  O138  1  0.50610838  0.24576720  0.27314442  1
  O2-  O139  1  0.50462845  0.25053882  0.60097912  1
  O2-  O140  1  0.50468108  0.25254042  0.93615239  1
  O2-  O141  1  0.50188427  0.75445523  0.26660428  1
  O2-  O142  1  0.49360589  0.75671181  0.61009255  1
  O2-  O143  1  0.49786816  0.75047645  0.94244523  1
  O2-  O144  1  0.06988692  0.17839218  0.09790679  1
  O2-  O145  1  0.06819558  0.17967991  0.43221272  1
  O2-  O146  1  0.07074006  0.18193688  0.76349167  1
  O2-  O147  1  0.07483771  0.67860894  0.08774391  1
  O2-  O148  1  0.07299791  0.67733819  0.43388998  1
  O2-  O149  1  0.07478128  0.68026280  0.75910793  1
  O2-  O150  1  0.56735058  0.17692440  0.10056832  1
  O2-  O151  1  0.57521884  0.17838608  0.42284537  1
  O2-  O152  1  0.56848697  0.17545153  0.76438935  1
  O2-  O153  1  0.57184971  0.68160551  0.08873827  1
  O2-  O154  1  0.57126965  0.68001808  0.42987524  1
  O2-  O155  1  0.56875380  0.68204915  0.76802677  1
  O2-  O156  1  0.18034790  0.42605580  0.24435925  1
  O2-  O157  1  0.17929499  0.42550309  0.57749429  1
  O2-  O158  1  0.18351450  0.43208271  0.90208207  1
  O2-  O159  1  0.17912772  0.93246550  0.23343504  1
  O2-  O160  1  0.17943511  0.92694578  0.57756962  1
  O2-  O161  1  0.18058101  0.92694033  0.90938325  1
  O2-  O162  1  0.67845008  0.42612480  0.24349528  1
  O2-  O163  1  0.67666611  0.43258758  0.57706393  1
  O2-  O164  1  0.67498451  0.43316002  0.90899187  1
  O2-  O165  1  0.67755741  0.93074957  0.24303631  1
  O2-  O166  1  0.68005211  0.92778357  0.56653461  1
  O2-  O167  1  0.67903397  0.92721278  0.90414740  1
  O2-  O168  1  0.43020378  0.31993047  0.09715047  1
  O2-  O169  1  0.42986447  0.32084854  0.43062002  1
  O2-  O170  1  0.43037613  0.31898425  0.76438543  1
  O2-  O171  1  0.42587351  0.81986124  0.09026332  1
  O2-  O172  1  0.42819434  0.81845855  0.43354243  1
  O2-  O173  1  0.42026926  0.82149596  0.75911668  1
  O2-  O174  1  0.93123845  0.32468847  0.10060955  1
  O2-  O175  1  0.92828708  0.32185410  0.42604836  1
  O2-  O176  1  0.93200148  0.33089267  0.75415432  1
  O2-  O177  1  0.92957363  0.81617395  0.09640173  1
  O2-  O178  1  0.92805713  0.82132253  0.43088608  1
  O2-  O179  1  0.93058051  0.81762656  0.76573372  1
  O2-  O180  1  0.32024132  0.07418511  0.24581994  1
  O2-  O181  1  0.31715780  0.07287980  0.57661614  1
  O2-  O182  1  0.32071465  0.06659300  0.90981846  1
  O2-  O183  1  0.32099801  0.56840158  0.24224083  1
  O2-  O184  1  0.32022172  0.57184904  0.56620220  1
  O2-  O185  1  0.32456130  0.57679068  0.91471733  1
  O2-  O186  1  0.81931995  0.07386442  0.24151718  1
  O2-  O187  1  0.82558439  0.06544090  0.56760598  1
  O2-  O188  1  0.82570402  0.06924585  0.91190952  1
  O2-  O189  1  0.81938485  0.56748828  0.23344353  1
  O2-  O190  1  0.81982151  0.57202171  0.56858390  1
  O2-  O191  1  0.81785205  0.57239331  0.91028137  1
  O2-  O192  1  0.03803266  0.08466415  0.26389817  1
  O2-  O193  1  0.03836134  0.08331501  0.59694708  1
  O2-  O194  1  0.04502868  0.07999969  0.93040237  1
  O2-  O195  1  0.04282185  0.57680707  0.26839145  1
  O2-  O196  1  0.05440212  0.58050808  0.61089687  1
  O2-  O197  1  0.05144117  0.58378689  0.93756294  1
  O2-  O198  1  0.54933824  0.08362160  0.27250021  1
  O2-  O199  1  0.54065069  0.07862066  0.59757642  1
  O2-  O200  1  0.53697815  0.07867900  0.93538950  1
  O2-  O201  1  0.54205803  0.58273200  0.26157046  1
  O2-  O202  1  0.53988890  0.58657800  0.59847819  1
  O2-  O203  1  0.54551995  0.58953750  0.93615730  1
  O2-  O204  1  0.16515867  0.20949622  0.26518250  1
  O2-  O205  1  0.16322978  0.21107573  0.59411190  1
  O2-  O206  1  0.16832035  0.20881788  0.93254854  1
  O2-  O207  1  0.16964578  0.70203183  0.26512027  1
  O2-  O208  1  0.16704113  0.70529891  0.60837681  1
  O2-  O209  1  0.16930412  0.70387604  0.93732234  1
  O2-  O210  1  0.66851841  0.20232038  0.27111510  1
  O2-  O211  1  0.67513756  0.19904481  0.60108660  1
  O2-  O212  1  0.67208939  0.19690414  0.93608845  1
  O2-  O213  1  0.66854631  0.70832658  0.26135637  1
  O2-  O214  1  0.66446187  0.71428071  0.59932336  1
  O2-  O215  1  0.66197443  0.71171589  0.93696250  1
  O2-  O216  1  0.08618578  0.46145959  0.07148745  1
  O2-  O217  1  0.08736126  0.45028355  0.39772223  1
  O2-  O218  1  0.08718790  0.45016640  0.73187763  1
  O2-  O219  1  0.08410494  0.95478055  0.05979608  1
  O2-  O220  1  0.08271693  0.96225170  0.40039553  1
  O2-  O221  1  0.08728150  0.96028326  0.72888000  1
  O2-  O222  1  0.58878523  0.46212450  0.06365692  1
  O2-  O223  1  0.58103186  0.45369730  0.39224656  1
  O2-  O224  1  0.58655376  0.46048231  0.73013541  1
  O2-  O225  1  0.58166426  0.95705524  0.07171041  1
  O2-  O226  1  0.58549441  0.95484030  0.39590369  1
  O2-  O227  1  0.57521673  0.95133504  0.73164163  1
  O2-  O228  1  0.21273861  0.33283937  0.06910198  1
  O2-  O229  1  0.21085810  0.33506870  0.39598193  1
  O2-  O230  1  0.20717812  0.33164353  0.72840776  1
  O2-  O231  1  0.20652517  0.83692762  0.06224187  1
  O2-  O232  1  0.20919839  0.83128159  0.40064086  1
  O2-  O233  1  0.20337840  0.83830913  0.73406658  1
  O2-  O234  1  0.69926214  0.33417936  0.06023779  1
  O2-  O235  1  0.69959547  0.33380207  0.39738078  1
  O2-  O236  1  0.69720295  0.33285632  0.72636452  1
  O2-  O237  1  0.71388094  0.83366981  0.07078484  1
  O2-  O238  1  0.70653855  0.83715695  0.39321548  1
  O2-  O239  1  0.71150093  0.83441301  0.73467315  1
  O2-  O240  1  0.45790806  0.41482017  0.26008560  1
  O2-  O241  1  0.45841525  0.41928629  0.59865063  1
  O2-  O242  1  0.45609012  0.42356338  0.93432528  1
  O2-  O243  1  0.45038865  0.92372422  0.26939000  1
  O2-  O244  1  0.44137150  0.91765317  0.60748795  1
  O2-  O245  1  0.45384379  0.91318766  0.93960095  1
  O2-  O246  1  0.95213179  0.41618229  0.27566665  1
  O2-  O247  1  0.95961351  0.41901412  0.60168626  1
  O2-  O248  1  0.96168470  0.42219544  0.93358455  1
  O2-  O249  1  0.95928117  0.91757012  0.26233154  1
  O2-  O250  1  0.96328325  0.91261388  0.59802791  1
  O2-  O251  1  0.95903688  0.91377178  0.92892745  1
  O2-  O252  1  0.33494261  0.28610777  0.26293211  1
  O2-  O253  1  0.33314123  0.29028463  0.59731783  1
  O2-  O254  1  0.33303271  0.29226264  0.93113115  1
  O2-  O255  1  0.33153944  0.79147663  0.26473432  1
  O2-  O256  1  0.32921447  0.79356992  0.60846278  1
  O2-  O257  1  0.33533487  0.79473983  0.93688757  1
  O2-  O258  1  0.83199994  0.29891788  0.27567859  1
  O2-  O259  1  0.83173284  0.31017216  0.60492163  1
  O2-  O260  1  0.82805300  0.30604511  0.93454700  1
  O2-  O261  1  0.83142992  0.79210833  0.26311074  1
  O2-  O262  1  0.83381147  0.78703772  0.59941917  1
  O2-  O263  1  0.83280467  0.78383115  0.93115987  1
  O2-  O264  1  0.40901197  0.03949879  0.06595831  1
  O2-  O265  1  0.41722106  0.05315062  0.39703158  1
  O2-  O266  1  0.41013989  0.04635808  0.73071217  1
  O2-  O267  1  0.42026462  0.55139641  0.06498974  1
  O2-  O268  1  0.41383732  0.53965128  0.39225777  1
  O2-  O269  1  0.41885421  0.54160436  0.73434917  1
  O2-  O270  1  0.91662452  0.04135197  0.06294954  1
  O2-  O271  1  0.91235616  0.04109354  0.39270728  1
  O2-  O272  1  0.91918597  0.03635121  0.73523790  1
  O2-  O273  1  0.91473281  0.54829416  0.06080418  1
  O2-  O274  1  0.91547136  0.54043753  0.40420872  1
  O2-  O275  1  0.91909405  0.54455881  0.73642349  1
  O2-  O276  1  0.29387413  0.16267014  0.06097672  1
  O2-  O277  1  0.29094408  0.16549563  0.39791007  1
  O2-  O278  1  0.28628878  0.16263818  0.72880898  1
  O2-  O279  1  0.29830064  0.66828461  0.06620443  1
  O2-  O280  1  0.29506691  0.66141143  0.39491091  1
  O2-  O281  1  0.29072268  0.66481912  0.73949753  1
  O2-  O282  1  0.80370021  0.16883833  0.06097958  1
  O2-  O283  1  0.79660280  0.16340168  0.39637767  1
  O2-  O284  1  0.80872232  0.17629395  0.72943084  1
  O2-  O285  1  0.78629065  0.65961335  0.06370786  1
  O2-  O286  1  0.78786246  0.66809620  0.39896036  1
  O2-  O287  1  0.78436591  0.66503857  0.73643236  1
