# generated using pymatgen
data_Ca2Al2SiO7
_symmetry_space_group_name_H-M   'P 1'
_cell_length_a   15.45888888
_cell_length_b   15.45939385
_cell_length_c   15.28416012
_cell_angle_alpha   90.00667035
_cell_angle_beta   89.98680503
_cell_angle_gamma   89.99998104
_symmetry_Int_Tables_number   1
_chemical_formula_structural   Ca2Al2SiO7
_chemical_formula_sum   'Ca48 Al48 Si24 O168'
_cell_volume   3652.68567378
_cell_formula_units_Z   24
loop_
 _symmetry_equiv_pos_site_id
 _symmetry_equiv_pos_as_xyz
  1  'x, y, z'
loop_
 _atom_type_symbol
 _atom_type_oxidation_number
  Ca2+  2.0
  Al0+  0.0
  Si0+  0.0
  O2-  -2.0
loop_
 _atom_site_type_symbol
 _atom_site_label
 _atom_site_symmetry_multiplicity
 _atom_site_fract_x
 _atom_site_fract_y
 _atom_site_fract_z
 _atom_site_occupancy
  Ca2+  Ca0  1  0.17094663  0.07235055  0.17327603  1
  Ca2+  Ca1  1  0.16819607  0.07608304  0.49882219  1
  Ca2+  Ca2  1  0.16813939  0.07286731  0.84017914  1
  Ca2+  Ca3  1  0.17511492  0.58122083  0.16987097  1
  Ca2+  Ca4  1  0.17430687  0.59657796  0.49996465  1
  Ca2+  Ca5  1  0.17804626  0.58385392  0.83920906  1
  Ca2+  Ca6  1  0.65968371  0.07403303  0.17009105  1
  Ca2+  Ca7  1  0.67318028  0.07411882  0.50313466  1
  Ca2+  Ca8  1  0.66823183  0.07826767  0.83855738  1
  Ca2+  Ca9  1  0.68210611  0.58490219  0.17162021  1
  Ca2+  Ca10  1  0.67241307  0.59041505  0.50227593  1
  Ca2+  Ca11  1  0.67094673  0.58662666  0.83838770  1
  Ca2+  Ca12  1  0.07575415  0.34091273  0.16150050  1
  Ca2+  Ca13  1  0.07786682  0.32990740  0.49167492  1
  Ca2+  Ca14  1  0.08141148  0.33944510  0.83605169  1
  Ca2+  Ca15  1  0.08734270  0.83077573  0.16761168  1
  Ca2+  Ca16  1  0.07571323  0.82619927  0.49266782  1
  Ca2+  Ca17  1  0.08077898  0.82677673  0.82352830  1
  Ca2+  Ca18  1  0.57661017  0.32319549  0.15547888  1
  Ca2+  Ca19  1  0.57742570  0.33324520  0.49944437  1
  Ca2+  Ca20  1  0.57236210  0.33243935  0.83203063  1
  Ca2+  Ca21  1  0.57905608  0.84028333  0.16504846  1
  Ca2+  Ca22  1  0.57600363  0.83135556  0.49677274  1
  Ca2+  Ca23  1  0.57835685  0.82695749  0.82697204  1
  Ca2+  Ca24  1  0.33516498  0.42477834  0.16976397  1
  Ca2+  Ca25  1  0.33561664  0.42951367  0.50817938  1
  Ca2+  Ca26  1  0.33417874  0.42532375  0.84075491  1
  Ca2+  Ca27  1  0.32388615  0.91845131  0.17833505  1
  Ca2+  Ca28  1  0.33280217  0.91146996  0.49781671  1
  Ca2+  Ca29  1  0.32714818  0.91013356  0.83928920  1
  Ca2+  Ca30  1  0.84264379  0.42476912  0.17059207  1
  Ca2+  Ca31  1  0.83648273  0.42125605  0.49834003  1
  Ca2+  Ca32  1  0.83336500  0.42489036  0.84308922  1
  Ca2+  Ca33  1  0.82001526  0.91159064  0.17502194  1
  Ca2+  Ca34  1  0.83353121  0.91176553  0.50439703  1
  Ca2+  Ca35  1  0.83010025  0.91886607  0.83789082  1
  Ca2+  Ca36  1  0.41870103  0.16787936  0.15792880  1
  Ca2+  Ca37  1  0.41059549  0.17185134  0.49421605  1
  Ca2+  Ca38  1  0.41771697  0.17796424  0.83206327  1
  Ca2+  Ca39  1  0.40844695  0.66987918  0.16693842  1
  Ca2+  Ca40  1  0.41462357  0.67416195  0.49674836  1
  Ca2+  Ca41  1  0.41820898  0.66784600  0.82210889  1
  Ca2+  Ca42  1  0.91463748  0.18033714  0.16144299  1
  Ca2+  Ca43  1  0.91289553  0.17015648  0.49524347  1
  Ca2+  Ca44  1  0.91389655  0.17048010  0.83004891  1
  Ca2+  Ca45  1  0.91977289  0.66503462  0.16665267  1
  Ca2+  Ca46  1  0.92792098  0.67145476  0.48997832  1
  Ca2+  Ca47  1  0.92343095  0.67141689  0.82519017  1
  Al0+  Al48  1  -0.00187062  0.00096525  0.00522571  1
  Al0+  Al49  1  -0.00077667  0.00051567  0.33211469  1
  Al0+  Al50  1  -0.00012562  0.00217520  0.66876686  1
  Al0+  Al51  1  0.00240142  0.50179323  0.00050241  1
  Al0+  Al52  1  0.00050493  0.50022851  0.33103989  1
  Al0+  Al53  1  0.00056739  0.49852250  0.66281134  1
  Al0+  Al54  1  0.50021199  -0.00084445  -0.00385479  1
  Al0+  Al55  1  0.50085651  -0.00022765  0.33933900  1
  Al0+  Al56  1  0.50073878  0.00158887  0.66569684  1
  Al0+  Al57  1  0.50269676  0.50123872  0.00169766  1
  Al0+  Al58  1  0.50083252  0.49923054  0.33630511  1
  Al0+  Al59  1  0.50133740  0.49867979  0.66318354  1
  Al0+  Al60  1  0.24752342  0.25018152  -0.00188637  1
  Al0+  Al61  1  0.24920483  0.25011604  0.33436855  1
  Al0+  Al62  1  0.24849481  0.25000797  0.66356664  1
  Al0+  Al63  1  0.24882459  0.74947262  0.00648069  1
  Al0+  Al64  1  0.24994102  0.74995395  0.33239113  1
  Al0+  Al65  1  0.25027349  0.74978967  0.66533801  1
  Al0+  Al66  1  0.75033326  0.25013479  -0.00985595  1
  Al0+  Al67  1  0.74815728  0.25008604  0.32838306  1
  Al0+  Al68  1  0.74922005  0.24931575  0.67129558  1
  Al0+  Al69  1  0.74993164  0.75170574  0.00715967  1
  Al0+  Al70  1  0.75026404  0.74844480  0.34018899  1
  Al0+  Al71  1  0.74894454  0.75053525  0.66332267  1
  Al0+  Al72  1  0.82106868  0.57083744  0.01208565  1
  Al0+  Al73  1  0.32153303  0.07157302  0.34813409  1
  Al0+  Al74  1  0.32495312  0.57091753  0.01540296  1
  Al0+  Al75  1  0.07186712  0.67998518  0.31411767  1
  Al0+  Al76  1  0.93133380  0.32297752  0.98389386  1
  Al0+  Al77  1  0.42840575  0.31933386  0.65163872  1
  Al0+  Al78  1  0.42687645  0.32335628  0.98582237  1
  Al0+  Al79  1  0.57202198  0.67721429  0.65200719  1
  Al0+  Al80  1  0.92956905  0.82323373  0.65416052  1
  Al0+  Al81  1  0.32186892  0.56968956  0.34954594  1
  Al0+  Al82  1  0.17966518  0.42831452  0.01431344  1
  Al0+  Al83  1  0.57040955  0.17577428  0.98278946  1
  Al0+  Al84  1  0.17713886  0.92840250  0.01320500  1
  Al0+  Al85  1  0.17704784  0.92838388  0.35102776  1
  Al0+  Al86  1  0.67940578  0.92820735  0.34969392  1
  Al0+  Al87  1  0.92672235  0.82219979  0.31638406  1
  Al0+  Al88  1  0.92916871  0.31903861  0.31979490  1
  Al0+  Al89  1  0.82192828  0.56883210  0.34925856  1
  Al0+  Al90  1  0.67909316  0.93088296  0.01305855  1
  Al0+  Al91  1  0.42822697  0.82276800  0.65249262  1
  Al0+  Al92  1  0.31998032  0.57060158  0.67974286  1
  Al0+  Al93  1  0.43202163  0.82034168  0.31843834  1
  Al0+  Al94  1  0.07086558  0.67705854  0.65229682  1
  Al0+  Al95  1  0.82139588  0.07089349  0.68126586  1
  Si0+  Si96  1  0.07051122  0.17875769  0.65174343  1
  Si0+  Si97  1  0.92665076  0.82144009  0.98678645  1
  Si0+  Si98  1  0.82011202  0.07419890  0.34685268  1
  Si0+  Si99  1  0.32113905  0.07101924  0.01273400  1
  Si0+  Si100  1  0.57431093  0.68078311  0.98850606  1
  Si0+  Si101  1  0.17668699  0.42481780  0.68261203  1
  Si0+  Si102  1  0.07133782  0.68150444  0.98439838  1
  Si0+  Si103  1  0.42785491  0.32216903  0.31862271  1
  Si0+  Si104  1  0.67976833  0.42801089  0.68284369  1
  Si0+  Si105  1  0.92725202  0.32028790  0.65196471  1
  Si0+  Si106  1  0.67841176  0.42561558  0.34990131  1
  Si0+  Si107  1  0.32168372  0.07459311  0.68278219  1
  Si0+  Si108  1  0.56934227  0.17976249  0.31957840  1
  Si0+  Si109  1  0.82188571  0.57026809  0.68054586  1
  Si0+  Si110  1  0.07031217  0.17528635  0.98236180  1
  Si0+  Si111  1  0.18091460  0.93092207  0.68118158  1
  Si0+  Si112  1  0.17799627  0.42821879  0.35088349  1
  Si0+  Si113  1  0.82139140  0.07450034  0.01771002  1
  Si0+  Si114  1  0.67896663  0.42637722  0.01542110  1
  Si0+  Si115  1  0.67754574  0.92745562  0.68471859  1
  Si0+  Si116  1  0.42763415  0.81841334  0.98715615  1
  Si0+  Si117  1  0.07391086  0.17756360  0.31516255  1
  Si0+  Si118  1  0.57313887  0.17918074  0.64822714  1
  Si0+  Si119  1  0.57248480  0.67575711  0.31525890  1
  O2-  O120  1  0.25220072  0.00367011  0.05751094  1
  O2-  O121  1  0.25030163  0.00008334  0.40047892  1
  O2-  O122  1  0.25551511  -0.00138968  0.72455560  1
  O2-  O123  1  0.25693192  0.49426764  0.06405316  1
  O2-  O124  1  0.24719522  0.49485636  0.39650969  1
  O2-  O125  1  0.24460008  0.49529333  0.72472745  1
  O2-  O126  1  0.75103511  0.00773941  0.06120203  1
  O2-  O127  1  0.75973371  -0.00070688  0.39298539  1
  O2-  O128  1  0.74851522  -0.00548005  0.72806038  1
  O2-  O129  1  0.74947242  0.49281814  0.05948516  1
  O2-  O130  1  0.74573817  0.49486511  0.39540045  1
  O2-  O131  1  0.74991714  0.50080342  0.72411047  1
  O2-  O132  1  0.00387617  0.24521197  0.27186552  1
  O2-  O133  1  -0.00092326  0.25004758  0.61032482  1
  O2-  O134  1  0.00396192  0.24604865  0.93670773  1
  O2-  O135  1  -0.00024595  0.75258371  0.26403914  1
  O2-  O136  1  -0.00284132  0.74793861  0.60382032  1
  O2-  O137  1  0.00062031  0.75397589  0.94347398  1
  O2-  O138  1  0.49618873  0.24855613  0.27716723  1
  O2-  O139  1  0.50058199  0.24280003  0.60270139  1
  O2-  O140  1  0.49900788  0.25051092  0.93587084  1
  O2-  O141  1  0.50493287  0.74462096  0.26932721  1
  O2-  O142  1  0.49965579  0.74951437  0.60349730  1
  O2-  O143  1  0.49745348  0.74563393  0.94608146  1
  O2-  O144  1  0.06756671  0.17277407  0.08745450  1
  O2-  O145  1  0.07414592  0.17991229  0.42133831  1
  O2-  O146  1  0.07129651  0.17757198  0.75670008  1
  O2-  O147  1  0.07201686  0.68144018  0.08887687  1
  O2-  O148  1  0.06975046  0.68000909  0.42777231  1
  O2-  O149  1  0.07001246  0.67837108  0.76683937  1
  O2-  O150  1  0.56769081  0.17532771  0.09703969  1
  O2-  O151  1  0.57230021  0.18344909  0.42460390  1
  O2-  O152  1  0.57306601  0.18148336  0.75354372  1
  O2-  O153  1  0.57816862  0.68380528  0.09307394  1
  O2-  O154  1  0.57023035  0.67553643  0.42074664  1
  O2-  O155  1  0.57333203  0.67875336  0.76662246  1
  O2-  O156  1  0.17999729  0.42711606  0.24545179  1
  O2-  O157  1  0.17637599  0.41935483  0.57738978  1
  O2-  O158  1  0.17786722  0.43398407  0.90041294  1
  O2-  O159  1  0.17978358  0.93148595  0.23712405  1
  O2-  O160  1  0.17871781  0.93409902  0.57689682  1
  O2-  O161  1  0.17885889  0.92749446  0.89919194  1
  O2-  O162  1  0.67821762  0.42436635  0.24450132  1
  O2-  O163  1  0.68268471  0.42339679  0.57786142  1
  O2-  O164  1  0.67852828  0.42986372  0.90944632  1
  O2-  O165  1  0.67664190  0.93264204  0.23632610  1
  O2-  O166  1  0.67674440  0.92983066  0.57942491  1
  O2-  O167  1  0.68185571  0.92832850  0.89998624  1
  O2-  O168  1  0.42997428  0.32074298  0.09985285  1
  O2-  O169  1  0.42971799  0.32196916  0.42382912  1
  O2-  O170  1  0.42970544  0.31899618  0.76445879  1
  O2-  O171  1  0.42854729  0.82059268  0.09194280  1
  O2-  O172  1  0.43376025  0.81983173  0.43118814  1
  O2-  O173  1  0.42825965  0.82160095  0.76716790  1
  O2-  O174  1  0.93196166  0.32175078  0.09678570  1
  O2-  O175  1  0.92894232  0.31591361  0.43367643  1
  O2-  O176  1  0.92813153  0.32155293  0.75686872  1
  O2-  O177  1  0.92455973  0.81897112  0.09114489  1
  O2-  O178  1  0.92804477  0.82006581  0.43004933  1
  O2-  O179  1  0.93211216  0.82228233  0.76885218  1
  O2-  O180  1  0.32098281  0.07213440  0.23409898  1
  O2-  O181  1  0.31761046  0.07841136  0.57830323  1
  O2-  O182  1  0.31976807  0.06851912  0.90658559  1
  O2-  O183  1  0.32356437  0.56593265  0.23665391  1
  O2-  O184  1  0.31905439  0.56972046  0.56693729  1
  O2-  O185  1  0.32312298  0.57475796  0.90148412  1
  O2-  O186  1  0.81374087  0.07913777  0.24165856  1
  O2-  O187  1  0.81856173  0.07480992  0.56824769  1
  O2-  O188  1  0.82346959  0.07098233  0.91187439  1
  O2-  O189  1  0.82101843  0.56659927  0.23592355  1
  O2-  O190  1  0.82234628  0.56626784  0.57584338  1
  O2-  O191  1  0.81861850  0.57202799  0.89822285  1
  O2-  O192  1  0.05025542  0.08381405  0.26982808  1
  O2-  O193  1  0.04141193  0.08849000  0.60280022  1
  O2-  O194  1  0.04127172  0.08235799  0.93464572  1
  O2-  O195  1  0.04203314  0.58102431  0.26315419  1
  O2-  O196  1  0.04525808  0.57819120  0.59856617  1
  O2-  O197  1  0.04251846  0.59075910  0.93629776  1
  O2-  O198  1  0.54254726  0.08749989  0.27368617  1
  O2-  O199  1  0.55300546  0.08380138  0.60442297  1
  O2-  O200  1  0.54068732  0.07880718  0.92645227  1
  O2-  O201  1  0.54818635  0.58087683  0.27046524  1
  O2-  O202  1  0.54951574  0.57809451  0.59883807  1
  O2-  O203  1  0.55463194  0.58647423  0.94247148  1
  O2-  O204  1  0.16696177  0.20440393  0.26833194  1
  O2-  O205  1  0.16098378  0.20628773  0.60188645  1
  O2-  O206  1  0.16469020  0.19712859  0.93582604  1
  O2-  O207  1  0.17038860  0.70776696  0.26158301  1
  O2-  O208  1  0.16779604  0.70853489  0.60056143  1
  O2-  O209  1  0.16338202  0.71080431  0.93737230  1
  O2-  O210  1  0.65868026  0.20941029  0.26824751  1
  O2-  O211  1  0.66526238  0.21085686  0.60227243  1
  O2-  O212  1  0.66882906  0.20197808  0.92885453  1
  O2-  O213  1  0.66747989  0.70084742  0.27304758  1
  O2-  O214  1  0.66957121  0.70586944  0.59760723  1
  O2-  O215  1  0.66338200  0.71457495  0.93831111  1
  O2-  O216  1  0.08389359  0.46258351  0.06861858  1
  O2-  O217  1  0.08413176  0.45293939  0.39630854  1
  O2-  O218  1  0.08158776  0.44917090  0.72731643  1
  O2-  O219  1  0.08114227  0.95856192  0.06807990  1
  O2-  O220  1  0.07819843  0.95915531  0.40281584  1
  O2-  O221  1  0.09098492  0.96318944  0.73040649  1
  O2-  O222  1  0.58670326  0.45171089  0.06361615  1
  O2-  O223  1  0.58506127  0.44990084  0.39734470  1
  O2-  O224  1  0.58790241  0.45515729  0.72993325  1
  O2-  O225  1  0.58104270  0.96021326  0.06580738  1
  O2-  O226  1  0.58679081  0.96526619  0.40639959  1
  O2-  O227  1  0.58438450  0.95593532  0.73132312  1
  O2-  O228  1  0.19669153  0.32603728  0.06440681  1
  O2-  O229  1  0.20084749  0.33348751  0.39636584  1
  O2-  O230  1  0.20225168  0.33150213  0.73019068  1
  O2-  O231  1  0.20906549  0.83430632  0.06916331  1
  O2-  O232  1  0.20668818  0.83024799  0.40173229  1
  O2-  O233  1  0.20649543  0.83861544  0.72890949  1
  O2-  O234  1  0.70233087  0.33069275  0.05762761  1
  O2-  O235  1  0.70612682  0.33273675  0.39711499  1
  O2-  O236  1  0.70908792  0.33804970  0.73312802  1
  O2-  O237  1  0.71126163  0.83701452  0.07071478  1
  O2-  O238  1  0.70484727  0.83114498  0.40415601  1
  O2-  O239  1  0.70107436  0.83281428  0.73015626  1
  O2-  O240  1  0.45930150  0.41265685  0.27126298  1
  O2-  O241  1  0.46368106  0.41341955  0.59652588  1
  O2-  O242  1  0.45893323  0.42179340  0.93340724  1
  O2-  O243  1  0.46411035  0.91832365  0.26703936  1
  O2-  O244  1  0.45502765  0.92241004  0.60095968  1
  O2-  O245  1  0.45512543  0.90941071  0.93800772  1
  O2-  O246  1  0.96088074  0.41474083  0.26614982  1
  O2-  O247  1  0.95367989  0.41139594  0.60281121  1
  O2-  O248  1  0.96448006  0.41920274  0.92930178  1
  O2-  O249  1  0.94834406  0.92384973  0.26625649  1
  O2-  O250  1  0.95930231  0.92145726  0.60215526  1
  O2-  O251  1  0.95061682  0.91594158  0.94262163  1
  O2-  O252  1  0.33478052  0.29738070  0.27291823  1
  O2-  O253  1  0.33130120  0.29001950  0.59768199  1
  O2-  O254  1  0.32806302  0.29605252  0.93244200  1
  O2-  O255  1  0.33474087  0.79115702  0.26564698  1
  O2-  O256  1  0.33030257  0.79532076  0.59985334  1
  O2-  O257  1  0.33517744  0.79113066  0.94022020  1
  O2-  O258  1  0.83267489  0.28921702  0.26431127  1
  O2-  O259  1  0.83562803  0.29042072  0.60574968  1
  O2-  O260  1  0.83452512  0.29536049  0.92825014  1
  O2-  O261  1  0.82699520  0.79065413  0.26732976  1
  O2-  O262  1  0.82937583  0.80099449  0.60448614  1
  O2-  O263  1  0.83601002  0.79034926  0.93846624  1
  O2-  O264  1  0.41476900  0.04528481  0.05753917  1
  O2-  O265  1  0.41920924  0.04602544  0.40331872  1
  O2-  O266  1  0.41638621  0.05308865  0.72715315  1
  O2-  O267  1  0.42513562  0.54914177  0.06807843  1
  O2-  O268  1  0.41875302  0.53827156  0.40320258  1
  O2-  O269  1  0.41828545  0.53896522  0.73064342  1
  O2-  O270  1  0.91404721  0.05019228  0.06541333  1
  O2-  O271  1  0.91701973  0.05887699  0.38927622  1
  O2-  O272  1  0.91882294  0.04443789  0.73696963  1
  O2-  O273  1  0.91754448  0.54134807  0.06509987  1
  O2-  O274  1  0.91759629  0.53439362  0.40276289  1
  O2-  O275  1  0.91357498  0.54028527  0.72783341  1
  O2-  O276  1  0.29787511  0.16525584  0.05774873  1
  O2-  O277  1  0.29194344  0.17051529  0.40146268  1
  O2-  O278  1  0.28774197  0.16397788  0.73174518  1
  O2-  O279  1  0.28995513  0.66637943  0.06989252  1
  O2-  O280  1  0.29072434  0.66685778  0.40047068  1
  O2-  O281  1  0.29034609  0.66772322  0.73461928  1
  O2-  O282  1  0.79733054  0.17031761  0.05931164  1
  O2-  O283  1  0.78673409  0.16490789  0.39584289  1
  O2-  O284  1  0.78878047  0.16663497  0.73743614  1
  O2-  O285  1  0.78721204  0.66450917  0.06898072  1
  O2-  O286  1  0.79139461  0.66388288  0.40523842  1
  O2-  O287  1  0.79551171  0.66333580  0.72640005  1
