# generated using pymatgen
data_Ca2Al2SiO7
_symmetry_space_group_name_H-M   'P 1'
_cell_length_a   15.45493410
_cell_length_b   15.45458438
_cell_length_c   15.28072615
_cell_angle_alpha   90.00855181
_cell_angle_beta   90.01047269
_cell_angle_gamma   90.00543110
_symmetry_Int_Tables_number   1
_chemical_formula_structural   Ca2Al2SiO7
_chemical_formula_sum   'Ca48 Al48 Si24 O168'
_cell_volume   3649.79495289
_cell_formula_units_Z   24
loop_
 _symmetry_equiv_pos_site_id
 _symmetry_equiv_pos_as_xyz
  1  'x, y, z'
loop_
 _atom_type_symbol
 _atom_type_oxidation_number
  Ca2+  2.0
  Al0+  0.0
  Si0+  0.0
  O2-  -2.0
loop_
 _atom_site_type_symbol
 _atom_site_label
 _atom_site_symmetry_multiplicity
 _atom_site_fract_x
 _atom_site_fract_y
 _atom_site_fract_z
 _atom_site_occupancy
  Ca2+  Ca0  1  0.17233432  0.07457362  0.17361181  1
  Ca2+  Ca1  1  0.15840798  0.07221918  0.50150687  1
  Ca2+  Ca2  1  0.17111554  0.07007502  0.83936272  1
  Ca2+  Ca3  1  0.16064609  0.57372365  0.17006015  1
  Ca2+  Ca4  1  0.17369581  0.58141623  0.50752383  1
  Ca2+  Ca5  1  0.16794542  0.58532168  0.83726263  1
  Ca2+  Ca6  1  0.66894777  0.07433842  0.17608195  1
  Ca2+  Ca7  1  0.67239785  0.08259948  0.49934055  1
  Ca2+  Ca8  1  0.67464775  0.07845037  0.83815377  1
  Ca2+  Ca9  1  0.65860358  0.57361611  0.17229219  1
  Ca2+  Ca10  1  0.65647459  0.58148517  0.50295575  1
  Ca2+  Ca11  1  0.66537161  0.57990510  0.83660788  1
  Ca2+  Ca12  1  0.09084191  0.32841646  0.16336537  1
  Ca2+  Ca13  1  0.07773330  0.32769421  0.49138428  1
  Ca2+  Ca14  1  0.07911806  0.33320555  0.82700049  1
  Ca2+  Ca15  1  0.08714992  0.83088199  0.15988230  1
  Ca2+  Ca16  1  0.08462495  0.83583957  0.49879673  1
  Ca2+  Ca17  1  0.08729172  0.82735449  0.82612560  1
  Ca2+  Ca18  1  0.59191499  0.32830368  0.16599227  1
  Ca2+  Ca19  1  0.57796764  0.33074504  0.49299343  1
  Ca2+  Ca20  1  0.57796360  0.33370648  0.82577314  1
  Ca2+  Ca21  1  0.57456403  0.84276599  0.16215145  1
  Ca2+  Ca22  1  0.57918306  0.82316586  0.48699232  1
  Ca2+  Ca23  1  0.57791097  0.83318362  0.82977947  1
  Ca2+  Ca24  1  0.32188670  0.41865855  0.17159192  1
  Ca2+  Ca25  1  0.33134099  0.42004411  0.50635183  1
  Ca2+  Ca26  1  0.33198014  0.42371488  0.83601823  1
  Ca2+  Ca27  1  0.32795665  0.91133281  0.16886280  1
  Ca2+  Ca28  1  0.32363120  0.90820295  0.50128646  1
  Ca2+  Ca29  1  0.32530701  0.91671762  0.84156033  1
  Ca2+  Ca30  1  0.82381346  0.41991783  0.17161740  1
  Ca2+  Ca31  1  0.82738791  0.41340800  0.50188346  1
  Ca2+  Ca32  1  0.82963214  0.41686923  0.83841719  1
  Ca2+  Ca33  1  0.81994172  0.91811422  0.17556109  1
  Ca2+  Ca34  1  0.83549367  0.92785327  0.50524390  1
  Ca2+  Ca35  1  0.83184318  0.91624875  0.83305354  1
  Ca2+  Ca36  1  0.42202149  0.16002845  0.16323752  1
  Ca2+  Ca37  1  0.41987224  0.17363273  0.49333727  1
  Ca2+  Ca38  1  0.41313522  0.17207210  0.83111788  1
  Ca2+  Ca39  1  0.41989908  0.67956269  0.16708491  1
  Ca2+  Ca40  1  0.42277790  0.66776919  0.49611402  1
  Ca2+  Ca41  1  0.41934972  0.66989423  0.82748793  1
  Ca2+  Ca42  1  0.92058849  0.16094618  0.17097444  1
  Ca2+  Ca43  1  0.91547478  0.16565640  0.49512824  1
  Ca2+  Ca44  1  0.91541445  0.17217342  0.82455759  1
  Ca2+  Ca45  1  0.92316010  0.66776386  0.16082934  1
  Ca2+  Ca46  1  0.92155308  0.67438415  0.50118550  1
  Ca2+  Ca47  1  0.93012980  0.67336858  0.82521890  1
  Al0+  Al48  1  0.00071318  0.00106775  0.00111259  1
  Al0+  Al49  1  0.00041202  0.00084670  0.33414527  1
  Al0+  Al50  1  -0.00099543  0.00030488  0.67538870  1
  Al0+  Al51  1  -0.00024094  0.50008801  -0.00089281  1
  Al0+  Al52  1  -0.00168043  0.49930602  0.33802932  1
  Al0+  Al53  1  -0.00219841  0.49940933  0.65763086  1
  Al0+  Al54  1  0.50195319  0.00120563  -0.00239163  1
  Al0+  Al55  1  0.49896825  0.00157302  0.33109268  1
  Al0+  Al56  1  0.49987984  0.00024728  0.66631198  1
  Al0+  Al57  1  0.49945368  0.49914942  0.00525290  1
  Al0+  Al58  1  0.49848759  0.50126877  0.33205751  1
  Al0+  Al59  1  0.49715886  0.49899456  0.66453992  1
  Al0+  Al60  1  0.25144201  0.25004670  0.00462889  1
  Al0+  Al61  1  0.24755756  0.24986195  0.33369707  1
  Al0+  Al62  1  0.24960354  0.24961431  0.66171370  1
  Al0+  Al63  1  0.25235189  0.74970337  -0.00469376  1
  Al0+  Al64  1  0.25041929  0.74888322  0.33295601  1
  Al0+  Al65  1  0.25166774  0.74739532  0.67184587  1
  Al0+  Al66  1  0.75078883  0.25040640  0.00257451  1
  Al0+  Al67  1  0.74926694  0.25292315  0.33579724  1
  Al0+  Al68  1  0.75022171  0.24859757  0.66777842  1
  Al0+  Al69  1  0.75126769  0.74951597  0.00299906  1
  Al0+  Al70  1  0.75115652  0.74744477  0.33137498  1
  Al0+  Al71  1  0.75098616  0.74839619  0.65996094  1
  Al0+  Al72  1  0.42849950  0.31995425  0.65386113  1
  Al0+  Al73  1  0.18092669  0.92967423  0.68141814  1
  Al0+  Al74  1  0.57330369  0.67792530  0.31587801  1
  Al0+  Al75  1  0.67545031  0.92691195  0.34924589  1
  Al0+  Al76  1  0.92716658  0.32081311  0.65272468  1
  Al0+  Al77  1  0.17947675  0.92705183  0.01567956  1
  Al0+  Al78  1  0.43156945  0.82206614  0.98357516  1
  Al0+  Al79  1  0.32085328  0.56824569  0.68129064  1
  Al0+  Al80  1  0.32145680  0.07172695  0.01480279  1
  Al0+  Al81  1  0.57100023  0.18172353  0.31953111  1
  Al0+  Al82  1  0.67855601  0.43199554  0.34894955  1
  Al0+  Al83  1  0.17750858  0.42715958  0.34905880  1
  Al0+  Al84  1  0.67829022  0.42928702  0.01246825  1
  Al0+  Al85  1  0.81936781  0.07080155  0.68240770  1
  Al0+  Al86  1  0.82001124  0.06957462  0.34826899  1
  Al0+  Al87  1  0.07035337  0.67885556  0.98696072  1
  Al0+  Al88  1  0.68112620  0.92881408  0.01155464  1
  Al0+  Al89  1  0.57019706  0.67963142  0.65495485  1
  Al0+  Al90  1  0.42849673  0.82140345  0.31846767  1
  Al0+  Al91  1  0.17825547  0.43080554  0.01136915  1
  Al0+  Al92  1  0.18072098  0.92846212  0.34702567  1
  Al0+  Al93  1  0.07423247  0.67946311  0.64961929  1
  Al0+  Al94  1  0.06990181  0.17873174  0.31871300  1
  Al0+  Al95  1  0.93040790  0.82305804  0.65150687  1
  Si0+  Si96  1  0.82412053  0.57290934  0.35278311  1
  Si0+  Si97  1  0.07035557  0.67831609  0.31896365  1
  Si0+  Si98  1  0.42846405  0.32163449  0.98612713  1
  Si0+  Si99  1  0.42823756  0.82347627  0.65116885  1
  Si0+  Si100  1  0.82227046  0.57102942  0.01509620  1
  Si0+  Si101  1  0.32245633  0.07320940  0.35107208  1
  Si0+  Si102  1  0.82271106  0.07418541  0.01753529  1
  Si0+  Si103  1  0.82221325  0.57214305  0.68121398  1
  Si0+  Si104  1  0.32330364  0.57263820  0.01831903  1
  Si0+  Si105  1  0.57252841  0.67581869  0.98394913  1
  Si0+  Si106  1  0.07102294  0.17831148  0.65180368  1
  Si0+  Si107  1  0.67729804  0.92508518  0.68178596  1
  Si0+  Si108  1  0.67939893  0.43026573  0.68081113  1
  Si0+  Si109  1  0.92917237  0.31937181  0.98598081  1
  Si0+  Si110  1  0.57256066  0.17738429  0.65112400  1
  Si0+  Si111  1  0.57293661  0.18051660  0.98374676  1
  Si0+  Si112  1  0.07325604  0.17900314  0.98465350  1
  Si0+  Si113  1  0.32443170  0.07465088  0.68193101  1
  Si0+  Si114  1  0.92646182  0.82340443  0.98446167  1
  Si0+  Si115  1  0.42640635  0.32267363  0.31462754  1
  Si0+  Si116  1  0.31919459  0.57058075  0.34991235  1
  Si0+  Si117  1  0.92809504  0.32328569  0.31432265  1
  Si0+  Si118  1  0.17561420  0.42699883  0.68130123  1
  Si0+  Si119  1  0.93039616  0.82212489  0.31775962  1
  O2-  O120  1  0.25114111  -0.00100545  0.06608951  1
  O2-  O121  1  0.25560325  0.00253486  0.39497350  1
  O2-  O122  1  0.25801349  0.00368963  0.72554227  1
  O2-  O123  1  0.25068017  0.50662285  0.06033308  1
  O2-  O124  1  0.25295004  0.50009389  0.39523648  1
  O2-  O125  1  0.24238199  0.49631070  0.72726114  1
  O2-  O126  1  0.75815683  0.00072016  0.05879820  1
  O2-  O127  1  0.74834237  -0.00217160  0.39958523  1
  O2-  O128  1  0.74487620  -0.00525537  0.72720213  1
  O2-  O129  1  0.74936805  0.50695962  0.05931699  1
  O2-  O130  1  0.74990924  0.50935830  0.39626830  1
  O2-  O131  1  0.75112225  0.50044862  0.72355814  1
  O2-  O132  1  -0.00206706  0.25589182  0.26984500  1
  O2-  O133  1  0.00405524  0.24842743  0.60728507  1
  O2-  O134  1  0.00032462  0.24882735  0.94285578  1
  O2-  O135  1  0.00031964  0.74956718  0.27555269  1
  O2-  O136  1  0.00506081  0.75438688  0.59983915  1
  O2-  O137  1  -0.00060838  0.75825071  0.94170819  1
  O2-  O138  1  0.49529838  0.25460010  0.26963888  1
  O2-  O139  1  0.50029111  0.24262193  0.60785940  1
  O2-  O140  1  0.50131138  0.25220372  0.94310292  1
  O2-  O141  1  0.50725466  0.75627609  0.26746894  1
  O2-  O142  1  0.50088920  0.75883253  0.60809666  1
  O2-  O143  1  0.50696507  0.74636553  0.93840335  1
  O2-  O144  1  0.07255755  0.17958561  0.08954934  1
  O2-  O145  1  0.06721447  0.17897822  0.43188454  1
  O2-  O146  1  0.07131519  0.18111609  0.75799722  1
  O2-  O147  1  0.06568113  0.67546794  0.10053593  1
  O2-  O148  1  0.07024550  0.67897903  0.42367013  1
  O2-  O149  1  0.07124757  0.67849451  0.76350437  1
  O2-  O150  1  0.57487364  0.18194871  0.08859309  1
  O2-  O151  1  0.56943235  0.18482386  0.43286187  1
  O2-  O152  1  0.57404889  0.17975139  0.75723199  1
  O2-  O153  1  0.57001760  0.67403227  0.08889980  1
  O2-  O154  1  0.56725214  0.67548870  0.42958244  1
  O2-  O155  1  0.56934002  0.67828567  0.76855286  1
  O2-  O156  1  0.17797644  0.43003438  0.23542500  1
  O2-  O157  1  0.17847562  0.42692739  0.57590805  1
  O2-  O158  1  0.17864152  0.42990956  0.89820389  1
  O2-  O159  1  0.18009618  0.92738641  0.23431646  1
  O2-  O160  1  0.18081070  0.93123978  0.56809483  1
  O2-  O161  1  0.17990486  0.92909491  0.90199535  1
  O2-  O162  1  0.68241448  0.43106224  0.23556335  1
  O2-  O163  1  0.67937241  0.43067234  0.57599371  1
  O2-  O164  1  0.67989972  0.42856030  0.89875481  1
  O2-  O165  1  0.67803375  0.93013963  0.23514989  1
  O2-  O166  1  0.67653025  0.92647245  0.57688065  1
  O2-  O167  1  0.68244888  0.93062309  0.89797807  1
  O2-  O168  1  0.42813398  0.32174262  0.09081373  1
  O2-  O169  1  0.42788768  0.32163505  0.42061418  1
  O2-  O170  1  0.43097360  0.32048253  0.76768730  1
  O2-  O171  1  0.43150288  0.82148468  0.09620915  1
  O2-  O172  1  0.42469882  0.81576666  0.43220075  1
  O2-  O173  1  0.42989166  0.82346107  0.75698879  1
  O2-  O174  1  0.92770142  0.31933957  0.09067560  1
  O2-  O175  1  0.92859227  0.32282566  0.41994902  1
  O2-  O176  1  0.92686292  0.32009030  0.76677633  1
  O2-  O177  1  0.92428937  0.82078303  0.09021018  1
  O2-  O178  1  0.93228369  0.82264774  0.42261043  1
  O2-  O179  1  0.92959313  0.81949480  0.76551425  1
  O2-  O180  1  0.32004957  0.07471210  0.24556652  1
  O2-  O181  1  0.32555135  0.07638869  0.57670412  1
  O2-  O182  1  0.31764892  0.07434522  0.90079545  1
  O2-  O183  1  0.31617215  0.57079332  0.24411319  1
  O2-  O184  1  0.32218765  0.56558713  0.56831953  1
  O2-  O185  1  0.32685982  0.56861816  0.91260880  1
  O2-  O186  1  0.82041583  0.06636157  0.23423444  1
  O2-  O187  1  0.81761827  0.07316781  0.56998360  1
  O2-  O188  1  0.81996866  0.07891671  0.91185555  1
  O2-  O189  1  0.83022341  0.56890984  0.24698588  1
  O2-  O190  1  0.82165141  0.57190460  0.57651434  1
  O2-  O191  1  0.82350584  0.56847730  0.90935005  1
  O2-  O192  1  0.03692125  0.08332140  0.26285767  1
  O2-  O193  1  0.04157376  0.08518461  0.60859284  1
  O2-  O194  1  0.04646066  0.08679704  0.93681781  1
  O2-  O195  1  0.03964519  0.58612369  0.27302218  1
  O2-  O196  1  0.04316920  0.58227027  0.59606350  1
  O2-  O197  1  0.03555623  0.58363400  0.93121766  1
  O2-  O198  1  0.54225567  0.08499687  0.26471370  1
  O2-  O199  1  0.55151360  0.08244309  0.60600587  1
  O2-  O200  1  0.54605581  0.09010647  0.93372932  1
  O2-  O201  1  0.53758348  0.58128308  0.26222989  1
  O2-  O202  1  0.53457311  0.58487171  0.60069606  1
  O2-  O203  1  0.54434763  0.58184492  0.93831640  1
  O2-  O204  1  0.16681895  0.20900819  0.26449464  1
  O2-  O205  1  0.16451321  0.19978318  0.60388100  1
  O2-  O206  1  0.16437035  0.20960487  0.93763124  1
  O2-  O207  1  0.16207112  0.70415401  0.27112610  1
  O2-  O208  1  0.17452032  0.70475977  0.59972625  1
  O2-  O209  1  0.16838978  0.70366139  0.93357660  1
  O2-  O210  1  0.66692805  0.21563361  0.26511781  1
  O2-  O211  1  0.66384271  0.20777509  0.60438813  1
  O2-  O212  1  0.66461158  0.21052325  0.93600884  1
  O2-  O213  1  0.67612490  0.69312979  0.26630590  1
  O2-  O214  1  0.66759821  0.70195571  0.59941986  1
  O2-  O215  1  0.66894644  0.69719815  0.94114303  1
  O2-  O216  1  0.08136211  0.45933947  0.06653676  1
  O2-  O217  1  0.08074898  0.45708101  0.40214218  1
  O2-  O218  1  0.07970508  0.45031840  0.72390725  1
  O2-  O219  1  0.07930763  0.95409473  0.06609795  1
  O2-  O220  1  0.08491141  0.96177496  0.40048566  1
  O2-  O221  1  0.08595935  0.96146187  0.73801752  1
  O2-  O222  1  0.58181308  0.45526347  0.06869915  1
  O2-  O223  1  0.57956010  0.45891932  0.40049761  1
  O2-  O224  1  0.58799500  0.45942957  0.72814309  1
  O2-  O225  1  0.58626123  0.96398771  0.06426324  1
  O2-  O226  1  0.57666274  0.95555633  0.40057388  1
  O2-  O227  1  0.58299623  0.95063417  0.72811079  1
  O2-  O228  1  0.21105662  0.33584540  0.06683350  1
  O2-  O229  1  0.20612632  0.33013606  0.40266309  1
  O2-  O230  1  0.20180925  0.33261652  0.72617106  1
  O2-  O231  1  0.20783745  0.82735217  0.06558967  1
  O2-  O232  1  0.21051107  0.83121845  0.40077093  1
  O2-  O233  1  0.21102308  0.83294500  0.73498913  1
  O2-  O234  1  0.71331328  0.33457230  0.06739592  1
  O2-  O235  1  0.71187747  0.33715088  0.40422580  1
  O2-  O236  1  0.70665225  0.33838819  0.72850084  1
  O2-  O237  1  0.70730797  0.83142675  0.06671362  1
  O2-  O238  1  0.70212835  0.82563241  0.39626498  1
  O2-  O239  1  0.70455808  0.83136155  0.72724691  1
  O2-  O240  1  0.45009637  0.41673807  0.26965954  1
  O2-  O241  1  0.46290028  0.41345744  0.59739078  1
  O2-  O242  1  0.45616536  0.41413457  0.93916263  1
  O2-  O243  1  0.44862388  0.92224750  0.26716552  1
  O2-  O244  1  0.44682519  0.91908723  0.60601686  1
  O2-  O245  1  0.46343374  0.91839479  0.92837082  1
  O2-  O246  1  0.95297410  0.41793893  0.26961571  1
  O2-  O247  1  0.95212824  0.41662619  0.59527511  1
  O2-  O248  1  0.95591484  0.41119820  0.93783227  1
  O2-  O249  1  0.95925174  0.91254484  0.26909089  1
  O2-  O250  1  0.95664646  0.92367230  0.60275561  1
  O2-  O251  1  0.94672107  0.91952122  0.94062565  1
  O2-  O252  1  0.33212128  0.29705595  0.27032808  1
  O2-  O253  1  0.33184003  0.29316030  0.59748421  1
  O2-  O254  1  0.33753520  0.29210203  0.93725315  1
  O2-  O255  1  0.33243578  0.78460662  0.26354841  1
  O2-  O256  1  0.33634936  0.79197983  0.60659067  1
  O2-  O257  1  0.33576837  0.79041027  0.92858474  1
  O2-  O258  1  0.83473482  0.29668907  0.26868778  1
  O2-  O259  1  0.83117483  0.28795832  0.59896589  1
  O2-  O260  1  0.83759331  0.29055231  0.93718893  1
  O2-  O261  1  0.83868951  0.79418848  0.26975889  1
  O2-  O262  1  0.83389959  0.79183159  0.59657195  1
  O2-  O263  1  0.83443362  0.79392498  0.93631246  1
  O2-  O264  1  0.42221204  0.04721909  0.06331046  1
  O2-  O265  1  0.41694364  0.05207755  0.39616369  1
  O2-  O266  1  0.41935816  0.05328463  0.72859294  1
  O2-  O267  1  0.41410402  0.54305770  0.06749245  1
  O2-  O268  1  0.41321173  0.54598496  0.39490589  1
  O2-  O269  1  0.41534560  0.53212037  0.73749251  1
  O2-  O270  1  0.91834208  0.05390996  0.06060622  1
  O2-  O271  1  0.91794212  0.04035580  0.40148916  1
  O2-  O272  1  0.91474962  0.04284726  0.74047471  1
  O2-  O273  1  0.91269233  0.53922162  0.06411594  1
  O2-  O274  1  0.91421134  0.54193673  0.40297210  1
  O2-  O275  1  0.91407718  0.54225087  0.72801338  1
  O2-  O276  1  0.29429111  0.16924615  0.07008867  1
  O2-  O277  1  0.29490534  0.16638873  0.39713346  1
  O2-  O278  1  0.29621858  0.16805842  0.72835332  1
  O2-  O279  1  0.30015815  0.66716203  0.06148154  1
  O2-  O280  1  0.29046447  0.66222284  0.39759836  1
  O2-  O281  1  0.29437996  0.66447337  0.73788099  1
  O2-  O282  1  0.79309134  0.16533576  0.06587497  1
  O2-  O283  1  0.79324493  0.16945474  0.39843593  1
  O2-  O284  1  0.78635666  0.16684247  0.73855612  1
  O2-  O285  1  0.80322036  0.66550988  0.06158425  1
  O2-  O286  1  0.80533076  0.66864618  0.39603405  1
  O2-  O287  1  0.79416101  0.66350752  0.72954819  1
