# generated using pymatgen
data_Ca2Al2SiO7
_symmetry_space_group_name_H-M   'P 1'
_cell_length_a   15.46172907
_cell_length_b   15.46164355
_cell_length_c   15.28702498
_cell_angle_alpha   89.99097260
_cell_angle_beta   90.00018225
_cell_angle_gamma   89.98934095
_symmetry_Int_Tables_number   1
_chemical_formula_structural   Ca2Al2SiO7
_chemical_formula_sum   'Ca48 Al48 Si24 O168'
_cell_volume   3654.57331098
_cell_formula_units_Z   24
loop_
 _symmetry_equiv_pos_site_id
 _symmetry_equiv_pos_as_xyz
  1  'x, y, z'
loop_
 _atom_type_symbol
 _atom_type_oxidation_number
  Ca2+  2.0
  Al0+  0.0
  Si0+  0.0
  O2-  -2.0
loop_
 _atom_site_type_symbol
 _atom_site_label
 _atom_site_symmetry_multiplicity
 _atom_site_fract_x
 _atom_site_fract_y
 _atom_site_fract_z
 _atom_site_occupancy
  Ca2+  Ca0  1  0.17366847  0.08377997  0.17366943  1
  Ca2+  Ca1  1  0.18562566  0.08377976  0.50511726  1
  Ca2+  Ca2  1  0.17431620  0.08525876  0.83688787  1
  Ca2+  Ca3  1  0.16988328  0.57659098  0.17724176  1
  Ca2+  Ca4  1  0.16936793  0.57803727  0.50753909  1
  Ca2+  Ca5  1  0.16954186  0.58120274  0.82811477  1
  Ca2+  Ca6  1  0.66540770  0.09332715  0.16897112  1
  Ca2+  Ca7  1  0.66674442  0.08795061  0.50794031  1
  Ca2+  Ca8  1  0.67451557  0.09434502  0.83575145  1
  Ca2+  Ca9  1  0.66594262  0.57677978  0.17810932  1
  Ca2+  Ca10  1  0.66157113  0.57425287  0.50835290  1
  Ca2+  Ca11  1  0.65782687  0.57887896  0.83074033  1
  Ca2+  Ca12  1  0.07973856  0.33061258  0.16611301  1
  Ca2+  Ca13  1  0.07700145  0.34426613  0.49363058  1
  Ca2+  Ca14  1  0.08406631  0.33018762  0.82972554  1
  Ca2+  Ca15  1  0.08726699  0.82640070  0.16678960  1
  Ca2+  Ca16  1  0.08363682  0.81969908  0.49797513  1
  Ca2+  Ca17  1  0.07957037  0.82662025  0.82422282  1
  Ca2+  Ca18  1  0.57513383  0.32857051  0.16576037  1
  Ca2+  Ca19  1  0.58308351  0.32792739  0.49199441  1
  Ca2+  Ca20  1  0.58299746  0.32632791  0.82981790  1
  Ca2+  Ca21  1  0.57341558  0.83088612  0.16701169  1
  Ca2+  Ca22  1  0.57586631  0.82122612  0.49696287  1
  Ca2+  Ca23  1  0.57297088  0.82929875  0.82393945  1
  Ca2+  Ca24  1  0.32994834  0.40882835  0.17604276  1
  Ca2+  Ca25  1  0.32304901  0.41678612  0.50710022  1
  Ca2+  Ca26  1  0.33571741  0.42086646  0.83357606  1
  Ca2+  Ca27  1  0.34365139  0.92251146  0.17286005  1
  Ca2+  Ca28  1  0.34726050  0.92445746  0.50213318  1
  Ca2+  Ca29  1  0.34290828  0.91959846  0.83254002  1
  Ca2+  Ca30  1  0.82593062  0.41315081  0.17615693  1
  Ca2+  Ca31  1  0.82025338  0.41609192  0.50502074  1
  Ca2+  Ca32  1  0.82565498  0.42145277  0.82776509  1
  Ca2+  Ca33  1  0.83125731  0.92666282  0.16950453  1
  Ca2+  Ca34  1  0.82991012  0.92545565  0.50773584  1
  Ca2+  Ca35  1  0.83038789  0.92716629  0.83801965  1
  Ca2+  Ca36  1  0.42218352  0.17545720  0.16442510  1
  Ca2+  Ca37  1  0.42439568  0.16796820  0.49261425  1
  Ca2+  Ca38  1  0.42766455  0.16842856  0.82566369  1
  Ca2+  Ca39  1  0.41944928  0.67462022  0.16512305  1
  Ca2+  Ca40  1  0.41885915  0.67155078  0.49670094  1
  Ca2+  Ca41  1  0.41556455  0.67763994  0.82133865  1
  Ca2+  Ca42  1  0.92012460  0.17293823  0.16044532  1
  Ca2+  Ca43  1  0.91681774  0.17395340  0.49528155  1
  Ca2+  Ca44  1  0.92062085  0.15871512  0.82970349  1
  Ca2+  Ca45  1  0.92438211  0.66420129  0.16764605  1
  Ca2+  Ca46  1  0.92838858  0.64933833  0.49975669  1
  Ca2+  Ca47  1  0.92095197  0.66290048  0.82187194  1
  Al0+  Al48  1  -0.00021185  -0.00070222  0.00285889  1
  Al0+  Al49  1  0.00101004  -0.00149310  0.33581329  1
  Al0+  Al50  1  0.00121887  -0.00017111  0.66761093  1
  Al0+  Al51  1  0.00056648  0.49927776  0.00083353  1
  Al0+  Al52  1  0.00026928  0.49944377  0.32507771  1
  Al0+  Al53  1  -0.00164433  0.49782949  0.67195827  1
  Al0+  Al54  1  0.50164354  -0.00075827  -0.00623197  1
  Al0+  Al55  1  0.50394043  -0.00074090  0.33088156  1
  Al0+  Al56  1  0.50151210  0.00131993  0.66459137  1
  Al0+  Al57  1  0.49926738  0.50101567  0.00000325  1
  Al0+  Al58  1  0.49920074  0.49980845  0.33086703  1
  Al0+  Al59  1  0.49667574  0.49892907  0.67327522  1
  Al0+  Al60  1  0.24818960  0.25042137  -0.00594276  1
  Al0+  Al61  1  0.24931505  0.24799004  0.34076753  1
  Al0+  Al62  1  0.24949398  0.24677347  0.67570392  1
  Al0+  Al63  1  0.24977452  0.74904536  -0.00306609  1
  Al0+  Al64  1  0.24810151  0.75062469  0.32496217  1
  Al0+  Al65  1  0.24672207  0.75062669  0.66072880  1
  Al0+  Al66  1  0.75152181  0.25336359  0.00159492  1
  Al0+  Al67  1  0.75220562  0.25214701  0.32986571  1
  Al0+  Al68  1  0.75165120  0.25078806  0.67200363  1
  Al0+  Al69  1  0.75127490  0.75076395  0.00341175  1
  Al0+  Al70  1  0.75289508  0.75195561  0.33070630  1
  Al0+  Al71  1  0.74973151  0.75192515  0.66669483  1
  Al0+  Al72  1  0.82165264  0.07101116  0.67944173  1
  Al0+  Al73  1  0.17887501  0.42912903  0.34549076  1
  Al0+  Al74  1  0.42535077  0.32084097  0.32264638  1
  Al0+  Al75  1  0.42910569  0.81964010  0.98447744  1
  Al0+  Al76  1  0.57197168  0.18095766  0.98367078  1
  Al0+  Al77  1  0.32235479  0.06849252  0.34524334  1
  Al0+  Al78  1  0.42997978  0.82071963  0.31766443  1
  Al0+  Al79  1  0.06742121  0.67778058  0.65316847  1
  Al0+  Al80  1  0.57234708  0.18322560  0.65264480  1
  Al0+  Al81  1  0.31969475  0.57303272  0.68067851  1
  Al0+  Al82  1  0.57172868  0.67584322  0.65277396  1
  Al0+  Al83  1  0.42689117  0.32289397  0.98329624  1
  Al0+  Al84  1  0.81937385  0.57189621  0.67951008  1
  Al0+  Al85  1  0.57340169  0.67665669  0.31873205  1
  Al0+  Al86  1  0.57266831  0.17946866  0.31918331  1
  Al0+  Al87  1  0.42785625  0.82158433  0.64970296  1
  Al0+  Al88  1  0.82066125  0.07144982  0.01621183  1
  Al0+  Al89  1  0.67795927  0.42988512  0.34574020  1
  Al0+  Al90  1  0.06927907  0.67936123  0.31854012  1
  Al0+  Al91  1  0.17731231  0.42777020  0.68367879  1
  Al0+  Al92  1  0.93055105  0.32009020  0.32044903  1
  Al0+  Al93  1  0.32343395  0.06864114  0.68245956  1
  Al0+  Al94  1  0.06895432  0.17788589  0.98667890  1
  Al0+  Al95  1  0.67567157  0.42836643  0.68247207  1
  Si0+  Si96  1  0.92816055  0.82636268  0.31474381  1
  Si0+  Si97  1  0.82210753  0.57303964  0.34732377  1
  Si0+  Si98  1  0.17644329  0.92587176  0.35068274  1
  Si0+  Si99  1  0.32115958  0.57430012  0.34758336  1
  Si0+  Si100  1  0.57415107  0.67850876  0.98429654  1
  Si0+  Si101  1  0.42469951  0.32097588  0.65091034  1
  Si0+  Si102  1  0.93161322  0.31874080  0.65283780  1
  Si0+  Si103  1  0.17872343  0.42880702  0.01692023  1
  Si0+  Si104  1  0.92736956  0.82455436  0.65036018  1
  Si0+  Si105  1  0.31952165  0.57215318  0.01621029  1
  Si0+  Si106  1  0.06949040  0.67824517  0.98360448  1
  Si0+  Si107  1  0.32149439  0.07007732  0.01413138  1
  Si0+  Si108  1  0.17899592  0.92734983  0.01501314  1
  Si0+  Si109  1  0.82199889  0.07191367  0.34801023  1
  Si0+  Si110  1  0.17754407  0.92862651  0.68305008  1
  Si0+  Si111  1  0.68084905  0.92837407  0.34911130  1
  Si0+  Si112  1  0.67762516  0.92724099  0.01858517  1
  Si0+  Si113  1  0.07276269  0.17627599  0.65077521  1
  Si0+  Si114  1  0.92861793  0.32345257  0.98067896  1
  Si0+  Si115  1  0.07206688  0.17570197  0.31992161  1
  Si0+  Si116  1  0.67828026  0.92863161  0.68339115  1
  Si0+  Si117  1  0.82356391  0.57217697  0.01705135  1
  Si0+  Si118  1  0.67905013  0.43174020  0.01742525  1
  Si0+  Si119  1  0.92890788  0.82046592  0.98581134  1
  O2-  O120  1  0.25108722  -0.00231851  0.05683991  1
  O2-  O121  1  0.24849295  -0.00822562  0.39261596  1
  O2-  O122  1  0.24917707  -0.00709638  0.72910363  1
  O2-  O123  1  0.25271307  0.49696392  0.05888477  1
  O2-  O124  1  0.25556048  0.50201548  0.39066470  1
  O2-  O125  1  0.25106704  0.49831635  0.73322588  1
  O2-  O126  1  0.74266036  0.00010295  0.06321235  1
  O2-  O127  1  0.75078920  0.00162275  0.39011068  1
  O2-  O128  1  0.74736515  -0.00284788  0.72773959  1
  O2-  O129  1  0.74989594  0.50429904  0.05867501  1
  O2-  O130  1  0.74814190  0.51041102  0.39047396  1
  O2-  O131  1  0.74191480  0.50742140  0.73186096  1
  O2-  O132  1  0.00419064  0.24407060  0.27431459  1
  O2-  O133  1  0.00426463  0.24965487  0.60944717  1
  O2-  O134  1  -0.00614034  0.25111691  0.93736692  1
  O2-  O135  1  -0.00397901  0.75604175  0.27161275  1
  O2-  O136  1  -0.01057189  0.74981019  0.60658517  1
  O2-  O137  1  -0.00326399  0.74754584  0.94186551  1
  O2-  O138  1  0.49871098  0.25063543  0.27156064  1
  O2-  O139  1  0.49742411  0.25731235  0.60608440  1
  O2-  O140  1  0.49810759  0.25044791  0.93307630  1
  O2-  O141  1  0.49970958  0.74645588  0.26758491  1
  O2-  O142  1  0.49726267  0.74528972  0.60299731  1
  O2-  O143  1  0.50556906  0.74638310  0.93983753  1
  O2-  O144  1  0.06955851  0.18004797  0.10004049  1
  O2-  O145  1  0.06907031  0.17372465  0.42529557  1
  O2-  O146  1  0.06995943  0.17422150  0.75617375  1
  O2-  O147  1  0.06886831  0.67873474  0.08873007  1
  O2-  O148  1  0.06705379  0.67797693  0.43120483  1
  O2-  O149  1  0.06592817  0.68087473  0.76690124  1
  O2-  O150  1  0.57043088  0.18312609  0.09710503  1
  O2-  O151  1  0.57396797  0.18001056  0.43266727  1
  O2-  O152  1  0.57278394  0.18374579  0.76563267  1
  O2-  O153  1  0.57413312  0.67895497  0.08987814  1
  O2-  O154  1  0.57465613  0.67842589  0.43162630  1
  O2-  O155  1  0.57166175  0.68175891  0.76688091  1
  O2-  O156  1  0.17835917  0.43019454  0.23169386  1
  O2-  O157  1  0.17552499  0.42990681  0.56998332  1
  O2-  O158  1  0.17449601  0.43218359  0.91244649  1
  O2-  O159  1  0.17213686  0.92887351  0.24481729  1
  O2-  O160  1  0.17279636  0.93293296  0.57795749  1
  O2-  O161  1  0.17659445  0.92642008  0.91023099  1
  O2-  O162  1  0.68234400  0.42916423  0.23217190  1
  O2-  O163  1  0.67998545  0.42404708  0.56916141  1
  O2-  O164  1  0.67996210  0.43261158  0.91256184  1
  O2-  O165  1  0.68305704  0.92726282  0.24388726  1
  O2-  O166  1  0.68068895  0.92922486  0.57767409  1
  O2-  O167  1  0.68234707  0.92192892  0.91355169  1
  O2-  O168  1  0.42592079  0.32143495  0.09696172  1
  O2-  O169  1  0.42371709  0.31909294  0.43582661  1
  O2-  O170  1  0.42465284  0.31695474  0.75658396  1
  O2-  O171  1  0.42823973  0.81815220  0.09734475  1
  O2-  O172  1  0.43213645  0.82065866  0.43041956  1
  O2-  O173  1  0.43016734  0.82121486  0.76373467  1
  O2-  O174  1  0.93089036  0.32475821  0.08646140  1
  O2-  O175  1  0.92960197  0.31918931  0.43359041  1
  O2-  O176  1  0.93214391  0.31754818  0.75809953  1
  O2-  O177  1  0.93090228  0.81963637  0.09086218  1
  O2-  O178  1  0.92856239  0.83249569  0.41967014  1
  O2-  O179  1  0.93207353  0.82795423  0.75638383  1
  O2-  O180  1  0.31892344  0.06879274  0.23143294  1
  O2-  O181  1  0.32241347  0.06981910  0.56937909  1
  O2-  O182  1  0.31964153  0.06798205  0.90919806  1
  O2-  O183  1  0.31726392  0.57584843  0.24128643  1
  O2-  O184  1  0.31699967  0.57316903  0.56703072  1
  O2-  O185  1  0.31586567  0.57518847  0.91164183  1
  O2-  O186  1  0.82414067  0.06966028  0.24282158  1
  O2-  O187  1  0.82253934  0.07034983  0.56598723  1
  O2-  O188  1  0.82282507  0.06676056  0.90337323  1
  O2-  O189  1  0.82272358  0.57078510  0.24090924  1
  O2-  O190  1  0.82424188  0.56382348  0.56644504  1
  O2-  O191  1  0.82678302  0.57243595  0.91249775  1
  O2-  O192  1  0.04702061  0.08199556  0.27291231  1
  O2-  O193  1  0.04234823  0.08596098  0.60255979  1
  O2-  O194  1  0.03877168  0.08038829  0.93363020  1
  O2-  O195  1  0.03601594  0.58611856  0.25911349  1
  O2-  O196  1  0.03611119  0.58004179  0.60173080  1
  O2-  O197  1  0.04188107  0.58587612  0.93789950  1
  O2-  O198  1  0.54828003  0.08070401  0.26594757  1
  O2-  O199  1  0.54370763  0.08550656  0.60082514  1
  O2-  O200  1  0.54941185  0.08066197  0.93251619  1
  O2-  O201  1  0.54649413  0.57897040  0.26381804  1
  O2-  O202  1  0.54641207  0.57471107  0.60491537  1
  O2-  O203  1  0.54850599  0.58478823  0.93990113  1
  O2-  O204  1  0.16526763  0.20165072  0.27453522  1
  O2-  O205  1  0.16641431  0.20155355  0.60687276  1
  O2-  O206  1  0.16387893  0.20858023  0.93021471  1
  O2-  O207  1  0.16348502  0.71007209  0.25939137  1
  O2-  O208  1  0.16100572  0.71062672  0.59609643  1
  O2-  O209  1  0.16016527  0.70809012  0.93639732  1
  O2-  O210  1  0.67014040  0.20931163  0.26535444  1
  O2-  O211  1  0.67106097  0.21188665  0.60145410  1
  O2-  O212  1  0.67142027  0.21238582  0.93378222  1
  O2-  O213  1  0.67247340  0.70680947  0.26591980  1
  O2-  O214  1  0.67089502  0.70503982  0.60096903  1
  O2-  O215  1  0.66945111  0.70253240  0.94068495  1
  O2-  O216  1  0.08742691  0.46001000  0.06506921  1
  O2-  O217  1  0.08169379  0.46380473  0.39609389  1
  O2-  O218  1  0.08082297  0.45836356  0.73941040  1
  O2-  O219  1  0.08809414  0.95514959  0.06470158  1
  O2-  O220  1  0.08381627  0.95193399  0.39912888  1
  O2-  O221  1  0.08590407  0.95755109  0.73265192  1
  O2-  O222  1  0.58644975  0.45868448  0.06418559  1
  O2-  O223  1  0.57944450  0.45434313  0.39841217  1
  O2-  O224  1  0.57687136  0.44937455  0.73779184  1
  O2-  O225  1  0.58222359  0.95035922  0.06194205  1
  O2-  O226  1  0.58971639  0.95495512  0.39685961  1
  O2-  O227  1  0.58566510  0.95519168  0.72962866  1
  O2-  O228  1  0.20274776  0.33480428  0.06183875  1
  O2-  O229  1  0.20238043  0.33209213  0.40152206  1
  O2-  O230  1  0.20198761  0.32869405  0.73706609  1
  O2-  O231  1  0.20577278  0.83443656  0.06195028  1
  O2-  O232  1  0.19852208  0.83002824  0.39294424  1
  O2-  O233  1  0.19751516  0.83315345  0.72701121  1
  O2-  O234  1  0.70975965  0.34108078  0.06498320  1
  O2-  O235  1  0.71645580  0.33521558  0.39906017  1
  O2-  O236  1  0.71613236  0.33542904  0.73923310  1
  O2-  O237  1  0.70815559  0.83559713  0.06787408  1
  O2-  O238  1  0.71203872  0.83774471  0.39745557  1
  O2-  O239  1  0.70334646  0.83584758  0.73168897  1
  O2-  O240  1  0.44914073  0.41954411  0.26825175  1
  O2-  O241  1  0.44252457  0.41791547  0.61039126  1
  O2-  O242  1  0.45587222  0.42247011  0.93276571  1
  O2-  O243  1  0.46479714  0.91652664  0.26309598  1
  O2-  O244  1  0.46202995  0.91845487  0.59812041  1
  O2-  O245  1  0.45865417  0.91591073  0.93019508  1
  O2-  O246  1  0.96109288  0.41384327  0.26091287  1
  O2-  O247  1  0.95871710  0.41040885  0.60583832  1
  O2-  O248  1  0.95925557  0.41591177  0.93480247  1
  O2-  O249  1  0.95694287  0.91851356  0.26597881  1
  O2-  O250  1  0.96035230  0.91503412  0.60142245  1
  O2-  O251  1  0.95940206  0.91108916  0.93843580  1
  O2-  O252  1  0.32738106  0.28874390  0.26909222  1
  O2-  O253  1  0.33110605  0.29060999  0.60753294  1
  O2-  O254  1  0.32756790  0.29877870  0.93121870  1
  O2-  O255  1  0.33012387  0.79859625  0.26420067  1
  O2-  O256  1  0.32748241  0.79995677  0.59864926  1
  O2-  O257  1  0.33208353  0.78838727  0.93112699  1
  O2-  O258  1  0.83704881  0.28774154  0.26208343  1
  O2-  O259  1  0.84076671  0.28819107  0.60583699  1
  O2-  O260  1  0.83383597  0.30242015  0.93692998  1
  O2-  O261  1  0.83561302  0.80165243  0.26651510  1
  O2-  O262  1  0.83139633  0.80858279  0.60707226  1
  O2-  O263  1  0.83586695  0.79594457  0.93940921  1
  O2-  O264  1  0.41433656  0.04206059  0.05932743  1
  O2-  O265  1  0.41990898  0.03809042  0.39768863  1
  O2-  O266  1  0.41995805  0.03809783  0.73660428  1
  O2-  O267  1  0.41375974  0.55007666  0.06165509  1
  O2-  O268  1  0.41636154  0.55430755  0.39082224  1
  O2-  O269  1  0.41720236  0.54912937  0.73777462  1
  O2-  O270  1  0.91589705  0.03564930  0.07126421  1
  O2-  O271  1  0.91373267  0.04329584  0.39589894  1
  O2-  O272  1  0.91796645  0.03813792  0.73382538  1
  O2-  O273  1  0.91478401  0.54131793  0.06536316  1
  O2-  O274  1  0.91416289  0.53977832  0.39077652  1
  O2-  O275  1  0.91340325  0.53554676  0.73767369  1
  O2-  O276  1  0.29052448  0.16234842  0.05883017  1
  O2-  O277  1  0.28899047  0.16180340  0.40385692  1
  O2-  O278  1  0.28945499  0.16215702  0.74012574  1
  O2-  O279  1  0.28602592  0.66219977  0.06464308  1
  O2-  O280  1  0.28998783  0.66702018  0.39190312  1
  O2-  O281  1  0.28506080  0.67084286  0.73292806  1
  O2-  O282  1  0.79559623  0.17107473  0.06753878  1
  O2-  O283  1  0.79572182  0.16417670  0.39394359  1
  O2-  O284  1  0.79337883  0.16616265  0.73648252  1
  O2-  O285  1  0.80080435  0.66568108  0.06439358  1
  O2-  O286  1  0.80828206  0.67026092  0.38986788  1
  O2-  O287  1  0.80368875  0.67461900  0.72967190  1
