# generated using pymatgen
data_Ca2Al2SiO7
_symmetry_space_group_name_H-M   'P 1'
_cell_length_a   15.45550368
_cell_length_b   15.45425641
_cell_length_c   15.28132264
_cell_angle_alpha   90.00608561
_cell_angle_beta   90.00731697
_cell_angle_gamma   89.99188083
_symmetry_Int_Tables_number   1
_chemical_formula_structural   Ca2Al2SiO7
_chemical_formula_sum   'Ca48 Al48 Si24 O168'
_cell_volume   3649.99451222
_cell_formula_units_Z   24
loop_
 _symmetry_equiv_pos_site_id
 _symmetry_equiv_pos_as_xyz
  1  'x, y, z'
loop_
 _atom_type_symbol
 _atom_type_oxidation_number
  Ca2+  2.0
  Al0+  0.0
  Si0+  0.0
  O2-  -2.0
loop_
 _atom_site_type_symbol
 _atom_site_label
 _atom_site_symmetry_multiplicity
 _atom_site_fract_x
 _atom_site_fract_y
 _atom_site_fract_z
 _atom_site_occupancy
  Ca2+  Ca0  1  0.15691919  0.08160408  0.17450158  1
  Ca2+  Ca1  1  0.16541480  0.08180772  0.50171113  1
  Ca2+  Ca2  1  0.16968553  0.08850946  0.83587783  1
  Ca2+  Ca3  1  0.16965541  0.58335069  0.17579275  1
  Ca2+  Ca4  1  0.15590096  0.57316821  0.50049695  1
  Ca2+  Ca5  1  0.17075901  0.57836407  0.83759087  1
  Ca2+  Ca6  1  0.67501865  0.07905421  0.17539901  1
  Ca2+  Ca7  1  0.67237489  0.08407413  0.50581914  1
  Ca2+  Ca8  1  0.66489506  0.07134569  0.83479727  1
  Ca2+  Ca9  1  0.67403610  0.58003232  0.16827220  1
  Ca2+  Ca10  1  0.66668815  0.57107019  0.50636339  1
  Ca2+  Ca11  1  0.66798917  0.58116857  0.83981052  1
  Ca2+  Ca12  1  0.07745536  0.32687351  0.16273245  1
  Ca2+  Ca13  1  0.07469287  0.33394214  0.49118185  1
  Ca2+  Ca14  1  0.07287005  0.33750055  0.82910668  1
  Ca2+  Ca15  1  0.07287837  0.83567626  0.16677533  1
  Ca2+  Ca16  1  0.07572435  0.83141281  0.48901161  1
  Ca2+  Ca17  1  0.06829250  0.83134044  0.82867138  1
  Ca2+  Ca18  1  0.59116545  0.32898646  0.16984729  1
  Ca2+  Ca19  1  0.59116617  0.32385258  0.49448552  1
  Ca2+  Ca20  1  0.58325701  0.32783503  0.82252316  1
  Ca2+  Ca21  1  0.58509398  0.82796493  0.15744747  1
  Ca2+  Ca22  1  0.58735978  0.83031751  0.50223153  1
  Ca2+  Ca23  1  0.59479099  0.82208362  0.82828171  1
  Ca2+  Ca24  1  0.32677709  0.42333043  0.17177971  1
  Ca2+  Ca25  1  0.31687591  0.41139577  0.50389037  1
  Ca2+  Ca26  1  0.32631707  0.41993348  0.83726043  1
  Ca2+  Ca27  1  0.32284754  0.91843366  0.17476361  1
  Ca2+  Ca28  1  0.32495987  0.92195827  0.50385480  1
  Ca2+  Ca29  1  0.33449529  0.92380375  0.83428026  1
  Ca2+  Ca30  1  0.83699126  0.41778084  0.17208472  1
  Ca2+  Ca31  1  0.82770483  0.40982838  0.50475419  1
  Ca2+  Ca32  1  0.83213758  0.41820441  0.83669447  1
  Ca2+  Ca33  1  0.83594975  0.91903618  0.17108961  1
  Ca2+  Ca34  1  0.83778796  0.92341508  0.50369318  1
  Ca2+  Ca35  1  0.82552441  0.90844434  0.83839955  1
  Ca2+  Ca36  1  0.42394261  0.16710432  0.16600784  1
  Ca2+  Ca37  1  0.42830825  0.15811590  0.49964656  1
  Ca2+  Ca38  1  0.42173429  0.16522768  0.82405745  1
  Ca2+  Ca39  1  0.42199876  0.66465955  0.15877317  1
  Ca2+  Ca40  1  0.42485969  0.66237531  0.49907063  1
  Ca2+  Ca41  1  0.42779836  0.66124635  0.83117012  1
  Ca2+  Ca42  1  0.92092913  0.17518442  0.16644618  1
  Ca2+  Ca43  1  0.91621749  0.17679398  0.48996712  1
  Ca2+  Ca44  1  0.92015741  0.17803956  0.83119366  1
  Ca2+  Ca45  1  0.91744581  0.67331270  0.16315695  1
  Ca2+  Ca46  1  0.91938751  0.68015251  0.49436019  1
  Ca2+  Ca47  1  0.90373433  0.67580267  0.83214817  1
  Al0+  Al48  1  -0.00034105  0.00047318  -0.01025454  1
  Al0+  Al49  1  -0.00103725  0.00066884  0.33683712  1
  Al0+  Al50  1  0.00029569  0.00156808  0.66585219  1
  Al0+  Al51  1  -0.00055815  0.49997497  0.00103195  1
  Al0+  Al52  1  0.00040356  0.50372886  0.33091347  1
  Al0+  Al53  1  -0.00122851  0.50120515  0.66879736  1
  Al0+  Al54  1  0.49870926  -0.00137615  0.00551611  1
  Al0+  Al55  1  0.50034523  -0.00117179  0.32790363  1
  Al0+  Al56  1  0.49986385  -0.00141506  0.67074349  1
  Al0+  Al57  1  0.49877710  0.49858808  0.00102318  1
  Al0+  Al58  1  0.50119137  0.49940112  0.33670068  1
  Al0+  Al59  1  0.49921921  0.49860973  0.66449303  1
  Al0+  Al60  1  0.25216749  0.24917319  -0.00169261  1
  Al0+  Al61  1  0.25321109  0.25185281  0.33385943  1
  Al0+  Al62  1  0.24970009  0.25040438  0.67669120  1
  Al0+  Al63  1  0.25050853  0.75179104  0.00290935  1
  Al0+  Al64  1  0.25198435  0.75169170  0.33642013  1
  Al0+  Al65  1  0.25038201  0.75008754  0.66829320  1
  Al0+  Al66  1  0.75013038  0.24747847  -0.00490884  1
  Al0+  Al67  1  0.74960101  0.24825082  0.33128504  1
  Al0+  Al68  1  0.75027719  0.24946723  0.66585837  1
  Al0+  Al69  1  0.74822719  0.74715644  0.00282674  1
  Al0+  Al70  1  0.74834822  0.74942832  0.33065593  1
  Al0+  Al71  1  0.74973167  0.75004401  0.65753412  1
  Al0+  Al72  1  0.92766749  0.32263875  0.31891044  1
  Al0+  Al73  1  0.67984852  0.92856331  0.01441910  1
  Al0+  Al74  1  0.92997623  0.32166456  0.65175790  1
  Al0+  Al75  1  0.17684151  0.43043761  0.68198494  1
  Al0+  Al76  1  0.07365918  0.18015622  0.32168778  1
  Al0+  Al77  1  0.56870324  0.67922424  0.98741806  1
  Al0+  Al78  1  0.17877661  0.93065283  0.34661768  1
  Al0+  Al79  1  0.56933467  0.17802840  0.65421823  1
  Al0+  Al80  1  0.67861926  0.42724592  0.68042306  1
  Al0+  Al81  1  0.32095683  0.57104375  0.01343160  1
  Al0+  Al82  1  0.17859037  0.43001573  0.34535721  1
  Al0+  Al83  1  0.92808572  0.32335907  0.98338129  1
  Al0+  Al84  1  0.31984033  0.06882859  0.68012258  1
  Al0+  Al85  1  0.92891409  0.82172301  0.65183614  1
  Al0+  Al86  1  0.82054321  0.56952350  0.01381717  1
  Al0+  Al87  1  0.92909187  0.81847365  0.98595079  1
  Al0+  Al88  1  0.57032236  0.67749691  0.65137218  1
  Al0+  Al89  1  0.07282965  0.68008739  0.31858844  1
  Al0+  Al90  1  0.68128482  0.42996532  0.34668541  1
  Al0+  Al91  1  0.57083708  0.17803926  0.31870960  1
  Al0+  Al92  1  0.68192794  0.92904886  0.67890099  1
  Al0+  Al93  1  0.92763379  0.82223736  0.31738864  1
  Al0+  Al94  1  0.81990865  0.06927256  0.34624050  1
  Al0+  Al95  1  0.07261999  0.17896108  0.98307857  1
  Si0+  Si96  1  0.32153200  0.07205051  0.01755838  1
  Si0+  Si97  1  0.81936855  0.57208413  0.68158747  1
  Si0+  Si98  1  0.17879408  0.42777380  0.01757206  1
  Si0+  Si99  1  0.82388997  0.07312896  0.68537069  1
  Si0+  Si100  1  0.07504834  0.67798161  0.98366750  1
  Si0+  Si101  1  0.42608703  0.82337420  0.98305408  1
  Si0+  Si102  1  0.43021145  0.31984182  0.98471813  1
  Si0+  Si103  1  0.32322976  0.57311212  0.35195150  1
  Si0+  Si104  1  0.67574419  0.92631814  0.34998353  1
  Si0+  Si105  1  0.42891268  0.32363343  0.31640437  1
  Si0+  Si106  1  0.42599357  0.32168465  0.65021611  1
  Si0+  Si107  1  0.07422802  0.18005956  0.65005482  1
  Si0+  Si108  1  0.17600231  0.92657178  0.68538478  1
  Si0+  Si109  1  0.32494720  0.07253607  0.34885439  1
  Si0+  Si110  1  0.56931621  0.67697532  0.31714833  1
  Si0+  Si111  1  0.42973765  0.82093673  0.31794001  1
  Si0+  Si112  1  0.07438736  0.67935287  0.65165947  1
  Si0+  Si113  1  0.57014255  0.17643080  0.98455523  1
  Si0+  Si114  1  0.67730750  0.42473492  0.01559436  1
  Si0+  Si115  1  0.42667839  0.82201540  0.64999131  1
  Si0+  Si116  1  0.82230907  0.57468058  0.35134278  1
  Si0+  Si117  1  0.82259176  0.07187770  0.01553431  1
  Si0+  Si118  1  0.32285279  0.57309898  0.68335177  1
  Si0+  Si119  1  0.17763833  0.93117010  0.01378157  1
  O2-  O120  1  0.24735099  0.00361776  0.05742715  1
  O2-  O121  1  0.25138885  0.00872603  0.39201174  1
  O2-  O122  1  0.24397136  -0.00379580  0.72940176  1
  O2-  O123  1  0.24333691  0.50069494  0.06164344  1
  O2-  O124  1  0.25177155  0.50656066  0.39414286  1
  O2-  O125  1  0.25265113  0.50565230  0.72681526  1
  O2-  O126  1  0.75398698  0.00335839  0.06072153  1
  O2-  O127  1  0.74562451  -0.00658247  0.39317849  1
  O2-  O128  1  0.75820748  0.00066772  0.72856331  1
  O2-  O129  1  0.74985798  0.48962612  0.05888647  1
  O2-  O130  1  0.75759308  0.50204649  0.39514930  1
  O2-  O131  1  0.75158577  0.50293590  0.72706769  1
  O2-  O132  1  0.00396186  0.25373319  0.27098371  1
  O2-  O133  1  0.00504330  0.24713781  0.60563476  1
  O2-  O134  1  0.00279196  0.25337310  0.93400312  1
  O2-  O135  1  -0.00032320  0.74998446  0.26749160  1
  O2-  O136  1  0.00929611  0.75159759  0.60834903  1
  O2-  O137  1  0.00299432  0.74252036  0.93853542  1
  O2-  O138  1  0.49698571  0.25407790  0.27193107  1
  O2-  O139  1  0.49633152  0.25454577  0.60651778  1
  O2-  O140  1  0.50160549  0.24952239  0.94213199  1
  O2-  O141  1  0.50027561  0.74994130  0.27518298  1
  O2-  O142  1  0.49346563  0.75140432  0.60559501  1
  O2-  O143  1  0.49468958  0.75465469  0.93949474  1
  O2-  O144  1  0.07302239  0.17875996  0.09645827  1
  O2-  O145  1  0.07371314  0.18175260  0.43529703  1
  O2-  O146  1  0.07336708  0.18117780  0.75572701  1
  O2-  O147  1  0.07786092  0.68171521  0.08879897  1
  O2-  O148  1  0.07174796  0.68152444  0.43257261  1
  O2-  O149  1  0.07673131  0.68037389  0.75745141  1
  O2-  O150  1  0.56857271  0.17684677  0.08970758  1
  O2-  O151  1  0.56851629  0.17616693  0.43167998  1
  O2-  O152  1  0.56615946  0.17807745  0.76787582  1
  O2-  O153  1  0.56641097  0.68001404  0.10080858  1
  O2-  O154  1  0.56748624  0.67651522  0.42225628  1
  O2-  O155  1  0.57004788  0.67800173  0.76455996  1
  O2-  O156  1  0.18380721  0.43035509  0.23235789  1
  O2-  O157  1  0.17752475  0.43047812  0.56885264  1
  O2-  O158  1  0.18228934  0.42850718  0.91171491  1
  O2-  O159  1  0.18161922  0.93018675  0.23302949  1
  O2-  O160  1  0.17733750  0.92582159  0.57993024  1
  O2-  O161  1  0.18100391  0.93019154  0.90867275  1
  O2-  O162  1  0.67872055  0.43392014  0.23334343  1
  O2-  O163  1  0.67958573  0.42749852  0.56738653  1
  O2-  O164  1  0.67403662  0.42590583  0.90996837  1
  O2-  O165  1  0.67380022  0.92726294  0.24421760  1
  O2-  O166  1  0.68137861  0.93120333  0.56588322  1
  O2-  O167  1  0.67935134  0.92926688  0.90110240  1
  O2-  O168  1  0.42889001  0.31837062  0.08976055  1
  O2-  O169  1  0.42790522  0.32453555  0.42165595  1
  O2-  O170  1  0.42729743  0.32107574  0.75644088  1
  O2-  O171  1  0.42564368  0.82364937  0.08890971  1
  O2-  O172  1  0.43044873  0.82216873  0.42297490  1
  O2-  O173  1  0.42515047  0.82161374  0.75551264  1
  O2-  O174  1  0.92797523  0.32164886  0.09661374  1
  O2-  O175  1  0.92722885  0.32008776  0.43264407  1
  O2-  O176  1  0.93060240  0.32172391  0.76476521  1
  O2-  O177  1  0.93170605  0.82050678  0.09841292  1
  O2-  O178  1  0.92900459  0.82106445  0.43108350  1
  O2-  O179  1  0.92716571  0.81757618  0.76528924  1
  O2-  O180  1  0.32821743  0.06870279  0.24307237  1
  O2-  O181  1  0.32001301  0.06613688  0.56709283  1
  O2-  O182  1  0.32509904  0.07041496  0.91254524  1
  O2-  O183  1  0.32581478  0.57200406  0.24610209  1
  O2-  O184  1  0.32354290  0.57373378  0.57794169  1
  O2-  O185  1  0.32161761  0.56733892  0.90030791  1
  O2-  O186  1  0.81802269  0.06913730  0.23278433  1
  O2-  O187  1  0.82269837  0.07370034  0.57971954  1
  O2-  O188  1  0.81944781  0.07273738  0.90988688  1
  O2-  O189  1  0.81829439  0.57723024  0.24566712  1
  O2-  O190  1  0.81876594  0.57175872  0.57606752  1
  O2-  O191  1  0.81508993  0.57205581  0.90058730  1
  O2-  O192  1  0.04290241  0.08210483  0.27026449  1
  O2-  O193  1  0.05220447  0.08438230  0.60674362  1
  O2-  O194  1  0.04469654  0.08229432  0.92599823  1
  O2-  O195  1  0.04772376  0.58222150  0.26378478  1
  O2-  O196  1  0.04381477  0.58721569  0.60622438  1
  O2-  O197  1  0.05429864  0.58226039  0.94075847  1
  O2-  O198  1  0.53852629  0.08263892  0.26200909  1
  O2-  O199  1  0.53515977  0.08202341  0.60107402  1
  O2-  O200  1  0.53734576  0.08498942  0.93915515  1
  O2-  O201  1  0.53882589  0.58617723  0.26957182  1
  O2-  O202  1  0.53801596  0.58137347  0.59612591  1
  O2-  O203  1  0.53675495  0.58222161  0.93404353  1
  O2-  O204  1  0.17435963  0.20323905  0.26943135  1
  O2-  O205  1  0.16932872  0.20504484  0.60761556  1
  O2-  O206  1  0.17370415  0.20401164  0.93241291  1
  O2-  O207  1  0.17319095  0.70801141  0.26851024  1
  O2-  O208  1  0.16944011  0.69979384  0.60567156  1
  O2-  O209  1  0.16765033  0.70738775  0.93626872  1
  O2-  O210  1  0.66515952  0.20999594  0.26214909  1
  O2-  O211  1  0.66619466  0.20722702  0.60108112  1
  O2-  O212  1  0.66244735  0.19926568  0.93665474  1
  O2-  O213  1  0.66138545  0.70301713  0.27010765  1
  O2-  O214  1  0.66378988  0.71011482  0.59338655  1
  O2-  O215  1  0.66442370  0.71024584  0.93320210  1
  O2-  O216  1  0.08346532  0.44765280  0.06071059  1
  O2-  O217  1  0.08187590  0.46097726  0.39965467  1
  O2-  O218  1  0.08196823  0.46409439  0.73799592  1
  O2-  O219  1  0.08483190  0.95898427  0.05857294  1
  O2-  O220  1  0.08344390  0.95869012  0.40310054  1
  O2-  O221  1  0.08231636  0.95261905  0.73131753  1
  O2-  O222  1  0.58494691  0.45311749  0.06275880  1
  O2-  O223  1  0.58492630  0.46162429  0.40182738  1
  O2-  O224  1  0.57979727  0.45546721  0.73206486  1
  O2-  O225  1  0.58225935  0.95764944  0.06880158  1
  O2-  O226  1  0.58160829  0.95291894  0.39458190  1
  O2-  O227  1  0.58559970  0.95867316  0.73435919  1
  O2-  O228  1  0.21142727  0.33537657  0.06212014  1
  O2-  O229  1  0.21295509  0.33467705  0.40108865  1
  O2-  O230  1  0.20890932  0.33599438  0.73935459  1
  O2-  O231  1  0.20665559  0.84042158  0.06281060  1
  O2-  O232  1  0.21485735  0.83635911  0.40297405  1
  O2-  O233  1  0.20288297  0.83328049  0.73204380  1
  O2-  O234  1  0.69924035  0.32875886  0.05894674  1
  O2-  O235  1  0.70807462  0.33158978  0.39812075  1
  O2-  O236  1  0.70891672  0.33085979  0.73511390  1
  O2-  O237  1  0.70886880  0.83225020  0.06868576  1
  O2-  O238  1  0.69784864  0.83089643  0.39393925  1
  O2-  O239  1  0.71243517  0.83054151  0.73004546  1
  O2-  O240  1  0.45682400  0.41682214  0.26968675  1
  O2-  O241  1  0.44675313  0.41571694  0.60392666  1
  O2-  O242  1  0.45675569  0.41140165  0.93657393  1
  O2-  O243  1  0.45603280  0.91147051  0.26687267  1
  O2-  O244  1  0.45550225  0.91410243  0.60350942  1
  O2-  O245  1  0.45177618  0.91785809  0.93857190  1
  O2-  O246  1  0.95145452  0.42293622  0.26894517  1
  O2-  O247  1  0.95866180  0.42007824  0.60034696  1
  O2-  O248  1  0.95467407  0.42300818  0.93087528  1
  O2-  O249  1  0.95816296  0.92023906  0.26607730  1
  O2-  O250  1  0.95660523  0.92062309  0.60090181  1
  O2-  O251  1  0.95912814  0.91354109  0.92868810  1
  O2-  O252  1  0.33666504  0.29828662  0.26739134  1
  O2-  O253  1  0.33207683  0.29276501  0.60688710  1
  O2-  O254  1  0.33945344  0.29153278  0.93535199  1
  O2-  O255  1  0.33832810  0.79336108  0.26979151  1
  O2-  O256  1  0.33201443  0.79866528  0.60377147  1
  O2-  O257  1  0.33229335  0.79933721  0.93656207  1
  O2-  O258  1  0.83151079  0.29016342  0.26434192  1
  O2-  O259  1  0.83344699  0.28923481  0.59932265  1
  O2-  O260  1  0.82969240  0.29269407  0.92978793  1
  O2-  O261  1  0.82802266  0.79460336  0.26567149  1
  O2-  O262  1  0.83583606  0.78829186  0.59397090  1
  O2-  O263  1  0.83224702  0.78492808  0.93410386  1
  O2-  O264  1  0.41119523  0.04131959  0.06796480  1
  O2-  O265  1  0.41610467  0.03853983  0.39571411  1
  O2-  O266  1  0.41417389  0.03504913  0.73787173  1
  O2-  O267  1  0.41564379  0.53604563  0.06961058  1
  O2-  O268  1  0.41549913  0.54395673  0.39896434  1
  O2-  O269  1  0.41547446  0.54459617  0.72976938  1
  O2-  O270  1  0.91730594  0.04495263  0.05779308  1
  O2-  O271  1  0.91499800  0.04071110  0.40391312  1
  O2-  O272  1  0.91923080  0.05153781  0.72996449  1
  O2-  O273  1  0.91947483  0.54588133  0.06742893  1
  O2-  O274  1  0.91805972  0.55610036  0.39465821  1
  O2-  O275  1  0.91307168  0.54970640  0.72892640  1
  O2-  O276  1  0.29881077  0.16562125  0.06385345  1
  O2-  O277  1  0.30823494  0.16836023  0.39274729  1
  O2-  O278  1  0.29309137  0.16486867  0.73814428  1
  O2-  O279  1  0.29619690  0.66998027  0.06679665  1
  O2-  O280  1  0.30285320  0.66776010  0.39762390  1
  O2-  O281  1  0.29985653  0.66736848  0.73040234  1
  O2-  O282  1  0.79521169  0.16528601  0.06156691  1
  O2-  O283  1  0.78585484  0.16451803  0.40072709  1
  O2-  O284  1  0.79322187  0.16445676  0.73250759  1
  O2-  O285  1  0.78392082  0.66241868  0.07110572  1
  O2-  O286  1  0.79039925  0.66657681  0.39836986  1
  O2-  O287  1  0.78992497  0.66538909  0.72592303  1
