# generated using pymatgen
data_Ca2Al2SiO7
_symmetry_space_group_name_H-M   'P 1'
_cell_length_a   15.46173563
_cell_length_b   15.46270383
_cell_length_c   15.28641170
_cell_angle_alpha   89.99819261
_cell_angle_beta   89.98794940
_cell_angle_gamma   90.00633114
_symmetry_Int_Tables_number   1
_chemical_formula_structural   Ca2Al2SiO7
_chemical_formula_sum   'Ca48 Al48 Si24 O168'
_cell_volume   3654.67885347
_cell_formula_units_Z   24
loop_
 _symmetry_equiv_pos_site_id
 _symmetry_equiv_pos_as_xyz
  1  'x, y, z'
loop_
 _atom_type_symbol
 _atom_type_oxidation_number
  Ca2+  2.0
  Al0+  0.0
  Si0+  0.0
  O2-  -2.0
loop_
 _atom_site_type_symbol
 _atom_site_label
 _atom_site_symmetry_multiplicity
 _atom_site_fract_x
 _atom_site_fract_y
 _atom_site_fract_z
 _atom_site_occupancy
  Ca2+  Ca0  1  0.17392057  0.08691678  0.17346114  1
  Ca2+  Ca1  1  0.17254663  0.08561630  0.50804835  1
  Ca2+  Ca2  1  0.16504364  0.08118858  0.82913763  1
  Ca2+  Ca3  1  0.17202684  0.57571253  0.16283446  1
  Ca2+  Ca4  1  0.17392624  0.58321756  0.50820376  1
  Ca2+  Ca5  1  0.17744977  0.58080038  0.84212379  1
  Ca2+  Ca6  1  0.66919056  0.08068609  0.16905731  1
  Ca2+  Ca7  1  0.67289582  0.06770252  0.51141343  1
  Ca2+  Ca8  1  0.67533458  0.08140946  0.83743325  1
  Ca2+  Ca9  1  0.66760188  0.59237495  0.16692515  1
  Ca2+  Ca10  1  0.66252681  0.57801737  0.50464944  1
  Ca2+  Ca11  1  0.67114682  0.57958380  0.83843373  1
  Ca2+  Ca12  1  0.08179162  0.32909038  0.15858229  1
  Ca2+  Ca13  1  0.07923699  0.32137392  0.49925914  1
  Ca2+  Ca14  1  0.07329884  0.33339559  0.82703708  1
  Ca2+  Ca15  1  0.07468580  0.83559589  0.16483397  1
  Ca2+  Ca16  1  0.07098757  0.84727844  0.50291067  1
  Ca2+  Ca17  1  0.07976373  0.83395862  0.82249433  1
  Ca2+  Ca18  1  0.57575083  0.32335955  0.15434640  1
  Ca2+  Ca19  1  0.58472312  0.33195736  0.50070793  1
  Ca2+  Ca20  1  0.58409515  0.33074859  0.83246044  1
  Ca2+  Ca21  1  0.58140910  0.82771858  0.16023099  1
  Ca2+  Ca22  1  0.58325784  0.83461113  0.49603867  1
  Ca2+  Ca23  1  0.57397234  0.82964604  0.82923973  1
  Ca2+  Ca24  1  0.33510626  0.41485659  0.16376631  1
  Ca2+  Ca25  1  0.33226047  0.42550532  0.50936903  1
  Ca2+  Ca26  1  0.32994659  0.42641797  0.84269400  1
  Ca2+  Ca27  1  0.33653966  0.92097943  0.16982702  1
  Ca2+  Ca28  1  0.32906167  0.92781085  0.51283261  1
  Ca2+  Ca29  1  0.33332471  0.91437807  0.83303827  1
  Ca2+  Ca30  1  0.83795122  0.42197358  0.16260536  1
  Ca2+  Ca31  1  0.82721494  0.41695465  0.50978608  1
  Ca2+  Ca32  1  0.83224934  0.41418866  0.84078530  1
  Ca2+  Ca33  1  0.82708336  0.92080236  0.17306015  1
  Ca2+  Ca34  1  0.82613481  0.91360623  0.50902257  1
  Ca2+  Ca35  1  0.83604621  0.92850683  0.83454952  1
  Ca2+  Ca36  1  0.42298978  0.16688061  0.15644533  1
  Ca2+  Ca37  1  0.41160923  0.16286889  0.49741785  1
  Ca2+  Ca38  1  0.42014236  0.16872161  0.83153047  1
  Ca2+  Ca39  1  0.42868343  0.67116611  0.15397465  1
  Ca2+  Ca40  1  0.41972104  0.67354268  0.49880293  1
  Ca2+  Ca41  1  0.41169661  0.67274714  0.82900855  1
  Ca2+  Ca42  1  0.92229323  0.16927781  0.15770871  1
  Ca2+  Ca43  1  0.92818126  0.15680946  0.50267172  1
  Ca2+  Ca44  1  0.91525209  0.17324854  0.82392803  1
  Ca2+  Ca45  1  0.91190147  0.67301453  0.16121695  1
  Ca2+  Ca46  1  0.91304413  0.68123320  0.49751606  1
  Ca2+  Ca47  1  0.91592681  0.66989430  0.82827259  1
  Al0+  Al48  1  -0.00051059  0.00024762  0.00572254  1
  Al0+  Al49  1  0.00111656  0.00122553  0.32178062  1
  Al0+  Al50  1  0.00059113  0.00025046  0.66640931  1
  Al0+  Al51  1  -0.00000762  0.50012808  0.00542917  1
  Al0+  Al52  1  0.00039951  0.50072386  0.33584124  1
  Al0+  Al53  1  -0.00018741  0.50008006  0.65920726  1
  Al0+  Al54  1  0.50010107  -0.00231077  -0.00729589  1
  Al0+  Al55  1  0.50070954  0.00084594  0.34093562  1
  Al0+  Al56  1  0.49976515  -0.00037133  0.67004849  1
  Al0+  Al57  1  0.50147545  0.49935290  -0.00222115  1
  Al0+  Al58  1  0.50043134  0.50099098  0.32966881  1
  Al0+  Al59  1  0.50082588  0.49951468  0.67462186  1
  Al0+  Al60  1  0.24986641  0.24753129  -0.00086585  1
  Al0+  Al61  1  0.24843344  0.25148774  0.33391959  1
  Al0+  Al62  1  0.25011675  0.25147949  0.66700835  1
  Al0+  Al63  1  0.24857111  0.74921072  0.00480970  1
  Al0+  Al64  1  0.24830576  0.74985478  0.33325272  1
  Al0+  Al65  1  0.25181426  0.75150723  0.66719502  1
  Al0+  Al66  1  0.75255467  0.24907167  -0.00012586  1
  Al0+  Al67  1  0.75058979  0.25195930  0.33348169  1
  Al0+  Al68  1  0.74752482  0.25077446  0.66810677  1
  Al0+  Al69  1  0.74889331  0.75079693  -0.00140319  1
  Al0+  Al70  1  0.75021223  0.75036002  0.32988692  1
  Al0+  Al71  1  0.74849529  0.74710204  0.66668167  1
  Al0+  Al72  1  0.93245773  0.32120106  0.98759300  1
  Al0+  Al73  1  0.56880846  0.67940204  0.31993777  1
  Al0+  Al74  1  0.67752210  0.92425379  0.68427960  1
  Al0+  Al75  1  0.07064559  0.18140046  0.31723122  1
  Al0+  Al76  1  0.17929687  0.93058308  0.68083574  1
  Al0+  Al77  1  0.67981106  0.42874329  0.68083792  1
  Al0+  Al78  1  0.42908082  0.82201915  0.65055948  1
  Al0+  Al79  1  0.82091153  0.06938032  0.67993207  1
  Al0+  Al80  1  0.92499610  0.32267545  0.65001208  1
  Al0+  Al81  1  0.57264549  0.17759273  0.98424345  1
  Al0+  Al82  1  0.32017173  0.57133357  0.67927619  1
  Al0+  Al83  1  0.93018672  0.81961556  0.31796941  1
  Al0+  Al84  1  0.42629583  0.81930954  0.98479712  1
  Al0+  Al85  1  0.31981082  0.07090903  0.34536899  1
  Al0+  Al86  1  0.57363890  0.67832674  0.98256725  1
  Al0+  Al87  1  0.32196476  0.07436965  0.68469565  1
  Al0+  Al88  1  0.81962986  0.57196587  0.01335849  1
  Al0+  Al89  1  0.92835142  0.81948823  0.65568557  1
  Al0+  Al90  1  0.42706946  0.32033673  0.98397251  1
  Al0+  Al91  1  0.17947322  0.42718568  0.01430841  1
  Al0+  Al92  1  0.32355474  0.57160938  0.01757755  1
  Al0+  Al93  1  0.82140688  0.07210063  0.01590076  1
  Al0+  Al94  1  0.68132545  0.92904962  0.34633244  1
  Al0+  Al95  1  0.07106775  0.18008020  0.65213282  1
  Si0+  Si96  1  0.17628531  0.92698513  0.34885973  1
  Si0+  Si97  1  0.07271723  0.17513100  0.98248846  1
  Si0+  Si98  1  0.42977145  0.32131979  0.32062235  1
  Si0+  Si99  1  0.06891825  0.67983465  0.98715602  1
  Si0+  Si100  1  0.82367279  0.57086331  0.68088180  1
  Si0+  Si101  1  0.67883550  0.42666896  0.01837806  1
  Si0+  Si102  1  0.92929966  0.82225325  0.98490769  1
  Si0+  Si103  1  0.32149280  0.06844157  0.01403065  1
  Si0+  Si104  1  0.57145206  0.17836884  0.32151714  1
  Si0+  Si105  1  0.17660535  0.42901335  0.68137370  1
  Si0+  Si106  1  0.07369152  0.67439073  0.31477427  1
  Si0+  Si107  1  0.57052758  0.17863969  0.65037115  1
  Si0+  Si108  1  0.32225460  0.57030452  0.34796042  1
  Si0+  Si109  1  0.82361468  0.07357272  0.34885144  1
  Si0+  Si110  1  0.43039960  0.32193688  0.65188138  1
  Si0+  Si111  1  0.17867953  0.42958457  0.35054609  1
  Si0+  Si112  1  0.82087906  0.57122669  0.34858922  1
  Si0+  Si113  1  0.07387962  0.67814791  0.65043365  1
  Si0+  Si114  1  0.17712633  0.92774018  0.01718516  1
  Si0+  Si115  1  0.67794380  0.92971129  0.01662968  1
  Si0+  Si116  1  0.92678721  0.32468956  0.31533414  1
  Si0+  Si117  1  0.57017661  0.67649681  0.64988403  1
  Si0+  Si118  1  0.42734469  0.82403195  0.31894431  1
  Si0+  Si119  1  0.67761936  0.42920518  0.34690382  1
  O2-  O120  1  0.24999594  -0.00185599  0.05739066  1
  O2-  O121  1  0.24722034  -0.00616049  0.39132729  1
  O2-  O122  1  0.25127656  0.00066501  0.73373313  1
  O2-  O123  1  0.25574308  0.49432764  0.06667275  1
  O2-  O124  1  0.24871704  0.50238187  0.39176896  1
  O2-  O125  1  0.24222675  0.50004811  0.72500207  1
  O2-  O126  1  0.74512575  -0.00090675  0.06266319  1
  O2-  O127  1  0.75592701  0.00423532  0.39277249  1
  O2-  O128  1  0.75047396  -0.00337220  0.73169245  1
  O2-  O129  1  0.74343208  0.49954763  0.06298169  1
  O2-  O130  1  0.75042238  0.49875270  0.38918156  1
  O2-  O131  1  0.76020986  0.49801754  0.72504140  1
  O2-  O132  1  -0.00650002  0.25412877  0.27162725  1
  O2-  O133  1  -0.00363656  0.24951669  0.60085844  1
  O2-  O134  1  0.00571159  0.24590606  0.94045969  1
  O2-  O135  1  0.00575071  0.74464259  0.27170080  1
  O2-  O136  1  0.00373231  0.74579336  0.60674735  1
  O2-  O137  1  -0.00038230  0.75099337  0.94292093  1
  O2-  O138  1  0.49894589  0.24802768  0.27933661  1
  O2-  O139  1  0.49691864  0.24772339  0.60729893  1
  O2-  O140  1  0.50158363  0.25088407  0.93434958  1
  O2-  O141  1  0.49393368  0.75419475  0.27408921  1
  O2-  O142  1  0.50604172  0.74886856  0.60432927  1
  O2-  O143  1  0.49525300  0.74422531  0.93479709  1
  O2-  O144  1  0.07205833  0.17530545  0.08865579  1
  O2-  O145  1  0.07209716  0.18203701  0.42979131  1
  O2-  O146  1  0.07135154  0.18259875  0.76542934  1
  O2-  O147  1  0.06742001  0.68245396  0.09258260  1
  O2-  O148  1  0.07385875  0.67025444  0.42000716  1
  O2-  O149  1  0.07230278  0.67654112  0.75613049  1
  O2-  O150  1  0.56923402  0.17701304  0.09941762  1
  O2-  O151  1  0.57255849  0.18071862  0.42643690  1
  O2-  O152  1  0.57171176  0.18140020  0.75493026  1
  O2-  O153  1  0.57474916  0.68497663  0.09685678  1
  O2-  O154  1  0.56611322  0.67472868  0.43279825  1
  O2-  O155  1  0.56894384  0.67479911  0.75479087  1
  O2-  O156  1  0.17901468  0.42875580  0.24580992  1
  O2-  O157  1  0.18024658  0.43003346  0.57494630  1
  O2-  O158  1  0.17677584  0.43279652  0.90102005  1
  O2-  O159  1  0.17743995  0.92662189  0.24284638  1
  O2-  O160  1  0.17943898  0.93206510  0.56687335  1
  O2-  O161  1  0.17263861  0.92724552  0.91286478  1
  O2-  O162  1  0.67602181  0.42737276  0.24247837  1
  O2-  O163  1  0.67657963  0.43245612  0.56655689  1
  O2-  O164  1  0.68291396  0.42519456  0.91303078  1
  O2-  O165  1  0.68053575  0.93142978  0.23315061  1
  O2-  O166  1  0.67996648  0.92548626  0.56977373  1
  O2-  O167  1  0.68069222  0.92989231  0.91165477  1
  O2-  O168  1  0.42819965  0.31499277  0.09899482  1
  O2-  O169  1  0.43176395  0.32438412  0.42593623  1
  O2-  O170  1  0.43221903  0.32299364  0.75621723  1
  O2-  O171  1  0.42861213  0.82246600  0.09936614  1
  O2-  O172  1  0.42779624  0.82235935  0.42428049  1
  O2-  O173  1  0.42697018  0.81758893  0.76298682  1
  O2-  O174  1  0.93432389  0.32032807  0.10128441  1
  O2-  O175  1  0.92645431  0.32707372  0.42038595  1
  O2-  O176  1  0.92838282  0.32487534  0.76347708  1
  O2-  O177  1  0.93085992  0.82123717  0.09038330  1
  O2-  O178  1  0.93002891  0.81875630  0.43103978  1
  O2-  O179  1  0.93063392  0.81703306  0.76888423  1
  O2-  O180  1  0.32083318  0.07059854  0.23178294  1
  O2-  O181  1  0.31943268  0.07420956  0.57043881  1
  O2-  O182  1  0.32056132  0.06904257  0.90974580  1
  O2-  O183  1  0.32294121  0.56751381  0.24357928  1
  O2-  O184  1  0.32073915  0.56812792  0.56491513  1
  O2-  O185  1  0.31673430  0.57429322  0.90435484  1
  O2-  O186  1  0.82029553  0.07420529  0.24314275  1
  O2-  O187  1  0.81938753  0.06696969  0.56560720  1
  O2-  O188  1  0.82488438  0.06939614  0.90347538  1
  O2-  O189  1  0.82149222  0.57078305  0.24355551  1
  O2-  O190  1  0.82078435  0.57247795  0.57475372  1
  O2-  O191  1  0.82161122  0.57101879  0.90058974  1
  O2-  O192  1  0.04517235  0.08526447  0.25966425  1
  O2-  O193  1  0.04386976  0.08147812  0.59809163  1
  O2-  O194  1  0.04446960  0.08132823  0.93909028  1
  O2-  O195  1  0.04605148  0.58136315  0.26826044  1
  O2-  O196  1  0.05077366  0.58506826  0.60117166  1
  O2-  O197  1  0.04034966  0.58868450  0.94052203  1
  O2-  O198  1  0.54405220  0.08640271  0.27454898  1
  O2-  O199  1  0.54478833  0.08612472  0.60356756  1
  O2-  O200  1  0.54405004  0.08072903  0.93057935  1
  O2-  O201  1  0.53901956  0.58330999  0.26356456  1
  O2-  O202  1  0.53915864  0.58360869  0.60387086  1
  O2-  O203  1  0.55591976  0.57609222  0.93555319  1
  O2-  O204  1  0.16683678  0.21589526  0.26317219  1
  O2-  O205  1  0.16902788  0.21213456  0.59794271  1
  O2-  O206  1  0.16729062  0.19601966  0.93831801  1
  O2-  O207  1  0.16791736  0.69903340  0.26867344  1
  O2-  O208  1  0.16641594  0.70461142  0.60311536  1
  O2-  O209  1  0.16097749  0.70696437  0.94110903  1
  O2-  O210  1  0.66289607  0.20743892  0.27322371  1
  O2-  O211  1  0.66001210  0.21006609  0.60053697  1
  O2-  O212  1  0.67133528  0.20592573  0.93365004  1
  O2-  O213  1  0.66564908  0.70905188  0.26655474  1
  O2-  O214  1  0.66537787  0.69642173  0.60405626  1
  O2-  O215  1  0.67042469  0.71052047  0.92854082  1
  O2-  O216  1  0.08483843  0.46230580  0.07193654  1
  O2-  O217  1  0.08656479  0.45646008  0.39826729  1
  O2-  O218  1  0.08113472  0.45227575  0.72378350  1
  O2-  O219  1  0.08725632  0.95780664  0.06810106  1
  O2-  O220  1  0.08212795  0.95649069  0.39109274  1
  O2-  O221  1  0.08151747  0.95806447  0.73524703  1
  O2-  O222  1  0.58304828  0.44600891  0.06226762  1
  O2-  O223  1  0.58646146  0.45917755  0.39541300  1
  O2-  O224  1  0.58653375  0.46233365  0.73814853  1
  O2-  O225  1  0.58318768  0.95428350  0.06149769  1
  O2-  O226  1  0.58570654  0.95918954  0.40261999  1
  O2-  O227  1  0.57976651  0.95354671  0.73521166  1
  O2-  O228  1  0.20406918  0.32666890  0.06674425  1
  O2-  O229  1  0.20911456  0.33946832  0.39911221  1
  O2-  O230  1  0.20394644  0.33727334  0.72773872  1
  O2-  O231  1  0.20259478  0.83662292  0.06723156  1
  O2-  O232  1  0.19560363  0.83135039  0.39390233  1
  O2-  O233  1  0.20537878  0.83138366  0.73296589  1
  O2-  O234  1  0.70872221  0.33494967  0.06639172  1
  O2-  O235  1  0.70383060  0.33717178  0.39606686  1
  O2-  O236  1  0.70407069  0.33162267  0.73527183  1
  O2-  O237  1  0.70660697  0.83695515  0.06293665  1
  O2-  O238  1  0.71246897  0.83201353  0.39943987  1
  O2-  O239  1  0.70326821  0.82456102  0.73428948  1
  O2-  O240  1  0.45996524  0.41092085  0.27059696  1
  O2-  O241  1  0.46315585  0.41262039  0.60377214  1
  O2-  O242  1  0.45128290  0.42025994  0.93405647  1
  O2-  O243  1  0.45510218  0.91793523  0.27432538  1
  O2-  O244  1  0.45722059  0.92051872  0.59845984  1
  O2-  O245  1  0.45539227  0.91587627  0.93003819  1
  O2-  O246  1  0.95524220  0.41840194  0.27044764  1
  O2-  O247  1  0.95361195  0.42072114  0.59403684  1
  O2-  O248  1  0.96231923  0.41875342  0.93527609  1
  O2-  O249  1  0.95986866  0.91477885  0.26023600  1
  O2-  O250  1  0.95913847  0.91518237  0.60009560  1
  O2-  O251  1  0.96002978  0.91402487  0.94012350  1
  O2-  O252  1  0.33699810  0.29662296  0.27471928  1
  O2-  O253  1  0.33734899  0.29898901  0.60395226  1
  O2-  O254  1  0.32916410  0.29082887  0.93153492  1
  O2-  O255  1  0.33187428  0.80158839  0.27464846  1
  O2-  O256  1  0.33306748  0.78922649  0.59538476  1
  O2-  O257  1  0.32531526  0.79384630  0.93554386  1
  O2-  O258  1  0.83157936  0.30248514  0.27016663  1
  O2-  O259  1  0.82490146  0.29736663  0.59876108  1
  O2-  O260  1  0.83540723  0.29240450  0.93548183  1
  O2-  O261  1  0.83521721  0.78648141  0.26243120  1
  O2-  O262  1  0.83286973  0.78565209  0.59971681  1
  O2-  O263  1  0.83756852  0.79583947  0.93907606  1
  O2-  O264  1  0.41371351  0.03954175  0.06091915  1
  O2-  O265  1  0.41628634  0.04484445  0.40190001  1
  O2-  O266  1  0.42086270  0.04825131  0.73512069  1
  O2-  O267  1  0.42431224  0.54680830  0.06761895  1
  O2-  O268  1  0.41279165  0.53852355  0.39587595  1
  O2-  O269  1  0.41364405  0.53737983  0.73495125  1
  O2-  O270  1  0.91671015  0.03858311  0.07241354  1
  O2-  O271  1  0.91923853  0.04707147  0.38896978  1
  O2-  O272  1  0.91909314  0.04324678  0.73299482  1
  O2-  O273  1  0.91456101  0.54047359  0.07107230  1
  O2-  O274  1  0.91329793  0.54594517  0.39639806  1
  O2-  O275  1  0.92014838  0.55169531  0.72345138  1
  O2-  O276  1  0.29451754  0.16002369  0.06284115  1
  O2-  O277  1  0.28901899  0.16815066  0.39888929  1
  O2-  O278  1  0.29370651  0.17342023  0.73587881  1
  O2-  O279  1  0.28830865  0.66746221  0.07321158  1
  O2-  O280  1  0.29652713  0.66389442  0.39382267  1
  O2-  O281  1  0.29101374  0.66741092  0.73262368  1
  O2-  O282  1  0.79291863  0.16878933  0.07113885  1
  O2-  O283  1  0.79941830  0.16814917  0.39359811  1
  O2-  O284  1  0.79093045  0.16773950  0.73092281  1
  O2-  O285  1  0.78993188  0.66948465  0.06815529  1
  O2-  O286  1  0.79115411  0.66221030  0.39570513  1
  O2-  O287  1  0.79474025  0.66191584  0.72913671  1
