# generated using pymatgen
data_Ca2Al2SiO7
_symmetry_space_group_name_H-M   'P 1'
_cell_length_a   15.45714347
_cell_length_b   15.45749009
_cell_length_c   15.28362223
_cell_angle_alpha   90.01353821
_cell_angle_beta   90.00412821
_cell_angle_gamma   90.01233532
_symmetry_Int_Tables_number   1
_chemical_formula_structural   Ca2Al2SiO7
_chemical_formula_sum   'Ca48 Al48 Si24 O168'
_cell_volume   3651.69490769
_cell_formula_units_Z   24
loop_
 _symmetry_equiv_pos_site_id
 _symmetry_equiv_pos_as_xyz
  1  'x, y, z'
loop_
 _atom_type_symbol
 _atom_type_oxidation_number
  Ca2+  2.0
  Al0+  0.0
  Si0+  0.0
  O2-  -2.0
loop_
 _atom_site_type_symbol
 _atom_site_label
 _atom_site_symmetry_multiplicity
 _atom_site_fract_x
 _atom_site_fract_y
 _atom_site_fract_z
 _atom_site_occupancy
  Ca2+  Ca0  1  0.16946783  0.07438814  0.16910632  1
  Ca2+  Ca1  1  0.16308614  0.07569921  0.50251844  1
  Ca2+  Ca2  1  0.15665057  0.07734911  0.83665564  1
  Ca2+  Ca3  1  0.17862058  0.58580573  0.17099509  1
  Ca2+  Ca4  1  0.16802214  0.58333427  0.50231234  1
  Ca2+  Ca5  1  0.16995259  0.56738304  0.84296152  1
  Ca2+  Ca6  1  0.66924918  0.07209777  0.17532731  1
  Ca2+  Ca7  1  0.67364345  0.07144956  0.50212668  1
  Ca2+  Ca8  1  0.66846517  0.07358582  0.83754678  1
  Ca2+  Ca9  1  0.66712426  0.58421082  0.16025596  1
  Ca2+  Ca10  1  0.67093950  0.58358412  0.50359447  1
  Ca2+  Ca11  1  0.67365605  0.58116991  0.84644800  1
  Ca2+  Ca12  1  0.08818490  0.32342111  0.15646621  1
  Ca2+  Ca13  1  0.08416524  0.33046766  0.50274381  1
  Ca2+  Ca14  1  0.08957170  0.32419780  0.82533246  1
  Ca2+  Ca15  1  0.08361587  0.83574680  0.16473625  1
  Ca2+  Ca16  1  0.07709029  0.83783335  0.49167238  1
  Ca2+  Ca17  1  0.07926941  0.83531029  0.82641181  1
  Ca2+  Ca18  1  0.57806502  0.33190066  0.15544163  1
  Ca2+  Ca19  1  0.57577977  0.33143103  0.49678525  1
  Ca2+  Ca20  1  0.57157925  0.34447069  0.83251891  1
  Ca2+  Ca21  1  0.57725388  0.83357523  0.15491345  1
  Ca2+  Ca22  1  0.58553087  0.83746358  0.49604531  1
  Ca2+  Ca23  1  0.58216934  0.83324807  0.83375944  1
  Ca2+  Ca24  1  0.33459031  0.42529064  0.16446132  1
  Ca2+  Ca25  1  0.32868450  0.42287067  0.50670249  1
  Ca2+  Ca26  1  0.32793653  0.41479365  0.84093585  1
  Ca2+  Ca27  1  0.32446233  0.91473422  0.17210457  1
  Ca2+  Ca28  1  0.32009932  0.92108241  0.50211808  1
  Ca2+  Ca29  1  0.32077968  0.91559714  0.84148635  1
  Ca2+  Ca30  1  0.83035129  0.42172148  0.16504291  1
  Ca2+  Ca31  1  0.83639113  0.41689686  0.50672879  1
  Ca2+  Ca32  1  0.83167711  0.42159873  0.84267198  1
  Ca2+  Ca33  1  0.82300386  0.91784662  0.17398709  1
  Ca2+  Ca34  1  0.83019838  0.91106834  0.50359696  1
  Ca2+  Ca35  1  0.82409831  0.90981629  0.83719593  1
  Ca2+  Ca36  1  0.41197686  0.17069397  0.15918000  1
  Ca2+  Ca37  1  0.41031080  0.16991663  0.49726045  1
  Ca2+  Ca38  1  0.41440836  0.18016196  0.82920980  1
  Ca2+  Ca39  1  0.41815637  0.66927882  0.15524948  1
  Ca2+  Ca40  1  0.41709125  0.66695948  0.49368581  1
  Ca2+  Ca41  1  0.41817196  0.66657349  0.83937506  1
  Ca2+  Ca42  1  0.92150752  0.16115551  0.16217811  1
  Ca2+  Ca43  1  0.91871581  0.16660589  0.49900462  1
  Ca2+  Ca44  1  0.92769207  0.17388450  0.82681109  1
  Ca2+  Ca45  1  0.92097117  0.67115406  0.16584130  1
  Ca2+  Ca46  1  0.92639350  0.67920114  0.49243339  1
  Ca2+  Ca47  1  0.91596004  0.66915240  0.82889850  1
  Al0+  Al48  1  -0.00015278  -0.00041519  -0.00121378  1
  Al0+  Al49  1  -0.00242382  0.00229101  0.33380563  1
  Al0+  Al50  1  -0.00133354  0.00102847  0.66306149  1
  Al0+  Al51  1  -0.00042520  0.49965105  0.00915772  1
  Al0+  Al52  1  -0.00073107  0.50008870  0.32863283  1
  Al0+  Al53  1  0.00197284  0.50027775  0.66738773  1
  Al0+  Al54  1  0.49864289  0.00051491  -0.00292046  1
  Al0+  Al55  1  0.50023675  0.00135877  0.34030604  1
  Al0+  Al56  1  0.50033748  -0.00042917  0.67059564  1
  Al0+  Al57  1  0.50123394  0.50049608  -0.00149155  1
  Al0+  Al58  1  0.49844132  0.49998589  0.33705176  1
  Al0+  Al59  1  0.50177009  0.50145030  0.66056162  1
  Al0+  Al60  1  0.24981257  0.24771701  -0.00576666  1
  Al0+  Al61  1  0.24904691  0.25250136  0.33411894  1
  Al0+  Al62  1  0.25128598  0.25131698  0.65897170  1
  Al0+  Al63  1  0.24812243  0.74927461  0.00113464  1
  Al0+  Al64  1  0.25152833  0.74847462  0.33915758  1
  Al0+  Al65  1  0.25331417  0.75099155  0.67110496  1
  Al0+  Al66  1  0.75161963  0.24967741  0.00236123  1
  Al0+  Al67  1  0.74797356  0.24906408  0.33594422  1
  Al0+  Al68  1  0.74812087  0.24898829  0.66452947  1
  Al0+  Al69  1  0.74995551  0.75031134  0.00534930  1
  Al0+  Al70  1  0.75062335  0.74666300  0.33271919  1
  Al0+  Al71  1  0.75018163  0.74894751  0.66626285  1
  Al0+  Al72  1  0.82302833  0.57329469  0.01696556  1
  Al0+  Al73  1  0.17934915  0.42418599  0.01531537  1
  Al0+  Al74  1  0.06945199  0.17881638  0.98655905  1
  Al0+  Al75  1  0.92909595  0.81888768  0.65449503  1
  Al0+  Al76  1  0.67884973  0.42780725  0.01375623  1
  Al0+  Al77  1  0.92874998  0.82316599  0.31576424  1
  Al0+  Al78  1  0.43077898  0.32172676  0.64995329  1
  Al0+  Al79  1  0.82066124  0.07244063  0.34928911  1
  Al0+  Al80  1  0.07343242  0.67928212  0.31702684  1
  Al0+  Al81  1  0.32009339  0.56995532  0.01360328  1
  Al0+  Al82  1  0.17749189  0.92875121  0.01275688  1
  Al0+  Al83  1  0.57173314  0.68107522  0.98491154  1
  Al0+  Al84  1  0.32107053  0.56974315  0.34839645  1
  Al0+  Al85  1  0.32121922  0.07420339  0.34752662  1
  Al0+  Al86  1  0.42540392  0.82308079  0.98468745  1
  Al0+  Al87  1  0.67975313  0.92554800  0.34864201  1
  Al0+  Al88  1  0.07099357  0.17902698  0.64824135  1
  Al0+  Al89  1  0.18074636  0.43058257  0.67939798  1
  Al0+  Al90  1  0.68017799  0.92763902  0.68317654  1
  Al0+  Al91  1  0.17758864  0.93041070  0.68122300  1
  Al0+  Al92  1  0.92762344  0.32306215  0.65295287  1
  Al0+  Al93  1  0.43118505  0.31986548  0.98704344  1
  Al0+  Al94  1  0.17894732  0.92927757  0.34794564  1
  Al0+  Al95  1  0.67733907  0.93046084  0.01331066  1
  Si0+  Si96  1  0.82151870  0.07349644  0.68525595  1
  Si0+  Si97  1  0.57068227  0.68110417  0.65012744  1
  Si0+  Si98  1  0.32604244  0.57253652  0.68497351  1
  Si0+  Si99  1  0.92741833  0.32375812  0.98554336  1
  Si0+  Si100  1  0.82033091  0.56912877  0.67899158  1
  Si0+  Si101  1  0.07484897  0.67824532  0.65322609  1
  Si0+  Si102  1  0.17579420  0.42825335  0.35025499  1
  Si0+  Si103  1  0.67794957  0.42838650  0.67916812  1
  Si0+  Si104  1  0.07145068  0.67670039  0.98507813  1
  Si0+  Si105  1  0.57556052  0.17673274  0.98345401  1
  Si0+  Si106  1  0.43142336  0.82150522  0.32183053  1
  Si0+  Si107  1  0.07078628  0.18104976  0.31691103  1
  Si0+  Si108  1  0.82205064  0.07075699  0.01451693  1
  Si0+  Si109  1  0.42921466  0.32194233  0.31716008  1
  Si0+  Si110  1  0.92559232  0.32133596  0.31645276  1
  Si0+  Si111  1  0.93026776  0.81945393  0.98547680  1
  Si0+  Si112  1  0.57089199  0.67627368  0.31868636  1
  Si0+  Si113  1  0.32140161  0.07161533  0.01283085  1
  Si0+  Si114  1  0.32171753  0.07256676  0.68421781  1
  Si0+  Si115  1  0.42830535  0.82250138  0.65050099  1
  Si0+  Si116  1  0.56997534  0.17979759  0.31880178  1
  Si0+  Si117  1  0.57141648  0.17495026  0.64812350  1
  Si0+  Si118  1  0.82215875  0.56900886  0.35060584  1
  Si0+  Si119  1  0.67864213  0.42942535  0.34958558  1
  O2-  O120  1  0.25759351  -0.00122125  0.05721718  1
  O2-  O121  1  0.24899968  0.00334696  0.39824470  1
  O2-  O122  1  0.25133109  0.00611822  0.72871865  1
  O2-  O123  1  0.24804001  0.49895506  0.06547088  1
  O2-  O124  1  0.24296704  0.49854582  0.39423650  1
  O2-  O125  1  0.25565943  0.50497076  0.72662098  1
  O2-  O126  1  0.74845007  0.00823576  0.05931690  1
  O2-  O127  1  0.75519581  -0.00600562  0.39896197  1
  O2-  O128  1  0.75497581  0.00251710  0.72941040  1
  O2-  O129  1  0.75100725  0.49910196  0.06472270  1
  O2-  O130  1  0.75114658  0.49794849  0.39343799  1
  O2-  O131  1  0.75485338  0.49268080  0.72030241  1
  O2-  O132  1  -0.00198798  0.25143592  0.27509892  1
  O2-  O133  1  -0.00230165  0.25147296  0.59953337  1
  O2-  O134  1  -0.00150271  0.25825064  0.94140834  1
  O2-  O135  1  0.00433538  0.75411625  0.26628683  1
  O2-  O136  1  0.01045661  0.75075926  0.60885548  1
  O2-  O137  1  -0.00018202  0.74712387  0.94248874  1
  O2-  O138  1  0.49657851  0.24757892  0.27520787  1
  O2-  O139  1  0.50365829  0.24478915  0.60331725  1
  O2-  O140  1  0.50916773  0.24790060  0.93963239  1
  O2-  O141  1  0.50474697  0.75267586  0.27947123  1
  O2-  O142  1  0.49964210  0.75162310  0.60757062  1
  O2-  O143  1  0.50008337  0.75313578  0.93404513  1
  O2-  O144  1  0.06763640  0.17739199  0.10011994  1
  O2-  O145  1  0.07224386  0.18371207  0.42157901  1
  O2-  O146  1  0.06956655  0.17992968  0.76194900  1
  O2-  O147  1  0.07212564  0.67843136  0.08982823  1
  O2-  O148  1  0.06939677  0.67650822  0.43113893  1
  O2-  O149  1  0.07125150  0.67607198  0.75891820  1
  O2-  O150  1  0.57409284  0.17665406  0.08938471  1
  O2-  O151  1  0.57112518  0.18363820  0.42379092  1
  O2-  O152  1  0.57105237  0.17470273  0.75361211  1
  O2-  O153  1  0.57045712  0.68265123  0.09893890  1
  O2-  O154  1  0.56950000  0.67317466  0.42441130  1
  O2-  O155  1  0.57211169  0.67893965  0.75445577  1
  O2-  O156  1  0.17831300  0.42479467  0.24509657  1
  O2-  O157  1  0.18087939  0.43472307  0.56599717  1
  O2-  O158  1  0.18116571  0.42452274  0.90147178  1
  O2-  O159  1  0.18160953  0.93020484  0.23428982  1
  O2-  O160  1  0.17983211  0.92893480  0.56840950  1
  O2-  O161  1  0.17433932  0.93095045  0.89953762  1
  O2-  O162  1  0.67775226  0.42961408  0.24501543  1
  O2-  O163  1  0.67602580  0.43257848  0.57355961  1
  O2-  O164  1  0.68105337  0.42913230  0.89960889  1
  O2-  O165  1  0.67628051  0.92901030  0.23522495  1
  O2-  O166  1  0.68142722  0.92687749  0.57035638  1
  O2-  O167  1  0.68093911  0.92985428  0.89998494  1
  O2-  O168  1  0.43149189  0.31709273  0.10065117  1
  O2-  O169  1  0.43273028  0.32334562  0.42231347  1
  O2-  O170  1  0.43331313  0.32353032  0.76285646  1
  O2-  O171  1  0.42627716  0.82280864  0.09893588  1
  O2-  O172  1  0.43263893  0.81929712  0.42741317  1
  O2-  O173  1  0.42751571  0.82162606  0.75509806  1
  O2-  O174  1  0.92492274  0.32001673  0.09134407  1
  O2-  O175  1  0.92512730  0.32253196  0.42145521  1
  O2-  O176  1  0.92637306  0.32314130  0.76624915  1
  O2-  O177  1  0.93161420  0.82089072  0.09015721  1
  O2-  O178  1  0.92773514  0.81836706  0.42972467  1
  O2-  O179  1  0.92598192  0.81382339  0.76793940  1
  O2-  O180  1  0.32060993  0.07487500  0.23389489  1
  O2-  O181  1  0.32285642  0.06913853  0.57856507  1
  O2-  O182  1  0.31972821  0.07341732  0.90734996  1
  O2-  O183  1  0.32639390  0.56704303  0.23614209  1
  O2-  O184  1  0.32731100  0.57188816  0.57904296  1
  O2-  O185  1  0.31793409  0.56830954  0.89984248  1
  O2-  O186  1  0.81494067  0.07610037  0.23556054  1
  O2-  O187  1  0.81844806  0.07485051  0.57990647  1
  O2-  O188  1  0.82258818  0.06897782  0.90894681  1
  O2-  O189  1  0.82118070  0.56828442  0.24608196  1
  O2-  O190  1  0.81687203  0.56990247  0.57365274  1
  O2-  O191  1  0.82286825  0.57266229  0.90246521  1
  O2-  O192  1  0.04407269  0.08917921  0.26970712  1
  O2-  O193  1  0.04090114  0.08154250  0.59476343  1
  O2-  O194  1  0.03346848  0.08432848  0.93089496  1
  O2-  O195  1  0.04199419  0.58124312  0.26373045  1
  O2-  O196  1  0.04533515  0.58695320  0.60477991  1
  O2-  O197  1  0.04255525  0.58351129  0.93993543  1
  O2-  O198  1  0.54496998  0.08630052  0.27344451  1
  O2-  O199  1  0.54449416  0.08149622  0.60203926  1
  O2-  O200  1  0.54836373  0.08476768  0.93522108  1
  O2-  O201  1  0.53792280  0.58588872  0.27159585  1
  O2-  O202  1  0.54386968  0.59014004  0.59910389  1
  O2-  O203  1  0.54502201  0.58236826  0.93133673  1
  O2-  O204  1  0.16225953  0.21127050  0.26914487  1
  O2-  O205  1  0.16865766  0.20792032  0.59433475  1
  O2-  O206  1  0.16569043  0.20547964  0.93038414  1
  O2-  O207  1  0.17460665  0.70430139  0.26803793  1
  O2-  O208  1  0.17115275  0.69891512  0.61022546  1
  O2-  O209  1  0.16200544  0.70364864  0.93580391  1
  O2-  O210  1  0.66040254  0.21088434  0.27024948  1
  O2-  O211  1  0.66464525  0.20083803  0.60136614  1
  O2-  O212  1  0.67060668  0.19907835  0.93833994  1
  O2-  O213  1  0.66493291  0.69617762  0.27341939  1
  O2-  O214  1  0.66196710  0.70903419  0.60110263  1
  O2-  O215  1  0.67137082  0.70929439  0.93327331  1
  O2-  O216  1  0.07970535  0.44632499  0.06719052  1
  O2-  O217  1  0.08067451  0.45205917  0.39421540  1
  O2-  O218  1  0.08398494  0.45992968  0.73460443  1
  O2-  O219  1  0.08288459  0.96413864  0.06751189  1
  O2-  O220  1  0.07963621  0.95747582  0.39794518  1
  O2-  O221  1  0.07919670  0.95915295  0.73297819  1
  O2-  O222  1  0.58163705  0.45682110  0.06778522  1
  O2-  O223  1  0.58833340  0.46013459  0.39870137  1
  O2-  O224  1  0.58880846  0.46413624  0.72643334  1
  O2-  O225  1  0.57898424  0.95830489  0.06530071  1
  O2-  O226  1  0.58356759  0.95866900  0.40381015  1
  O2-  O227  1  0.58279823  0.95784675  0.73595184  1
  O2-  O228  1  0.21150500  0.32641126  0.06706677  1
  O2-  O229  1  0.20406830  0.33637131  0.39802450  1
  O2-  O230  1  0.21245887  0.33251769  0.72908831  1
  O2-  O231  1  0.20387226  0.83151818  0.06610394  1
  O2-  O232  1  0.20901130  0.83230237  0.40254985  1
  O2-  O233  1  0.20959946  0.83334028  0.73485848  1
  O2-  O234  1  0.70563172  0.32899367  0.06839423  1
  O2-  O235  1  0.70419744  0.33746647  0.39752475  1
  O2-  O236  1  0.69576160  0.33371264  0.72385179  1
  O2-  O237  1  0.71000236  0.83599288  0.06832422  1
  O2-  O238  1  0.70333613  0.82464176  0.39971490  1
  O2-  O239  1  0.71242368  0.83046994  0.73557257  1
  O2-  O240  1  0.46271547  0.41245376  0.27085882  1
  O2-  O241  1  0.46553465  0.41710752  0.59409911  1
  O2-  O242  1  0.46098290  0.41592423  0.93175018  1
  O2-  O243  1  0.45641049  0.91483061  0.27601558  1
  O2-  O244  1  0.45683739  0.91460373  0.60432019  1
  O2-  O245  1  0.45121480  0.92204583  0.93076622  1
  O2-  O246  1  0.95076267  0.41357706  0.26896249  1
  O2-  O247  1  0.95667130  0.42176798  0.59892961  1
  O2-  O248  1  0.94773353  0.42002181  0.94327931  1
  O2-  O249  1  0.95046424  0.92422232  0.26518197  1
  O2-  O250  1  0.95175974  0.91737687  0.60200781  1
  O2-  O251  1  0.95869749  0.91027967  0.93665673  1
  O2-  O252  1  0.33554168  0.29875312  0.27176122  1
  O2-  O253  1  0.33543262  0.29325300  0.59316976  1
  O2-  O254  1  0.33697146  0.28557340  0.93049927  1
  O2-  O255  1  0.34003244  0.79163954  0.27602282  1
  O2-  O256  1  0.33695077  0.79343538  0.60211238  1
  O2-  O257  1  0.32781753  0.79114079  0.93095383  1
  O2-  O258  1  0.83307185  0.29269952  0.27044545  1
  O2-  O259  1  0.82725836  0.29746942  0.60014017  1
  O2-  O260  1  0.83434519  0.29676686  0.93782798  1
  O2-  O261  1  0.83071228  0.78812546  0.26441685  1
  O2-  O262  1  0.83513734  0.78122315  0.59874972  1
  O2-  O263  1  0.83788075  0.79120711  0.93966933  1
  O2-  O264  1  0.41695282  0.05343855  0.05795919  1
  O2-  O265  1  0.41881030  0.04771855  0.40308563  1
  O2-  O266  1  0.41509484  0.04701082  0.73071790  1
  O2-  O267  1  0.41898135  0.54242182  0.06506589  1
  O2-  O268  1  0.41594659  0.53535274  0.40579124  1
  O2-  O269  1  0.42025758  0.54448411  0.72811051  1
  O2-  O270  1  0.91245280  0.03876179  0.06277450  1
  O2-  O271  1  0.92113356  0.05335932  0.40004505  1
  O2-  O272  1  0.91617682  0.05050612  0.72875627  1
  O2-  O273  1  0.91930560  0.54565733  0.07417166  1
  O2-  O274  1  0.91386808  0.54014830  0.39754610  1
  O2-  O275  1  0.91341888  0.54757110  0.72624606  1
  O2-  O276  1  0.29123605  0.16266530  0.06101476  1
  O2-  O277  1  0.29414594  0.17360597  0.39993610  1
  O2-  O278  1  0.29909135  0.16872887  0.72527379  1
  O2-  O279  1  0.29141873  0.66780311  0.06716131  1
  O2-  O280  1  0.29473038  0.66577551  0.40552702  1
  O2-  O281  1  0.30482547  0.66721066  0.72989247  1
  O2-  O282  1  0.80433128  0.16629360  0.05994260  1
  O2-  O283  1  0.78587326  0.16867365  0.40457816  1
  O2-  O284  1  0.79244894  0.16649088  0.73198939  1
  O2-  O285  1  0.79165518  0.66897275  0.07274823  1
  O2-  O286  1  0.79275477  0.65971797  0.39902541  1
  O2-  O287  1  0.78612123  0.65763766  0.72808889  1
