# generated using pymatgen
data_Ca2Al2SiO7
_symmetry_space_group_name_H-M   'P 1'
_cell_length_a   15.45376608
_cell_length_b   15.45426065
_cell_length_c   15.28043612
_cell_angle_alpha   89.99771977
_cell_angle_beta   90.00120859
_cell_angle_gamma   90.00684779
_symmetry_Int_Tables_number   1
_chemical_formula_structural   Ca2Al2SiO7
_chemical_formula_sum   'Ca48 Al48 Si24 O168'
_cell_volume   3649.37348970
_cell_formula_units_Z   24
loop_
 _symmetry_equiv_pos_site_id
 _symmetry_equiv_pos_as_xyz
  1  'x, y, z'
loop_
 _atom_type_symbol
 _atom_type_oxidation_number
  Ca2+  2.0
  Al0+  0.0
  Si0+  0.0
  O2-  -2.0
loop_
 _atom_site_type_symbol
 _atom_site_label
 _atom_site_symmetry_multiplicity
 _atom_site_fract_x
 _atom_site_fract_y
 _atom_site_fract_z
 _atom_site_occupancy
  Ca2+  Ca0  1  0.17423884  0.07778462  0.17112328  1
  Ca2+  Ca1  1  0.17983158  0.07987445  0.50759263  1
  Ca2+  Ca2  1  0.17077940  0.07468376  0.83641250  1
  Ca2+  Ca3  1  0.17444137  0.57341260  0.16695344  1
  Ca2+  Ca4  1  0.17162350  0.58149035  0.50725890  1
  Ca2+  Ca5  1  0.17722396  0.58507363  0.84024898  1
  Ca2+  Ca6  1  0.66156899  0.07980106  0.17039469  1
  Ca2+  Ca7  1  0.66824746  0.08163815  0.50413725  1
  Ca2+  Ca8  1  0.66355502  0.07126051  0.83885200  1
  Ca2+  Ca9  1  0.66985774  0.59283834  0.16586531  1
  Ca2+  Ca10  1  0.66275903  0.57838012  0.50901601  1
  Ca2+  Ca11  1  0.66594159  0.58288023  0.83942017  1
  Ca2+  Ca12  1  0.08491179  0.33784835  0.16444420  1
  Ca2+  Ca13  1  0.07104612  0.33934167  0.49355466  1
  Ca2+  Ca14  1  0.07894531  0.33837780  0.82895397  1
  Ca2+  Ca15  1  0.07589957  0.83726286  0.15585517  1
  Ca2+  Ca16  1  0.09378293  0.82810307  0.50314384  1
  Ca2+  Ca17  1  0.08130432  0.83476444  0.82757028  1
  Ca2+  Ca18  1  0.57750368  0.31808377  0.15781987  1
  Ca2+  Ca19  1  0.58216281  0.32859978  0.49340004  1
  Ca2+  Ca20  1  0.58030267  0.33234290  0.83168311  1
  Ca2+  Ca21  1  0.57772512  0.82746619  0.15499005  1
  Ca2+  Ca22  1  0.58908113  0.82290835  0.49818939  1
  Ca2+  Ca23  1  0.58391248  0.82516259  0.83222962  1
  Ca2+  Ca24  1  0.32839088  0.41292602  0.16494097  1
  Ca2+  Ca25  1  0.32751102  0.42133597  0.50605409  1
  Ca2+  Ca26  1  0.33313719  0.42850371  0.84342628  1
  Ca2+  Ca27  1  0.33319448  0.91576524  0.16634719  1
  Ca2+  Ca28  1  0.33409613  0.92893142  0.50806563  1
  Ca2+  Ca29  1  0.32481965  0.91311798  0.83863514  1
  Ca2+  Ca30  1  0.83505150  0.42364762  0.16949092  1
  Ca2+  Ca31  1  0.82806517  0.41209578  0.50598832  1
  Ca2+  Ca32  1  0.82894925  0.42134333  0.83550136  1
  Ca2+  Ca33  1  0.82701467  0.92016548  0.16728094  1
  Ca2+  Ca34  1  0.82758548  0.92523751  0.50447640  1
  Ca2+  Ca35  1  0.82199115  0.90722849  0.84004759  1
  Ca2+  Ca36  1  0.42313339  0.16576081  0.15941082  1
  Ca2+  Ca37  1  0.41974774  0.16090280  0.49324551  1
  Ca2+  Ca38  1  0.41686409  0.16944494  0.83421713  1
  Ca2+  Ca39  1  0.42735275  0.66802567  0.15602640  1
  Ca2+  Ca40  1  0.42642483  0.66291802  0.49916542  1
  Ca2+  Ca41  1  0.41866856  0.66654998  0.82928961  1
  Ca2+  Ca42  1  0.91243774  0.17177534  0.16543301  1
  Ca2+  Ca43  1  0.91122331  0.17787816  0.49342282  1
  Ca2+  Ca44  1  0.91950191  0.17387993  0.82701931  1
  Ca2+  Ca45  1  0.91649973  0.67268118  0.15608580  1
  Ca2+  Ca46  1  0.92532495  0.66729637  0.49938842  1
  Ca2+  Ca47  1  0.92176844  0.66779583  0.83222270  1
  Al0+  Al48  1  -0.00090745  0.00124449  -0.00161870  1
  Al0+  Al49  1  -0.00147909  0.00078263  0.33974233  1
  Al0+  Al50  1  0.00048019  0.00252478  0.66647773  1
  Al0+  Al51  1  -0.00113867  0.50073032  0.00738615  1
  Al0+  Al52  1  -0.00054824  0.50108012  0.33284055  1
  Al0+  Al53  1  -0.00152281  0.50153213  0.65659552  1
  Al0+  Al54  1  0.50018624  -0.00214961  -0.00405395  1
  Al0+  Al55  1  0.49932203  -0.00285436  0.33445276  1
  Al0+  Al56  1  0.50128253  0.00085131  0.67420552  1
  Al0+  Al57  1  0.50142784  0.49719022  -0.00042666  1
  Al0+  Al58  1  0.50053326  0.49994463  0.32715886  1
  Al0+  Al59  1  0.50007034  0.49844483  0.66950440  1
  Al0+  Al60  1  0.24919577  0.24921662  -0.00121837  1
  Al0+  Al61  1  0.24691237  0.24987396  0.34349953  1
  Al0+  Al62  1  0.24972156  0.25033999  0.66969641  1
  Al0+  Al63  1  0.25022730  0.74864377  0.00854869  1
  Al0+  Al64  1  0.25051746  0.74764003  0.33221273  1
  Al0+  Al65  1  0.25072952  0.75097555  0.66679488  1
  Al0+  Al66  1  0.75133095  0.25006845  -0.00533227  1
  Al0+  Al67  1  0.74969946  0.25074422  0.32657826  1
  Al0+  Al68  1  0.74912471  0.25091990  0.66769007  1
  Al0+  Al69  1  0.75091585  0.75123043  0.00163081  1
  Al0+  Al70  1  0.75228343  0.74946456  0.33177835  1
  Al0+  Al71  1  0.75159545  0.74998610  0.66339936  1
  Al0+  Al72  1  0.81938571  0.07278019  0.34644198  1
  Al0+  Al73  1  0.68171477  0.92745005  0.68028758  1
  Al0+  Al74  1  0.32310468  0.07392691  0.68537500  1
  Al0+  Al75  1  0.93024124  0.82250552  0.98690810  1
  Al0+  Al76  1  0.67882272  0.93016072  0.01442816  1
  Al0+  Al77  1  0.17937668  0.92928493  0.68171090  1
  Al0+  Al78  1  0.17859393  0.42772678  0.01379565  1
  Al0+  Al79  1  0.32092581  0.56958780  0.67888251  1
  Al0+  Al80  1  0.92932278  0.32112146  0.31655830  1
  Al0+  Al81  1  0.07233085  0.68142368  0.65390892  1
  Al0+  Al82  1  0.57294863  0.17731582  0.98202059  1
  Al0+  Al83  1  0.81856977  0.57011023  0.01285259  1
  Al0+  Al84  1  0.32125232  0.06898626  0.34547636  1
  Al0+  Al85  1  0.67917244  0.42873740  0.67941927  1
  Al0+  Al86  1  0.56933747  0.17806393  0.32137562  1
  Al0+  Al87  1  0.92927941  0.31979993  0.65274473  1
  Al0+  Al88  1  0.32494461  0.57136290  0.01717262  1
  Al0+  Al89  1  0.42581876  0.81977585  0.98405120  1
  Al0+  Al90  1  0.17720516  0.92858891  0.01416840  1
  Al0+  Al91  1  0.57215761  0.67898685  0.98397884  1
  Al0+  Al92  1  0.42726959  0.31955791  0.98443910  1
  Al0+  Al93  1  0.57207923  0.67822480  0.31894002  1
  Al0+  Al94  1  0.17835306  0.43052381  0.35008600  1
  Al0+  Al95  1  0.57085216  0.67840418  0.65304520  1
  Si0+  Si96  1  0.56955584  0.17873159  0.65133017  1
  Si0+  Si97  1  0.42880149  0.82318592  0.64970469  1
  Si0+  Si98  1  0.67855773  0.42471579  0.01818505  1
  Si0+  Si99  1  0.07343412  0.17759136  0.64806324  1
  Si0+  Si100  1  0.07068239  0.17878660  0.98539816  1
  Si0+  Si101  1  0.82134772  0.07362080  0.68344293  1
  Si0+  Si102  1  0.07168924  0.67932260  0.31654448  1
  Si0+  Si103  1  0.32381571  0.57152519  0.35107127  1
  Si0+  Si104  1  0.32086131  0.07077354  0.01642987  1
  Si0+  Si105  1  0.07206453  0.17744850  0.31791542  1
  Si0+  Si106  1  0.42763565  0.82101272  0.31790855  1
  Si0+  Si107  1  0.42466257  0.32144441  0.31918251  1
  Si0+  Si108  1  0.67980992  0.43033515  0.34511958  1
  Si0+  Si109  1  0.82094545  0.57279324  0.35020843  1
  Si0+  Si110  1  0.82334239  0.57182807  0.68077056  1
  Si0+  Si111  1  0.93026752  0.32348339  0.98490458  1
  Si0+  Si112  1  0.17488257  0.43011778  0.68129874  1
  Si0+  Si113  1  0.17612003  0.92608322  0.35008035  1
  Si0+  Si114  1  0.92746701  0.82449459  0.64800995  1
  Si0+  Si115  1  0.67873023  0.92693358  0.35007912  1
  Si0+  Si116  1  0.07062522  0.67746630  0.98669947  1
  Si0+  Si117  1  0.42837008  0.32126091  0.65097186  1
  Si0+  Si118  1  0.82221895  0.07427231  0.01544763  1
  Si0+  Si119  1  0.93076414  0.82229488  0.31898012  1
  O2-  O120  1  0.25454178  0.00001159  0.06148773  1
  O2-  O121  1  0.24663501  -0.00622653  0.39213336  1
  O2-  O122  1  0.25106883  0.00066344  0.73271444  1
  O2-  O123  1  0.25367034  0.49633625  0.06434573  1
  O2-  O124  1  0.25512745  0.50329903  0.39620188  1
  O2-  O125  1  0.24408969  0.49709894  0.72568400  1
  O2-  O126  1  0.75033274  0.00905209  0.05975232  1
  O2-  O127  1  0.74387049  -0.00067488  0.39401899  1
  O2-  O128  1  0.75863400  0.00004118  0.72747795  1
  O2-  O129  1  0.74337781  0.49714237  0.06254033  1
  O2-  O130  1  0.74787054  0.50313572  0.39048395  1
  O2-  O131  1  0.75196920  0.50610097  0.72445733  1
  O2-  O132  1  0.00452874  0.24606161  0.27092606  1
  O2-  O133  1  0.00455655  0.24647171  0.60419426  1
  O2-  O134  1  0.00151271  0.25250278  0.94372473  1
  O2-  O135  1  0.00481092  0.75483654  0.27595698  1
  O2-  O136  1  -0.00015608  0.75860787  0.60482026  1
  O2-  O137  1  0.00757411  0.75036644  0.94093998  1
  O2-  O138  1  0.49061727  0.24940266  0.27632272  1
  O2-  O139  1  0.49636879  0.24725659  0.60794038  1
  O2-  O140  1  0.50118112  0.25009232  0.93281369  1
  O2-  O141  1  0.49597742  0.75178324  0.27468358  1
  O2-  O142  1  0.49801411  0.75468918  0.60474256  1
  O2-  O143  1  0.49592450  0.74608270  0.93347046  1
  O2-  O144  1  0.06966623  0.17685230  0.09051473  1
  O2-  O145  1  0.07030338  0.17848109  0.42329744  1
  O2-  O146  1  0.07137211  0.17769996  0.75400804  1
  O2-  O147  1  0.06550490  0.67744666  0.09277285  1
  O2-  O148  1  0.07147909  0.67989981  0.42184901  1
  O2-  O149  1  0.06918069  0.67877474  0.76662210  1
  O2-  O150  1  0.57188452  0.17799252  0.09633835  1
  O2-  O151  1  0.57013842  0.18070673  0.43505116  1
  O2-  O152  1  0.57137180  0.18097064  0.75581369  1
  O2-  O153  1  0.57295442  0.68424518  0.09800934  1
  O2-  O154  1  0.57222964  0.67770036  0.43252967  1
  O2-  O155  1  0.57134541  0.67807346  0.76500730  1
  O2-  O156  1  0.17884623  0.43175200  0.23739712  1
  O2-  O157  1  0.17599718  0.43204321  0.57536177  1
  O2-  O158  1  0.17446681  0.43149239  0.90021746  1
  O2-  O159  1  0.17350870  0.92742908  0.24453330  1
  O2-  O160  1  0.18287240  0.93078498  0.56743478  1
  O2-  O161  1  0.17454083  0.93218864  0.90169017  1
  O2-  O162  1  0.68260128  0.43075180  0.24044710  1
  O2-  O163  1  0.67972864  0.42753828  0.56533898  1
  O2-  O164  1  0.68289923  0.42295253  0.91247264  1
  O2-  O165  1  0.68032565  0.92611858  0.24473853  1
  O2-  O166  1  0.68290086  0.92948525  0.56644669  1
  O2-  O167  1  0.68270574  0.92857490  0.90139039  1
  O2-  O168  1  0.42645990  0.31395687  0.09876106  1
  O2-  O169  1  0.42858638  0.32428348  0.42517256  1
  O2-  O170  1  0.42994206  0.32204332  0.75548206  1
  O2-  O171  1  0.42888633  0.82065687  0.09839437  1
  O2-  O172  1  0.42753643  0.82173137  0.42359007  1
  O2-  O173  1  0.42746973  0.82131190  0.75469856  1
  O2-  O174  1  0.92939683  0.32235714  0.08997471  1
  O2-  O175  1  0.92808207  0.32066486  0.42974012  1
  O2-  O176  1  0.93121249  0.31976459  0.76622913  1
  O2-  O177  1  0.93101569  0.82238892  0.10083572  1
  O2-  O178  1  0.92894951  0.81958872  0.42401317  1
  O2-  O179  1  0.92555245  0.82219255  0.75328579  1
  O2-  O180  1  0.32003416  0.06818488  0.23258219  1
  O2-  O181  1  0.32337667  0.07272877  0.57100442  1
  O2-  O182  1  0.31666091  0.07284194  0.91126257  1
  O2-  O183  1  0.32270401  0.57208237  0.24609418  1
  O2-  O184  1  0.32122147  0.56623832  0.56512747  1
  O2-  O185  1  0.32097249  0.57205701  0.90331067  1
  O2-  O186  1  0.82049516  0.06985917  0.23366113  1
  O2-  O187  1  0.81755703  0.07539309  0.57741930  1
  O2-  O188  1  0.82417385  0.07470234  0.90986185  1
  O2-  O189  1  0.82196264  0.57425464  0.24523470  1
  O2-  O190  1  0.82350986  0.57050242  0.57454597  1
  O2-  O191  1  0.82243748  0.56624870  0.89979889  1
  O2-  O192  1  0.04638700  0.08264242  0.27372546  1
  O2-  O193  1  0.04890903  0.08404999  0.60095401  1
  O2-  O194  1  0.03872572  0.09000719  0.93456066  1
  O2-  O195  1  0.03805104  0.58984305  0.26929838  1
  O2-  O196  1  0.03839026  0.58789860  0.59389876  1
  O2-  O197  1  0.03866427  0.58579782  0.94040939  1
  O2-  O198  1  0.54209558  0.07951241  0.26940453  1
  O2-  O199  1  0.54434157  0.08552699  0.60477657  1
  O2-  O200  1  0.54446718  0.07937130  0.93008533  1
  O2-  O201  1  0.54428076  0.58172110  0.26320033  1
  O2-  O202  1  0.53788018  0.58134111  0.59929116  1
  O2-  O203  1  0.55323245  0.57626419  0.93736939  1
  O2-  O204  1  0.16628287  0.20364143  0.27319123  1
  O2-  O205  1  0.16791431  0.20307691  0.60335076  1
  O2-  O206  1  0.16179894  0.20431353  0.93629676  1
  O2-  O207  1  0.16548613  0.70088028  0.27019978  1
  O2-  O208  1  0.16839092  0.71118995  0.59607873  1
  O2-  O209  1  0.16667300  0.69749436  0.94595031  1
  O2-  O210  1  0.66301786  0.21173857  0.26432644  1
  O2-  O211  1  0.66104475  0.20915695  0.60401705  1
  O2-  O212  1  0.67186356  0.20541733  0.92906034  1
  O2-  O213  1  0.66984517  0.70907445  0.26714923  1
  O2-  O214  1  0.66857830  0.70729594  0.59801774  1
  O2-  O215  1  0.66973804  0.71142438  0.93238994  1
  O2-  O216  1  0.08232430  0.45860259  0.07055562  1
  O2-  O217  1  0.08178004  0.46558814  0.40253292  1
  O2-  O218  1  0.08033223  0.45651384  0.72403923  1
  O2-  O219  1  0.08153356  0.96451123  0.06836048  1
  O2-  O220  1  0.08361923  0.95082744  0.39864167  1
  O2-  O221  1  0.07892763  0.95636819  0.73190898  1
  O2-  O222  1  0.58333459  0.44293839  0.06248604  1
  O2-  O223  1  0.58617278  0.45489089  0.39147528  1
  O2-  O224  1  0.58353437  0.45699225  0.73460903  1
  O2-  O225  1  0.58101619  0.95816940  0.06784183  1
  O2-  O226  1  0.58419315  0.94775423  0.39567878  1
  O2-  O227  1  0.58671122  0.95865961  0.73492275  1
  O2-  O228  1  0.20382833  0.32785485  0.06688735  1
  O2-  O229  1  0.20302215  0.33364287  0.40673585  1
  O2-  O230  1  0.19661018  0.33521932  0.72517885  1
  O2-  O231  1  0.20230494  0.83213607  0.07093674  1
  O2-  O232  1  0.20147182  0.83089569  0.39353692  1
  O2-  O233  1  0.20512153  0.83044791  0.73359793  1
  O2-  O234  1  0.71028226  0.33238910  0.06415335  1
  O2-  O235  1  0.70984575  0.33912062  0.39249807  1
  O2-  O236  1  0.71293018  0.33422255  0.73524478  1
  O2-  O237  1  0.71511652  0.83660113  0.07039758  1
  O2-  O238  1  0.71135588  0.83507886  0.39675662  1
  O2-  O239  1  0.71307736  0.83054941  0.73304364  1
  O2-  O240  1  0.45209371  0.41315876  0.27061436  1
  O2-  O241  1  0.45978160  0.41094857  0.60134882  1
  O2-  O242  1  0.45491815  0.41817973  0.93242778  1
  O2-  O243  1  0.45353818  0.91365446  0.27033022  1
  O2-  O244  1  0.45642499  0.91795287  0.60601201  1
  O2-  O245  1  0.45275937  0.91792012  0.93136144  1
  O2-  O246  1  0.96020340  0.41894892  0.26478655  1
  O2-  O247  1  0.95671633  0.41567559  0.59489466  1
  O2-  O248  1  0.95914667  0.41523792  0.93835792  1
  O2-  O249  1  0.95531299  0.91584226  0.27345720  1
  O2-  O250  1  0.94914796  0.92026668  0.60371577  1
  O2-  O251  1  0.95717465  0.91938990  0.93170242  1
  O2-  O252  1  0.32892246  0.29779421  0.27780096  1
  O2-  O253  1  0.33415083  0.29743640  0.60524130  1
  O2-  O254  1  0.32885737  0.29145023  0.93053900  1
  O2-  O255  1  0.33313743  0.79726969  0.27193252  1
  O2-  O256  1  0.33579176  0.79816629  0.60205018  1
  O2-  O257  1  0.32480605  0.79337309  0.93527349  1
  O2-  O258  1  0.83428312  0.29006079  0.26032703  1
  O2-  O259  1  0.83255913  0.28673826  0.59853889  1
  O2-  O260  1  0.83956024  0.29600040  0.93542705  1
  O2-  O261  1  0.84035470  0.79145173  0.27044410  1
  O2-  O262  1  0.83670593  0.79489464  0.59782530  1
  O2-  O263  1  0.83621452  0.78660386  0.93295177  1
  O2-  O264  1  0.41564920  0.04677176  0.05996258  1
  O2-  O265  1  0.41714398  0.03735688  0.40210176  1
  O2-  O266  1  0.42166746  0.04892817  0.73739249  1
  O2-  O267  1  0.42373978  0.54249524  0.06927132  1
  O2-  O268  1  0.41841593  0.54471229  0.39524510  1
  O2-  O269  1  0.41507083  0.53619304  0.73404712  1
  O2-  O270  1  0.91425444  0.04598316  0.06304380  1
  O2-  O271  1  0.91485018  0.04226231  0.40412410  1
  O2-  O272  1  0.91786205  0.05571798  0.72559837  1
  O2-  O273  1  0.91283163  0.53816918  0.07181354  1
  O2-  O274  1  0.91213237  0.54311990  0.39745806  1
  O2-  O275  1  0.91587380  0.54208588  0.72619963  1
  O2-  O276  1  0.29152728  0.16284911  0.06344172  1
  O2-  O277  1  0.29197655  0.16442201  0.40312403  1
  O2-  O278  1  0.29296503  0.17225216  0.73775793  1
  O2-  O279  1  0.29445580  0.66705433  0.07439437  1
  O2-  O280  1  0.29757116  0.66553619  0.39694196  1
  O2-  O281  1  0.29250653  0.66694107  0.73052089  1
  O2-  O282  1  0.80021284  0.16952154  0.06028082  1
  O2-  O283  1  0.78794749  0.17027636  0.39882781  1
  O2-  O284  1  0.79160459  0.16484479  0.73132374  1
  O2-  O285  1  0.78984757  0.66625363  0.06928089  1
  O2-  O286  1  0.79592950  0.66518861  0.39825906  1
  O2-  O287  1  0.80270817  0.66692962  0.72436021  1
