# generated using pymatgen
data_Ca2Al2SiO7
_symmetry_space_group_name_H-M   'P 1'
_cell_length_a   15.46107138
_cell_length_b   15.46002349
_cell_length_c   15.28515967
_cell_angle_alpha   90.01219784
_cell_angle_beta   89.99539461
_cell_angle_gamma   89.99864067
_symmetry_Int_Tables_number   1
_chemical_formula_structural   Ca2Al2SiO7
_chemical_formula_sum   'Ca48 Al48 Si24 O168'
_cell_volume   3653.58910092
_cell_formula_units_Z   24
loop_
 _symmetry_equiv_pos_site_id
 _symmetry_equiv_pos_as_xyz
  1  'x, y, z'
loop_
 _atom_type_symbol
 _atom_type_oxidation_number
  Ca2+  2.0
  Al0+  0.0
  Si0+  0.0
  O2-  -2.0
loop_
 _atom_site_type_symbol
 _atom_site_label
 _atom_site_symmetry_multiplicity
 _atom_site_fract_x
 _atom_site_fract_y
 _atom_site_fract_z
 _atom_site_occupancy
  Ca2+  Ca0  1  0.17379556  0.07677948  0.17938540  1
  Ca2+  Ca1  1  0.17413743  0.07485833  0.50097557  1
  Ca2+  Ca2  1  0.16601052  0.07700345  0.83147960  1
  Ca2+  Ca3  1  0.17475160  0.58540214  0.16627565  1
  Ca2+  Ca4  1  0.17014153  0.57830692  0.50783302  1
  Ca2+  Ca5  1  0.17071560  0.58082371  0.83527937  1
  Ca2+  Ca6  1  0.67301926  0.07538901  0.17957398  1
  Ca2+  Ca7  1  0.66218998  0.07617391  0.50266772  1
  Ca2+  Ca8  1  0.66200394  0.07808371  0.82949191  1
  Ca2+  Ca9  1  0.67132094  0.58198455  0.17412890  1
  Ca2+  Ca10  1  0.66310658  0.57593346  0.50708494  1
  Ca2+  Ca11  1  0.67582971  0.58760001  0.83022287  1
  Ca2+  Ca12  1  0.07577910  0.32816015  0.15970483  1
  Ca2+  Ca13  1  0.07707002  0.33867092  0.49974290  1
  Ca2+  Ca14  1  0.07348708  0.33972273  0.82637159  1
  Ca2+  Ca15  1  0.07268048  0.84092251  0.16570671  1
  Ca2+  Ca16  1  0.07389551  0.84605238  0.49813148  1
  Ca2+  Ca17  1  0.07150188  0.83277217  0.82472289  1
  Ca2+  Ca18  1  0.58654123  0.32927709  0.17377679  1
  Ca2+  Ca19  1  0.58837122  0.32563908  0.49170259  1
  Ca2+  Ca20  1  0.58833852  0.32679314  0.82331596  1
  Ca2+  Ca21  1  0.58421125  0.82926983  0.16532598  1
  Ca2+  Ca22  1  0.59395312  0.82315878  0.49778317  1
  Ca2+  Ca23  1  0.57228372  0.82915568  0.82008093  1
  Ca2+  Ca24  1  0.33943544  0.42125527  0.17305843  1
  Ca2+  Ca25  1  0.33072380  0.41340770  0.50472721  1
  Ca2+  Ca26  1  0.32801705  0.42314746  0.83728840  1
  Ca2+  Ca27  1  0.32842346  0.91916276  0.17600253  1
  Ca2+  Ca28  1  0.32584249  0.91391424  0.50706231  1
  Ca2+  Ca29  1  0.32967413  0.90566892  0.83561758  1
  Ca2+  Ca30  1  0.83060307  0.42210762  0.17028933  1
  Ca2+  Ca31  1  0.82214882  0.42218338  0.51104001  1
  Ca2+  Ca32  1  0.83459315  0.42535173  0.83499934  1
  Ca2+  Ca33  1  0.83267687  0.91956748  0.17946104  1
  Ca2+  Ca34  1  0.82589776  0.91666086  0.50197554  1
  Ca2+  Ca35  1  0.82542671  0.90545243  0.83321683  1
  Ca2+  Ca36  1  0.41944802  0.16541519  0.17056778  1
  Ca2+  Ca37  1  0.42711109  0.17021058  0.49243242  1
  Ca2+  Ca38  1  0.42451718  0.16980131  0.82468936  1
  Ca2+  Ca39  1  0.42364359  0.67003334  0.16130860  1
  Ca2+  Ca40  1  0.42874898  0.67065375  0.49807025  1
  Ca2+  Ca41  1  0.41885199  0.67326718  0.82734426  1
  Ca2+  Ca42  1  0.91245335  0.16985593  0.16330531  1
  Ca2+  Ca43  1  0.91042104  0.17137579  0.49658951  1
  Ca2+  Ca44  1  0.91312670  0.18214535  0.82696451  1
  Ca2+  Ca45  1  0.91308655  0.67903472  0.16202760  1
  Ca2+  Ca46  1  0.90818224  0.67823678  0.50024957  1
  Ca2+  Ca47  1  0.90906315  0.67097847  0.82727362  1
  Al0+  Al48  1  -0.00065506  0.00012993  -0.00541778  1
  Al0+  Al49  1  0.00049717  0.00269919  0.33607108  1
  Al0+  Al50  1  0.00198078  0.00240057  0.66876137  1
  Al0+  Al51  1  -0.00061817  0.49997006  0.00300188  1
  Al0+  Al52  1  0.00199883  0.50285131  0.33055382  1
  Al0+  Al53  1  0.00058072  0.50075267  0.66903394  1
  Al0+  Al54  1  0.49911910  -0.00091237  -0.00299904  1
  Al0+  Al55  1  0.50071038  -0.00008950  0.33617578  1
  Al0+  Al56  1  0.49886617  0.00208218  0.66367906  1
  Al0+  Al57  1  0.49976820  0.49731552  0.00344480  1
  Al0+  Al58  1  0.50102123  0.50110782  0.32897729  1
  Al0+  Al59  1  0.49932953  0.50004485  0.66943158  1
  Al0+  Al60  1  0.25081855  0.24742639  -0.00073349  1
  Al0+  Al61  1  0.24912626  0.25071262  0.33254302  1
  Al0+  Al62  1  0.24880914  0.24931364  0.67314217  1
  Al0+  Al63  1  0.24909200  0.74862661  0.00305505  1
  Al0+  Al64  1  0.24891080  0.74747073  0.33781789  1
  Al0+  Al65  1  0.24823619  0.75053213  0.66789628  1
  Al0+  Al66  1  0.75007193  0.24823289  -0.00379642  1
  Al0+  Al67  1  0.74944821  0.25195649  0.33337177  1
  Al0+  Al68  1  0.75052605  0.25019027  0.66172266  1
  Al0+  Al69  1  0.74877714  0.74728471  0.00147942  1
  Al0+  Al70  1  0.75221446  0.75075075  0.32610017  1
  Al0+  Al71  1  0.74904536  0.75102203  0.66681386  1
  Al0+  Al72  1  0.67737033  0.42664161  0.68196536  1
  Al0+  Al73  1  0.93286163  0.82115829  0.32035612  1
  Al0+  Al74  1  0.57083973  0.67890446  0.65226404  1
  Al0+  Al75  1  0.92973422  0.32063631  0.98646783  1
  Al0+  Al76  1  0.17916076  0.42829755  0.68023289  1
  Al0+  Al77  1  0.82049502  0.57078042  0.01655418  1
  Al0+  Al78  1  0.17880779  0.92890876  0.68354074  1
  Al0+  Al79  1  0.92905695  0.82219763  0.65270935  1
  Al0+  Al80  1  0.32116961  0.57011627  0.01481697  1
  Al0+  Al81  1  0.81990227  0.57164984  0.68029208  1
  Al0+  Al82  1  0.57262697  0.17656453  0.31683531  1
  Al0+  Al83  1  0.67898541  0.93022367  0.68073105  1
  Al0+  Al84  1  0.57116180  0.68010413  0.31797316  1
  Al0+  Al85  1  0.93084078  0.32252587  0.65117631  1
  Al0+  Al86  1  0.57135647  0.18045732  0.65201776  1
  Al0+  Al87  1  0.82174699  0.07305570  0.34764874  1
  Al0+  Al88  1  0.67981346  0.43241853  0.34589612  1
  Al0+  Al89  1  0.92804562  0.82099649  0.98505436  1
  Al0+  Al90  1  0.42612404  0.82142956  0.65062186  1
  Al0+  Al91  1  0.17981144  0.92755515  0.34850711  1
  Al0+  Al92  1  0.67942444  0.92658960  0.34731917  1
  Al0+  Al93  1  0.32244048  0.07291134  0.34870689  1
  Al0+  Al94  1  0.42943211  0.82002229  0.98826543  1
  Al0+  Al95  1  0.42791307  0.32037331  0.31858528  1
  Si0+  Si96  1  0.56967131  0.17891912  0.98465521  1
  Si0+  Si97  1  0.42743630  0.32122016  0.98415182  1
  Si0+  Si98  1  0.82014197  0.07074452  0.01211039  1
  Si0+  Si99  1  0.17798634  0.42925104  0.34654995  1
  Si0+  Si100  1  0.32196217  0.57234928  0.68327576  1
  Si0+  Si101  1  0.17877317  0.42631495  0.01823681  1
  Si0+  Si102  1  0.07479526  0.67498594  0.31466866  1
  Si0+  Si103  1  0.57141260  0.67500022  0.98306290  1
  Si0+  Si104  1  0.67861056  0.42369000  0.01794716  1
  Si0+  Si105  1  0.07348270  0.17901571  0.64860694  1
  Si0+  Si106  1  0.82288884  0.07254392  0.68454992  1
  Si0+  Si107  1  0.42484598  0.82085569  0.31841222  1
  Si0+  Si108  1  0.42597550  0.32218464  0.65370885  1
  Si0+  Si109  1  0.07010524  0.18133477  0.31892389  1
  Si0+  Si110  1  0.07413988  0.17753199  0.98194534  1
  Si0+  Si111  1  0.32224188  0.07071820  0.01518880  1
  Si0+  Si112  1  0.92878458  0.32407004  0.31812709  1
  Si0+  Si113  1  0.32175494  0.07142005  0.68579711  1
  Si0+  Si114  1  0.17783760  0.92988843  0.01468077  1
  Si0+  Si115  1  0.82435649  0.57261706  0.34910831  1
  Si0+  Si116  1  0.07186810  0.67826922  0.65053987  1
  Si0+  Si117  1  0.67784377  0.92926513  0.01304339  1
  Si0+  Si118  1  0.32197390  0.56992746  0.34905278  1
  Si0+  Si119  1  0.07199306  0.67861496  0.98385288  1
  O2-  O120  1  0.24968441  0.00056543  0.05637543  1
  O2-  O121  1  0.25684135  -0.00535389  0.39789687  1
  O2-  O122  1  0.25678275  -0.00037054  0.73174271  1
  O2-  O123  1  0.24905118  0.49269097  0.06331391  1
  O2-  O124  1  0.25028999  0.49838658  0.38939765  1
  O2-  O125  1  0.25474936  0.50156057  0.72699558  1
  O2-  O126  1  0.75404771  -0.00460074  0.05442952  1
  O2-  O127  1  0.74797254  0.00264577  0.39644107  1
  O2-  O128  1  0.75572199  0.00257744  0.72989903  1
  O2-  O129  1  0.74502859  0.49538884  0.06110687  1
  O2-  O130  1  0.75569262  0.50489079  0.39309862  1
  O2-  O131  1  0.74901477  0.49878473  0.73198491  1
  O2-  O132  1  -0.00218476  0.25085576  0.27578477  1
  O2-  O133  1  0.00477645  0.24714195  0.60368178  1
  O2-  O134  1  0.00713129  0.24839485  0.93927288  1
  O2-  O135  1  0.00834170  0.74700108  0.27282296  1
  O2-  O136  1  0.00435319  0.74766891  0.60630610  1
  O2-  O137  1  0.00131512  0.74449675  0.93901035  1
  O2-  O138  1  0.49813373  0.24694509  0.26681917  1
  O2-  O139  1  0.49862573  0.25896812  0.60939778  1
  O2-  O140  1  0.50010067  0.25193618  0.94266158  1
  O2-  O141  1  0.49729648  0.75693939  0.27256059  1
  O2-  O142  1  0.50114295  0.75286495  0.60113687  1
  O2-  O143  1  0.50246606  0.74434183  0.94085978  1
  O2-  O144  1  0.07483395  0.17692402  0.08779251  1
  O2-  O145  1  0.07174327  0.18422415  0.42349091  1
  O2-  O146  1  0.07270884  0.17992071  0.75468833  1
  O2-  O147  1  0.07376920  0.68146673  0.08953150  1
  O2-  O148  1  0.07469743  0.66631808  0.41936834  1
  O2-  O149  1  0.07333070  0.67917033  0.75641834  1
  O2-  O150  1  0.56946453  0.17700968  0.08906333  1
  O2-  O151  1  0.57370998  0.18115422  0.42972699  1
  O2-  O152  1  0.56848713  0.18042148  0.76644999  1
  O2-  O153  1  0.57123293  0.67669320  0.08893250  1
  O2-  O154  1  0.56971771  0.67733649  0.43039043  1
  O2-  O155  1  0.56857972  0.68004347  0.76639258  1
  O2-  O156  1  0.17636662  0.43051138  0.24138630  1
  O2-  O157  1  0.18108502  0.42960814  0.56659925  1
  O2-  O158  1  0.17962242  0.42701642  0.91280705  1
  O2-  O159  1  0.17901918  0.93092189  0.23377913  1
  O2-  O160  1  0.17847889  0.93201229  0.57103426  1
  O2-  O161  1  0.17816196  0.93090692  0.90985473  1
  O2-  O162  1  0.68321222  0.43291678  0.23214854  1
  O2-  O163  1  0.67837260  0.42734764  0.56850734  1
  O2-  O164  1  0.67943090  0.42017341  0.91283500  1
  O2-  O165  1  0.68309756  0.92621686  0.23239698  1
  O2-  O166  1  0.68107234  0.92969567  0.56846316  1
  O2-  O167  1  0.67601727  0.93188893  0.90810545  1
  O2-  O168  1  0.42438128  0.31981322  0.08856543  1
  O2-  O169  1  0.42567677  0.32082831  0.43197291  1
  O2-  O170  1  0.42412639  0.31870182  0.76004796  1
  O2-  O171  1  0.43144643  0.82195450  0.10138665  1
  O2-  O172  1  0.42002821  0.81477654  0.42311976  1
  O2-  O173  1  0.42611060  0.81700526  0.76497666  1
  O2-  O174  1  0.93046599  0.31670801  0.10011266  1
  O2-  O175  1  0.93227848  0.32686765  0.42274405  1
  O2-  O176  1  0.93250193  0.32155110  0.76470498  1
  O2-  O177  1  0.93122021  0.82461233  0.09809498  1
  O2-  O178  1  0.93261262  0.82018460  0.43302645  1
  O2-  O179  1  0.93000186  0.81938580  0.76624508  1
  O2-  O180  1  0.31702970  0.07282687  0.23390310  1
  O2-  O181  1  0.31787701  0.07523235  0.58099681  1
  O2-  O182  1  0.32282319  0.07267451  0.91049541  1
  O2-  O183  1  0.32018838  0.57038510  0.24369153  1
  O2-  O184  1  0.32087885  0.57148194  0.57754555  1
  O2-  O185  1  0.31837360  0.56810668  0.90195152  1
  O2-  O186  1  0.82317548  0.07079895  0.23273788  1
  O2-  O187  1  0.82290412  0.07232423  0.57938245  1
  O2-  O188  1  0.81742668  0.07471790  0.90755219  1
  O2-  O189  1  0.82484878  0.57002914  0.24297482  1
  O2-  O190  1  0.82058552  0.57031630  0.56676208  1
  O2-  O191  1  0.82005410  0.57160280  0.90402867  1
  O2-  O192  1  0.04346533  0.08999398  0.26975258  1
  O2-  O193  1  0.04912299  0.08533680  0.60347229  1
  O2-  O194  1  0.04668981  0.08542024  0.93420838  1
  O2-  O195  1  0.04739164  0.58358944  0.26307013  1
  O2-  O196  1  0.04745714  0.58466552  0.60440405  1
  O2-  O197  1  0.05032418  0.58282339  0.94107278  1
  O2-  O198  1  0.54711111  0.07655261  0.26394569  1
  O2-  O199  1  0.53799941  0.08578384  0.59769047  1
  O2-  O200  1  0.53870504  0.08868679  0.93549906  1
  O2-  O201  1  0.53738857  0.58589852  0.26111148  1
  O2-  O202  1  0.54040086  0.57984003  0.60077872  1
  O2-  O203  1  0.54632558  0.58022376  0.93968145  1
  O2-  O204  1  0.15978265  0.21128753  0.26778500  1
  O2-  O205  1  0.16731247  0.20623069  0.60445732  1
  O2-  O206  1  0.16860528  0.20022013  0.93555370  1
  O2-  O207  1  0.16942611  0.69902855  0.26942269  1
  O2-  O208  1  0.16557861  0.70184036  0.60424880  1
  O2-  O209  1  0.16471160  0.70569663  0.93693592  1
  O2-  O210  1  0.67010830  0.21005230  0.26206531  1
  O2-  O211  1  0.66797623  0.20668908  0.59761531  1
  O2-  O212  1  0.66136846  0.20515349  0.93631981  1
  O2-  O213  1  0.66728817  0.70953744  0.26143236  1
  O2-  O214  1  0.66872792  0.70683266  0.59931536  1
  O2-  O215  1  0.66491908  0.70096449  0.93830033  1
  O2-  O216  1  0.08598674  0.45283633  0.06529214  1
  O2-  O217  1  0.08693658  0.45934542  0.39465406  1
  O2-  O218  1  0.08494979  0.46184733  0.73642346  1
  O2-  O219  1  0.08583749  0.96043234  0.06101134  1
  O2-  O220  1  0.08480284  0.96455781  0.40135670  1
  O2-  O221  1  0.08397504  0.96443723  0.73948866  1
  O2-  O222  1  0.58333266  0.44540559  0.06231827  1
  O2-  O223  1  0.58269454  0.46278914  0.39783413  1
  O2-  O224  1  0.57752061  0.45091179  0.73498237  1
  O2-  O225  1  0.58778055  0.96216598  0.06108366  1
  O2-  O226  1  0.57916585  0.94710359  0.39810843  1
  O2-  O227  1  0.58196968  0.96385590  0.73405029  1
  O2-  O228  1  0.20268806  0.33067130  0.06176898  1
  O2-  O229  1  0.20280365  0.33754817  0.39427001  1
  O2-  O230  1  0.20691640  0.33243908  0.73797650  1
  O2-  O231  1  0.20352421  0.83796681  0.06218485  1
  O2-  O232  1  0.19951900  0.82672989  0.40005601  1
  O2-  O233  1  0.20577223  0.83087243  0.73733868  1
  O2-  O234  1  0.70829510  0.33083171  0.06444948  1
  O2-  O235  1  0.70937122  0.33563312  0.39815381  1
  O2-  O236  1  0.70848449  0.32805444  0.73349520  1
  O2-  O237  1  0.69981368  0.83537225  0.05834595  1
  O2-  O238  1  0.71436288  0.82930976  0.39831065  1
  O2-  O239  1  0.70861797  0.83418312  0.73642875  1
  O2-  O240  1  0.45915246  0.41743848  0.26370737  1
  O2-  O241  1  0.44312659  0.41819948  0.61079384  1
  O2-  O242  1  0.45258094  0.41401719  0.93760430  1
  O2-  O243  1  0.44444475  0.91718487  0.27616407  1
  O2-  O244  1  0.44720355  0.92249185  0.60280495  1
  O2-  O245  1  0.45880929  0.91628417  0.93211956  1
  O2-  O246  1  0.96054093  0.41445369  0.26898910  1
  O2-  O247  1  0.96456363  0.41828545  0.59783509  1
  O2-  O248  1  0.96010023  0.41813063  0.93457119  1
  O2-  O249  1  0.96401125  0.91886728  0.26673718  1
  O2-  O250  1  0.96162155  0.91980922  0.60240748  1
  O2-  O251  1  0.95823196  0.91740355  0.93012600  1
  O2-  O252  1  0.32828484  0.29484004  0.26413308  1
  O2-  O253  1  0.33309107  0.29244586  0.60832849  1
  O2-  O254  1  0.33595702  0.29178867  0.93586500  1
  O2-  O255  1  0.33233019  0.79059152  0.27067646  1
  O2-  O256  1  0.32793981  0.79054219  0.59910966  1
  O2-  O257  1  0.33137715  0.78940816  0.93678308  1
  O2-  O258  1  0.83747562  0.29784684  0.26984792  1
  O2-  O259  1  0.83530832  0.29111348  0.59696339  1
  O2-  O260  1  0.83466467  0.28636455  0.93167117  1
  O2-  O261  1  0.83858627  0.78962526  0.26187379  1
  O2-  O262  1  0.83310244  0.79100515  0.59944859  1
  O2-  O263  1  0.82989758  0.78994597  0.93463914  1
  O2-  O264  1  0.41360087  0.04126757  0.06267757  1
  O2-  O265  1  0.42332747  0.05460235  0.39803269  1
  O2-  O266  1  0.41643309  0.05032847  0.73115801  1
  O2-  O267  1  0.41795574  0.54012971  0.06965773  1
  O2-  O268  1  0.41299978  0.54095074  0.39547277  1
  O2-  O269  1  0.41452329  0.54845395  0.73173170  1
  O2-  O270  1  0.91486013  0.04813394  0.05697715  1
  O2-  O271  1  0.91970249  0.04697486  0.40137094  1
  O2-  O272  1  0.91766226  0.05190650  0.73051414  1
  O2-  O273  1  0.91785097  0.54121929  0.07072454  1
  O2-  O274  1  0.91881384  0.54778141  0.39328372  1
  O2-  O275  1  0.91863833  0.54446724  0.73374133  1
  O2-  O276  1  0.29518820  0.16290259  0.06304259  1
  O2-  O277  1  0.28610662  0.16916614  0.40115510  1
  O2-  O278  1  0.29174534  0.16282863  0.73601013  1
  O2-  O279  1  0.28731762  0.66517057  0.07124262  1
  O2-  O280  1  0.29328231  0.65985937  0.39869863  1
  O2-  O281  1  0.29216729  0.66396356  0.73082884  1
  O2-  O282  1  0.78906318  0.16085714  0.06169854  1
  O2-  O283  1  0.79776138  0.17307072  0.39791647  1
  O2-  O284  1  0.79360697  0.16565637  0.72996027  1
  O2-  O285  1  0.78861103  0.66718208  0.07202745  1
  O2-  O286  1  0.79909288  0.66714433  0.39072621  1
  O2-  O287  1  0.78944379  0.66880062  0.73526301  1
