# generated using pymatgen
data_Ca2Al2SiO7
_symmetry_space_group_name_H-M   'P 1'
_cell_length_a   15.45729903
_cell_length_b   15.45686952
_cell_length_c   15.28372510
_cell_angle_alpha   89.99730925
_cell_angle_beta   90.00985309
_cell_angle_gamma   89.98320258
_symmetry_Int_Tables_number   1
_chemical_formula_structural   Ca2Al2SiO7
_chemical_formula_sum   'Ca48 Al48 Si24 O168'
_cell_volume   3651.60961156
_cell_formula_units_Z   24
loop_
 _symmetry_equiv_pos_site_id
 _symmetry_equiv_pos_as_xyz
  1  'x, y, z'
loop_
 _atom_type_symbol
 _atom_type_oxidation_number
  Ca2+  2.0
  Al0+  0.0
  Si0+  0.0
  O2-  -2.0
loop_
 _atom_site_type_symbol
 _atom_site_label
 _atom_site_symmetry_multiplicity
 _atom_site_fract_x
 _atom_site_fract_y
 _atom_site_fract_z
 _atom_site_occupancy
  Ca2+  Ca0  1  0.17077643  0.07214555  0.17545368  1
  Ca2+  Ca1  1  0.16191348  0.07596109  0.50345725  1
  Ca2+  Ca2  1  0.16854736  0.08584502  0.83777375  1
  Ca2+  Ca3  1  0.16823198  0.58924075  0.17076293  1
  Ca2+  Ca4  1  0.16948590  0.58606518  0.50520182  1
  Ca2+  Ca5  1  0.15839251  0.57426623  0.83743942  1
  Ca2+  Ca6  1  0.67290319  0.07667906  0.16707180  1
  Ca2+  Ca7  1  0.67189485  0.08408612  0.50241493  1
  Ca2+  Ca8  1  0.66724508  0.08140022  0.84464241  1
  Ca2+  Ca9  1  0.65873755  0.57974490  0.17481607  1
  Ca2+  Ca10  1  0.66908233  0.57474149  0.50667398  1
  Ca2+  Ca11  1  0.66795903  0.58087554  0.83550894  1
  Ca2+  Ca12  1  0.07510220  0.33816796  0.16358567  1
  Ca2+  Ca13  1  0.08054707  0.33058375  0.49821946  1
  Ca2+  Ca14  1  0.08650682  0.33147691  0.82437125  1
  Ca2+  Ca15  1  0.07872231  0.82703562  0.16581733  1
  Ca2+  Ca16  1  0.07935663  0.82290995  0.48918025  1
  Ca2+  Ca17  1  0.07788916  0.82105157  0.83072313  1
  Ca2+  Ca18  1  0.58604560  0.32889835  0.16253214  1
  Ca2+  Ca19  1  0.58989319  0.33463119  0.49810684  1
  Ca2+  Ca20  1  0.58256566  0.32299369  0.82390665  1
  Ca2+  Ca21  1  0.57644762  0.82595160  0.15649353  1
  Ca2+  Ca22  1  0.57635875  0.82253964  0.48951393  1
  Ca2+  Ca23  1  0.58415637  0.83353574  0.83635817  1
  Ca2+  Ca24  1  0.32479683  0.42510440  0.17281933  1
  Ca2+  Ca25  1  0.33103583  0.42410255  0.50707523  1
  Ca2+  Ca26  1  0.32253964  0.40883971  0.83555095  1
  Ca2+  Ca27  1  0.33029217  0.90529061  0.17343875  1
  Ca2+  Ca28  1  0.32669596  0.90881110  0.49829555  1
  Ca2+  Ca29  1  0.33450583  0.91606736  0.83942190  1
  Ca2+  Ca30  1  0.82691870  0.41871170  0.17607254  1
  Ca2+  Ca31  1  0.82647248  0.42005030  0.50369343  1
  Ca2+  Ca32  1  0.83238330  0.42437016  0.83180226  1
  Ca2+  Ca33  1  0.84173585  0.92431309  0.16980874  1
  Ca2+  Ca34  1  0.84025907  0.92030745  0.49929222  1
  Ca2+  Ca35  1  0.82790784  0.92387571  0.84688739  1
  Ca2+  Ca36  1  0.42495911  0.16770393  0.15928852  1
  Ca2+  Ca37  1  0.42177764  0.17658652  0.50202803  1
  Ca2+  Ca38  1  0.42973741  0.16996601  0.82521142  1
  Ca2+  Ca39  1  0.42278739  0.67087014  0.16728750  1
  Ca2+  Ca40  1  0.42013523  0.66594845  0.48753969  1
  Ca2+  Ca41  1  0.42060200  0.67007685  0.83724226  1
  Ca2+  Ca42  1  0.90625073  0.17034953  0.16668404  1
  Ca2+  Ca43  1  0.91812115  0.17197066  0.49298061  1
  Ca2+  Ca44  1  0.92056955  0.16647807  0.82909680  1
  Ca2+  Ca45  1  0.92467644  0.67791854  0.15971537  1
  Ca2+  Ca46  1  0.92595780  0.66364644  0.49344016  1
  Ca2+  Ca47  1  0.92149167  0.66655731  0.82921274  1
  Al0+  Al48  1  0.00145639  0.00172220  0.00119230  1
  Al0+  Al49  1  0.00231646  0.00036437  0.34018012  1
  Al0+  Al50  1  0.00046532  -0.00083758  0.66580889  1
  Al0+  Al51  1  -0.00185969  0.49835604  0.00182998  1
  Al0+  Al52  1  -0.00099365  0.49655693  0.32509553  1
  Al0+  Al53  1  0.00070487  0.50075013  0.66941455  1
  Al0+  Al54  1  0.50117680  0.00138808  -0.00291700  1
  Al0+  Al55  1  0.50023507  0.00195092  0.33262577  1
  Al0+  Al56  1  0.49966491  0.00122247  0.66071965  1
  Al0+  Al57  1  0.49671175  0.50097920  -0.00366349  1
  Al0+  Al58  1  0.49701108  0.49764105  0.33804842  1
  Al0+  Al59  1  0.49918271  0.50107136  0.67063988  1
  Al0+  Al60  1  0.24759849  0.25093825  0.00888629  1
  Al0+  Al61  1  0.25115295  0.24898988  0.33300504  1
  Al0+  Al62  1  0.25176711  0.24867187  0.66104860  1
  Al0+  Al63  1  0.25042828  0.74819646  -0.00875325  1
  Al0+  Al64  1  0.25061141  0.74902069  0.33634301  1
  Al0+  Al65  1  0.24836986  0.75021573  0.66663541  1
  Al0+  Al66  1  0.75068686  0.25125520  -0.00228726  1
  Al0+  Al67  1  0.75099612  0.24938331  0.33779193  1
  Al0+  Al68  1  0.75082957  0.24922509  0.66733223  1
  Al0+  Al69  1  0.74927240  0.75025155  -0.00345474  1
  Al0+  Al70  1  0.75140114  0.75001157  0.32711710  1
  Al0+  Al71  1  0.74934417  0.75288250  0.66998068  1
  Al0+  Al72  1  0.67906857  0.43020930  0.34582513  1
  Al0+  Al73  1  0.82109032  0.57281622  0.68117864  1
  Al0+  Al74  1  0.17721101  0.42867288  0.01601730  1
  Al0+  Al75  1  0.31723125  0.56892887  0.34669613  1
  Al0+  Al76  1  0.81958518  0.06900250  0.34922290  1
  Al0+  Al77  1  0.67783819  0.42809909  0.68419884  1
  Al0+  Al78  1  0.57257440  0.67619652  0.98322655  1
  Al0+  Al79  1  0.92887503  0.31805939  0.32007181  1
  Al0+  Al80  1  0.07139166  0.67713290  0.31847842  1
  Al0+  Al81  1  0.18178932  0.42903865  0.67807270  1
  Al0+  Al82  1  0.57354920  0.17885956  0.64887255  1
  Al0+  Al83  1  0.42966586  0.32281606  0.65171987  1
  Al0+  Al84  1  0.57118074  0.18198783  0.98781634  1
  Al0+  Al85  1  0.57165374  0.67564861  0.32121406  1
  Al0+  Al86  1  0.07177107  0.17755023  0.65345457  1
  Al0+  Al87  1  0.92900222  0.82389204  0.31882811  1
  Al0+  Al88  1  0.42935857  0.82167517  0.98394549  1
  Al0+  Al89  1  0.06970488  0.67759449  0.98292070  1
  Al0+  Al90  1  0.18188891  0.92976477  0.34765011  1
  Al0+  Al91  1  0.43000537  0.82164120  0.32035801  1
  Al0+  Al92  1  0.82274363  0.07231599  0.01550787  1
  Al0+  Al93  1  0.06916067  0.67832989  0.65174219  1
  Al0+  Al94  1  0.67783927  0.92777629  0.01589781  1
  Al0+  Al95  1  0.92938450  0.82449379  0.98400785  1
  Si0+  Si96  1  0.57182516  0.68049613  0.65255294  1
  Si0+  Si97  1  0.17528479  0.42563183  0.35025704  1
  Si0+  Si98  1  0.17854787  0.92831624  0.68407434  1
  Si0+  Si99  1  0.32256281  0.57531163  0.68632978  1
  Si0+  Si100  1  0.67682815  0.93107491  0.68079506  1
  Si0+  Si101  1  0.82371842  0.57309186  0.34603824  1
  Si0+  Si102  1  0.92673727  0.82209262  0.65011530  1
  Si0+  Si103  1  0.42503204  0.32127441  0.98559273  1
  Si0+  Si104  1  0.42848281  0.82139628  0.65081587  1
  Si0+  Si105  1  0.67802466  0.43062530  0.01338173  1
  Si0+  Si106  1  0.32119453  0.57248873  0.01683877  1
  Si0+  Si107  1  0.42741626  0.32090347  0.31700295  1
  Si0+  Si108  1  0.07249388  0.18044218  0.98764082  1
  Si0+  Si109  1  0.32056153  0.06914447  0.68090750  1
  Si0+  Si110  1  0.67590094  0.92654995  0.34984004  1
  Si0+  Si111  1  0.82239369  0.06992499  0.68170549  1
  Si0+  Si112  1  0.57193734  0.18067887  0.31769683  1
  Si0+  Si113  1  0.32137757  0.07155009  0.01413325  1
  Si0+  Si114  1  0.07350927  0.17773610  0.31616375  1
  Si0+  Si115  1  0.82064173  0.57103752  0.01595857  1
  Si0+  Si116  1  0.32540183  0.07543261  0.35246628  1
  Si0+  Si117  1  0.92909294  0.32190555  0.65092889  1
  Si0+  Si118  1  0.18110961  0.92818986  0.01267541  1
  Si0+  Si119  1  0.92852857  0.32059194  0.98346772  1
  O2-  O120  1  0.25496170  -0.00370179  0.05581814  1
  O2-  O121  1  0.25751345  0.00485453  0.39483632  1
  O2-  O122  1  0.24961395  -0.00055342  0.72617125  1
  O2-  O123  1  0.25066533  0.50510793  0.06053504  1
  O2-  O124  1  0.24045317  0.49668391  0.39445379  1
  O2-  O125  1  0.25550541  0.50361050  0.72813858  1
  O2-  O126  1  0.75418056  -0.00361996  0.06474740  1
  O2-  O127  1  0.74775179  -0.00877529  0.39627593  1
  O2-  O128  1  0.74817432  0.00220353  0.72269260  1
  O2-  O129  1  0.74373815  0.50539084  0.05727070  1
  O2-  O130  1  0.75043768  0.50918465  0.39044234  1
  O2-  O131  1  0.74839653  0.50193598  0.73348845  1
  O2-  O132  1  0.00562957  0.24611416  0.27087473  1
  O2-  O133  1  -0.00270484  0.25216887  0.60731719  1
  O2-  O134  1  0.00124526  0.25002598  0.94363183  1
  O2-  O135  1  -0.00239433  0.74816533  0.26999185  1
  O2-  O136  1  -0.00765191  0.75104613  0.60603767  1
  O2-  O137  1  -0.00282166  0.74925639  0.93283196  1
  O2-  O138  1  0.49800421  0.24904450  0.27542288  1
  O2-  O139  1  0.50749985  0.25732091  0.60007014  1
  O2-  O140  1  0.49573168  0.25569695  0.94091060  1
  O2-  O141  1  0.50605221  0.75383036  0.27143729  1
  O2-  O142  1  0.49693785  0.74752640  0.61009709  1
  O2-  O143  1  0.50376622  0.75228438  0.93365531  1
  O2-  O144  1  0.07516605  0.18151191  0.09228097  1
  O2-  O145  1  0.07309354  0.17955173  0.42196472  1
  O2-  O146  1  0.07042820  0.17706453  0.76720945  1
  O2-  O147  1  0.07025754  0.68005611  0.09617815  1
  O2-  O148  1  0.07033720  0.67738105  0.43241169  1
  O2-  O149  1  0.06949379  0.68001907  0.76456962  1
  O2-  O150  1  0.57032842  0.18408297  0.10133451  1
  O2-  O151  1  0.57166894  0.18159930  0.42267151  1
  O2-  O152  1  0.57041081  0.17496351  0.76245179  1
  O2-  O153  1  0.56751448  0.67119857  0.09627788  1
  O2-  O154  1  0.56863386  0.67528673  0.43559442  1
  O2-  O155  1  0.57247631  0.68378962  0.75736769  1
  O2-  O156  1  0.17906353  0.42321127  0.24466665  1
  O2-  O157  1  0.18234705  0.42998434  0.56522292  1
  O2-  O158  1  0.17960295  0.42344622  0.90285347  1
  O2-  O159  1  0.18346022  0.93158925  0.23398489  1
  O2-  O160  1  0.17956807  0.92812275  0.57915834  1
  O2-  O161  1  0.18134463  0.93247245  0.90717197  1
  O2-  O162  1  0.67981524  0.42772332  0.23202581  1
  O2-  O163  1  0.68045357  0.43015827  0.57050976  1
  O2-  O164  1  0.68145262  0.42916346  0.90867588  1
  O2-  O165  1  0.67157416  0.93147133  0.24509055  1
  O2-  O166  1  0.67674651  0.93002179  0.57569233  1
  O2-  O167  1  0.67684499  0.93426249  0.90140175  1
  O2-  O168  1  0.42584900  0.31918689  0.09159043  1
  O2-  O169  1  0.42581025  0.32010136  0.42164799  1
  O2-  O170  1  0.42647707  0.31469233  0.76547407  1
  O2-  O171  1  0.42714475  0.81943490  0.09694884  1
  O2-  O172  1  0.43053623  0.81897492  0.43469085  1
  O2-  O173  1  0.42948564  0.82410274  0.75566540  1
  O2-  O174  1  0.92630582  0.32016791  0.08850784  1
  O2-  O175  1  0.92929547  0.31681979  0.43314056  1
  O2-  O176  1  0.92994722  0.31993743  0.75704792  1
  O2-  O177  1  0.93515480  0.82578778  0.09721465  1
  O2-  O178  1  0.93198416  0.82357301  0.43290325  1
  O2-  O179  1  0.92917601  0.82497101  0.75542013  1
  O2-  O180  1  0.32396431  0.07957007  0.24666331  1
  O2-  O181  1  0.32050859  0.06633340  0.57611983  1
  O2-  O182  1  0.31765331  0.07503547  0.90878997  1
  O2-  O183  1  0.31851301  0.56663519  0.23363080  1
  O2-  O184  1  0.32147702  0.57770136  0.58059418  1
  O2-  O185  1  0.32254058  0.57069272  0.91125815  1
  O2-  O186  1  0.81648704  0.07191637  0.23663432  1
  O2-  O187  1  0.82385739  0.06803640  0.57664002  1
  O2-  O188  1  0.82213992  0.07433306  0.90136467  1
  O2-  O189  1  0.82450655  0.56871447  0.24038605  1
  O2-  O190  1  0.81977220  0.57251555  0.56737882  1
  O2-  O191  1  0.82354409  0.56608873  0.91088735  1
  O2-  O192  1  0.04841261  0.08364788  0.27270713  1
  O2-  O193  1  0.04025720  0.08113941  0.59915992  1
  O2-  O194  1  0.04768283  0.08876589  0.93880835  1
  O2-  O195  1  0.04782663  0.57810252  0.26520035  1
  O2-  O196  1  0.04120256  0.58078203  0.59884646  1
  O2-  O197  1  0.03888948  0.57799478  0.93311600  1
  O2-  O198  1  0.54581585  0.08837797  0.27068877  1
  O2-  O199  1  0.53838436  0.08316557  0.59353185  1
  O2-  O200  1  0.54009352  0.08676729  0.93234549  1
  O2-  O201  1  0.53591729  0.57889044  0.26899725  1
  O2-  O202  1  0.54798244  0.58652664  0.60869155  1
  O2-  O203  1  0.53885597  0.57960742  0.92729867  1
  O2-  O204  1  0.16839825  0.20073253  0.27054596  1
  O2-  O205  1  0.16750673  0.20509582  0.59759305  1
  O2-  O206  1  0.16440203  0.20945204  0.93998459  1
  O2-  O207  1  0.16896022  0.70956710  0.26751110  1
  O2-  O208  1  0.16616038  0.71216305  0.59981092  1
  O2-  O209  1  0.16750531  0.70439513  0.92846364  1
  O2-  O210  1  0.66204465  0.21262917  0.27116940  1
  O2-  O211  1  0.67425276  0.20201080  0.59836295  1
  O2-  O212  1  0.66644440  0.21384463  0.93194456  1
  O2-  O213  1  0.67215307  0.69428657  0.26970210  1
  O2-  O214  1  0.66229385  0.71212531  0.60477224  1
  O2-  O215  1  0.67166372  0.69981800  0.93008030  1
  O2-  O216  1  0.07948899  0.45662348  0.06907589  1
  O2-  O217  1  0.07897104  0.44590288  0.39219933  1
  O2-  O218  1  0.08496649  0.45710658  0.73330503  1
  O2-  O219  1  0.09172933  0.96010262  0.06149981  1
  O2-  O220  1  0.08803126  0.96254761  0.40602475  1
  O2-  O221  1  0.08680082  0.95715925  0.73098734  1
  O2-  O222  1  0.58291632  0.45235029  0.05784373  1
  O2-  O223  1  0.58176701  0.45499643  0.40085546  1
  O2-  O224  1  0.57830951  0.45373225  0.73658618  1
  O2-  O225  1  0.58012172  0.96138395  0.06805944  1
  O2-  O226  1  0.58374007  0.95660687  0.39838781  1
  O2-  O227  1  0.58449190  0.95975048  0.72700046  1
  O2-  O228  1  0.20867028  0.33389500  0.07463546  1
  O2-  O229  1  0.20372246  0.33186233  0.39527793  1
  O2-  O230  1  0.21291464  0.33073006  0.73097983  1
  O2-  O231  1  0.20776090  0.83496713  0.05689034  1
  O2-  O232  1  0.21318204  0.83468882  0.40434324  1
  O2-  O233  1  0.20793326  0.83731880  0.73216759  1
  O2-  O234  1  0.71069835  0.34042800  0.06119540  1
  O2-  O235  1  0.71462580  0.33615210  0.40162961  1
  O2-  O236  1  0.70797525  0.32880055  0.73549597  1
  O2-  O237  1  0.69778632  0.82576496  0.06400928  1
  O2-  O238  1  0.69769328  0.83047423  0.39311933  1
  O2-  O239  1  0.70327834  0.84005258  0.73017084  1
  O2-  O240  1  0.45602012  0.41146017  0.26914231  1
  O2-  O241  1  0.44940539  0.42517150  0.60318052  1
  O2-  O242  1  0.44488959  0.41556457  0.93998299  1
  O2-  O243  1  0.44958428  0.92361443  0.27028799  1
  O2-  O244  1  0.45701346  0.91183601  0.60175148  1
  O2-  O245  1  0.45436422  0.92140665  0.93106028  1
  O2-  O246  1  0.95593904  0.41293429  0.26075567  1
  O2-  O247  1  0.95545928  0.41484648  0.60554018  1
  O2-  O248  1  0.95686543  0.41165246  0.93593892  1
  O2-  O249  1  0.96315939  0.92194529  0.26869238  1
  O2-  O250  1  0.95674324  0.91433580  0.60347156  1
  O2-  O251  1  0.96080353  0.92285207  0.93108507  1
  O2-  O252  1  0.33569530  0.29286035  0.26828411  1
  O2-  O253  1  0.33557636  0.28679149  0.59471887  1
  O2-  O254  1  0.33152529  0.29104409  0.94188327  1
  O2-  O255  1  0.33308693  0.78917003  0.26865374  1
  O2-  O256  1  0.33503048  0.79590785  0.60589548  1
  O2-  O257  1  0.33300309  0.79179846  0.92657222  1
  O2-  O258  1  0.83309977  0.28387882  0.26568845  1
  O2-  O259  1  0.83589395  0.29557499  0.60524367  1
  O2-  O260  1  0.83844299  0.29222584  0.93346779  1
  O2-  O261  1  0.82924675  0.80354880  0.26573924  1
  O2-  O262  1  0.83091269  0.80237243  0.60591582  1
  O2-  O263  1  0.82911817  0.80097776  0.93367046  1
  O2-  O264  1  0.41451302  0.04884203  0.06008290  1
  O2-  O265  1  0.41978833  0.05293285  0.39814988  1
  O2-  O266  1  0.41269532  0.03972998  0.72791021  1
  O2-  O267  1  0.41401858  0.54440470  0.06392877  1
  O2-  O268  1  0.41131786  0.53416572  0.40403037  1
  O2-  O269  1  0.41693812  0.55377936  0.73217761  1
  O2-  O270  1  0.92314601  0.04885538  0.06810791  1
  O2-  O271  1  0.91742896  0.04319998  0.40390752  1
  O2-  O272  1  0.91355429  0.03983617  0.73011646  1
  O2-  O273  1  0.90916692  0.53645340  0.06524553  1
  O2-  O274  1  0.91551066  0.53989673  0.39228144  1
  O2-  O275  1  0.91787391  0.54126786  0.73625198  1
  O2-  O276  1  0.28994147  0.16015375  0.06625236  1
  O2-  O277  1  0.29720806  0.16820199  0.39979127  1
  O2-  O278  1  0.29281454  0.16067513  0.72816200  1
  O2-  O279  1  0.29541660  0.66705637  0.06042194  1
  O2-  O280  1  0.29059876  0.66504726  0.40353262  1
  O2-  O281  1  0.29428854  0.66841074  0.73257397  1
  O2-  O282  1  0.79010586  0.17089133  0.06684479  1
  O2-  O283  1  0.78506242  0.16351165  0.40525626  1
  O2-  O284  1  0.80010051  0.16336933  0.72776455  1
  O2-  O285  1  0.80000409  0.66557444  0.05953315  1
  O2-  O286  1  0.80647027  0.66919686  0.39016287  1
  O2-  O287  1  0.79350920  0.67189361  0.73446982  1
