# generated using pymatgen
data_Ca2Al2SiO7
_symmetry_space_group_name_H-M   'P 1'
_cell_length_a   15.46323611
_cell_length_b   15.46287613
_cell_length_c   15.28679525
_cell_angle_alpha   90.00628207
_cell_angle_beta   89.98308569
_cell_angle_gamma   90.02421070
_symmetry_Int_Tables_number   1
_chemical_formula_structural   Ca2Al2SiO7
_chemical_formula_sum   'Ca48 Al48 Si24 O168'
_cell_volume   3655.16555731
_cell_formula_units_Z   24
loop_
 _symmetry_equiv_pos_site_id
 _symmetry_equiv_pos_as_xyz
  1  'x, y, z'
loop_
 _atom_type_symbol
 _atom_type_oxidation_number
  Ca2+  2.0
  Al0+  0.0
  Si0+  0.0
  O2-  -2.0
loop_
 _atom_site_type_symbol
 _atom_site_label
 _atom_site_symmetry_multiplicity
 _atom_site_fract_x
 _atom_site_fract_y
 _atom_site_fract_z
 _atom_site_occupancy
  Ca2+  Ca0  1  0.17730225  0.08768832  0.17137838  1
  Ca2+  Ca1  1  0.17711952  0.08295596  0.50355787  1
  Ca2+  Ca2  1  0.17727430  0.08548800  0.83546424  1
  Ca2+  Ca3  1  0.16083298  0.57445110  0.16961163  1
  Ca2+  Ca4  1  0.17180683  0.58725129  0.50398108  1
  Ca2+  Ca5  1  0.16269193  0.58653694  0.83683572  1
  Ca2+  Ca6  1  0.67578396  0.07169356  0.17211750  1
  Ca2+  Ca7  1  0.67933434  0.07352188  0.50198479  1
  Ca2+  Ca8  1  0.67613182  0.07183823  0.83103380  1
  Ca2+  Ca9  1  0.68141203  0.58024587  0.17289513  1
  Ca2+  Ca10  1  0.67168244  0.57455908  0.49994855  1
  Ca2+  Ca11  1  0.67462317  0.57829341  0.83628647  1
  Ca2+  Ca12  1  0.08216746  0.33731202  0.15935303  1
  Ca2+  Ca13  1  0.08067399  0.33290716  0.49898625  1
  Ca2+  Ca14  1  0.07350567  0.33710071  0.83256973  1
  Ca2+  Ca15  1  0.06822285  0.82469210  0.15832886  1
  Ca2+  Ca16  1  0.07356487  0.82934661  0.49674629  1
  Ca2+  Ca17  1  0.07592175  0.82206139  0.82411662  1
  Ca2+  Ca18  1  0.58391108  0.33362762  0.16521813  1
  Ca2+  Ca19  1  0.58640686  0.33635834  0.49367512  1
  Ca2+  Ca20  1  0.58316170  0.33118127  0.82314137  1
  Ca2+  Ca21  1  0.58694923  0.83750975  0.16372036  1
  Ca2+  Ca22  1  0.57995875  0.84483335  0.49886351  1
  Ca2+  Ca23  1  0.58211028  0.83807685  0.82775233  1
  Ca2+  Ca24  1  0.31825264  0.42226766  0.17521707  1
  Ca2+  Ca25  1  0.32729605  0.42938180  0.50163663  1
  Ca2+  Ca26  1  0.32443563  0.42615615  0.83677540  1
  Ca2+  Ca27  1  0.33092132  0.92716937  0.16998016  1
  Ca2+  Ca28  1  0.33728856  0.92486457  0.50883908  1
  Ca2+  Ca29  1  0.33668489  0.92350111  0.83409008  1
  Ca2+  Ca30  1  0.83780233  0.42883681  0.17131979  1
  Ca2+  Ca31  1  0.82671170  0.41757105  0.50617884  1
  Ca2+  Ca32  1  0.83684334  0.41786961  0.83755167  1
  Ca2+  Ca33  1  0.82724301  0.91137229  0.17547070  1
  Ca2+  Ca34  1  0.83176510  0.91933618  0.50865204  1
  Ca2+  Ca35  1  0.82665856  0.90306346  0.83636487  1
  Ca2+  Ca36  1  0.41606040  0.16295973  0.16174739  1
  Ca2+  Ca37  1  0.41709038  0.16374104  0.49422855  1
  Ca2+  Ca38  1  0.41637650  0.16302263  0.82810140  1
  Ca2+  Ca39  1  0.41927328  0.66331583  0.16585578  1
  Ca2+  Ca40  1  0.41423214  0.66724227  0.49742577  1
  Ca2+  Ca41  1  0.41750563  0.67375095  0.81988760  1
  Ca2+  Ca42  1  0.91438188  0.17387709  0.16352091  1
  Ca2+  Ca43  1  0.90556185  0.16940546  0.49715019  1
  Ca2+  Ca44  1  0.90845609  0.17787154  0.82617529  1
  Ca2+  Ca45  1  0.91273889  0.67069498  0.15856320  1
  Ca2+  Ca46  1  0.91186788  0.67700676  0.49649900  1
  Ca2+  Ca47  1  0.92436294  0.67046353  0.83141698  1
  Al0+  Al48  1  0.00013909  0.00150127  -0.00463930  1
  Al0+  Al49  1  0.00153340  0.00234382  0.32885871  1
  Al0+  Al50  1  0.00303632  0.00254684  0.66796476  1
  Al0+  Al51  1  -0.00018799  0.49981068  0.00009929  1
  Al0+  Al52  1  -0.00042191  0.50009924  0.34246210  1
  Al0+  Al53  1  0.00045732  0.49750609  0.65701733  1
  Al0+  Al54  1  0.50171875  0.00060061  0.00691593  1
  Al0+  Al55  1  0.50120396  0.00183626  0.33605000  1
  Al0+  Al56  1  0.50284271  0.00125584  0.66944545  1
  Al0+  Al57  1  0.49959259  0.49892593  -0.00230881  1
  Al0+  Al58  1  0.49766084  0.50037100  0.33549763  1
  Al0+  Al59  1  0.49787267  0.49980897  0.67395165  1
  Al0+  Al60  1  0.25130014  0.25237864  0.00569490  1
  Al0+  Al61  1  0.25018011  0.25135138  0.34007375  1
  Al0+  Al62  1  0.25025224  0.25237867  0.66993758  1
  Al0+  Al63  1  0.25171158  0.75250095  -0.00176855  1
  Al0+  Al64  1  0.24897584  0.75116060  0.33083433  1
  Al0+  Al65  1  0.25223058  0.75195209  0.66177194  1
  Al0+  Al66  1  0.74712327  0.24641396  -0.00482047  1
  Al0+  Al67  1  0.74814741  0.24733431  0.33367844  1
  Al0+  Al68  1  0.74766728  0.24806039  0.66890776  1
  Al0+  Al69  1  0.74705819  0.74732597  0.00378861  1
  Al0+  Al70  1  0.74516934  0.74815768  0.33719503  1
  Al0+  Al71  1  0.74926367  0.74604667  0.66679026  1
  Al0+  Al72  1  0.31989591  0.57326647  0.34713791  1
  Al0+  Al73  1  0.67984693  0.92785324  0.34870844  1
  Al0+  Al74  1  0.43330011  0.82215879  0.65320360  1
  Al0+  Al75  1  0.92748560  0.82153758  0.65159640  1
  Al0+  Al76  1  0.82178782  0.57222122  0.35020405  1
  Al0+  Al77  1  0.17688767  0.42846198  0.35103065  1
  Al0+  Al78  1  0.68267564  0.92961620  0.01451604  1
  Al0+  Al79  1  0.32162485  0.07178114  0.68043419  1
  Al0+  Al80  1  0.07153247  0.67913570  0.98655818  1
  Al0+  Al81  1  0.68243467  0.92682585  0.68224193  1
  Al0+  Al82  1  0.18016946  0.43296812  0.01208544  1
  Al0+  Al83  1  0.31848627  0.57306305  0.68124441  1
  Al0+  Al84  1  0.82481854  0.07048414  0.68249982  1
  Al0+  Al85  1  0.82422242  0.07007883  0.34556058  1
  Al0+  Al86  1  0.67945087  0.42807755  0.34499435  1
  Al0+  Al87  1  0.31899176  0.06937485  0.01403726  1
  Al0+  Al88  1  0.92519386  0.82187360  0.98583918  1
  Al0+  Al89  1  0.92910110  0.31865747  0.98865491  1
  Al0+  Al90  1  0.81906890  0.56699592  0.01132563  1
  Al0+  Al91  1  0.32052756  0.06955127  0.34754258  1
  Al0+  Al92  1  0.67921436  0.42878250  0.68089625  1
  Al0+  Al93  1  0.92775403  0.31728069  0.65120275  1
  Al0+  Al94  1  0.92710364  0.82062992  0.31997838  1
  Al0+  Al95  1  0.07231654  0.67853920  0.64904136  1
  Si0+  Si96  1  0.42841432  0.32127832  0.31787875  1
  Si0+  Si97  1  0.82403014  0.56954741  0.68402204  1
  Si0+  Si98  1  0.82387161  0.07471102  0.01587054  1
  Si0+  Si99  1  0.43142212  0.82247475  0.98672446  1
  Si0+  Si100  1  0.42826046  0.32122562  0.98419701  1
  Si0+  Si101  1  0.07195745  0.67735223  0.31580130  1
  Si0+  Si102  1  0.17764522  0.92878716  0.34831751  1
  Si0+  Si103  1  0.07426260  0.18127883  0.31785307  1
  Si0+  Si104  1  0.17590457  0.92621011  0.01624360  1
  Si0+  Si105  1  0.92779530  0.32047694  0.31915545  1
  Si0+  Si106  1  0.57094200  0.67410304  0.64945765  1
  Si0+  Si107  1  0.07617636  0.17866005  0.98388610  1
  Si0+  Si108  1  0.56878545  0.18032957  0.64978490  1
  Si0+  Si109  1  0.56964481  0.67697292  0.98517164  1
  Si0+  Si110  1  0.42887242  0.82419500  0.31664210  1
  Si0+  Si111  1  0.17709221  0.42902283  0.68515341  1
  Si0+  Si112  1  0.42804328  0.32237298  0.65115599  1
  Si0+  Si113  1  0.17912063  0.92821688  0.68331185  1
  Si0+  Si114  1  0.07607915  0.17895625  0.64992929  1
  Si0+  Si115  1  0.67532547  0.42403901  0.01520284  1
  Si0+  Si116  1  0.56799495  0.17778776  0.98323607  1
  Si0+  Si117  1  0.56984019  0.17878409  0.31576607  1
  Si0+  Si118  1  0.56754500  0.67698742  0.31727470  1
  Si0+  Si119  1  0.32483896  0.57549734  0.01550620  1
  O2-  O120  1  0.24096948  -0.00128432  0.06114298  1
  O2-  O121  1  0.24928067  -0.00687973  0.39488671  1
  O2-  O122  1  0.24700109  -0.00174801  0.72786419  1
  O2-  O123  1  0.25317873  0.50992075  0.05848823  1
  O2-  O124  1  0.24483226  0.50553298  0.39800774  1
  O2-  O125  1  0.24072047  0.50262310  0.72895497  1
  O2-  O126  1  0.76411766  -0.00200249  0.05934233  1
  O2-  O127  1  0.76012622  -0.00850393  0.39586151  1
  O2-  O128  1  0.76200691  -0.00967011  0.73287461  1
  O2-  O129  1  0.74609654  0.48985337  0.05836073  1
  O2-  O130  1  0.75362327  0.49506500  0.39768682  1
  O2-  O131  1  0.75546730  0.50039479  0.72861120  1
  O2-  O132  1  0.00183376  0.25196813  0.27686147  1
  O2-  O133  1  0.00138389  0.24068403  0.60510035  1
  O2-  O134  1  0.00118239  0.24099134  0.94099574  1
  O2-  O135  1  -0.00034799  0.74301524  0.27277616  1
  O2-  O136  1  -0.00171322  0.74905516  0.60007273  1
  O2-  O137  1  0.00294977  0.75497788  0.93766491  1
  O2-  O138  1  0.49903860  0.25068251  0.27339008  1
  O2-  O139  1  0.49846189  0.25213012  0.60707166  1
  O2-  O140  1  0.50065073  0.25245493  0.94052747  1
  O2-  O141  1  0.49835644  0.75112478  0.27490543  1
  O2-  O142  1  0.50727771  0.74749290  0.60490242  1
  O2-  O143  1  0.49568931  0.74560424  0.94439752  1
  O2-  O144  1  0.07955441  0.18180892  0.08967408  1
  O2-  O145  1  0.07852723  0.18166417  0.42250553  1
  O2-  O146  1  0.08236758  0.18430017  0.75529480  1
  O2-  O147  1  0.07015166  0.67856669  0.10026841  1
  O2-  O148  1  0.07601474  0.68170725  0.42082912  1
  O2-  O149  1  0.07162653  0.67946487  0.76290546  1
  O2-  O150  1  0.56686672  0.17853061  0.08845337  1
  O2-  O151  1  0.56805433  0.17859678  0.42064444  1
  O2-  O152  1  0.56630205  0.18129488  0.75540709  1
  O2-  O153  1  0.56863914  0.67521127  0.09032957  1
  O2-  O154  1  0.56486791  0.67299958  0.42182397  1
  O2-  O155  1  0.56742718  0.67251401  0.75557299  1
  O2-  O156  1  0.17882552  0.42682076  0.23693822  1
  O2-  O157  1  0.18172165  0.42506085  0.58002684  1
  O2-  O158  1  0.18258345  0.43128871  0.89933621  1
  O2-  O159  1  0.18003538  0.93200697  0.24251490  1
  O2-  O160  1  0.18106821  0.92987177  0.57754078  1
  O2-  O161  1  0.18051125  0.92499490  0.91099571  1
  O2-  O162  1  0.67950838  0.42954450  0.23101852  1
  O2-  O163  1  0.67830572  0.42988854  0.56804711  1
  O2-  O164  1  0.67256111  0.42602445  0.90976945  1
  O2-  O165  1  0.67769916  0.93170401  0.23479029  1
  O2-  O166  1  0.67834306  0.93255428  0.56944441  1
  O2-  O167  1  0.67796570  0.93143501  0.90201288  1
  O2-  O168  1  0.42937251  0.32164382  0.08932881  1
  O2-  O169  1  0.42965216  0.32017986  0.42297672  1
  O2-  O170  1  0.42901771  0.32082466  0.75670727  1
  O2-  O171  1  0.43288909  0.82356261  0.09206386  1
  O2-  O172  1  0.43000434  0.82688706  0.42140391  1
  O2-  O173  1  0.43440070  0.82218001  0.76705191  1
  O2-  O174  1  0.93035089  0.31873422  0.10215018  1
  O2-  O175  1  0.92557757  0.31640310  0.42391748  1
  O2-  O176  1  0.92959942  0.31858806  0.76469833  1
  O2-  O177  1  0.92440269  0.81794906  0.09980711  1
  O2-  O178  1  0.93060709  0.82204778  0.43263285  1
  O2-  O179  1  0.92873348  0.81726143  0.76510161  1
  O2-  O180  1  0.32008471  0.06999573  0.23418318  1
  O2-  O181  1  0.32058554  0.07142204  0.56745300  1
  O2-  O182  1  0.32082667  0.06835331  0.90112117  1
  O2-  O183  1  0.32219392  0.56954252  0.23316891  1
  O2-  O184  1  0.32083477  0.56958504  0.56858181  1
  O2-  O185  1  0.32836243  0.57343736  0.91016911  1
  O2-  O186  1  0.82032028  0.07428762  0.23177193  1
  O2-  O187  1  0.81867656  0.07253786  0.56926516  1
  O2-  O188  1  0.81751303  0.08179672  0.91122781  1
  O2-  O189  1  0.82071535  0.57093536  0.23604586  1
  O2-  O190  1  0.82101467  0.56894669  0.57861601  1
  O2-  O191  1  0.81698621  0.56557434  0.89842636  1
  O2-  O192  1  0.05013898  0.09005883  0.26696939  1
  O2-  O193  1  0.06070795  0.08259869  0.60633750  1
  O2-  O194  1  0.06027455  0.08252640  0.93936081  1
  O2-  O195  1  0.04902329  0.58042923  0.27505855  1
  O2-  O196  1  0.04987345  0.57873660  0.59701065  1
  O2-  O197  1  0.04022767  0.58230456  0.93264143  1
  O2-  O198  1  0.53867609  0.08824312  0.26689532  1
  O2-  O199  1  0.53848283  0.08988304  0.60236107  1
  O2-  O200  1  0.53377188  0.08774174  0.93679145  1
  O2-  O201  1  0.53594982  0.58710371  0.26661831  1
  O2-  O202  1  0.53797769  0.58243529  0.60364075  1
  O2-  O203  1  0.54558702  0.58424658  0.93640715  1
  O2-  O204  1  0.16571297  0.21209608  0.26958032  1
  O2-  O205  1  0.16706208  0.21247941  0.60105669  1
  O2-  O206  1  0.16776958  0.21143846  0.93697187  1
  O2-  O207  1  0.16485368  0.70438644  0.26704880  1
  O2-  O208  1  0.16995959  0.71026460  0.59615182  1
  O2-  O209  1  0.17255617  0.70408864  0.93520150  1
  O2-  O210  1  0.66090478  0.20653633  0.26605523  1
  O2-  O211  1  0.65991057  0.20843497  0.60249139  1
  O2-  O212  1  0.65978536  0.20133382  0.93392246  1
  O2-  O213  1  0.65953183  0.70304234  0.26929146  1
  O2-  O214  1  0.66668338  0.69218253  0.60612927  1
  O2-  O215  1  0.65954232  0.70720351  0.93679610  1
  O2-  O216  1  0.08418865  0.46109899  0.06794807  1
  O2-  O217  1  0.07811488  0.44895200  0.40451974  1
  O2-  O218  1  0.08084763  0.45014607  0.72679100  1
  O2-  O219  1  0.08018960  0.94795099  0.05984019  1
  O2-  O220  1  0.08626628  0.95919906  0.39459036  1
  O2-  O221  1  0.08644032  0.95262705  0.73116089  1
  O2-  O222  1  0.58162208  0.45130345  0.06112687  1
  O2-  O223  1  0.58137540  0.45763728  0.39744981  1
  O2-  O224  1  0.58316017  0.45906618  0.73689943  1
  O2-  O225  1  0.58890130  0.96717042  0.07061953  1
  O2-  O226  1  0.58472071  0.96598366  0.40140589  1
  O2-  O227  1  0.58704200  0.96505092  0.73635628  1
  O2-  O228  1  0.21387483  0.33837285  0.06890192  1
  O2-  O229  1  0.21150012  0.33345951  0.40621982  1
  O2-  O230  1  0.20917023  0.33845805  0.73369843  1
  O2-  O231  1  0.20684118  0.83512515  0.06515438  1
  O2-  O232  1  0.19947638  0.83404879  0.39210444  1
  O2-  O233  1  0.20870630  0.83614071  0.72910089  1
  O2-  O234  1  0.69638627  0.32824442  0.05811308  1
  O2-  O235  1  0.70216304  0.32835043  0.39657659  1
  O2-  O236  1  0.70611948  0.33148832  0.73478972  1
  O2-  O237  1  0.70445028  0.83097639  0.06837403  1
  O2-  O238  1  0.69239230  0.82653897  0.39869341  1
  O2-  O239  1  0.69989393  0.82441068  0.73269164  1
  O2-  O240  1  0.45574894  0.41283325  0.26929092  1
  O2-  O241  1  0.45672865  0.41450704  0.60548424  1
  O2-  O242  1  0.45368274  0.41355315  0.93551196  1
  O2-  O243  1  0.45993100  0.91537145  0.26855131  1
  O2-  O244  1  0.46506663  0.91910734  0.59938259  1
  O2-  O245  1  0.46587567  0.91259114  0.94002516  1
  O2-  O246  1  0.95414822  0.41464450  0.27548038  1
  O2-  O247  1  0.95800763  0.41227173  0.59472170  1
  O2-  O248  1  0.96288998  0.41336255  0.93368677  1
  O2-  O249  1  0.95930512  0.91751912  0.26527882  1
  O2-  O250  1  0.95623743  0.92238659  0.60301893  1
  O2-  O251  1  0.94421897  0.92415126  0.93618985  1
  O2-  O252  1  0.33638420  0.29140284  0.27162456  1
  O2-  O253  1  0.33620865  0.29444105  0.60445874  1
  O2-  O254  1  0.33725403  0.29111262  0.93698223  1
  O2-  O255  1  0.33615741  0.79910332  0.26854033  1
  O2-  O256  1  0.33694554  0.79490476  0.59791608  1
  O2-  O257  1  0.33787377  0.80277333  0.93941385  1
  O2-  O258  1  0.83702581  0.29005178  0.27040025  1
  O2-  O259  1  0.82993411  0.28626985  0.59925216  1
  O2-  O260  1  0.83095428  0.29129378  0.93428227  1
  O2-  O261  1  0.82756292  0.79082868  0.27041716  1
  O2-  O262  1  0.82791249  0.79253420  0.60012954  1
  O2-  O263  1  0.82811037  0.78576867  0.93487250  1
  O2-  O264  1  0.41358693  0.03527533  0.06993830  1
  O2-  O265  1  0.41720628  0.04116649  0.40064888  1
  O2-  O266  1  0.41736519  0.04024471  0.73485866  1
  O2-  O267  1  0.41743521  0.54509098  0.06203385  1
  O2-  O268  1  0.41564266  0.54019949  0.40168424  1
  O2-  O269  1  0.41244963  0.53824432  0.73833836  1
  O2-  O270  1  0.92234392  0.06191958  0.05596151  1
  O2-  O271  1  0.92636754  0.05469989  0.39459402  1
  O2-  O272  1  0.92830310  0.05995544  0.73067401  1
  O2-  O273  1  0.91460134  0.53719723  0.06698042  1
  O2-  O274  1  0.92019180  0.55042826  0.40359513  1
  O2-  O275  1  0.91834694  0.54153557  0.72631519  1
  O2-  O276  1  0.29246540  0.16700871  0.06848528  1
  O2-  O277  1  0.29026965  0.16531891  0.40172006  1
  O2-  O278  1  0.29176690  0.16890934  0.73456256  1
  O2-  O279  1  0.30583480  0.67125885  0.05963427  1
  O2-  O280  1  0.29773596  0.67444650  0.39685737  1
  O2-  O281  1  0.29372753  0.67208880  0.73295841  1
  O2-  O282  1  0.78784596  0.16445743  0.06496510  1
  O2-  O283  1  0.78601647  0.16459079  0.39962917  1
  O2-  O284  1  0.78305777  0.16413054  0.73687426  1
  O2-  O285  1  0.78312784  0.66047231  0.06804997  1
  O2-  O286  1  0.78507970  0.66637622  0.40460352  1
  O2-  O287  1  0.79718214  0.66216892  0.73075654  1
