# generated using pymatgen
data_Ca2Al2SiO7
_symmetry_space_group_name_H-M   'P 1'
_cell_length_a   15.46044141
_cell_length_b   15.46270729
_cell_length_c   15.28539129
_cell_angle_alpha   89.99147114
_cell_angle_beta   90.00854159
_cell_angle_gamma   89.98058782
_symmetry_Int_Tables_number   1
_chemical_formula_structural   Ca2Al2SiO7
_chemical_formula_sum   'Ca48 Al48 Si24 O168'
_cell_volume   3654.12963362
_cell_formula_units_Z   24
loop_
 _symmetry_equiv_pos_site_id
 _symmetry_equiv_pos_as_xyz
  1  'x, y, z'
loop_
 _atom_type_symbol
 _atom_type_oxidation_number
  Ca2+  2.0
  Al0+  0.0
  Si0+  0.0
  O2-  -2.0
loop_
 _atom_site_type_symbol
 _atom_site_label
 _atom_site_symmetry_multiplicity
 _atom_site_fract_x
 _atom_site_fract_y
 _atom_site_fract_z
 _atom_site_occupancy
  Ca2+  Ca0  1  0.17470419  0.08504981  0.16869627  1
  Ca2+  Ca1  1  0.16543678  0.07561864  0.51072483  1
  Ca2+  Ca2  1  0.16272947  0.07706837  0.83657204  1
  Ca2+  Ca3  1  0.16956825  0.58227770  0.17000230  1
  Ca2+  Ca4  1  0.16149600  0.57705688  0.50568018  1
  Ca2+  Ca5  1  0.16570273  0.58094695  0.83987639  1
  Ca2+  Ca6  1  0.66982811  0.09003946  0.16524975  1
  Ca2+  Ca7  1  0.66822119  0.07806954  0.50437201  1
  Ca2+  Ca8  1  0.66907741  0.08276944  0.84448119  1
  Ca2+  Ca9  1  0.66936911  0.58494667  0.17178099  1
  Ca2+  Ca10  1  0.66590507  0.57871558  0.50808437  1
  Ca2+  Ca11  1  0.67557171  0.58318289  0.83669320  1
  Ca2+  Ca12  1  0.07791156  0.33825652  0.16100703  1
  Ca2+  Ca13  1  0.08044778  0.33988287  0.49996350  1
  Ca2+  Ca14  1  0.07088181  0.33324703  0.82355822  1
  Ca2+  Ca15  1  0.07991692  0.82113773  0.16546751  1
  Ca2+  Ca16  1  0.08256969  0.82145670  0.49516064  1
  Ca2+  Ca17  1  0.08778151  0.82176969  0.82848582  1
  Ca2+  Ca18  1  0.57355535  0.33599648  0.16015491  1
  Ca2+  Ca19  1  0.57940550  0.34196521  0.49354271  1
  Ca2+  Ca20  1  0.57911222  0.33515621  0.83292510  1
  Ca2+  Ca21  1  0.57997480  0.82202415  0.16465932  1
  Ca2+  Ca22  1  0.57956504  0.82012571  0.49307456  1
  Ca2+  Ca23  1  0.58454045  0.81904725  0.83056635  1
  Ca2+  Ca24  1  0.33393096  0.41841783  0.17166191  1
  Ca2+  Ca25  1  0.32335043  0.41480938  0.50116526  1
  Ca2+  Ca26  1  0.32535609  0.41940557  0.83902049  1
  Ca2+  Ca27  1  0.34167522  0.92258577  0.16952382  1
  Ca2+  Ca28  1  0.32966118  0.91423059  0.50605155  1
  Ca2+  Ca29  1  0.32657971  0.92143494  0.83973620  1
  Ca2+  Ca30  1  0.82780131  0.42035499  0.16821115  1
  Ca2+  Ca31  1  0.82153659  0.42365007  0.51050782  1
  Ca2+  Ca32  1  0.83678279  0.42381114  0.83594496  1
  Ca2+  Ca33  1  0.83794020  0.92221398  0.16972272  1
  Ca2+  Ca34  1  0.84003437  0.91503735  0.50202638  1
  Ca2+  Ca35  1  0.83299952  0.92520520  0.84138085  1
  Ca2+  Ca36  1  0.41888269  0.17898230  0.15640900  1
  Ca2+  Ca37  1  0.41803339  0.17531705  0.49379157  1
  Ca2+  Ca38  1  0.41564070  0.16821248  0.83692039  1
  Ca2+  Ca39  1  0.42731124  0.66154567  0.16077927  1
  Ca2+  Ca40  1  0.42785605  0.66727497  0.49336726  1
  Ca2+  Ca41  1  0.42810091  0.65325021  0.83303257  1
  Ca2+  Ca42  1  0.91642571  0.17471425  0.15641578  1
  Ca2+  Ca43  1  0.92309271  0.17277939  0.50251291  1
  Ca2+  Ca44  1  0.91417169  0.17901809  0.82838165  1
  Ca2+  Ca45  1  0.92740529  0.66071087  0.16131457  1
  Ca2+  Ca46  1  0.92637939  0.66178178  0.49805420  1
  Ca2+  Ca47  1  0.92429387  0.65774300  0.82886342  1
  Al0+  Al48  1  -0.00148819  -0.00176809  0.00700694  1
  Al0+  Al49  1  0.00295947  0.00124462  0.33071607  1
  Al0+  Al50  1  0.00124359  0.00102224  0.66984723  1
  Al0+  Al51  1  -0.00172558  0.49961743  -0.00310109  1
  Al0+  Al52  1  -0.00032737  0.49839332  0.33312460  1
  Al0+  Al53  1  -0.00165209  0.49954905  0.66417461  1
  Al0+  Al54  1  0.49830665  -0.00064194  0.00173311  1
  Al0+  Al55  1  0.50385388  0.00093957  0.33314624  1
  Al0+  Al56  1  0.50033374  0.00130218  0.66714261  1
  Al0+  Al57  1  0.49782458  0.49924867  -0.00569562  1
  Al0+  Al58  1  0.49927851  0.49927711  0.32970211  1
  Al0+  Al59  1  0.49993197  0.49848779  0.66498419  1
  Al0+  Al60  1  0.24806092  0.24715404  -0.00024582  1
  Al0+  Al61  1  0.25106296  0.25041987  0.33462745  1
  Al0+  Al62  1  0.25122973  0.24978824  0.66775468  1
  Al0+  Al63  1  0.24922835  0.74786767  0.00171009  1
  Al0+  Al64  1  0.25067496  0.75229573  0.32699161  1
  Al0+  Al65  1  0.25075206  0.75173487  0.66816501  1
  Al0+  Al66  1  0.74912620  0.24957320  -0.00276409  1
  Al0+  Al67  1  0.75232526  0.25025723  0.34035590  1
  Al0+  Al68  1  0.74796894  0.24957597  0.66434778  1
  Al0+  Al69  1  0.75043740  0.75026370  0.00161978  1
  Al0+  Al70  1  0.75194228  0.75390824  0.32816961  1
  Al0+  Al71  1  0.74930359  0.75032917  0.66632029  1
  Al0+  Al72  1  0.31982917  0.07005131  0.01515850  1
  Al0+  Al73  1  0.67874756  0.43081366  0.34531073  1
  Al0+  Al74  1  0.32131456  0.56925470  0.01356541  1
  Al0+  Al75  1  0.42879341  0.82362640  0.31876416  1
  Al0+  Al76  1  0.67586608  0.42721479  0.68380740  1
  Al0+  Al77  1  0.82136332  0.57116244  0.01511860  1
  Al0+  Al78  1  0.07028234  0.67995852  0.98494379  1
  Al0+  Al79  1  0.57071661  0.67877948  0.65301541  1
  Al0+  Al80  1  0.17919262  0.92843553  0.68058133  1
  Al0+  Al81  1  0.57083669  0.67774202  0.31780720  1
  Al0+  Al82  1  0.92916587  0.32029213  0.98727225  1
  Al0+  Al83  1  0.42556253  0.32165708  0.98226728  1
  Al0+  Al84  1  0.07017083  0.67555548  0.31747564  1
  Al0+  Al85  1  0.57207624  0.67894134  0.98466990  1
  Al0+  Al86  1  0.56960307  0.17886070  0.98557504  1
  Al0+  Al87  1  0.07220124  0.67916327  0.65388659  1
  Al0+  Al88  1  0.93056789  0.82410614  0.31785536  1
  Al0+  Al89  1  0.42892531  0.31902921  0.32032860  1
  Al0+  Al90  1  0.17910982  0.42941403  0.34659873  1
  Al0+  Al91  1  0.07207962  0.17886878  0.65260792  1
  Al0+  Al92  1  0.17880019  0.42912379  0.68028859  1
  Al0+  Al93  1  0.92719106  0.32186454  0.64831556  1
  Al0+  Al94  1  0.81971452  0.57187938  0.68111169  1
  Al0+  Al95  1  0.81961820  0.07215599  0.01397053  1
  Si0+  Si96  1  0.42961797  0.82472235  0.65217082  1
  Si0+  Si97  1  0.32179966  0.57397847  0.34900193  1
  Si0+  Si98  1  0.17710672  0.42781014  0.01484050  1
  Si0+  Si99  1  0.57511041  0.17847829  0.31861079  1
  Si0+  Si100  1  0.32384097  0.07224259  0.68359026  1
  Si0+  Si101  1  0.67746609  0.92748342  0.01850211  1
  Si0+  Si102  1  0.32270903  0.07102341  0.34887946  1
  Si0+  Si103  1  0.07178718  0.17943451  0.31813571  1
  Si0+  Si104  1  0.07118937  0.17479509  0.98516856  1
  Si0+  Si105  1  0.57085961  0.17652320  0.65020989  1
  Si0+  Si106  1  0.92804866  0.82356454  0.65354522  1
  Si0+  Si107  1  0.82400059  0.07125725  0.35083208  1
  Si0+  Si108  1  0.17737635  0.92608917  0.02055224  1
  Si0+  Si109  1  0.42937952  0.32003883  0.65022340  1
  Si0+  Si110  1  0.67762257  0.92958592  0.68148615  1
  Si0+  Si111  1  0.92823874  0.82318900  0.98307946  1
  Si0+  Si112  1  0.92838363  0.31892584  0.31851718  1
  Si0+  Si113  1  0.67760827  0.42866164  0.01542152  1
  Si0+  Si114  1  0.42740252  0.82164029  0.98283537  1
  Si0+  Si115  1  0.82192580  0.57412528  0.34887415  1
  Si0+  Si116  1  0.17975211  0.93052163  0.34828279  1
  Si0+  Si117  1  0.68031919  0.92966916  0.34964282  1
  Si0+  Si118  1  0.82054361  0.07003038  0.68112715  1
  Si0+  Si119  1  0.32155308  0.57243450  0.68113251  1
  O2-  O120  1  0.24613208  -0.00454713  0.06433560  1
  O2-  O121  1  0.25555560  -0.00328023  0.39131591  1
  O2-  O122  1  0.25326453  0.00462310  0.72606287  1
  O2-  O123  1  0.24881655  0.49242179  0.06022379  1
  O2-  O124  1  0.25014126  0.50823334  0.39339436  1
  O2-  O125  1  0.24893095  0.50815162  0.72589246  1
  O2-  O126  1  0.74499011  -0.00183125  0.06240223  1
  O2-  O127  1  0.75381561  -0.00121565  0.39253748  1
  O2-  O128  1  0.74950866  -0.00067126  0.72364002  1
  O2-  O129  1  0.74358026  0.49931545  0.06110648  1
  O2-  O130  1  0.74884335  0.50982075  0.39233241  1
  O2-  O131  1  0.74953093  0.49808701  0.73201389  1
  O2-  O132  1  0.00182367  0.25086748  0.27554886  1
  O2-  O133  1  0.00374668  0.25276505  0.59942455  1
  O2-  O134  1  0.00291810  0.24366712  0.94214671  1
  O2-  O135  1  -0.00409307  0.74623958  0.26825580  1
  O2-  O136  1  -0.00437528  0.75376745  0.60976918  1
  O2-  O137  1  -0.00455104  0.75455641  0.93785223  1
  O2-  O138  1  0.50727057  0.24747412  0.27524268  1
  O2-  O139  1  0.50253613  0.25002723  0.60865921  1
  O2-  O140  1  0.49834605  0.24964801  0.93271913  1
  O2-  O141  1  0.49618456  0.74789310  0.26847339  1
  O2-  O142  1  0.49547721  0.75381125  0.60788711  1
  O2-  O143  1  0.49484758  0.75221455  0.93811871  1
  O2-  O144  1  0.07101508  0.17578669  0.09145158  1
  O2-  O145  1  0.07041136  0.17632267  0.42284402  1
  O2-  O146  1  0.06751265  0.17680356  0.76596650  1
  O2-  O147  1  0.06981821  0.67981065  0.09784220  1
  O2-  O148  1  0.06995414  0.67681741  0.43138939  1
  O2-  O149  1  0.07344009  0.68120864  0.76681562  1
  O2-  O150  1  0.56958518  0.18159448  0.09952248  1
  O2-  O151  1  0.57316591  0.17591560  0.42465811  1
  O2-  O152  1  0.56941379  0.17062838  0.75444770  1
  O2-  O153  1  0.57199531  0.68062946  0.09753582  1
  O2-  O154  1  0.57008820  0.67964828  0.43175276  1
  O2-  O155  1  0.57022885  0.68081821  0.76602728  1
  O2-  O156  1  0.17988679  0.42623071  0.23366861  1
  O2-  O157  1  0.18267971  0.42907279  0.56684954  1
  O2-  O158  1  0.17688363  0.42999840  0.90920313  1
  O2-  O159  1  0.17719113  0.93518530  0.24362021  1
  O2-  O160  1  0.18126217  0.92894025  0.56699078  1
  O2-  O161  1  0.17726359  0.92767477  0.91468992  1
  O2-  O162  1  0.68236752  0.42642594  0.23247265  1
  O2-  O163  1  0.67489217  0.43023914  0.56966987  1
  O2-  O164  1  0.67943852  0.42894943  0.90999687  1
  O2-  O165  1  0.67782222  0.93294655  0.24518414  1
  O2-  O166  1  0.67623701  0.93209809  0.57620766  1
  O2-  O167  1  0.67957823  0.92781727  0.91226984  1
  O2-  O168  1  0.42659413  0.32052228  0.09610040  1
  O2-  O169  1  0.42770652  0.31570079  0.43379658  1
  O2-  O170  1  0.42822092  0.31860544  0.75478069  1
  O2-  O171  1  0.43042248  0.82231204  0.08828953  1
  O2-  O172  1  0.43171498  0.82490895  0.43281241  1
  O2-  O173  1  0.43278215  0.82985311  0.75729383  1
  O2-  O174  1  0.93065336  0.31917034  0.10130844  1
  O2-  O175  1  0.92761440  0.31622512  0.42313399  1
  O2-  O176  1  0.92652656  0.31847631  0.76187139  1
  O2-  O177  1  0.93090955  0.82481764  0.08847212  1
  O2-  O178  1  0.93571944  0.82843526  0.43157681  1
  O2-  O179  1  0.92795237  0.82652816  0.75895521  1
  O2-  O180  1  0.32035751  0.07210658  0.24405971  1
  O2-  O181  1  0.32688232  0.07011814  0.57754613  1
  O2-  O182  1  0.31818226  0.06734773  0.90202053  1
  O2-  O183  1  0.32267140  0.57065600  0.24349123  1
  O2-  O184  1  0.32290609  0.57110558  0.57530013  1
  O2-  O185  1  0.31938465  0.56899229  0.90021827  1
  O2-  O186  1  0.82289468  0.07367884  0.24599442  1
  O2-  O187  1  0.81986659  0.06753116  0.57548278  1
  O2-  O188  1  0.81933143  0.06944925  0.90064190  1
  O2-  O189  1  0.82344103  0.56968475  0.24314200  1
  O2-  O190  1  0.81752442  0.57353682  0.56704385  1
  O2-  O191  1  0.82240218  0.57012018  0.90250589  1
  O2-  O192  1  0.04357844  0.08932966  0.26823686  1
  O2-  O193  1  0.03931656  0.08111124  0.59868485  1
  O2-  O194  1  0.04514791  0.08009771  0.94204070  1
  O2-  O195  1  0.04223790  0.57697220  0.26392785  1
  O2-  O196  1  0.04116725  0.58367474  0.59875936  1
  O2-  O197  1  0.03871572  0.58375221  0.93186881  1
  O2-  O198  1  0.55097417  0.08532584  0.27210442  1
  O2-  O199  1  0.54024105  0.08607697  0.59955029  1
  O2-  O200  1  0.54219136  0.07892884  0.93408493  1
  O2-  O201  1  0.54385505  0.57997000  0.26387178  1
  O2-  O202  1  0.53844388  0.58272761  0.59895975  1
  O2-  O203  1  0.54122472  0.58317159  0.93026357  1
  O2-  O204  1  0.16395297  0.20672145  0.27169338  1
  O2-  O205  1  0.17327645  0.20045767  0.60179994  1
  O2-  O206  1  0.16471785  0.19656444  0.93875821  1
  O2-  O207  1  0.16831656  0.70568016  0.26549927  1
  O2-  O208  1  0.16902783  0.71119252  0.60015556  1
  O2-  O209  1  0.16729725  0.71094539  0.93182094  1
  O2-  O210  1  0.67035139  0.20271646  0.27582065  1
  O2-  O211  1  0.66328151  0.19921022  0.60180418  1
  O2-  O212  1  0.66782372  0.20495765  0.93181502  1
  O2-  O213  1  0.66894294  0.70896940  0.26641855  1
  O2-  O214  1  0.66611866  0.71264491  0.59848856  1
  O2-  O215  1  0.66819115  0.71345781  0.93171918  1
  O2-  O216  1  0.08510149  0.45751983  0.06158136  1
  O2-  O217  1  0.08084646  0.45613664  0.40029650  1
  O2-  O218  1  0.08029277  0.45517851  0.73107129  1
  O2-  O219  1  0.08422022  0.95163823  0.06742590  1
  O2-  O220  1  0.09035381  0.96447052  0.39704860  1
  O2-  O221  1  0.08355056  0.95982239  0.73672935  1
  O2-  O222  1  0.58218798  0.45185608  0.05803975  1
  O2-  O223  1  0.58015331  0.45728463  0.39824002  1
  O2-  O224  1  0.57725080  0.45597942  0.73542059  1
  O2-  O225  1  0.58351065  0.95163884  0.06368202  1
  O2-  O226  1  0.59041338  0.96099865  0.40040099  1
  O2-  O227  1  0.58700596  0.95965955  0.72983445  1
  O2-  O228  1  0.19639913  0.33171749  0.05850133  1
  O2-  O229  1  0.21330912  0.33363933  0.40184498  1
  O2-  O230  1  0.21198626  0.33310095  0.73412583  1
  O2-  O231  1  0.20392421  0.83302914  0.06601970  1
  O2-  O232  1  0.20325120  0.83652206  0.39374639  1
  O2-  O233  1  0.21178209  0.83372249  0.73751162  1
  O2-  O234  1  0.70526938  0.33565314  0.06123775  1
  O2-  O235  1  0.71128955  0.33504418  0.40210432  1
  O2-  O236  1  0.69940264  0.32545119  0.73184771  1
  O2-  O237  1  0.70570524  0.83571276  0.06604521  1
  O2-  O238  1  0.70638117  0.83744918  0.39773808  1
  O2-  O239  1  0.70420501  0.83813071  0.72921946  1
  O2-  O240  1  0.45592050  0.41559931  0.26608532  1
  O2-  O241  1  0.45604783  0.41132097  0.60145621  1
  O2-  O242  1  0.45296158  0.41877616  0.92747762  1
  O2-  O243  1  0.46271581  0.92113492  0.26598308  1
  O2-  O244  1  0.45712827  0.91719295  0.60336316  1
  O2-  O245  1  0.45282788  0.91516851  0.93671948  1
  O2-  O246  1  0.95349994  0.41123322  0.27179305  1
  O2-  O247  1  0.95348418  0.42002232  0.59488014  1
  O2-  O248  1  0.96166660  0.41443657  0.93108976  1
  O2-  O249  1  0.96416728  0.92078343  0.26289962  1
  O2-  O250  1  0.95480323  0.91658419  0.60679308  1
  O2-  O251  1  0.95435198  0.91760677  0.93793557  1
  O2-  O252  1  0.33410666  0.28430853  0.26558093  1
  O2-  O253  1  0.33883604  0.28947999  0.60158826  1
  O2-  O254  1  0.32705089  0.29001617  0.93093566  1
  O2-  O255  1  0.32864245  0.80611746  0.26602800  1
  O2-  O256  1  0.33521442  0.80149339  0.60727317  1
  O2-  O257  1  0.33258297  0.79810816  0.93917722  1
  O2-  O258  1  0.83780106  0.28650867  0.27152238  1
  O2-  O259  1  0.82956204  0.28803945  0.59548427  1
  O2-  O260  1  0.83378543  0.28911772  0.93273053  1
  O2-  O261  1  0.82929433  0.80804585  0.26693946  1
  O2-  O262  1  0.83378081  0.80142965  0.60671829  1
  O2-  O263  1  0.83322358  0.80159554  0.93922569  1
  O2-  O264  1  0.41661061  0.04031101  0.07024877  1
  O2-  O265  1  0.41687566  0.04789017  0.39480933  1
  O2-  O266  1  0.41648731  0.04430433  0.73107535  1
  O2-  O267  1  0.41878773  0.53936377  0.06674683  1
  O2-  O268  1  0.41414420  0.54429106  0.39561487  1
  O2-  O269  1  0.41278962  0.53992739  0.72759325  1
  O2-  O270  1  0.91556132  0.04188985  0.07102365  1
  O2-  O271  1  0.91650175  0.04284987  0.39696073  1
  O2-  O272  1  0.91136223  0.04318324  0.73002394  1
  O2-  O273  1  0.91662948  0.53513729  0.06909230  1
  O2-  O274  1  0.91356887  0.54273052  0.39552770  1
  O2-  O275  1  0.91856821  0.54315613  0.73242853  1
  O2-  O276  1  0.28767510  0.16623196  0.07053551  1
  O2-  O277  1  0.29097352  0.16059819  0.39815839  1
  O2-  O278  1  0.30104060  0.16593855  0.72914683  1
  O2-  O279  1  0.29095038  0.66574485  0.06812234  1
  O2-  O280  1  0.30123779  0.67026138  0.39212520  1
  O2-  O281  1  0.30352944  0.66781464  0.72618837  1
  O2-  O282  1  0.78817559  0.16821176  0.06943807  1
  O2-  O283  1  0.79502519  0.16101127  0.40179184  1
  O2-  O284  1  0.79126181  0.16166494  0.72651732  1
  O2-  O285  1  0.79450866  0.66929007  0.06819522  1
  O2-  O286  1  0.80353241  0.67125073  0.39037333  1
  O2-  O287  1  0.79199116  0.67102040  0.73408591  1
