# generated using pymatgen
data_Ca2Al2SiO7
_symmetry_space_group_name_H-M   'P 1'
_cell_length_a   15.45516409
_cell_length_b   15.45568953
_cell_length_c   15.28214859
_cell_angle_alpha   89.99566917
_cell_angle_beta   89.99587284
_cell_angle_gamma   89.99826069
_symmetry_Int_Tables_number   1
_chemical_formula_structural   Ca2Al2SiO7
_chemical_formula_sum   'Ca48 Al48 Si24 O168'
_cell_volume   3650.45014106
_cell_formula_units_Z   24
loop_
 _symmetry_equiv_pos_site_id
 _symmetry_equiv_pos_as_xyz
  1  'x, y, z'
loop_
 _atom_type_symbol
 _atom_type_oxidation_number
  Ca2+  2.0
  Al0+  0.0
  Si0+  0.0
  O2-  -2.0
loop_
 _atom_site_type_symbol
 _atom_site_label
 _atom_site_symmetry_multiplicity
 _atom_site_fract_x
 _atom_site_fract_y
 _atom_site_fract_z
 _atom_site_occupancy
  Ca2+  Ca0  1  0.18100063  0.07565005  0.17726057  1
  Ca2+  Ca1  1  0.16932093  0.07932364  0.50275841  1
  Ca2+  Ca2  1  0.17101308  0.08413588  0.83917598  1
  Ca2+  Ca3  1  0.16898170  0.58662375  0.16277315  1
  Ca2+  Ca4  1  0.17186270  0.58566057  0.50910279  1
  Ca2+  Ca5  1  0.17156513  0.58808467  0.83745785  1
  Ca2+  Ca6  1  0.66218210  0.07719637  0.16902983  1
  Ca2+  Ca7  1  0.66710279  0.08106643  0.51027285  1
  Ca2+  Ca8  1  0.66702861  0.07452198  0.83065017  1
  Ca2+  Ca9  1  0.66832845  0.57980418  0.17476058  1
  Ca2+  Ca10  1  0.67697549  0.58906855  0.50434220  1
  Ca2+  Ca11  1  0.67453117  0.57873582  0.83737836  1
  Ca2+  Ca12  1  0.07884229  0.34015527  0.16259560  1
  Ca2+  Ca13  1  0.07261466  0.32918581  0.50095978  1
  Ca2+  Ca14  1  0.08218505  0.32904397  0.82492262  1
  Ca2+  Ca15  1  0.08535359  0.83036159  0.16170622  1
  Ca2+  Ca16  1  0.07988787  0.83172025  0.50088304  1
  Ca2+  Ca17  1  0.07909284  0.82175430  0.82440609  1
  Ca2+  Ca18  1  0.58544964  0.32787535  0.16337955  1
  Ca2+  Ca19  1  0.58940836  0.31890745  0.49708200  1
  Ca2+  Ca20  1  0.58600788  0.32858044  0.82823421  1
  Ca2+  Ca21  1  0.57480068  0.82988288  0.16310432  1
  Ca2+  Ca22  1  0.57367231  0.83416594  0.49515972  1
  Ca2+  Ca23  1  0.57459617  0.84275924  0.82985190  1
  Ca2+  Ca24  1  0.32678539  0.42147088  0.16676519  1
  Ca2+  Ca25  1  0.33372825  0.42596233  0.50873723  1
  Ca2+  Ca26  1  0.32679110  0.43168162  0.84210210  1
  Ca2+  Ca27  1  0.33645483  0.92075452  0.17224045  1
  Ca2+  Ca28  1  0.33331297  0.91236751  0.49955040  1
  Ca2+  Ca29  1  0.33784188  0.91962781  0.83875009  1
  Ca2+  Ca30  1  0.82980341  0.42143385  0.17297810  1
  Ca2+  Ca31  1  0.84083877  0.42366036  0.50414933  1
  Ca2+  Ca32  1  0.83308333  0.41835156  0.83337892  1
  Ca2+  Ca33  1  0.82443792  0.91343803  0.17013512  1
  Ca2+  Ca34  1  0.82431354  0.92071988  0.51622691  1
  Ca2+  Ca35  1  0.82373912  0.91334412  0.83223402  1
  Ca2+  Ca36  1  0.41828155  0.15760535  0.16506301  1
  Ca2+  Ca37  1  0.42858985  0.16056122  0.49483584  1
  Ca2+  Ca38  1  0.42054956  0.16714352  0.82771140  1
  Ca2+  Ca39  1  0.41357030  0.67813331  0.16033479  1
  Ca2+  Ca40  1  0.42118511  0.67534373  0.49555175  1
  Ca2+  Ca41  1  0.41022344  0.67589142  0.82733596  1
  Ca2+  Ca42  1  0.91751519  0.17423148  0.16491280  1
  Ca2+  Ca43  1  0.91198059  0.17569906  0.49876721  1
  Ca2+  Ca44  1  0.92122349  0.17282675  0.81854118  1
  Ca2+  Ca45  1  0.92202914  0.66408473  0.16255374  1
  Ca2+  Ca46  1  0.91528395  0.66587937  0.49957489  1
  Ca2+  Ca47  1  0.92709646  0.66634857  0.82361520  1
  Al0+  Al48  1  -0.00138926  0.00210119  -0.00042497  1
  Al0+  Al49  1  0.00072508  -0.00003270  0.33492631  1
  Al0+  Al50  1  0.00120184  -0.00092086  0.66468426  1
  Al0+  Al51  1  0.00001076  0.50026989  -0.00255434  1
  Al0+  Al52  1  -0.00075978  0.49978119  0.33250472  1
  Al0+  Al53  1  0.00122912  0.49834712  0.66371356  1
  Al0+  Al54  1  0.50218967  -0.00062151  0.00331323  1
  Al0+  Al55  1  0.50010801  -0.00007568  0.32899551  1
  Al0+  Al56  1  0.49860100  0.00015040  0.66228006  1
  Al0+  Al57  1  0.50082643  0.49999683  0.00803103  1
  Al0+  Al58  1  0.50106155  0.49639063  0.33233273  1
  Al0+  Al59  1  0.49904734  0.50192593  0.67198720  1
  Al0+  Al60  1  0.25111830  0.25125949  0.00802657  1
  Al0+  Al61  1  0.25066585  0.24920252  0.33954587  1
  Al0+  Al62  1  0.25009039  0.25035922  0.66184809  1
  Al0+  Al63  1  0.24924144  0.75139547  -0.00516693  1
  Al0+  Al64  1  0.24875569  0.75003696  0.33347766  1
  Al0+  Al65  1  0.25014087  0.75155959  0.66249599  1
  Al0+  Al66  1  0.75048821  0.25055694  0.00256225  1
  Al0+  Al67  1  0.74987336  0.25019970  0.32246041  1
  Al0+  Al68  1  0.75000039  0.24937300  0.66305026  1
  Al0+  Al69  1  0.74881329  0.75081840  0.00464291  1
  Al0+  Al70  1  0.75069230  0.74907287  0.33340168  1
  Al0+  Al71  1  0.74888153  0.74834641  0.67558498  1
  Al0+  Al72  1  0.92581714  0.81959465  0.65285366  1
  Al0+  Al73  1  0.67611306  0.92862147  0.68092368  1
  Al0+  Al74  1  0.82278259  0.07241953  0.68008854  1
  Al0+  Al75  1  0.43172336  0.82048561  0.98481309  1
  Al0+  Al76  1  0.92846642  0.32019270  0.65177059  1
  Al0+  Al77  1  0.68030862  0.92982991  0.01616525  1
  Al0+  Al78  1  0.82020821  0.56985524  0.34729556  1
  Al0+  Al79  1  0.56874385  0.18065207  0.65540021  1
  Al0+  Al80  1  0.42856699  0.81830145  0.31615808  1
  Al0+  Al81  1  0.07062255  0.67902530  0.64957439  1
  Al0+  Al82  1  0.57366533  0.67726543  0.31919581  1
  Al0+  Al83  1  0.17787727  0.42954756  0.01459035  1
  Al0+  Al84  1  0.06868812  0.68051789  0.98577796  1
  Al0+  Al85  1  0.93191716  0.32083110  0.31638998  1
  Al0+  Al86  1  0.32318864  0.06990748  0.35213367  1
  Al0+  Al87  1  0.32044082  0.57490305  0.01619733  1
  Al0+  Al88  1  0.43017581  0.82081237  0.65262970  1
  Al0+  Al89  1  0.07467822  0.17592754  0.65139992  1
  Al0+  Al90  1  0.67942869  0.42787577  0.01434477  1
  Al0+  Al91  1  0.82261179  0.57011475  0.68154182  1
  Al0+  Al92  1  0.17764874  0.92679689  0.35038286  1
  Al0+  Al93  1  0.32090187  0.07056059  0.01202914  1
  Al0+  Al94  1  0.32079177  0.57331478  0.67960309  1
  Al0+  Al95  1  0.56962535  0.17985226  0.31669849  1
  Si0+  Si96  1  0.17968870  0.42734778  0.68174083  1
  Si0+  Si97  1  0.57356216  0.67543643  0.98299269  1
  Si0+  Si98  1  0.07276397  0.17986271  0.98791515  1
  Si0+  Si99  1  0.32130417  0.57003279  0.34801983  1
  Si0+  Si100  1  0.17576689  0.92914343  0.01347887  1
  Si0+  Si101  1  0.67760038  0.42717947  0.68157329  1
  Si0+  Si102  1  0.32044542  0.07138040  0.68098141  1
  Si0+  Si103  1  0.42786824  0.32247398  0.98615686  1
  Si0+  Si104  1  0.17901448  0.92900534  0.68284045  1
  Si0+  Si105  1  0.82061401  0.07249798  0.34622515  1
  Si0+  Si106  1  0.17773884  0.42930009  0.35017342  1
  Si0+  Si107  1  0.06994125  0.67899260  0.31789897  1
  Si0+  Si108  1  0.68095435  0.92959780  0.34803188  1
  Si0+  Si109  1  0.92843844  0.82291227  0.31871182  1
  Si0+  Si110  1  0.67811880  0.42538831  0.35078025  1
  Si0+  Si111  1  0.42800621  0.32470341  0.65222564  1
  Si0+  Si112  1  0.42490297  0.32284790  0.31562487  1
  Si0+  Si113  1  0.82179954  0.57092109  0.01637576  1
  Si0+  Si114  1  0.07324534  0.17689097  0.31521019  1
  Si0+  Si115  1  0.92900713  0.31990506  0.98412551  1
  Si0+  Si116  1  0.57226800  0.67467152  0.65324993  1
  Si0+  Si117  1  0.92482727  0.82460733  0.98395030  1
  Si0+  Si118  1  0.57072560  0.18000724  0.98394921  1
  Si0+  Si119  1  0.82341207  0.07318636  0.01806258  1
  O2-  O120  1  0.24455314  -0.00282154  0.05787059  1
  O2-  O121  1  0.25006051  -0.00155692  0.40093556  1
  O2-  O122  1  0.24698805  0.00376233  0.72435718  1
  O2-  O123  1  0.24856832  0.50219957  0.06613606  1
  O2-  O124  1  0.25208419  0.49741727  0.39125476  1
  O2-  O125  1  0.24674677  0.49743926  0.72549974  1
  O2-  O126  1  0.75808655  0.00176982  0.06302209  1
  O2-  O127  1  0.75201952  0.00046476  0.38969877  1
  O2-  O128  1  0.75252657  -0.00196471  0.72954140  1
  O2-  O129  1  0.75068319  0.50547751  0.06137767  1
  O2-  O130  1  0.74287012  0.49754715  0.39452140  1
  O2-  O131  1  0.74685076  0.49509583  0.72627098  1
  O2-  O132  1  0.00727274  0.24700444  0.26850348  1
  O2-  O133  1  -0.00215550  0.24421083  0.60320849  1
  O2-  O134  1  0.00124350  0.24938495  0.94389800  1
  O2-  O135  1  0.00061165  0.75263174  0.27666169  1
  O2-  O136  1  -0.00462483  0.74734161  0.59898953  1
  O2-  O137  1  -0.00626891  0.75599856  0.94113132  1
  O2-  O138  1  0.49218303  0.25274688  0.27098366  1
  O2-  O139  1  0.49659427  0.25704080  0.60710058  1
  O2-  O140  1  0.49974836  0.25215127  0.94297757  1
  O2-  O141  1  0.49896838  0.74439826  0.26642730  1
  O2-  O142  1  0.50610842  0.74574771  0.60928659  1
  O2-  O143  1  0.50405756  0.74278634  0.93802422  1
  O2-  O144  1  0.06991567  0.17956488  0.09286287  1
  O2-  O145  1  0.07045124  0.17738216  0.42034331  1
  O2-  O146  1  0.07870579  0.18140132  0.76585836  1
  O2-  O147  1  0.06656744  0.68157595  0.09973475  1
  O2-  O148  1  0.06966644  0.67671399  0.42245211  1
  O2-  O149  1  0.07148561  0.68114338  0.76324366  1
  O2-  O150  1  0.57017630  0.18061373  0.08910718  1
  O2-  O151  1  0.57185148  0.18101463  0.42976496  1
  O2-  O152  1  0.56615650  0.18116457  0.76900097  1
  O2-  O153  1  0.57455466  0.67767151  0.08855018  1
  O2-  O154  1  0.57416081  0.68101140  0.43297982  1
  O2-  O155  1  0.56959672  0.66990422  0.75868032  1
  O2-  O156  1  0.17715683  0.43110820  0.24502309  1
  O2-  O157  1  0.18249084  0.42715548  0.57573284  1
  O2-  O158  1  0.17999956  0.42630103  0.90138727  1
  O2-  O159  1  0.17555103  0.92838988  0.23616430  1
  O2-  O160  1  0.18097668  0.92731042  0.57800817  1
  O2-  O161  1  0.17417401  0.93215216  0.90789879  1
  O2-  O162  1  0.68086542  0.42502280  0.24492531  1
  O2-  O163  1  0.67546882  0.42759815  0.57623077  1
  O2-  O164  1  0.68302208  0.42461770  0.90122666  1
  O2-  O165  1  0.68331817  0.93041484  0.24254980  1
  O2-  O166  1  0.67452639  0.93157600  0.56690059  1
  O2-  O167  1  0.67863652  0.93334038  0.90357777  1
  O2-  O168  1  0.42772006  0.32091465  0.09116138  1
  O2-  O169  1  0.42648131  0.32604789  0.42119583  1
  O2-  O170  1  0.42749638  0.32292364  0.75809443  1
  O2-  O171  1  0.43244677  0.82116935  0.09756543  1
  O2-  O172  1  0.42988201  0.81700732  0.42975978  1
  O2-  O173  1  0.43009940  0.82268298  0.76593131  1
  O2-  O174  1  0.92907975  0.31939207  0.08941920  1
  O2-  O175  1  0.93201890  0.32024271  0.42880609  1
  O2-  O176  1  0.93016894  0.32030240  0.76600647  1
  O2-  O177  1  0.92581386  0.82497169  0.09016952  1
  O2-  O178  1  0.92605461  0.82294867  0.42310102  1
  O2-  O179  1  0.92928814  0.81811280  0.76678024  1
  O2-  O180  1  0.32148325  0.06843124  0.23808897  1
  O2-  O181  1  0.32165965  0.07027871  0.57641769  1
  O2-  O182  1  0.31989472  0.07195759  0.89840480  1
  O2-  O183  1  0.31839778  0.57020357  0.24307616  1
  O2-  O184  1  0.32132309  0.57018973  0.56584127  1
  O2-  O185  1  0.31863301  0.57370646  0.90265999  1
  O2-  O186  1  0.82011988  0.07023071  0.24066205  1
  O2-  O187  1  0.81751765  0.07359117  0.56595341  1
  O2-  O188  1  0.82399611  0.07565604  0.91311632  1
  O2-  O189  1  0.82196869  0.56758336  0.23390567  1
  O2-  O190  1  0.82077995  0.56938725  0.56837372  1
  O2-  O191  1  0.82225880  0.56816760  0.91095230  1
  O2-  O192  1  0.04560738  0.08372805  0.26845776  1
  O2-  O193  1  0.05368149  0.07600346  0.60019643  1
  O2-  O194  1  0.04726338  0.08741530  0.93976006  1
  O2-  O195  1  0.03906189  0.58878668  0.26904814  1
  O2-  O196  1  0.04796873  0.57892550  0.59871545  1
  O2-  O197  1  0.03845425  0.58373633  0.93136964  1
  O2-  O198  1  0.53997477  0.08354940  0.26164516  1
  O2-  O199  1  0.53521181  0.08694953  0.59851411  1
  O2-  O200  1  0.54156243  0.08862771  0.93789632  1
  O2-  O201  1  0.55199946  0.57502832  0.27076425  1
  O2-  O202  1  0.54484972  0.58248962  0.60433436  1
  O2-  O203  1  0.55146273  0.57942161  0.94027136  1
  O2-  O204  1  0.16893132  0.20146260  0.27302153  1
  O2-  O205  1  0.17058397  0.20850965  0.59448972  1
  O2-  O206  1  0.16518455  0.20817617  0.94208629  1
  O2-  O207  1  0.16176330  0.70543580  0.27004217  1
  O2-  O208  1  0.16692730  0.71221334  0.59566834  1
  O2-  O209  1  0.16429059  0.71119023  0.93042498  1
  O2-  O210  1  0.66403607  0.21173257  0.25845605  1
  O2-  O211  1  0.66441623  0.20941415  0.59912950  1
  O2-  O212  1  0.66331444  0.20896824  0.93865616  1
  O2-  O213  1  0.67115485  0.70806971  0.26438709  1
  O2-  O214  1  0.66733839  0.69800821  0.61071639  1
  O2-  O215  1  0.66821716  0.70204202  0.93882245  1
  O2-  O216  1  0.07894532  0.45850774  0.06718225  1
  O2-  O217  1  0.08762328  0.46141003  0.39731571  1
  O2-  O218  1  0.08547035  0.44982133  0.72668407  1
  O2-  O219  1  0.08172411  0.95329016  0.06079584  1
  O2-  O220  1  0.07861385  0.95569943  0.40293663  1
  O2-  O221  1  0.08654072  0.95225004  0.73079578  1
  O2-  O222  1  0.58270158  0.45244754  0.07083352  1
  O2-  O223  1  0.58206171  0.44292768  0.39517249  1
  O2-  O224  1  0.58470803  0.45235678  0.73037891  1
  O2-  O225  1  0.58665533  0.96532272  0.07226299  1
  O2-  O226  1  0.58858912  0.95802892  0.39215643  1
  O2-  O227  1  0.57969026  0.96529370  0.73421726  1
  O2-  O228  1  0.20728144  0.33344195  0.07237144  1
  O2-  O229  1  0.20091162  0.33632971  0.39711924  1
  O2-  O230  1  0.20693105  0.33389416  0.72803417  1
  O2-  O231  1  0.20091586  0.83549040  0.05824565  1
  O2-  O232  1  0.20491529  0.82773447  0.40296238  1
  O2-  O233  1  0.21136761  0.83883613  0.73042789  1
  O2-  O234  1  0.71312491  0.33270758  0.07049244  1
  O2-  O235  1  0.70947375  0.33201228  0.39390304  1
  O2-  O236  1  0.70331117  0.33380128  0.72790123  1
  O2-  O237  1  0.70827836  0.83274891  0.07192180  1
  O2-  O238  1  0.70883425  0.83803171  0.39459779  1
  O2-  O239  1  0.69928035  0.83039826  0.73675458  1
  O2-  O240  1  0.45158690  0.41522192  0.26716041  1
  O2-  O241  1  0.45308559  0.41880398  0.60677459  1
  O2-  O242  1  0.45530765  0.41530913  0.94045290  1
  O2-  O243  1  0.45939272  0.91623693  0.26439768  1
  O2-  O244  1  0.46046151  0.91601450  0.59640556  1
  O2-  O245  1  0.46628905  0.91737416  0.93234730  1
  O2-  O246  1  0.96416568  0.41713875  0.26185213  1
  O2-  O247  1  0.96152374  0.41574973  0.59644511  1
  O2-  O248  1  0.95495023  0.41196573  0.93720041  1
  O2-  O249  1  0.95453402  0.91497198  0.26975453  1
  O2-  O250  1  0.95394336  0.91805896  0.60049266  1
  O2-  O251  1  0.94824780  0.91946674  0.93905366  1
  O2-  O252  1  0.32964077  0.29908560  0.27171615  1
  O2-  O253  1  0.33550397  0.30023247  0.60395881  1
  O2-  O254  1  0.33616663  0.29310360  0.93919106  1
  O2-  O255  1  0.32870854  0.79102416  0.26465148  1
  O2-  O256  1  0.33522700  0.78920449  0.59719621  1
  O2-  O257  1  0.33347074  0.79483035  0.93152035  1
  O2-  O258  1  0.83674287  0.28903964  0.25979968  1
  O2-  O259  1  0.83001770  0.29560604  0.59728977  1
  O2-  O260  1  0.83737256  0.29024665  0.93764144  1
  O2-  O261  1  0.83809788  0.79269569  0.26931660  1
  O2-  O262  1  0.82506959  0.79336307  0.60353113  1
  O2-  O263  1  0.83051013  0.79897640  0.93994198  1
  O2-  O264  1  0.41640782  0.03862060  0.06651588  1
  O2-  O265  1  0.42268931  0.04034037  0.40191450  1
  O2-  O266  1  0.41087025  0.04068988  0.72900068  1
  O2-  O267  1  0.41853036  0.54720788  0.06946919  1
  O2-  O268  1  0.41414649  0.54262232  0.39412975  1
  O2-  O269  1  0.41636702  0.54372960  0.73662738  1
  O2-  O270  1  0.91826927  0.05151730  0.06488202  1
  O2-  O271  1  0.91377861  0.04937458  0.39184103  1
  O2-  O272  1  0.92340771  0.04915522  0.73127364  1
  O2-  O273  1  0.91407085  0.54157218  0.06272345  1
  O2-  O274  1  0.91635652  0.53635094  0.40056812  1
  O2-  O275  1  0.91947442  0.53709356  0.73418620  1
  O2-  O276  1  0.29311242  0.16603932  0.06942823  1
  O2-  O277  1  0.29805480  0.16997409  0.40412600  1
  O2-  O278  1  0.29615216  0.16556848  0.72653342  1
  O2-  O279  1  0.28750786  0.67267081  0.06827830  1
  O2-  O280  1  0.29143197  0.66097092  0.39496519  1
  O2-  O281  1  0.28753401  0.66944586  0.73247501  1
  O2-  O282  1  0.79370619  0.16497537  0.06600609  1
  O2-  O283  1  0.78987067  0.16491351  0.38986052  1
  O2-  O284  1  0.79166962  0.17027615  0.73357916  1
  O2-  O285  1  0.80125784  0.66603895  0.06169343  1
  O2-  O286  1  0.79230994  0.66771554  0.40081446  1
  O2-  O287  1  0.79288440  0.66441072  0.74008868  1
