# generated using pymatgen
data_Ca2Al2SiO7
_symmetry_space_group_name_H-M   'P 1'
_cell_length_a   15.45745709
_cell_length_b   15.45696227
_cell_length_c   15.28363936
_cell_angle_alpha   90.00324807
_cell_angle_beta   89.99513479
_cell_angle_gamma   90.00977945
_symmetry_Int_Tables_number   1
_chemical_formula_structural   Ca2Al2SiO7
_chemical_formula_sum   'Ca48 Al48 Si24 O168'
_cell_volume   3651.64852286
_cell_formula_units_Z   24
loop_
 _symmetry_equiv_pos_site_id
 _symmetry_equiv_pos_as_xyz
  1  'x, y, z'
loop_
 _atom_type_symbol
 _atom_type_oxidation_number
  Ca2+  2.0
  Al0+  0.0
  Si0+  0.0
  O2-  -2.0
loop_
 _atom_site_type_symbol
 _atom_site_label
 _atom_site_symmetry_multiplicity
 _atom_site_fract_x
 _atom_site_fract_y
 _atom_site_fract_z
 _atom_site_occupancy
  Ca2+  Ca0  1  0.16956125  0.07767936  0.16392136  1
  Ca2+  Ca1  1  0.16385246  0.07586922  0.51055502  1
  Ca2+  Ca2  1  0.16217375  0.07430068  0.84005318  1
  Ca2+  Ca3  1  0.16441960  0.58419349  0.16916213  1
  Ca2+  Ca4  1  0.15809931  0.57518565  0.50409005  1
  Ca2+  Ca5  1  0.16662545  0.58041196  0.83562514  1
  Ca2+  Ca6  1  0.67148852  0.07435636  0.16580714  1
  Ca2+  Ca7  1  0.66305896  0.08106321  0.50250257  1
  Ca2+  Ca8  1  0.67027461  0.08176551  0.84095977  1
  Ca2+  Ca9  1  0.67949128  0.58023377  0.16668299  1
  Ca2+  Ca10  1  0.68345181  0.58423480  0.50568749  1
  Ca2+  Ca11  1  0.68078702  0.57782362  0.84211588  1
  Ca2+  Ca12  1  0.08033885  0.33708496  0.16744286  1
  Ca2+  Ca13  1  0.07679763  0.34235348  0.49890575  1
  Ca2+  Ca14  1  0.07935329  0.32622445  0.82143677  1
  Ca2+  Ca15  1  0.07881511  0.82187808  0.15371847  1
  Ca2+  Ca16  1  0.08736420  0.82037983  0.49653567  1
  Ca2+  Ca17  1  0.08610230  0.82584278  0.83083425  1
  Ca2+  Ca18  1  0.57742161  0.33753939  0.15460880  1
  Ca2+  Ca19  1  0.57987307  0.32874298  0.50065903  1
  Ca2+  Ca20  1  0.57326223  0.33542970  0.82809597  1
  Ca2+  Ca21  1  0.58348584  0.83894256  0.16477678  1
  Ca2+  Ca22  1  0.57725150  0.83504073  0.49036257  1
  Ca2+  Ca23  1  0.58467539  0.83489751  0.83235160  1
  Ca2+  Ca24  1  0.32932053  0.42302951  0.16785160  1
  Ca2+  Ca25  1  0.32111685  0.41440308  0.50685341  1
  Ca2+  Ca26  1  0.33079974  0.41506514  0.83988853  1
  Ca2+  Ca27  1  0.33142007  0.91823520  0.16732133  1
  Ca2+  Ca28  1  0.32879844  0.91548613  0.50608073  1
  Ca2+  Ca29  1  0.31978006  0.92479033  0.84095564  1
  Ca2+  Ca30  1  0.83786757  0.42640718  0.17082859  1
  Ca2+  Ca31  1  0.84573289  0.42398320  0.50373762  1
  Ca2+  Ca32  1  0.83479939  0.42445507  0.83783406  1
  Ca2+  Ca33  1  0.82852678  0.91439534  0.16504977  1
  Ca2+  Ca34  1  0.82570220  0.91447810  0.50322095  1
  Ca2+  Ca35  1  0.83129298  0.92422763  0.84761955  1
  Ca2+  Ca36  1  0.41558879  0.17270002  0.15644463  1
  Ca2+  Ca37  1  0.41823500  0.17088997  0.50297809  1
  Ca2+  Ca38  1  0.41960314  0.17430685  0.82941563  1
  Ca2+  Ca39  1  0.41398819  0.67166999  0.15937727  1
  Ca2+  Ca40  1  0.41870272  0.67465017  0.49341347  1
  Ca2+  Ca41  1  0.41580622  0.66387776  0.83299696  1
  Ca2+  Ca42  1  0.91190168  0.17187586  0.16222745  1
  Ca2+  Ca43  1  0.92361530  0.17900957  0.49866438  1
  Ca2+  Ca44  1  0.91723804  0.17158689  0.82469212  1
  Ca2+  Ca45  1  0.92398078  0.66484939  0.15891253  1
  Ca2+  Ca46  1  0.92628675  0.65649500  0.49681889  1
  Ca2+  Ca47  1  0.92309556  0.66580107  0.83179456  1
  Al0+  Al48  1  -0.00097402  -0.00043679  0.00741149  1
  Al0+  Al49  1  0.00073961  0.00078502  0.33466968  1
  Al0+  Al50  1  -0.00319815  -0.00150454  0.66617943  1
  Al0+  Al51  1  0.00095950  0.49908736  -0.00200834  1
  Al0+  Al52  1  0.00101625  0.49902181  0.33090048  1
  Al0+  Al53  1  0.00244388  0.50171415  0.67099218  1
  Al0+  Al54  1  0.49917664  0.00145597  0.00458935  1
  Al0+  Al55  1  0.49992699  0.00094218  0.33302146  1
  Al0+  Al56  1  0.49880789  0.00003457  0.66430252  1
  Al0+  Al57  1  0.49783586  0.50131394  0.00268636  1
  Al0+  Al58  1  0.50142509  0.50051765  0.33405738  1
  Al0+  Al59  1  0.50081192  0.50192853  0.65868745  1
  Al0+  Al60  1  0.24922870  0.24974750  -0.00038594  1
  Al0+  Al61  1  0.25034299  0.24927615  0.33729606  1
  Al0+  Al62  1  0.25119242  0.24833535  0.66348578  1
  Al0+  Al63  1  0.25030295  0.74858238  0.00120325  1
  Al0+  Al64  1  0.25170250  0.75053244  0.32510599  1
  Al0+  Al65  1  0.24940851  0.75026350  0.66660413  1
  Al0+  Al66  1  0.74779623  0.24886507  0.00561468  1
  Al0+  Al67  1  0.75037553  0.24970257  0.32924240  1
  Al0+  Al68  1  0.74808995  0.25034712  0.65737234  1
  Al0+  Al69  1  0.75000850  0.74930978  0.00306558  1
  Al0+  Al70  1  0.75003289  0.75034951  0.34288505  1
  Al0+  Al71  1  0.75015494  0.74956313  0.67138374  1
  Al0+  Al72  1  0.67797587  0.92752912  0.01398274  1
  Al0+  Al73  1  0.07061270  0.68177692  0.65238438  1
  Al0+  Al74  1  0.68019612  0.93201601  0.34920491  1
  Al0+  Al75  1  0.43085232  0.82100672  0.31791723  1
  Al0+  Al76  1  0.82220453  0.56972355  0.68261017  1
  Al0+  Al77  1  0.17750445  0.92831005  0.67936570  1
  Al0+  Al78  1  0.82027812  0.56850243  0.34815905  1
  Al0+  Al79  1  0.93107487  0.31940595  0.31746386  1
  Al0+  Al80  1  0.18167154  0.43069491  0.34688722  1
  Al0+  Al81  1  0.92737070  0.82127284  0.98562205  1
  Al0+  Al82  1  0.18121039  0.42814777  0.68115052  1
  Al0+  Al83  1  0.06913363  0.67976152  0.31887074  1
  Al0+  Al84  1  0.82351627  0.56921366  0.01564499  1
  Al0+  Al85  1  0.17828132  0.92757763  0.01649795  1
  Al0+  Al86  1  0.42847478  0.32236427  0.98741948  1
  Al0+  Al87  1  0.07255369  0.67770263  0.98144792  1
  Al0+  Al88  1  0.57037238  0.17781735  0.65140501  1
  Al0+  Al89  1  0.32019575  0.57022135  0.01228012  1
  Al0+  Al90  1  0.93064143  0.32230869  0.65321385  1
  Al0+  Al91  1  0.42741875  0.32418856  0.64982624  1
  Al0+  Al92  1  0.31973542  0.07250664  0.01404662  1
  Al0+  Al93  1  0.07135200  0.17489654  0.65341539  1
  Al0+  Al94  1  0.67761149  0.42923863  0.01245852  1
  Al0+  Al95  1  0.82276776  0.07274452  0.01466685  1
  Si0+  Si96  1  0.92646947  0.82428406  0.31867137  1
  Si0+  Si97  1  0.07430277  0.17536892  0.31525047  1
  Si0+  Si98  1  0.32320867  0.07058988  0.68299050  1
  Si0+  Si99  1  0.67691154  0.92963970  0.68142870  1
  Si0+  Si100  1  0.92466538  0.82213089  0.64968919  1
  Si0+  Si101  1  0.81847512  0.07176797  0.67868711  1
  Si0+  Si102  1  0.92726498  0.31982378  0.98576829  1
  Si0+  Si103  1  0.67588246  0.42544737  0.35147073  1
  Si0+  Si104  1  0.17975390  0.92772416  0.34814533  1
  Si0+  Si105  1  0.42923836  0.82323629  0.98339973  1
  Si0+  Si106  1  0.42831984  0.32095717  0.31773026  1
  Si0+  Si107  1  0.32416143  0.57262708  0.68069600  1
  Si0+  Si108  1  0.32069164  0.07064708  0.35056108  1
  Si0+  Si109  1  0.57002283  0.17948916  0.31574041  1
  Si0+  Si110  1  0.43059643  0.81928926  0.65379125  1
  Si0+  Si111  1  0.82339918  0.07484757  0.35329232  1
  Si0+  Si112  1  0.57426982  0.67821680  0.31661999  1
  Si0+  Si113  1  0.57155353  0.17758783  0.98459616  1
  Si0+  Si114  1  0.67606015  0.42741288  0.68084062  1
  Si0+  Si115  1  0.57430106  0.67972264  0.65148480  1
  Si0+  Si116  1  0.07047679  0.17918962  0.98728153  1
  Si0+  Si117  1  0.17769851  0.42648963  0.01580279  1
  Si0+  Si118  1  0.32398607  0.57427351  0.35004931  1
  Si0+  Si119  1  0.57004413  0.67946451  0.98550745  1
  O2-  O120  1  0.25160595  -0.00144483  0.06678451  1
  O2-  O121  1  0.24868812  0.00014313  0.39215234  1
  O2-  O122  1  0.24751942  0.00842894  0.72491202  1
  O2-  O123  1  0.24391307  0.49788342  0.05918235  1
  O2-  O124  1  0.25677262  0.50517577  0.39469638  1
  O2-  O125  1  0.26099286  0.49918403  0.72480169  1
  O2-  O126  1  0.75268654  -0.00258195  0.06265803  1
  O2-  O127  1  0.75631467  0.00433904  0.39794147  1
  O2-  O128  1  0.74772500  0.00069152  0.72185991  1
  O2-  O129  1  0.75341883  0.49505119  0.06525468  1
  O2-  O130  1  0.74505461  0.49355337  0.39549738  1
  O2-  O131  1  0.74689895  0.49332288  0.72539521  1
  O2-  O132  1  0.00364616  0.24200395  0.27106982  1
  O2-  O133  1  0.00521176  0.25213614  0.60290685  1
  O2-  O134  1  -0.00298547  0.24735273  0.94460995  1
  O2-  O135  1  -0.00412408  0.75681883  0.27468402  1
  O2-  O136  1  -0.00526721  0.75531087  0.60501673  1
  O2-  O137  1  0.00004099  0.75100373  0.93367542  1
  O2-  O138  1  0.50317086  0.25481383  0.27437422  1
  O2-  O139  1  0.49970903  0.25120997  0.60086552  1
  O2-  O140  1  0.50451996  0.24839171  0.94157716  1
  O2-  O141  1  0.50381026  0.74445084  0.27131379  1
  O2-  O142  1  0.50225765  0.75000145  0.60973354  1
  O2-  O143  1  0.50179078  0.75334270  0.94137127  1
  O2-  O144  1  0.07263178  0.18287903  0.09254193  1
  O2-  O145  1  0.07425786  0.17266288  0.42054816  1
  O2-  O146  1  0.06595613  0.17351949  0.76733999  1
  O2-  O147  1  0.07122199  0.67725114  0.09532330  1
  O2-  O148  1  0.06936552  0.68051456  0.43239014  1
  O2-  O149  1  0.07286872  0.68290231  0.76463796  1
  O2-  O150  1  0.56955135  0.17703823  0.09043704  1
  O2-  O151  1  0.56728756  0.17852019  0.42091096  1
  O2-  O152  1  0.56937089  0.17467949  0.76461468  1
  O2-  O153  1  0.56747335  0.67926443  0.09049024  1
  O2-  O154  1  0.57218813  0.68051754  0.42281019  1
  O2-  O155  1  0.57473254  0.68036229  0.75651058  1
  O2-  O156  1  0.18451141  0.42966631  0.23379314  1
  O2-  O157  1  0.17981762  0.43298671  0.56784140  1
  O2-  O158  1  0.17900324  0.42361473  0.91035370  1
  O2-  O159  1  0.18140093  0.92924772  0.24366661  1
  O2-  O160  1  0.18337333  0.92614817  0.56556783  1
  O2-  O161  1  0.17953861  0.92994691  0.90260707  1
  O2-  O162  1  0.67324921  0.42688694  0.24619867  1
  O2-  O163  1  0.67421974  0.43096945  0.57511785  1
  O2-  O164  1  0.67764324  0.43156839  0.89860893  1
  O2-  O165  1  0.67969127  0.93364192  0.23690845  1
  O2-  O166  1  0.67602973  0.92920789  0.57622890  1
  O2-  O167  1  0.67598303  0.93123952  0.89974935  1
  O2-  O168  1  0.42908541  0.32093587  0.10120399  1
  O2-  O169  1  0.42823003  0.31853352  0.42253985  1
  O2-  O170  1  0.42997054  0.32492567  0.76340500  1
  O2-  O171  1  0.42998298  0.82235565  0.08847969  1
  O2-  O172  1  0.43083947  0.82002979  0.43200678  1
  O2-  O173  1  0.43240200  0.81950465  0.75870530  1
  O2-  O174  1  0.92979569  0.32042464  0.09100455  1
  O2-  O175  1  0.93347015  0.31995422  0.43030983  1
  O2-  O176  1  0.92871352  0.31851902  0.76718135  1
  O2-  O177  1  0.92826365  0.81872942  0.09965565  1
  O2-  O178  1  0.92811685  0.82582283  0.42460267  1
  O2-  O179  1  0.92206629  0.82267272  0.75466634  1
  O2-  O180  1  0.32077235  0.07210697  0.24577800  1
  O2-  O181  1  0.32757947  0.06473437  0.57695522  1
  O2-  O182  1  0.31837615  0.07186163  0.90052295  1
  O2-  O183  1  0.32524965  0.57284009  0.24463429  1
  O2-  O184  1  0.32359086  0.57631121  0.57499382  1
  O2-  O185  1  0.32274173  0.56832854  0.89910150  1
  O2-  O186  1  0.82158753  0.07541350  0.24810828  1
  O2-  O187  1  0.81792168  0.06904676  0.57359931  1
  O2-  O188  1  0.82005085  0.07559299  0.90041371  1
  O2-  O189  1  0.81905177  0.56820180  0.23557480  1
  O2-  O190  1  0.82056000  0.57051748  0.56923818  1
  O2-  O191  1  0.82207606  0.56775280  0.90199792  1
  O2-  O192  1  0.05080888  0.08079851  0.26933030  1
  O2-  O193  1  0.03805309  0.07865526  0.59735342  1
  O2-  O194  1  0.04584861  0.08546989  0.94336354  1
  O2-  O195  1  0.03791924  0.58420836  0.26458006  1
  O2-  O196  1  0.03871442  0.58498185  0.60029529  1
  O2-  O197  1  0.04444082  0.57810471  0.92994619  1
  O2-  O198  1  0.53727390  0.08958953  0.26846320  1
  O2-  O199  1  0.53857019  0.08020891  0.59580625  1
  O2-  O200  1  0.54388879  0.08457569  0.93792558  1
  O2-  O201  1  0.55212065  0.58285283  0.27240188  1
  O2-  O202  1  0.54911840  0.58943778  0.60012444  1
  O2-  O203  1  0.53735890  0.59007948  0.93651057  1
  O2-  O204  1  0.16781668  0.20429345  0.27043109  1
  O2-  O205  1  0.17282674  0.19294277  0.60351074  1
  O2-  O206  1  0.16058082  0.20844571  0.93749685  1
  O2-  O207  1  0.16652110  0.70780066  0.26531204  1
  O2-  O208  1  0.16725214  0.71326595  0.59724148  1
  O2-  O209  1  0.17231322  0.70592872  0.93048730  1
  O2-  O210  1  0.66374518  0.20126700  0.26995997  1
  O2-  O211  1  0.66687363  0.20405367  0.59285428  1
  O2-  O212  1  0.66620672  0.20044638  0.93939373  1
  O2-  O213  1  0.66755559  0.70765463  0.27301832  1
  O2-  O214  1  0.66482145  0.71065356  0.60304139  1
  O2-  O215  1  0.66226080  0.70480494  0.93780593  1
  O2-  O216  1  0.08397242  0.45082062  0.06164719  1
  O2-  O217  1  0.08555711  0.46335679  0.39977332  1
  O2-  O218  1  0.08717147  0.46177557  0.73716164  1
  O2-  O219  1  0.08198697  0.95660116  0.07209791  1
  O2-  O220  1  0.08670466  0.95244812  0.39531169  1
  O2-  O221  1  0.07862071  0.95391006  0.73105509  1
  O2-  O222  1  0.58205370  0.46283277  0.06799927  1
  O2-  O223  1  0.58190189  0.45071465  0.39839098  1
  O2-  O224  1  0.58261444  0.45672139  0.72555937  1
  O2-  O225  1  0.58110137  0.95806801  0.06872919  1
  O2-  O226  1  0.58320244  0.96540997  0.40270144  1
  O2-  O227  1  0.58461144  0.95659550  0.72812312  1
  O2-  O228  1  0.20533761  0.33478605  0.06411213  1
  O2-  O229  1  0.21112947  0.33342275  0.40136117  1
  O2-  O230  1  0.20692784  0.32841501  0.73201315  1
  O2-  O231  1  0.20858537  0.82988677  0.06819886  1
  O2-  O232  1  0.21159499  0.83605345  0.39391088  1
  O2-  O233  1  0.21517236  0.83461040  0.73429880  1
  O2-  O234  1  0.69725320  0.32941031  0.06537015  1
  O2-  O235  1  0.70053269  0.33038472  0.39469326  1
  O2-  O236  1  0.69724609  0.33124237  0.72280826  1
  O2-  O237  1  0.70173349  0.82899825  0.06805759  1
  O2-  O238  1  0.70676426  0.83528374  0.40620844  1
  O2-  O239  1  0.70293986  0.83765069  0.72879077  1
  O2-  O240  1  0.45182719  0.41571062  0.27338097  1
  O2-  O241  1  0.45476615  0.42213868  0.59369477  1
  O2-  O242  1  0.45895830  0.41900811  0.93357359  1
  O2-  O243  1  0.46292043  0.91773110  0.26525214  1
  O2-  O244  1  0.45747072  0.91034983  0.60422866  1
  O2-  O245  1  0.45642423  0.91569825  0.93676016  1
  O2-  O246  1  0.96610473  0.41365245  0.26227442  1
  O2-  O247  1  0.96188538  0.42034688  0.60156915  1
  O2-  O248  1  0.95608786  0.41057976  0.93761069  1
  O2-  O249  1  0.94941500  0.91925216  0.27374236  1
  O2-  O250  1  0.94658630  0.91605211  0.60285512  1
  O2-  O251  1  0.95281066  0.92303753  0.93703387  1
  O2-  O252  1  0.33754233  0.28855295  0.27127128  1
  O2-  O253  1  0.33067591  0.29305031  0.59502858  1
  O2-  O254  1  0.33229980  0.29005006  0.93349801  1
  O2-  O255  1  0.33557443  0.79226535  0.26109486  1
  O2-  O256  1  0.34008491  0.79016752  0.60465472  1
  O2-  O257  1  0.33847123  0.79286474  0.93615627  1
  O2-  O258  1  0.83287909  0.29174993  0.26404291  1
  O2-  O259  1  0.83295984  0.29526082  0.59792207  1
  O2-  O260  1  0.83404625  0.29313457  0.94087841  1
  O2-  O261  1  0.83154940  0.79770084  0.27679590  1
  O2-  O262  1  0.83084755  0.79467862  0.60343769  1
  O2-  O263  1  0.82743575  0.79513958  0.93352805  1
  O2-  O264  1  0.41789393  0.04685038  0.06842657  1
  O2-  O265  1  0.41182290  0.04084117  0.39785269  1
  O2-  O266  1  0.41364249  0.03703775  0.73118620  1
  O2-  O267  1  0.41440487  0.53927621  0.07063737  1
  O2-  O268  1  0.41906132  0.55136224  0.39559451  1
  O2-  O269  1  0.42096062  0.55337870  0.72357080  1
  O2-  O270  1  0.91980297  0.04914599  0.07178056  1
  O2-  O271  1  0.91876421  0.05175434  0.39750633  1
  O2-  O272  1  0.90952129  0.04455916  0.72737780  1
  O2-  O273  1  0.92191438  0.53978892  0.06780562  1
  O2-  O274  1  0.91655854  0.53440108  0.40042932  1
  O2-  O275  1  0.91757098  0.53985971  0.73742240  1
  O2-  O276  1  0.28832350  0.16926765  0.06950989  1
  O2-  O277  1  0.29393973  0.16193034  0.39963981  1
  O2-  O278  1  0.30714056  0.16721407  0.72441893  1
  O2-  O279  1  0.29397382  0.66704462  0.06749383  1
  O2-  O280  1  0.29839414  0.66917607  0.39363045  1
  O2-  O281  1  0.29471560  0.66430404  0.72855067  1
  O2-  O282  1  0.79049775  0.16803463  0.07199617  1
  O2-  O283  1  0.79407641  0.16787069  0.39860082  1
  O2-  O284  1  0.79026406  0.16438168  0.72415126  1
  O2-  O285  1  0.79196769  0.66625404  0.06795091  1
  O2-  O286  1  0.79071172  0.66439217  0.40505129  1
  O2-  O287  1  0.78802154  0.66581366  0.73622483  1
