# generated using pymatgen
data_Ca2Al2SiO7
_symmetry_space_group_name_H-M   'P 1'
_cell_length_a   15.46136322
_cell_length_b   15.46145528
_cell_length_c   15.28644234
_cell_angle_alpha   89.99556494
_cell_angle_beta   90.00408625
_cell_angle_gamma   89.99212396
_symmetry_Int_Tables_number   1
_chemical_formula_structural   Ca2Al2SiO7
_chemical_formula_sum   'Ca48 Al48 Si24 O168'
_cell_volume   3654.30310826
_cell_formula_units_Z   24
loop_
 _symmetry_equiv_pos_site_id
 _symmetry_equiv_pos_as_xyz
  1  'x, y, z'
loop_
 _atom_type_symbol
 _atom_type_oxidation_number
  Ca2+  2.0
  Al0+  0.0
  Si0+  0.0
  O2-  -2.0
loop_
 _atom_site_type_symbol
 _atom_site_label
 _atom_site_symmetry_multiplicity
 _atom_site_fract_x
 _atom_site_fract_y
 _atom_site_fract_z
 _atom_site_occupancy
  Ca2+  Ca0  1  0.17330817  0.07440342  0.16782710  1
  Ca2+  Ca1  1  0.17005059  0.07540639  0.51050259  1
  Ca2+  Ca2  1  0.16978764  0.07908948  0.83841373  1
  Ca2+  Ca3  1  0.16174687  0.58800316  0.17090644  1
  Ca2+  Ca4  1  0.17005766  0.58266025  0.50544929  1
  Ca2+  Ca5  1  0.17090001  0.58261661  0.83622705  1
  Ca2+  Ca6  1  0.66789498  0.08055776  0.17008189  1
  Ca2+  Ca7  1  0.67292892  0.07794293  0.51363449  1
  Ca2+  Ca8  1  0.66980960  0.08467991  0.83102606  1
  Ca2+  Ca9  1  0.66967977  0.58031714  0.16715985  1
  Ca2+  Ca10  1  0.67232260  0.58501665  0.50681048  1
  Ca2+  Ca11  1  0.65957498  0.58135311  0.84020082  1
  Ca2+  Ca12  1  0.07723469  0.32834869  0.16138902  1
  Ca2+  Ca13  1  0.08028311  0.32446052  0.49771917  1
  Ca2+  Ca14  1  0.08652829  0.31755699  0.82928002  1
  Ca2+  Ca15  1  0.08563281  0.82818717  0.15815355  1
  Ca2+  Ca16  1  0.08335594  0.83593734  0.49782052  1
  Ca2+  Ca17  1  0.07619156  0.84524646  0.83097173  1
  Ca2+  Ca18  1  0.57705674  0.33295684  0.15716865  1
  Ca2+  Ca19  1  0.57782949  0.32614728  0.50440801  1
  Ca2+  Ca20  1  0.57536656  0.32888871  0.82794272  1
  Ca2+  Ca21  1  0.57508396  0.82675185  0.15536388  1
  Ca2+  Ca22  1  0.58600941  0.83270789  0.50274231  1
  Ca2+  Ca23  1  0.58046419  0.82667140  0.82729300  1
  Ca2+  Ca24  1  0.33272896  0.41704327  0.16483259  1
  Ca2+  Ca25  1  0.33571720  0.42243221  0.50900200  1
  Ca2+  Ca26  1  0.34560564  0.42015963  0.83490027  1
  Ca2+  Ca27  1  0.32609401  0.92111562  0.17120847  1
  Ca2+  Ca28  1  0.32048656  0.92532391  0.50767111  1
  Ca2+  Ca29  1  0.32489218  0.92583132  0.84309385  1
  Ca2+  Ca30  1  0.83001640  0.42120211  0.17455501  1
  Ca2+  Ca31  1  0.84109646  0.42289848  0.50143662  1
  Ca2+  Ca32  1  0.82331039  0.41934312  0.84221756  1
  Ca2+  Ca33  1  0.83519080  0.91182804  0.16380385  1
  Ca2+  Ca34  1  0.82950609  0.91934523  0.51457865  1
  Ca2+  Ca35  1  0.83336942  0.91348996  0.83018198  1
  Ca2+  Ca36  1  0.40996947  0.16840690  0.15930881  1
  Ca2+  Ca37  1  0.41538882  0.15872238  0.50236641  1
  Ca2+  Ca38  1  0.41023722  0.17468215  0.82480268  1
  Ca2+  Ca39  1  0.42108725  0.67687113  0.15400683  1
  Ca2+  Ca40  1  0.42013979  0.66441023  0.50263723  1
  Ca2+  Ca41  1  0.42348779  0.67043127  0.82893810  1
  Ca2+  Ca42  1  0.92342858  0.17119171  0.16073289  1
  Ca2+  Ca43  1  0.92257013  0.16418418  0.50035696  1
  Ca2+  Ca44  1  0.92868889  0.15615634  0.82790677  1
  Ca2+  Ca45  1  0.92664235  0.66994492  0.16079061  1
  Ca2+  Ca46  1  0.92151611  0.67295385  0.49339588  1
  Ca2+  Ca47  1  0.92289932  0.67938663  0.83167311  1
  Al0+  Al48  1  0.00009399  0.00057990  -0.00010851  1
  Al0+  Al49  1  -0.00091240  -0.00013910  0.33360698  1
  Al0+  Al50  1  -0.00189212  0.00031223  0.66251181  1
  Al0+  Al51  1  -0.00076826  0.50104330  -0.00361208  1
  Al0+  Al52  1  -0.00102483  0.50022882  0.33063219  1
  Al0+  Al53  1  0.00086802  0.50142576  0.67021260  1
  Al0+  Al54  1  0.50230478  0.00129863  0.00108886  1
  Al0+  Al55  1  0.50072650  -0.00041221  0.33570743  1
  Al0+  Al56  1  0.49963433  -0.00082028  0.66988997  1
  Al0+  Al57  1  0.50050612  0.49811197  0.00119807  1
  Al0+  Al58  1  0.50145461  0.49736963  0.33296172  1
  Al0+  Al59  1  0.50081555  0.50070870  0.66084067  1
  Al0+  Al60  1  0.24958305  0.25212880  -0.00291461  1
  Al0+  Al61  1  0.25159249  0.25113335  0.33560692  1
  Al0+  Al62  1  0.24673973  0.25146881  0.65818527  1
  Al0+  Al63  1  0.25085226  0.74934309  -0.00367681  1
  Al0+  Al64  1  0.25106661  0.75031345  0.33413895  1
  Al0+  Al65  1  0.25039652  0.74781370  0.67547127  1
  Al0+  Al66  1  0.74836802  0.25164479  0.00716246  1
  Al0+  Al67  1  0.74709471  0.24967159  0.32995088  1
  Al0+  Al68  1  0.74880809  0.25202884  0.66691522  1
  Al0+  Al69  1  0.75255799  0.74913335  -0.00442154  1
  Al0+  Al70  1  0.75057751  0.74723554  0.33542356  1
  Al0+  Al71  1  0.75136842  0.74982686  0.66264550  1
  Al0+  Al72  1  0.06915328  0.18137766  0.98826626  1
  Al0+  Al73  1  0.82019046  0.07329997  0.68118600  1
  Al0+  Al74  1  0.07161321  0.68122864  0.32173589  1
  Al0+  Al75  1  0.57038533  0.68012888  0.65114762  1
  Al0+  Al76  1  0.57014117  0.67928902  0.98654659  1
  Al0+  Al77  1  0.17810532  0.92834662  0.01637114  1
  Al0+  Al78  1  0.93078518  0.82187249  0.98422030  1
  Al0+  Al79  1  0.67830289  0.42975557  0.01485976  1
  Al0+  Al80  1  0.42853066  0.32021406  0.64951903  1
  Al0+  Al81  1  0.92887649  0.31999512  0.32020543  1
  Al0+  Al82  1  0.67841936  0.92675091  0.68266814  1
  Al0+  Al83  1  0.93169126  0.81927247  0.65090247  1
  Al0+  Al84  1  0.32016530  0.07340357  0.68253534  1
  Al0+  Al85  1  0.06870558  0.17908749  0.65160344  1
  Al0+  Al86  1  0.32178816  0.07204202  0.34995678  1
  Al0+  Al87  1  0.07349105  0.67633372  0.98297951  1
  Al0+  Al88  1  0.32266048  0.56858377  0.68087092  1
  Al0+  Al89  1  0.57150472  0.17663316  0.65219870  1
  Al0+  Al90  1  0.42837506  0.82503841  0.98453455  1
  Al0+  Al91  1  0.42964163  0.31836588  0.98749423  1
  Al0+  Al92  1  0.32230296  0.07377815  0.01451804  1
  Al0+  Al93  1  0.17799095  0.92742149  0.34895951  1
  Al0+  Al94  1  0.82057856  0.56867147  0.34757439  1
  Al0+  Al95  1  0.17767142  0.92872056  0.68330009  1
  Si0+  Si96  1  0.67985683  0.43136599  0.68082469  1
  Si0+  Si97  1  0.82074499  0.07154083  0.01663417  1
  Si0+  Si98  1  0.42891348  0.32252630  0.31618600  1
  Si0+  Si99  1  0.17857112  0.42985635  0.34688157  1
  Si0+  Si100  1  0.68030440  0.92811387  0.34655584  1
  Si0+  Si101  1  0.17639013  0.42855970  0.68339870  1
  Si0+  Si102  1  0.32111862  0.56973734  0.01530224  1
  Si0+  Si103  1  0.43156973  0.81981357  0.32024961  1
  Si0+  Si104  1  0.81948967  0.07255306  0.34620592  1
  Si0+  Si105  1  0.82276313  0.57181885  0.68299565  1
  Si0+  Si106  1  0.92519882  0.32223638  0.98419192  1
  Si0+  Si107  1  0.07308110  0.17743663  0.31564585  1
  Si0+  Si108  1  0.68022923  0.92693249  0.01522063  1
  Si0+  Si109  1  0.32294919  0.57038535  0.34610358  1
  Si0+  Si110  1  0.82280680  0.57217292  0.01725577  1
  Si0+  Si111  1  0.92665551  0.32554212  0.65255944  1
  Si0+  Si112  1  0.56908090  0.17795895  0.31744812  1
  Si0+  Si113  1  0.07348756  0.67596657  0.64971347  1
  Si0+  Si114  1  0.42577220  0.82174130  0.64975905  1
  Si0+  Si115  1  0.67672739  0.42650251  0.35339598  1
  Si0+  Si116  1  0.57261899  0.67696448  0.31784652  1
  Si0+  Si117  1  0.17725023  0.42976357  0.01478565  1
  Si0+  Si118  1  0.92570081  0.82271298  0.31688470  1
  Si0+  Si119  1  0.57525561  0.17733429  0.98498077  1
  O2-  O120  1  0.25432470  -0.00232333  0.06470090  1
  O2-  O121  1  0.24531039  0.00416818  0.39805081  1
  O2-  O122  1  0.25106454  -0.00056698  0.73264559  1
  O2-  O123  1  0.24493231  0.50398888  0.05833215  1
  O2-  O124  1  0.25096556  0.50019563  0.38814998  1
  O2-  O125  1  0.24866514  0.49324123  0.72753968  1
  O2-  O126  1  0.74965090  -0.00024197  0.05866861  1
  O2-  O127  1  0.75489153  -0.00439958  0.38755616  1
  O2-  O128  1  0.74695430  0.00272551  0.73172014  1
  O2-  O129  1  0.75451671  0.50284196  0.06163348  1
  O2-  O130  1  0.74644773  0.49424166  0.39717758  1
  O2-  O131  1  0.75236614  0.50011111  0.72409997  1
  O2-  O132  1  0.00240377  0.24500105  0.27201090  1
  O2-  O133  1  -0.00727479  0.25486475  0.60782100  1
  O2-  O134  1  -0.00718490  0.25410496  0.93957428  1
  O2-  O135  1  -0.00074374  0.75839471  0.27492467  1
  O2-  O136  1  0.00832219  0.74673783  0.60412857  1
  O2-  O137  1  0.00672346  0.75363842  0.93464987  1
  O2-  O138  1  0.49660470  0.24770391  0.27541269  1
  O2-  O139  1  0.49524925  0.24310707  0.59929613  1
  O2-  O140  1  0.50061173  0.23982509  0.94274748  1
  O2-  O141  1  0.50117761  0.74733196  0.27663206  1
  O2-  O142  1  0.49682734  0.75557920  0.60313664  1
  O2-  O143  1  0.50085630  0.75268405  0.93587477  1
  O2-  O144  1  0.06639925  0.18475071  0.10183847  1
  O2-  O145  1  0.07126369  0.17885042  0.42104625  1
  O2-  O146  1  0.06827409  0.18109192  0.76465154  1
  O2-  O147  1  0.06859690  0.67367678  0.09715859  1
  O2-  O148  1  0.07046301  0.67920915  0.43462667  1
  O2-  O149  1  0.06894488  0.67042971  0.75447082  1
  O2-  O150  1  0.57832981  0.18010392  0.09132189  1
  O2-  O151  1  0.57149874  0.17826411  0.42178645  1
  O2-  O152  1  0.57697851  0.18393495  0.76520161  1
  O2-  O153  1  0.56857925  0.68038905  0.10126601  1
  O2-  O154  1  0.57281142  0.67683034  0.42272148  1
  O2-  O155  1  0.56913303  0.67791114  0.76367658  1
  O2-  O156  1  0.17963564  0.42903718  0.24152353  1
  O2-  O157  1  0.17247639  0.43282113  0.57728066  1
  O2-  O158  1  0.17754998  0.42891321  0.91016844  1
  O2-  O159  1  0.18090768  0.92524835  0.23563242  1
  O2-  O160  1  0.17874038  0.92890417  0.56924291  1
  O2-  O161  1  0.17548488  0.93383681  0.90364562  1
  O2-  O162  1  0.67453364  0.42810534  0.24785988  1
  O2-  O163  1  0.68109225  0.43266633  0.57542258  1
  O2-  O164  1  0.67985387  0.42940428  0.90173353  1
  O2-  O165  1  0.67872315  0.92927691  0.24106187  1
  O2-  O166  1  0.68294806  0.92594951  0.56787014  1
  O2-  O167  1  0.68067285  0.92610026  0.91110043  1
  O2-  O168  1  0.43074886  0.32011805  0.10146302  1
  O2-  O169  1  0.43112418  0.32878577  0.42033001  1
  O2-  O170  1  0.43353119  0.32332012  0.76281936  1
  O2-  O171  1  0.43125427  0.82149880  0.09967825  1
  O2-  O172  1  0.43369931  0.81833423  0.42506540  1
  O2-  O173  1  0.42691737  0.81816606  0.75483713  1
  O2-  O174  1  0.92630420  0.32148472  0.09027303  1
  O2-  O175  1  0.93148486  0.31929836  0.43326289  1
  O2-  O176  1  0.92816324  0.32933074  0.75785362  1
  O2-  O177  1  0.92807673  0.81880920  0.09857043  1
  O2-  O178  1  0.92139251  0.82072843  0.42203591  1
  O2-  O179  1  0.93020334  0.81709160  0.76337873  1
  O2-  O180  1  0.32325961  0.07083223  0.23646417  1
  O2-  O181  1  0.31683047  0.07018839  0.56862270  1
  O2-  O182  1  0.31900702  0.07709208  0.90183798  1
  O2-  O183  1  0.32483347  0.56903457  0.24101143  1
  O2-  O184  1  0.32092296  0.56739335  0.56659033  1
  O2-  O185  1  0.32487358  0.56478503  0.91082655  1
  O2-  O186  1  0.81657041  0.07394641  0.24074752  1
  O2-  O187  1  0.81958631  0.07137120  0.56662308  1
  O2-  O188  1  0.81932915  0.07521080  0.91238833  1
  O2-  O189  1  0.81721973  0.56814205  0.23472543  1
  O2-  O190  1  0.82390505  0.56959331  0.57748615  1
  O2-  O191  1  0.82268016  0.57002908  0.91166749  1
  O2-  O192  1  0.04724183  0.08353277  0.27021348  1
  O2-  O193  1  0.03491587  0.08555821  0.59415326  1
  O2-  O194  1  0.03732210  0.08605293  0.93488991  1
  O2-  O195  1  0.03893636  0.58542854  0.26679209  1
  O2-  O196  1  0.04414838  0.58309589  0.60244315  1
  O2-  O197  1  0.04123385  0.57937759  0.92829660  1
  O2-  O198  1  0.54410302  0.08505490  0.26968537  1
  O2-  O199  1  0.54986969  0.07567132  0.60044462  1
  O2-  O200  1  0.56033302  0.08117440  0.94246449  1
  O2-  O201  1  0.54571678  0.58395250  0.27212233  1
  O2-  O202  1  0.53815297  0.58560832  0.59343916  1
  O2-  O203  1  0.53935336  0.58137796  0.93558238  1
  O2-  O204  1  0.16650828  0.20692036  0.27165313  1
  O2-  O205  1  0.16165679  0.21247848  0.59228364  1
  O2-  O206  1  0.16296959  0.21621827  0.93317476  1
  O2-  O207  1  0.17020184  0.70641198  0.26751911  1
  O2-  O208  1  0.16982855  0.69702255  0.60792249  1
  O2-  O209  1  0.17485680  0.69370154  0.93431963  1
  O2-  O210  1  0.65962528  0.20683712  0.26725331  1
  O2-  O211  1  0.66842793  0.21193584  0.59684452  1
  O2-  O212  1  0.66663598  0.21023663  0.93907145  1
  O2-  O213  1  0.66418662  0.70541004  0.27044882  1
  O2-  O214  1  0.66701208  0.70958894  0.59592287  1
  O2-  O215  1  0.66961655  0.70263316  0.93553487  1
  O2-  O216  1  0.08370042  0.45447210  0.06181861  1
  O2-  O217  1  0.08773738  0.45853801  0.39464837  1
  O2-  O218  1  0.08508911  0.45705887  0.73327368  1
  O2-  O219  1  0.08008589  0.96012322  0.07018637  1
  O2-  O220  1  0.07621984  0.95081299  0.39815136  1
  O2-  O221  1  0.07901300  0.96075131  0.73139715  1
  O2-  O222  1  0.58332306  0.46234404  0.07219284  1
  O2-  O223  1  0.58372455  0.45448889  0.39971054  1
  O2-  O224  1  0.58908776  0.46289306  0.72664012  1
  O2-  O225  1  0.58912316  0.95371640  0.06558260  1
  O2-  O226  1  0.59044550  0.95857337  0.39540071  1
  O2-  O227  1  0.57865226  0.94838241  0.73395001  1
  O2-  O228  1  0.20903670  0.34061017  0.06501546  1
  O2-  O229  1  0.20580835  0.33866064  0.39563806  1
  O2-  O230  1  0.19822785  0.33323817  0.72516115  1
  O2-  O231  1  0.20395452  0.82674350  0.06532939  1
  O2-  O232  1  0.21078233  0.83013210  0.40272335  1
  O2-  O233  1  0.20021953  0.82870363  0.73477294  1
  O2-  O234  1  0.70760177  0.33409328  0.07333961  1
  O2-  O235  1  0.70095169  0.33147577  0.39658632  1
  O2-  O236  1  0.70484168  0.33979403  0.72927670  1
  O2-  O237  1  0.71085514  0.83578852  0.06386369  1
  O2-  O238  1  0.70369343  0.83490143  0.39301852  1
  O2-  O239  1  0.71251098  0.82919702  0.73387448  1
  O2-  O240  1  0.46069834  0.41281683  0.26639206  1
  O2-  O241  1  0.46494161  0.41563674  0.59407967  1
  O2-  O242  1  0.46521380  0.41331632  0.93458919  1
  O2-  O243  1  0.46239090  0.91069394  0.27260194  1
  O2-  O244  1  0.44943885  0.91583442  0.60430640  1
  O2-  O245  1  0.45731015  0.92346795  0.93364884  1
  O2-  O246  1  0.96061360  0.41526111  0.26428388  1
  O2-  O247  1  0.95694982  0.41803528  0.60496099  1
  O2-  O248  1  0.94850303  0.41598028  0.93878800  1
  O2-  O249  1  0.94433799  0.91880039  0.27249204  1
  O2-  O250  1  0.95803589  0.91599801  0.59541051  1
  O2-  O251  1  0.95315679  0.92193297  0.93327164  1
  O2-  O252  1  0.33502407  0.29933679  0.27022761  1
  O2-  O253  1  0.32804327  0.30198344  0.59676503  1
  O2-  O254  1  0.33227346  0.29601633  0.93261010  1
  O2-  O255  1  0.34030428  0.79169482  0.27250424  1
  O2-  O256  1  0.33306426  0.79027899  0.60449724  1
  O2-  O257  1  0.33113614  0.79629587  0.93245255  1
  O2-  O258  1  0.83094496  0.29117618  0.26641741  1
  O2-  O259  1  0.83239911  0.30477493  0.60633000  1
  O2-  O260  1  0.83050770  0.29686822  0.94120855  1
  O2-  O261  1  0.83345729  0.79183586  0.26948575  1
  O2-  O262  1  0.83656794  0.78545573  0.59543870  1
  O2-  O263  1  0.83410701  0.79028324  0.93005161  1
  O2-  O264  1  0.42428997  0.05194438  0.06556636  1
  O2-  O265  1  0.41996034  0.03956191  0.40192674  1
  O2-  O266  1  0.42138474  0.05256985  0.73156303  1
  O2-  O267  1  0.40994549  0.53614946  0.06600119  1
  O2-  O268  1  0.41434876  0.54016327  0.39393306  1
  O2-  O269  1  0.41961083  0.53598271  0.73291254  1
  O2-  O270  1  0.91125221  0.04315446  0.06610791  1
  O2-  O271  1  0.91390546  0.05223865  0.39110797  1
  O2-  O272  1  0.91709578  0.04077832  0.73261981  1
  O2-  O273  1  0.91634197  0.54504399  0.06349042  1
  O2-  O274  1  0.91686591  0.53659983  0.40190635  1
  O2-  O275  1  0.91397851  0.54465863  0.73169764  1
  O2-  O276  1  0.28886015  0.17188219  0.06774180  1
  O2-  O277  1  0.30094275  0.17391490  0.39936110  1
  O2-  O278  1  0.28972219  0.17418916  0.72870115  1
  O2-  O279  1  0.29908901  0.66314877  0.06209285  1
  O2-  O280  1  0.29753822  0.66189578  0.39429784  1
  O2-  O281  1  0.29438076  0.66344111  0.73782908  1
  O2-  O282  1  0.79193967  0.16235389  0.06712294  1
  O2-  O283  1  0.78625077  0.16223660  0.39394896  1
  O2-  O284  1  0.79564751  0.17321831  0.73357555  1
  O2-  O285  1  0.79643132  0.66556060  0.06350169  1
  O2-  O286  1  0.78943458  0.66500628  0.40276197  1
  O2-  O287  1  0.79276426  0.66265405  0.72855177  1
