# generated using pymatgen
data_Ca2Al2SiO7
_symmetry_space_group_name_H-M   'P 1'
_cell_length_a   15.45426275
_cell_length_b   15.45440977
_cell_length_c   15.28083262
_cell_angle_alpha   89.99513665
_cell_angle_beta   90.00857270
_cell_angle_gamma   89.99920530
_symmetry_Int_Tables_number   1
_chemical_formula_structural   Ca2Al2SiO7
_chemical_formula_sum   'Ca48 Al48 Si24 O168'
_cell_volume   3649.62066753
_cell_formula_units_Z   24
loop_
 _symmetry_equiv_pos_site_id
 _symmetry_equiv_pos_as_xyz
  1  'x, y, z'
loop_
 _atom_type_symbol
 _atom_type_oxidation_number
  Ca2+  2.0
  Al0+  0.0
  Si0+  0.0
  O2-  -2.0
loop_
 _atom_site_type_symbol
 _atom_site_label
 _atom_site_symmetry_multiplicity
 _atom_site_fract_x
 _atom_site_fract_y
 _atom_site_fract_z
 _atom_site_occupancy
  Ca2+  Ca0  1  0.16577829  0.08310122  0.16272621  1
  Ca2+  Ca1  1  0.16814357  0.07633898  0.50903726  1
  Ca2+  Ca2  1  0.16730666  0.07242031  0.84515489  1
  Ca2+  Ca3  1  0.17473502  0.58436192  0.17463305  1
  Ca2+  Ca4  1  0.16511373  0.58454217  0.49880228  1
  Ca2+  Ca5  1  0.17285519  0.58860255  0.84110586  1
  Ca2+  Ca6  1  0.67745692  0.09248548  0.16743297  1
  Ca2+  Ca7  1  0.67200910  0.08016356  0.50805417  1
  Ca2+  Ca8  1  0.66678387  0.08423297  0.83876675  1
  Ca2+  Ca9  1  0.66893073  0.57738344  0.16817222  1
  Ca2+  Ca10  1  0.67399490  0.58118653  0.50929627  1
  Ca2+  Ca11  1  0.65594504  0.57449713  0.83913843  1
  Ca2+  Ca12  1  0.07637319  0.33605375  0.16351449  1
  Ca2+  Ca13  1  0.07708946  0.33540201  0.48893990  1
  Ca2+  Ca14  1  0.08651897  0.32271721  0.83262319  1
  Ca2+  Ca15  1  0.08661974  0.82301657  0.15952719  1
  Ca2+  Ca16  1  0.08320208  0.82511052  0.50073217  1
  Ca2+  Ca17  1  0.08497721  0.82898028  0.82678604  1
  Ca2+  Ca18  1  0.57756418  0.33118494  0.15353645  1
  Ca2+  Ca19  1  0.58322128  0.33445670  0.50552969  1
  Ca2+  Ca20  1  0.57624034  0.32915112  0.82913002  1
  Ca2+  Ca21  1  0.58077091  0.82356830  0.15925266  1
  Ca2+  Ca22  1  0.59008953  0.82946854  0.50117211  1
  Ca2+  Ca23  1  0.58819645  0.82231085  0.82542960  1
  Ca2+  Ca24  1  0.33128947  0.42682766  0.16961675  1
  Ca2+  Ca25  1  0.33045340  0.41946571  0.50072380  1
  Ca2+  Ca26  1  0.34117583  0.41983325  0.84020977  1
  Ca2+  Ca27  1  0.32915822  0.92050976  0.16324196  1
  Ca2+  Ca28  1  0.32594628  0.91693805  0.50814394  1
  Ca2+  Ca29  1  0.32112299  0.92001047  0.84214456  1
  Ca2+  Ca30  1  0.82790896  0.41728903  0.17277576  1
  Ca2+  Ca31  1  0.83351784  0.42224443  0.50242456  1
  Ca2+  Ca32  1  0.81638071  0.41477024  0.83772115  1
  Ca2+  Ca33  1  0.83554515  0.92975650  0.16799306  1
  Ca2+  Ca34  1  0.83386905  0.92201899  0.50796970  1
  Ca2+  Ca35  1  0.83120134  0.91730756  0.83544220  1
  Ca2+  Ca36  1  0.42117324  0.17514083  0.15083162  1
  Ca2+  Ca37  1  0.42319484  0.16942198  0.50032918  1
  Ca2+  Ca38  1  0.42070802  0.17481770  0.82843021  1
  Ca2+  Ca39  1  0.41650221  0.66189441  0.15881400  1
  Ca2+  Ca40  1  0.42201073  0.66285785  0.49954590  1
  Ca2+  Ca41  1  0.42642422  0.66067773  0.83323247  1
  Ca2+  Ca42  1  0.91631951  0.16867369  0.16127284  1
  Ca2+  Ca43  1  0.91406860  0.17338137  0.49291837  1
  Ca2+  Ca44  1  0.91900713  0.16033788  0.83726182  1
  Ca2+  Ca45  1  0.92914283  0.65841111  0.16355839  1
  Ca2+  Ca46  1  0.92388340  0.66889613  0.49389575  1
  Ca2+  Ca47  1  0.93080293  0.67379080  0.82425247  1
  Al0+  Al48  1  -0.00228882  -0.00034875  0.00592550  1
  Al0+  Al49  1  -0.00047639  -0.00028156  0.33906562  1
  Al0+  Al50  1  0.00129982  -0.00028703  0.66670039  1
  Al0+  Al51  1  -0.00183459  0.50036038  -0.00912172  1
  Al0+  Al52  1  -0.00164233  0.49910586  0.33083652  1
  Al0+  Al53  1  0.00235343  0.49913063  0.66601723  1
  Al0+  Al54  1  0.49892578  -0.00134755  0.00113834  1
  Al0+  Al55  1  0.49953746  -0.00122961  0.33159697  1
  Al0+  Al56  1  0.50195334  0.00090275  0.66713307  1
  Al0+  Al57  1  0.49887846  0.49979286  0.00346313  1
  Al0+  Al58  1  0.49893528  0.49888823  0.33683427  1
  Al0+  Al59  1  0.50003079  0.50003616  0.65986545  1
  Al0+  Al60  1  0.24711058  0.25036341  -0.00478626  1
  Al0+  Al61  1  0.25141677  0.24880598  0.33724782  1
  Al0+  Al62  1  0.25045916  0.25197767  0.66122185  1
  Al0+  Al63  1  0.25013219  0.74943572  0.00467837  1
  Al0+  Al64  1  0.25211170  0.75091828  0.33404165  1
  Al0+  Al65  1  0.25107590  0.74928690  0.66743333  1
  Al0+  Al66  1  0.74806282  0.25056319  0.00508174  1
  Al0+  Al67  1  0.75040133  0.24892407  0.33471623  1
  Al0+  Al68  1  0.75049545  0.25146150  0.66775490  1
  Al0+  Al69  1  0.75113558  0.74921633  -0.00267588  1
  Al0+  Al70  1  0.74982697  0.75019132  0.33384054  1
  Al0+  Al71  1  0.75346506  0.75237779  0.66254886  1
  Al0+  Al72  1  0.67991765  0.43201646  0.68069122  1
  Al0+  Al73  1  0.82058463  0.07075960  0.34882532  1
  Al0+  Al74  1  0.67933462  0.92861659  0.68068685  1
  Al0+  Al75  1  0.06980787  0.68116999  0.31834358  1
  Al0+  Al76  1  0.07241424  0.67900997  0.98656211  1
  Al0+  Al77  1  0.42793873  0.32140087  0.98668813  1
  Al0+  Al78  1  0.93051919  0.82257922  0.65052974  1
  Al0+  Al79  1  0.57295293  0.17788644  0.65039066  1
  Al0+  Al80  1  0.32152172  0.07343656  0.01382276  1
  Al0+  Al81  1  0.67898370  0.43098769  0.01392661  1
  Al0+  Al82  1  0.17783041  0.92878800  0.01733531  1
  Al0+  Al83  1  0.32188499  0.57290680  0.35143460  1
  Al0+  Al84  1  0.18041165  0.92951248  0.68028953  1
  Al0+  Al85  1  0.57276336  0.17719059  0.98596999  1
  Al0+  Al86  1  0.07388014  0.67758836  0.64978317  1
  Al0+  Al87  1  0.06842748  0.17882921  0.98777654  1
  Al0+  Al88  1  0.92901028  0.31966673  0.31963780  1
  Al0+  Al89  1  0.42814315  0.32203637  0.64761642  1
  Al0+  Al90  1  0.57053197  0.68026671  0.98848812  1
  Al0+  Al91  1  0.57134776  0.67968797  0.65238969  1
  Al0+  Al92  1  0.82024344  0.57108447  0.34574839  1
  Al0+  Al93  1  0.17903263  0.42862405  0.34694027  1
  Al0+  Al94  1  0.81792024  0.06956707  0.01340599  1
  Al0+  Al95  1  0.31902308  0.56831032  0.01199127  1
  Si0+  Si96  1  0.07074169  0.17905512  0.65185812  1
  Si0+  Si97  1  0.56951187  0.17790765  0.31813143  1
  Si0+  Si98  1  0.82333861  0.57288734  0.01455588  1
  Si0+  Si99  1  0.92873131  0.82263081  0.98460421  1
  Si0+  Si100  1  0.42853195  0.82229090  0.65177442  1
  Si0+  Si101  1  0.42937781  0.82174501  0.31765711  1
  Si0+  Si102  1  0.32299903  0.07082465  0.34915249  1
  Si0+  Si103  1  0.32236274  0.07434759  0.68257571  1
  Si0+  Si104  1  0.07388564  0.17564320  0.31823991  1
  Si0+  Si105  1  0.18037792  0.92939834  0.34933171  1
  Si0+  Si106  1  0.17340823  0.42688978  0.01385462  1
  Si0+  Si107  1  0.82497017  0.57328936  0.68392097  1
  Si0+  Si108  1  0.67746942  0.42749465  0.35121593  1
  Si0+  Si109  1  0.92625307  0.82410721  0.31493337  1
  Si0+  Si110  1  0.31989615  0.56883164  0.68164628  1
  Si0+  Si111  1  0.42834952  0.32018819  0.31722087  1
  Si0+  Si112  1  0.82206545  0.07326461  0.68435294  1
  Si0+  Si113  1  0.57130563  0.67816599  0.31876488  1
  Si0+  Si114  1  0.17698887  0.42702471  0.68282219  1
  Si0+  Si115  1  0.42713593  0.82244305  0.98327352  1
  Si0+  Si116  1  0.92942547  0.32019519  0.65304021  1
  Si0+  Si117  1  0.67637625  0.92850020  0.34919185  1
  Si0+  Si118  1  0.67676716  0.92365598  0.01667245  1
  Si0+  Si119  1  0.92556034  0.32264247  0.98152350  1
  O2-  O120  1  0.24937082  0.00248402  0.06643479  1
  O2-  O121  1  0.24871409  0.00338505  0.39155649  1
  O2-  O122  1  0.25473840  0.00469547  0.72605107  1
  O2-  O123  1  0.24117442  0.49634987  0.05774569  1
  O2-  O124  1  0.24868807  0.50140452  0.40027641  1
  O2-  O125  1  0.24769325  0.49873473  0.72387957  1
  O2-  O126  1  0.74027702  -0.00261112  0.06076406  1
  O2-  O127  1  0.74667999  -0.00492699  0.39380749  1
  O2-  O128  1  0.75228056  0.00503834  0.72707978  1
  O2-  O129  1  0.75524825  0.50432329  0.05995162  1
  O2-  O130  1  0.74443907  0.49835650  0.39421743  1
  O2-  O131  1  0.75251874  0.50875477  0.72845297  1
  O2-  O132  1  0.00587998  0.24560761  0.27517599  1
  O2-  O133  1  0.00082600  0.25028862  0.60922586  1
  O2-  O134  1  -0.00456357  0.25423249  0.93834706  1
  O2-  O135  1  -0.00569954  0.75509666  0.27041095  1
  O2-  O136  1  -0.00045248  0.74761490  0.60053870  1
  O2-  O137  1  -0.00201170  0.75422842  0.94116127  1
  O2-  O138  1  0.50028673  0.25016036  0.27556169  1
  O2-  O139  1  0.50019997  0.24870323  0.59903681  1
  O2-  O140  1  0.49702852  0.24592388  0.93748864  1
  O2-  O141  1  0.49874570  0.74801249  0.27714126  1
  O2-  O142  1  0.50017342  0.75780586  0.60502816  1
  O2-  O143  1  0.49972421  0.75768468  0.93975785  1
  O2-  O144  1  0.06611026  0.18030379  0.10090557  1
  O2-  O145  1  0.07309901  0.17523865  0.42441243  1
  O2-  O146  1  0.07049640  0.17888820  0.75682133  1
  O2-  O147  1  0.07150616  0.67829980  0.09990846  1
  O2-  O148  1  0.06947008  0.68407077  0.43121085  1
  O2-  O149  1  0.07445730  0.67909021  0.76348855  1
  O2-  O150  1  0.57331034  0.18202916  0.10050496  1
  O2-  O151  1  0.56747169  0.17569591  0.42302652  1
  O2-  O152  1  0.57260063  0.17900786  0.76334394  1
  O2-  O153  1  0.56937099  0.68078103  0.10222444  1
  O2-  O154  1  0.57199177  0.68053527  0.42382964  1
  O2-  O155  1  0.56748903  0.67781962  0.76538284  1
  O2-  O156  1  0.18152560  0.42798812  0.23334717  1
  O2-  O157  1  0.17536374  0.42552116  0.57797600  1
  O2-  O158  1  0.17349254  0.42811039  0.90792043  1
  O2-  O159  1  0.18176658  0.92911573  0.24467919  1
  O2-  O160  1  0.18239193  0.93170422  0.56638950  1
  O2-  O161  1  0.17886978  0.92861945  0.90365238  1
  O2-  O162  1  0.67647969  0.42810037  0.24551462  1
  O2-  O163  1  0.68400537  0.43267280  0.56727836  1
  O2-  O164  1  0.67859853  0.43168641  0.90079427  1
  O2-  O165  1  0.67398217  0.92882502  0.24368621  1
  O2-  O166  1  0.68096350  0.93071817  0.56712841  1
  O2-  O167  1  0.68076658  0.91965258  0.91148537  1
  O2-  O168  1  0.43078028  0.32275009  0.10102301  1
  O2-  O169  1  0.42831164  0.31863517  0.42210841  1
  O2-  O170  1  0.42734203  0.32216666  0.76078474  1
  O2-  O171  1  0.42800867  0.82090028  0.08957851  1
  O2-  O172  1  0.43019242  0.82593922  0.42263373  1
  O2-  O173  1  0.42694375  0.81886725  0.75690907  1
  O2-  O174  1  0.92636119  0.32398332  0.08722751  1
  O2-  O175  1  0.92888666  0.31766208  0.43337994  1
  O2-  O176  1  0.93014324  0.31889307  0.75798432  1
  O2-  O177  1  0.92760715  0.82190434  0.09040588  1
  O2-  O178  1  0.92734038  0.82471762  0.42024836  1
  O2-  O179  1  0.93253660  0.82319385  0.76430290  1
  O2-  O180  1  0.32509551  0.07063057  0.24465229  1
  O2-  O181  1  0.31936116  0.07288209  0.57590973  1
  O2-  O182  1  0.31887391  0.07091784  0.90028360  1
  O2-  O183  1  0.32363932  0.57143425  0.23792949  1
  O2-  O184  1  0.31934620  0.56886092  0.57661264  1
  O2-  O185  1  0.32064982  0.56812861  0.89858836  1
  O2-  O186  1  0.81934256  0.07085619  0.23585724  1
  O2-  O187  1  0.82211135  0.07364309  0.57841117  1
  O2-  O188  1  0.81982735  0.06684445  0.90047713  1
  O2-  O189  1  0.81778293  0.56970807  0.23247832  1
  O2-  O190  1  0.82535592  0.56933347  0.57787905  1
  O2-  O191  1  0.82362358  0.57219244  0.90912182  1
  O2-  O192  1  0.04637248  0.08197147  0.27366803  1
  O2-  O193  1  0.04318714  0.08798446  0.60313782  1
  O2-  O194  1  0.03460351  0.08222423  0.93500801  1
  O2-  O195  1  0.03894219  0.58440774  0.26536892  1
  O2-  O196  1  0.04737882  0.57738515  0.59901003  1
  O2-  O197  1  0.04294969  0.58356921  0.92918279  1
  O2-  O198  1  0.54173160  0.08612080  0.27055660  1
  O2-  O199  1  0.54514761  0.07903041  0.59633077  1
  O2-  O200  1  0.55104994  0.07547542  0.93738087  1
  O2-  O201  1  0.54445459  0.58487283  0.27376359  1
  O2-  O202  1  0.53738990  0.58645731  0.59466226  1
  O2-  O203  1  0.53403056  0.58561806  0.93556964  1
  O2-  O204  1  0.16926330  0.19832185  0.27448468  1
  O2-  O205  1  0.16220643  0.20538277  0.60290141  1
  O2-  O206  1  0.16331102  0.20742756  0.92926223  1
  O2-  O207  1  0.16808514  0.71326025  0.26759071  1
  O2-  O208  1  0.17166764  0.70915512  0.59730402  1
  O2-  O209  1  0.16940596  0.71046847  0.93430243  1
  O2-  O210  1  0.66235111  0.20556295  0.27349141  1
  O2-  O211  1  0.67151268  0.20916140  0.59790462  1
  O2-  O212  1  0.67041492  0.20850114  0.93414417  1
  O2-  O213  1  0.66240126  0.70703125  0.27013460  1
  O2-  O214  1  0.66894759  0.70799251  0.59908613  1
  O2-  O215  1  0.66831283  0.70548557  0.93380279  1
  O2-  O216  1  0.07824208  0.45191740  0.05740362  1
  O2-  O217  1  0.07964205  0.45531645  0.39818297  1
  O2-  O218  1  0.08494467  0.45159715  0.73155089  1
  O2-  O219  1  0.08035023  0.95679583  0.07160938  1
  O2-  O220  1  0.08806196  0.95408561  0.39739548  1
  O2-  O221  1  0.08429591  0.96145119  0.73376978  1
  O2-  O222  1  0.58512862  0.46481326  0.07089471  1
  O2-  O223  1  0.58370436  0.45152143  0.39721611  1
  O2-  O224  1  0.58155223  0.46267333  0.73063049  1
  O2-  O225  1  0.58078729  0.94174950  0.06062438  1
  O2-  O226  1  0.58331423  0.95569061  0.39636806  1
  O2-  O227  1  0.58099871  0.95399896  0.73405601  1
  O2-  O228  1  0.19610979  0.33289633  0.05928862  1
  O2-  O229  1  0.20710990  0.32973859  0.40182375  1
  O2-  O230  1  0.20534050  0.33422060  0.72868241  1
  O2-  O231  1  0.21093145  0.83255449  0.07201264  1
  O2-  O232  1  0.21336607  0.84004036  0.39782401  1
  O2-  O233  1  0.21215040  0.83298817  0.73365567  1
  O2-  O234  1  0.70917342  0.33565717  0.07052449  1
  O2-  O235  1  0.70538699  0.33462924  0.39692037  1
  O2-  O236  1  0.71337737  0.33591057  0.73427635  1
  O2-  O237  1  0.70781030  0.83218870  0.06579309  1
  O2-  O238  1  0.70010655  0.83404945  0.39430441  1
  O2-  O239  1  0.71170958  0.83169415  0.73374490  1
  O2-  O240  1  0.45562563  0.41341549  0.27214455  1
  O2-  O241  1  0.45973374  0.41812588  0.59205482  1
  O2-  O242  1  0.46201770  0.41775164  0.93375415  1
  O2-  O243  1  0.45922358  0.91207460  0.26718468  1
  O2-  O244  1  0.44892293  0.91742949  0.60624032  1
  O2-  O245  1  0.44638971  0.91737500  0.93812885  1
  O2-  O246  1  0.95748461  0.41521988  0.26306656  1
  O2-  O247  1  0.95708954  0.41200266  0.60539656  1
  O2-  O248  1  0.94824232  0.41517930  0.93197968  1
  O2-  O249  1  0.95417737  0.91848761  0.27114877  1
  O2-  O250  1  0.96135663  0.92064425  0.59658915  1
  O2-  O251  1  0.95387062  0.91603339  0.93915161  1
  O2-  O252  1  0.33632207  0.29133713  0.27125592  1
  O2-  O253  1  0.32952448  0.29402458  0.59301499  1
  O2-  O254  1  0.32830766  0.29972508  0.93361285  1
  O2-  O255  1  0.33796961  0.79546674  0.26935321  1
  O2-  O256  1  0.33733324  0.79197085  0.60274407  1
  O2-  O257  1  0.33486297  0.79252073  0.93813760  1
  O2-  O258  1  0.83221187  0.28769022  0.26581716  1
  O2-  O259  1  0.83880077  0.29239702  0.60386493  1
  O2-  O260  1  0.83277593  0.29295957  0.93731989  1
  O2-  O261  1  0.83130391  0.80118076  0.27012353  1
  O2-  O262  1  0.83229773  0.79844169  0.59534038  1
  O2-  O263  1  0.83574939  0.79689521  0.93701121  1
  O2-  O264  1  0.41982770  0.04452646  0.06888917  1
  O2-  O265  1  0.41329788  0.03807794  0.39743609  1
  O2-  O266  1  0.41700551  0.05175362  0.72596251  1
  O2-  O267  1  0.41295586  0.53575208  0.07015036  1
  O2-  O268  1  0.41993850  0.54199539  0.40452613  1
  O2-  O269  1  0.41213144  0.53920222  0.72660156  1
  O2-  O270  1  0.91204322  0.03742750  0.07151512  1
  O2-  O271  1  0.91766614  0.04313813  0.40437976  1
  O2-  O272  1  0.91593760  0.04612179  0.72888019  1
  O2-  O273  1  0.91719416  0.54492453  0.05944217  1
  O2-  O274  1  0.91520405  0.53788147  0.40031085  1
  O2-  O275  1  0.91785343  0.54370514  0.72976624  1
  O2-  O276  1  0.29131187  0.17216208  0.06587981  1
  O2-  O277  1  0.29871940  0.16246756  0.39865954  1
  O2-  O278  1  0.29477344  0.16842879  0.72555062  1
  O2-  O279  1  0.29208693  0.66481864  0.06809236  1
  O2-  O280  1  0.29654172  0.67273404  0.40299307  1
  O2-  O281  1  0.29442803  0.66106966  0.72916174  1
  O2-  O282  1  0.79013318  0.16624685  0.06974750  1
  O2-  O283  1  0.78836802  0.16658588  0.40362632  1
  O2-  O284  1  0.79830938  0.16693644  0.73045753  1
  O2-  O285  1  0.79861841  0.66635153  0.06134890  1
  O2-  O286  1  0.79140481  0.66856670  0.40005894  1
  O2-  O287  1  0.80459464  0.66926225  0.72534613  1
