# generated using pymatgen
data_Ca2Al2SiO7
_symmetry_space_group_name_H-M   'P 1'
_cell_length_a   15.45646975
_cell_length_b   15.45655545
_cell_length_c   15.28224281
_cell_angle_alpha   90.01746336
_cell_angle_beta   90.00466081
_cell_angle_gamma   90.00124453
_symmetry_Int_Tables_number   1
_chemical_formula_structural   Ca2Al2SiO7
_chemical_formula_sum   'Ca48 Al48 Si24 O168'
_cell_volume   3650.98542115
_cell_formula_units_Z   24
loop_
 _symmetry_equiv_pos_site_id
 _symmetry_equiv_pos_as_xyz
  1  'x, y, z'
loop_
 _atom_type_symbol
 _atom_type_oxidation_number
  Ca2+  2.0
  Al0+  0.0
  Si0+  0.0
  O2-  -2.0
loop_
 _atom_site_type_symbol
 _atom_site_label
 _atom_site_symmetry_multiplicity
 _atom_site_fract_x
 _atom_site_fract_y
 _atom_site_fract_z
 _atom_site_occupancy
  Ca2+  Ca0  1  0.15936064  0.07264629  0.16758110  1
  Ca2+  Ca1  1  0.16025965  0.07402126  0.50581795  1
  Ca2+  Ca2  1  0.15925342  0.07718728  0.83779533  1
  Ca2+  Ca3  1  0.16155189  0.57468618  0.16878349  1
  Ca2+  Ca4  1  0.17391360  0.56924460  0.50754237  1
  Ca2+  Ca5  1  0.16756499  0.57304139  0.83691291  1
  Ca2+  Ca6  1  0.67840024  0.08157801  0.17817353  1
  Ca2+  Ca7  1  0.66820720  0.08952734  0.49561517  1
  Ca2+  Ca8  1  0.67722836  0.08505153  0.84185066  1
  Ca2+  Ca9  1  0.66669338  0.57216575  0.17011078  1
  Ca2+  Ca10  1  0.66498872  0.58035785  0.50355652  1
  Ca2+  Ca11  1  0.66302361  0.57900776  0.83586107  1
  Ca2+  Ca12  1  0.07948130  0.33195574  0.15962544  1
  Ca2+  Ca13  1  0.07842429  0.33569120  0.49424139  1
  Ca2+  Ca14  1  0.08743988  0.32364533  0.82491098  1
  Ca2+  Ca15  1  0.08440580  0.83007111  0.15399236  1
  Ca2+  Ca16  1  0.09016482  0.83436056  0.49712760  1
  Ca2+  Ca17  1  0.08481264  0.83460429  0.83419830  1
  Ca2+  Ca18  1  0.58495104  0.33391265  0.16772336  1
  Ca2+  Ca19  1  0.57060513  0.33363445  0.48944820  1
  Ca2+  Ca20  1  0.57876896  0.33576522  0.82711481  1
  Ca2+  Ca21  1  0.57919777  0.83780361  0.16107392  1
  Ca2+  Ca22  1  0.58054534  0.83060292  0.49636118  1
  Ca2+  Ca23  1  0.56919342  0.82836425  0.82360409  1
  Ca2+  Ca24  1  0.32036419  0.41268117  0.17214059  1
  Ca2+  Ca25  1  0.32795034  0.41327306  0.50839831  1
  Ca2+  Ca26  1  0.32729870  0.41834657  0.83431297  1
  Ca2+  Ca27  1  0.32395831  0.91336361  0.16958027  1
  Ca2+  Ca28  1  0.32481787  0.91747252  0.50754805  1
  Ca2+  Ca29  1  0.32607344  0.90959822  0.83647321  1
  Ca2+  Ca30  1  0.82404635  0.41133022  0.17378092  1
  Ca2+  Ca31  1  0.82921720  0.40416680  0.50006886  1
  Ca2+  Ca32  1  0.82878105  0.41395142  0.83775798  1
  Ca2+  Ca33  1  0.83705834  0.92849988  0.17249202  1
  Ca2+  Ca34  1  0.82847498  0.92534192  0.49984663  1
  Ca2+  Ca35  1  0.83584748  0.92306058  0.84276598  1
  Ca2+  Ca36  1  0.42168108  0.16914506  0.16897708  1
  Ca2+  Ca37  1  0.41822029  0.17891911  0.49294817  1
  Ca2+  Ca38  1  0.41835904  0.17392619  0.82677504  1
  Ca2+  Ca39  1  0.41699943  0.67439900  0.16036482  1
  Ca2+  Ca40  1  0.41413582  0.66669598  0.50427344  1
  Ca2+  Ca41  1  0.41609028  0.67304917  0.82519033  1
  Ca2+  Ca42  1  0.91694636  0.16626044  0.16355481  1
  Ca2+  Ca43  1  0.92099350  0.17511443  0.49800212  1
  Ca2+  Ca44  1  0.92656885  0.16925507  0.83025405  1
  Ca2+  Ca45  1  0.92422129  0.67679494  0.15708531  1
  Ca2+  Ca46  1  0.91973661  0.66884053  0.49544649  1
  Ca2+  Ca47  1  0.92307589  0.67016823  0.83461152  1
  Al0+  Al48  1  0.00043528  0.00144901  0.00109340  1
  Al0+  Al49  1  -0.00159539  0.00023721  0.34323844  1
  Al0+  Al50  1  -0.00146993  0.00039105  0.66684088  1
  Al0+  Al51  1  -0.00190534  0.50120386  -0.00032222  1
  Al0+  Al52  1  0.00061844  0.50064527  0.33205006  1
  Al0+  Al53  1  -0.00283065  0.50060407  0.66720562  1
  Al0+  Al54  1  0.49988696  0.00215536  -0.00614884  1
  Al0+  Al55  1  0.49932537  0.00007591  0.33272416  1
  Al0+  Al56  1  0.49998357  -0.00176011  0.66308243  1
  Al0+  Al57  1  0.49929009  0.50021663  0.00523505  1
  Al0+  Al58  1  0.49945692  0.50249469  0.33094774  1
  Al0+  Al59  1  0.50008876  0.50049292  0.66324829  1
  Al0+  Al60  1  0.25103803  0.24986492  0.00061426  1
  Al0+  Al61  1  0.24890110  0.24826181  0.33174220  1
  Al0+  Al62  1  0.25066308  0.24519236  0.66180810  1
  Al0+  Al63  1  0.25097904  0.74865677  -0.00423299  1
  Al0+  Al64  1  0.25048860  0.74865530  0.33634001  1
  Al0+  Al65  1  0.24946769  0.74929746  0.66969816  1
  Al0+  Al66  1  0.74958972  0.24927543  0.00741325  1
  Al0+  Al67  1  0.75082003  0.25078264  0.33554404  1
  Al0+  Al68  1  0.75249391  0.24927044  0.66662908  1
  Al0+  Al69  1  0.74927806  0.74918536  -0.00394655  1
  Al0+  Al70  1  0.75018604  0.75109453  0.33404253  1
  Al0+  Al71  1  0.74989070  0.74948279  0.66466854  1
  Al0+  Al72  1  0.42999456  0.82227175  0.98652693  1
  Al0+  Al73  1  0.92926575  0.32283378  0.65250827  1
  Al0+  Al74  1  0.57181200  0.67920882  0.65022122  1
  Al0+  Al75  1  0.93108744  0.32141446  0.31763923  1
  Al0+  Al76  1  0.32190480  0.56877137  0.68261477  1
  Al0+  Al77  1  0.42997133  0.31965803  0.65484687  1
  Al0+  Al78  1  0.17873272  0.93026203  0.68280169  1
  Al0+  Al79  1  0.17815494  0.42774282  0.01310813  1
  Al0+  Al80  1  0.67917729  0.43082659  0.34886150  1
  Al0+  Al81  1  0.17706801  0.42559053  0.68128447  1
  Al0+  Al82  1  0.82133250  0.06891045  0.01389697  1
  Al0+  Al83  1  0.57039111  0.17945373  0.31757591  1
  Al0+  Al84  1  0.07160293  0.18089183  0.98805277  1
  Al0+  Al85  1  0.42643218  0.82081085  0.64831268  1
  Al0+  Al86  1  0.92914465  0.82286649  0.98591610  1
  Al0+  Al87  1  0.07201462  0.67666114  0.98328110  1
  Al0+  Al88  1  0.07121376  0.17740216  0.65073005  1
  Al0+  Al89  1  0.18242558  0.93012368  0.01259107  1
  Al0+  Al90  1  0.67892592  0.43032687  0.01365627  1
  Al0+  Al91  1  0.42641876  0.32399185  0.31523516  1
  Al0+  Al92  1  0.67676944  0.92800500  0.34821452  1
  Al0+  Al93  1  0.82121352  0.07292615  0.35265081  1
  Al0+  Al94  1  0.17858811  0.42791482  0.34632594  1
  Al0+  Al95  1  0.17999146  0.92853591  0.34660132  1
  Si0+  Si96  1  0.07197983  0.68074544  0.31953591  1
  Si0+  Si97  1  0.81832610  0.06997452  0.68403799  1
  Si0+  Si98  1  0.57275518  0.18099343  0.98514712  1
  Si0+  Si99  1  0.57342015  0.68034942  0.31581473  1
  Si0+  Si100  1  0.32505423  0.07091146  0.68324404  1
  Si0+  Si101  1  0.32171212  0.57248362  0.34935197  1
  Si0+  Si102  1  0.57466222  0.17729143  0.65177244  1
  Si0+  Si103  1  0.92871462  0.82132932  0.65047332  1
  Si0+  Si104  1  0.32569297  0.07413745  0.01698076  1
  Si0+  Si105  1  0.32252565  0.07138350  0.34980574  1
  Si0+  Si106  1  0.92926714  0.82146099  0.32047208  1
  Si0+  Si107  1  0.06997980  0.67886810  0.65096645  1
  Si0+  Si108  1  0.68053851  0.42965849  0.67968118  1
  Si0+  Si109  1  0.57098635  0.67599452  0.98436357  1
  Si0+  Si110  1  0.67618193  0.92771605  0.01269985  1
  Si0+  Si111  1  0.82214519  0.57442966  0.01709302  1
  Si0+  Si112  1  0.82144490  0.57483109  0.68287700  1
  Si0+  Si113  1  0.92581174  0.32161966  0.98533695  1
  Si0+  Si114  1  0.42971341  0.32179339  0.98535494  1
  Si0+  Si115  1  0.07095199  0.17516361  0.31610689  1
  Si0+  Si116  1  0.42789068  0.81993208  0.31820200  1
  Si0+  Si117  1  0.67853677  0.92668323  0.68264247  1
  Si0+  Si118  1  0.32136501  0.57130277  0.01759211  1
  Si0+  Si119  1  0.82192593  0.57286007  0.34955067  1
  O2-  O120  1  0.25791234  0.00373213  0.06031206  1
  O2-  O121  1  0.25247443  0.00422217  0.39412846  1
  O2-  O122  1  0.25569156  0.00332598  0.72821790  1
  O2-  O123  1  0.25065310  0.50446482  0.06116772  1
  O2-  O124  1  0.25901704  0.49734083  0.39128205  1
  O2-  O125  1  0.24997665  0.49648095  0.73233090  1
  O2-  O126  1  0.74819443  -0.00882207  0.05831743  1
  O2-  O127  1  0.74573636  0.00199397  0.39996781  1
  O2-  O128  1  0.74608190  0.00003558  0.72638677  1
  O2-  O129  1  0.75456668  0.50433656  0.06035306  1
  O2-  O130  1  0.75496920  0.50412002  0.39632921  1
  O2-  O131  1  0.75148006  0.50088964  0.72231791  1
  O2-  O132  1  0.00619069  0.24717283  0.27112053  1
  O2-  O133  1  0.00644325  0.25673384  0.60214083  1
  O2-  O134  1  -0.00017522  0.25914960  0.94145758  1
  O2-  O135  1  0.00235582  0.75329676  0.27775893  1
  O2-  O136  1  0.00055201  0.75143158  0.60755520  1
  O2-  O137  1  0.00078185  0.75094000  0.93461857  1
  O2-  O138  1  0.50064648  0.25322325  0.26565758  1
  O2-  O139  1  0.50418703  0.24408814  0.60897950  1
  O2-  O140  1  0.50171253  0.25162673  0.94265430  1
  O2-  O141  1  0.50238967  0.75243600  0.27509742  1
  O2-  O142  1  0.50007154  0.75036834  0.59828545  1
  O2-  O143  1  0.50671341  0.74869297  0.94119825  1
  O2-  O144  1  0.06980825  0.17998662  0.10114676  1
  O2-  O145  1  0.06895849  0.17421828  0.42150216  1
  O2-  O146  1  0.06632726  0.17523342  0.76460354  1
  O2-  O147  1  0.07025752  0.67804614  0.09773757  1
  O2-  O148  1  0.07117267  0.68139458  0.42489643  1
  O2-  O149  1  0.06683595  0.67816360  0.75558422  1
  O2-  O150  1  0.57285783  0.17962433  0.08942278  1
  O2-  O151  1  0.56644354  0.18141492  0.43150336  1
  O2-  O152  1  0.57688053  0.17983915  0.75812905  1
  O2-  O153  1  0.56962139  0.67512103  0.09023832  1
  O2-  O154  1  0.57503972  0.68005036  0.42035352  1
  O2-  O155  1  0.57375770  0.68144475  0.76415188  1
  O2-  O156  1  0.17659125  0.43205935  0.23292450  1
  O2-  O157  1  0.17734755  0.42968564  0.56748833  1
  O2-  O158  1  0.18211804  0.42575440  0.90045704  1
  O2-  O159  1  0.18083558  0.92601814  0.23342627  1
  O2-  O160  1  0.17896765  0.93115651  0.56932418  1
  O2-  O161  1  0.18248723  0.93179348  0.89986553  1
  O2-  O162  1  0.68049471  0.43368969  0.23555027  1
  O2-  O163  1  0.68136567  0.42957650  0.57499583  1
  O2-  O164  1  0.67837892  0.43078881  0.89983595  1
  O2-  O165  1  0.67990230  0.92601525  0.23421828  1
  O2-  O166  1  0.68143344  0.92558437  0.57795592  1
  O2-  O167  1  0.67548617  0.93194539  0.90682617  1
  O2-  O168  1  0.42998759  0.32106773  0.08997664  1
  O2-  O169  1  0.42744840  0.32297650  0.42892827  1
  O2-  O170  1  0.43400016  0.31929696  0.76879459  1
  O2-  O171  1  0.43124892  0.82076369  0.10045173  1
  O2-  O172  1  0.42554344  0.81653777  0.42258538  1
  O2-  O173  1  0.42939097  0.82037156  0.76199567  1
  O2-  O174  1  0.92449420  0.31920622  0.09092558  1
  O2-  O175  1  0.93326973  0.32220683  0.43044042  1
  O2-  O176  1  0.92179030  0.31844532  0.76613093  1
  O2-  O177  1  0.93054155  0.82151845  0.10004637  1
  O2-  O178  1  0.92860778  0.81781891  0.42592109  1
  O2-  O179  1  0.92714946  0.82075531  0.75526955  1
  O2-  O180  1  0.32375328  0.06832159  0.24394904  1
  O2-  O181  1  0.32687331  0.06917359  0.57778164  1
  O2-  O182  1  0.32792392  0.07596144  0.91161911  1
  O2-  O183  1  0.31790114  0.57866739  0.24373893  1
  O2-  O184  1  0.31968617  0.56751287  0.56866204  1
  O2-  O185  1  0.32542187  0.56818849  0.91252127  1
  O2-  O186  1  0.82396783  0.06852482  0.23893904  1
  O2-  O187  1  0.81710108  0.06994358  0.57948455  1
  O2-  O188  1  0.81799352  0.07074014  0.90027068  1
  O2-  O189  1  0.81949346  0.57492356  0.24405317  1
  O2-  O190  1  0.82162951  0.57992095  0.57806673  1
  O2-  O191  1  0.82112313  0.57479241  0.91130792  1
  O2-  O192  1  0.03987845  0.08148440  0.27207268  1
  O2-  O193  1  0.03356661  0.08168807  0.59694994  1
  O2-  O194  1  0.03724887  0.08607707  0.93349486  1
  O2-  O195  1  0.04231050  0.59041677  0.27073480  1
  O2-  O196  1  0.03907656  0.58850282  0.60230890  1
  O2-  O197  1  0.03951359  0.57954896  0.92888647  1
  O2-  O198  1  0.54146629  0.08041530  0.26414239  1
  O2-  O199  1  0.55317723  0.08260020  0.60707662  1
  O2-  O200  1  0.54657539  0.09011754  0.93438650  1
  O2-  O201  1  0.54414893  0.58976744  0.26689540  1
  O2-  O202  1  0.54474084  0.58107078  0.59663289  1
  O2-  O203  1  0.54075714  0.58368903  0.93770405  1
  O2-  O204  1  0.16653273  0.19370307  0.27193183  1
  O2-  O205  1  0.17238023  0.19246245  0.59945420  1
  O2-  O206  1  0.16972139  0.20730955  0.93402482  1
  O2-  O207  1  0.16387039  0.70783158  0.27191231  1
  O2-  O208  1  0.16179686  0.70614864  0.60422121  1
  O2-  O209  1  0.17047060  0.70227179  0.93100579  1
  O2-  O210  1  0.67015764  0.20637470  0.26745966  1
  O2-  O211  1  0.66702744  0.20482039  0.60543676  1
  O2-  O212  1  0.66415790  0.21080324  0.93726107  1
  O2-  O213  1  0.66522251  0.70765097  0.26742069  1
  O2-  O214  1  0.67048370  0.70790951  0.59672888  1
  O2-  O215  1  0.66621352  0.69440061  0.93891761  1
  O2-  O216  1  0.07966125  0.45677180  0.06493538  1
  O2-  O217  1  0.08409220  0.46538137  0.40039592  1
  O2-  O218  1  0.07777433  0.45558169  0.73246395  1
  O2-  O219  1  0.08603304  0.96138150  0.06657590  1
  O2-  O220  1  0.08382774  0.95562850  0.40276225  1
  O2-  O221  1  0.08077029  0.96127050  0.73471160  1
  O2-  O222  1  0.58365890  0.46229326  0.07016728  1
  O2-  O223  1  0.58170116  0.46380097  0.39985256  1
  O2-  O224  1  0.58940236  0.45812913  0.72772460  1
  O2-  O225  1  0.58360850  0.95727975  0.05871602  1
  O2-  O226  1  0.57704434  0.95266283  0.40011607  1
  O2-  O227  1  0.58468146  0.95132494  0.72765647  1
  O2-  O228  1  0.21204453  0.33257545  0.06835822  1
  O2-  O229  1  0.20273376  0.32853015  0.39712229  1
  O2-  O230  1  0.20525565  0.32489291  0.72925319  1
  O2-  O231  1  0.21202614  0.83174214  0.06468617  1
  O2-  O232  1  0.21241664  0.83254672  0.40133707  1
  O2-  O233  1  0.20668975  0.83246740  0.73501450  1
  O2-  O234  1  0.70860860  0.33466346  0.06929281  1
  O2-  O235  1  0.70846101  0.33454852  0.40250790  1
  O2-  O236  1  0.70849995  0.33774750  0.72807994  1
  O2-  O237  1  0.69413432  0.83083155  0.05495651  1
  O2-  O238  1  0.70867882  0.83054942  0.40205035  1
  O2-  O239  1  0.70932756  0.83593576  0.73041356  1
  O2-  O240  1  0.45288217  0.42389742  0.26380388  1
  O2-  O241  1  0.46148090  0.41465517  0.59967983  1
  O2-  O242  1  0.45872010  0.41413143  0.93968975  1
  O2-  O243  1  0.45113990  0.91276275  0.27131421  1
  O2-  O244  1  0.45473851  0.91976343  0.59607883  1
  O2-  O245  1  0.45780058  0.91890516  0.93035707  1
  O2-  O246  1  0.95910350  0.41963147  0.26385468  1
  O2-  O247  1  0.94667660  0.42437010  0.60097275  1
  O2-  O248  1  0.94235435  0.41818970  0.94264639  1
  O2-  O249  1  0.95522366  0.91502272  0.27697536  1
  O2-  O250  1  0.95557616  0.91293615  0.60298928  1
  O2-  O251  1  0.95813187  0.92026205  0.93225822  1
  O2-  O252  1  0.32843089  0.29146895  0.26257317  1
  O2-  O253  1  0.33489499  0.28892531  0.59885080  1
  O2-  O254  1  0.33918345  0.29256091  0.93703526  1
  O2-  O255  1  0.33759687  0.78652940  0.26963269  1
  O2-  O256  1  0.32767144  0.79051494  0.59709586  1
  O2-  O257  1  0.33564207  0.78895668  0.93144208  1
  O2-  O258  1  0.83332472  0.29128367  0.26629714  1
  O2-  O259  1  0.83287573  0.28691162  0.59823676  1
  O2-  O260  1  0.83345132  0.29022312  0.93932035  1
  O2-  O261  1  0.83854385  0.79231008  0.27169079  1
  O2-  O262  1  0.83791869  0.79148706  0.60235081  1
  O2-  O263  1  0.82971743  0.79578682  0.93215178  1
  O2-  O264  1  0.42008442  0.04860337  0.06234884  1
  O2-  O265  1  0.41490406  0.04495712  0.39703604  1
  O2-  O266  1  0.41971035  0.04670782  0.72994610  1
  O2-  O267  1  0.41369907  0.54513051  0.06685104  1
  O2-  O268  1  0.41788820  0.55513013  0.39228219  1
  O2-  O269  1  0.42172628  0.54205831  0.73453283  1
  O2-  O270  1  0.91672987  0.03921301  0.06971702  1
  O2-  O271  1  0.91588596  0.03932386  0.40976846  1
  O2-  O272  1  0.90913271  0.03879739  0.73073833  1
  O2-  O273  1  0.91587069  0.55179748  0.06368761  1
  O2-  O274  1  0.91648036  0.54973508  0.39449365  1
  O2-  O275  1  0.91236535  0.54810553  0.73204496  1
  O2-  O276  1  0.29961645  0.16661767  0.06449964  1
  O2-  O277  1  0.29870760  0.16565742  0.39476427  1
  O2-  O278  1  0.30124542  0.16484554  0.72933840  1
  O2-  O279  1  0.29740310  0.66563980  0.06280300  1
  O2-  O280  1  0.28953209  0.66217898  0.39978080  1
  O2-  O281  1  0.29284608  0.66711903  0.73468323  1
  O2-  O282  1  0.78763019  0.16326377  0.06978376  1
  O2-  O283  1  0.79316469  0.17077629  0.40562876  1
  O2-  O284  1  0.79060855  0.16167064  0.73268459  1
  O2-  O285  1  0.79536918  0.66798523  0.06400793  1
  O2-  O286  1  0.79542461  0.66587912  0.39691010  1
  O2-  O287  1  0.79128583  0.66507662  0.73278209  1
