# generated using pymatgen
data_Ca2Al2SiO7
_symmetry_space_group_name_H-M   'P 1'
_cell_length_a   15.45441543
_cell_length_b   15.45485025
_cell_length_c   15.28130984
_cell_angle_alpha   89.99449821
_cell_angle_beta   89.99244734
_cell_angle_gamma   89.99072468
_symmetry_Int_Tables_number   1
_chemical_formula_structural   Ca2Al2SiO7
_chemical_formula_sum   'Ca48 Al48 Si24 O168'
_cell_volume   3649.87468576
_cell_formula_units_Z   24
loop_
 _symmetry_equiv_pos_site_id
 _symmetry_equiv_pos_as_xyz
  1  'x, y, z'
loop_
 _atom_type_symbol
 _atom_type_oxidation_number
  Ca2+  2.0
  Al0+  0.0
  Si0+  0.0
  O2-  -2.0
loop_
 _atom_site_type_symbol
 _atom_site_label
 _atom_site_symmetry_multiplicity
 _atom_site_fract_x
 _atom_site_fract_y
 _atom_site_fract_z
 _atom_site_occupancy
  Ca2+  Ca0  1  0.17239377  0.08062435  0.17173430  1
  Ca2+  Ca1  1  0.16408967  0.08342665  0.50396497  1
  Ca2+  Ca2  1  0.17675159  0.08993406  0.83707855  1
  Ca2+  Ca3  1  0.16512425  0.57537039  0.16918295  1
  Ca2+  Ca4  1  0.16982567  0.58173917  0.51048146  1
  Ca2+  Ca5  1  0.16720158  0.58088468  0.83513781  1
  Ca2+  Ca6  1  0.66659039  0.07173423  0.17119802  1
  Ca2+  Ca7  1  0.66746890  0.08241224  0.50612957  1
  Ca2+  Ca8  1  0.67809949  0.08101945  0.84009202  1
  Ca2+  Ca9  1  0.66922528  0.58539202  0.17257993  1
  Ca2+  Ca10  1  0.68031631  0.57977659  0.50389458  1
  Ca2+  Ca11  1  0.66999293  0.58740666  0.83540258  1
  Ca2+  Ca12  1  0.08105052  0.33042869  0.16600808  1
  Ca2+  Ca13  1  0.08019370  0.32010304  0.49391412  1
  Ca2+  Ca14  1  0.08521075  0.32897724  0.83031416  1
  Ca2+  Ca15  1  0.07197021  0.84203061  0.16525546  1
  Ca2+  Ca16  1  0.07028459  0.83514317  0.49534753  1
  Ca2+  Ca17  1  0.07107605  0.83206123  0.82496969  1
  Ca2+  Ca18  1  0.57309642  0.32814490  0.16367299  1
  Ca2+  Ca19  1  0.58000594  0.31924362  0.49267546  1
  Ca2+  Ca20  1  0.57678669  0.32584875  0.82798106  1
  Ca2+  Ca21  1  0.58725780  0.83102877  0.15635950  1
  Ca2+  Ca22  1  0.58334250  0.83539711  0.49535566  1
  Ca2+  Ca23  1  0.58276800  0.83664062  0.83918613  1
  Ca2+  Ca24  1  0.33264134  0.40887746  0.16749304  1
  Ca2+  Ca25  1  0.33616445  0.42006864  0.50484983  1
  Ca2+  Ca26  1  0.32816444  0.41891387  0.84119469  1
  Ca2+  Ca27  1  0.33233698  0.92009161  0.17156412  1
  Ca2+  Ca28  1  0.32219488  0.92251922  0.50610896  1
  Ca2+  Ca29  1  0.33594661  0.92837672  0.84021857  1
  Ca2+  Ca30  1  0.83539900  0.42511850  0.17633817  1
  Ca2+  Ca31  1  0.84467662  0.42572548  0.50170235  1
  Ca2+  Ca32  1  0.83479782  0.42464694  0.83573428  1
  Ca2+  Ca33  1  0.82585582  0.91331647  0.16994395  1
  Ca2+  Ca34  1  0.83056228  0.91699425  0.50318650  1
  Ca2+  Ca35  1  0.83660052  0.92428656  0.83956822  1
  Ca2+  Ca36  1  0.41868717  0.17070066  0.16275001  1
  Ca2+  Ca37  1  0.42628288  0.16420767  0.49539169  1
  Ca2+  Ca38  1  0.41722087  0.16582825  0.82773552  1
  Ca2+  Ca39  1  0.42617442  0.67680212  0.15460995  1
  Ca2+  Ca40  1  0.41590787  0.66501460  0.49759282  1
  Ca2+  Ca41  1  0.41912164  0.67038518  0.83169298  1
  Ca2+  Ca42  1  0.92208767  0.16229234  0.16532194  1
  Ca2+  Ca43  1  0.92472242  0.16507653  0.49387146  1
  Ca2+  Ca44  1  0.92032540  0.16123559  0.82344404  1
  Ca2+  Ca45  1  0.90997432  0.67879099  0.16371952  1
  Ca2+  Ca46  1  0.91429660  0.67246221  0.49736343  1
  Ca2+  Ca47  1  0.91830177  0.67894122  0.82474851  1
  Al0+  Al48  1  0.00232633  0.00181179  -0.00195995  1
  Al0+  Al49  1  -0.00022359  -0.00153960  0.32845604  1
  Al0+  Al50  1  -0.00219106  -0.00088458  0.66145193  1
  Al0+  Al51  1  0.00107733  0.49858081  0.00462382  1
  Al0+  Al52  1  0.00284314  0.50009295  0.33600473  1
  Al0+  Al53  1  0.00009811  0.50131518  0.67013765  1
  Al0+  Al54  1  0.50189546  0.00030667  0.00424185  1
  Al0+  Al55  1  0.49974784  -0.00083001  0.33488982  1
  Al0+  Al56  1  0.49813440  -0.00053529  0.66626189  1
  Al0+  Al57  1  0.50059175  0.49952005  -0.00826214  1
  Al0+  Al58  1  0.50149768  0.49955670  0.33111960  1
  Al0+  Al59  1  0.49880980  0.50128512  0.67087699  1
  Al0+  Al60  1  0.24976889  0.25074047  0.00526231  1
  Al0+  Al61  1  0.25035216  0.25049852  0.32910057  1
  Al0+  Al62  1  0.24899218  0.25061460  0.66522793  1
  Al0+  Al63  1  0.25047551  0.74931975  -0.00311715  1
  Al0+  Al64  1  0.24886064  0.75015825  0.33764724  1
  Al0+  Al65  1  0.24938764  0.74898545  0.66913797  1
  Al0+  Al66  1  0.75171051  0.25275743  0.00456047  1
  Al0+  Al67  1  0.74916678  0.24989931  0.32465861  1
  Al0+  Al68  1  0.74785847  0.24993270  0.66641083  1
  Al0+  Al69  1  0.75191678  0.75098018  -0.00708259  1
  Al0+  Al70  1  0.75029908  0.75000502  0.33969373  1
  Al0+  Al71  1  0.74703769  0.74886003  0.66739892  1
  Al0+  Al72  1  0.67851176  0.92944705  0.34865380  1
  Al0+  Al73  1  0.42793769  0.31813270  0.98378208  1
  Al0+  Al74  1  0.31962194  0.07069022  0.67890060  1
  Al0+  Al75  1  0.57196872  0.17460189  0.31569280  1
  Al0+  Al76  1  0.18034336  0.43029116  0.01563450  1
  Al0+  Al77  1  0.93156960  0.82183013  0.98555609  1
  Al0+  Al78  1  0.07166239  0.67831738  0.65198539  1
  Al0+  Al79  1  0.82521552  0.07396919  0.01637797  1
  Al0+  Al80  1  0.92819813  0.81800197  0.31855844  1
  Al0+  Al81  1  0.57062987  0.17808551  0.65477443  1
  Al0+  Al82  1  0.07116974  0.17974610  0.65442163  1
  Al0+  Al83  1  0.42734788  0.82408286  0.98513708  1
  Al0+  Al84  1  0.82110287  0.57086382  0.68237259  1
  Al0+  Al85  1  0.68297860  0.92961000  0.01418275  1
  Al0+  Al86  1  0.57244170  0.67909985  0.98351126  1
  Al0+  Al87  1  0.32194749  0.57233635  0.68213024  1
  Al0+  Al88  1  0.32157821  0.07037781  0.01481312  1
  Al0+  Al89  1  0.43042163  0.32221598  0.31857860  1
  Al0+  Al90  1  0.82030376  0.07055927  0.67711371  1
  Al0+  Al91  1  0.82117795  0.56970384  0.34680863  1
  Al0+  Al92  1  0.92965754  0.32360908  0.31842673  1
  Al0+  Al93  1  0.17757925  0.92888853  0.34742712  1
  Al0+  Al94  1  0.92638394  0.82076520  0.64916902  1
  Al0+  Al95  1  0.07047048  0.17737244  0.31555303  1
  Si0+  Si96  1  0.32224743  0.57073527  0.34654708  1
  Si0+  Si97  1  0.17650193  0.92854948  0.68330792  1
  Si0+  Si98  1  0.06978177  0.18144617  0.98459839  1
  Si0+  Si99  1  0.92641253  0.32265833  0.65289963  1
  Si0+  Si100  1  0.81991647  0.56980296  0.01422012  1
  Si0+  Si101  1  0.67717748  0.42798927  0.68391518  1
  Si0+  Si102  1  0.32048844  0.07282473  0.35094275  1
  Si0+  Si103  1  0.32397171  0.57265984  0.01707984  1
  Si0+  Si104  1  0.42800435  0.32265185  0.65133241  1
  Si0+  Si105  1  0.92810412  0.32374471  0.98467789  1
  Si0+  Si106  1  0.57029272  0.68088773  0.32164444  1
  Si0+  Si107  1  0.67563751  0.92742318  0.68410473  1
  Si0+  Si108  1  0.07487451  0.67783767  0.31649259  1
  Si0+  Si109  1  0.18034988  0.42817362  0.35050794  1
  Si0+  Si110  1  0.42636619  0.81952512  0.32148513  1
  Si0+  Si111  1  0.82127745  0.07309795  0.34877736  1
  Si0+  Si112  1  0.57394859  0.17848303  0.98318686  1
  Si0+  Si113  1  0.56920428  0.67725686  0.64904087  1
  Si0+  Si114  1  0.42879409  0.82103157  0.65071029  1
  Si0+  Si115  1  0.67699071  0.42916274  0.01525132  1
  Si0+  Si116  1  0.67653094  0.42683268  0.34901539  1
  Si0+  Si117  1  0.07145519  0.67432535  0.98487805  1
  Si0+  Si118  1  0.17867796  0.42814910  0.68299879  1
  Si0+  Si119  1  0.17856008  0.92621528  0.01455827  1
  O2-  O120  1  0.25189148  -0.01026198  0.05936554  1
  O2-  O121  1  0.24982225  0.00588334  0.39475946  1
  O2-  O122  1  0.24351760  -0.00135993  0.72793166  1
  O2-  O123  1  0.25513760  0.50527963  0.06318637  1
  O2-  O124  1  0.25287946  0.49889084  0.39041958  1
  O2-  O125  1  0.24645642  0.49791305  0.72703203  1
  O2-  O126  1  0.75330059  0.00196769  0.06619079  1
  O2-  O127  1  0.74993989  0.00762433  0.39427101  1
  O2-  O128  1  0.74702818  -0.00503288  0.72502019  1
  O2-  O129  1  0.74716265  0.50125130  0.05730668  1
  O2-  O130  1  0.75137693  0.48921723  0.39316025  1
  O2-  O131  1  0.74726375  0.49507742  0.72909963  1
  O2-  O132  1  -0.00243801  0.24914443  0.26574877  1
  O2-  O133  1  -0.00702402  0.25177425  0.60936633  1
  O2-  O134  1  -0.00575101  0.24825975  0.94250877  1
  O2-  O135  1  0.00456680  0.74433565  0.27172949  1
  O2-  O136  1  -0.00098764  0.74814117  0.60025709  1
  O2-  O137  1  0.00818682  0.74779371  0.94105438  1
  O2-  O138  1  0.49965095  0.24789237  0.26817801  1
  O2-  O139  1  0.49541237  0.25275739  0.60794596  1
  O2-  O140  1  0.50286931  0.24400432  0.93702490  1
  O2-  O141  1  0.49950367  0.75127029  0.27919595  1
  O2-  O142  1  0.49858117  0.74891922  0.60695413  1
  O2-  O143  1  0.49824526  0.75042463  0.93507046  1
  O2-  O144  1  0.07014249  0.18265015  0.08936937  1
  O2-  O145  1  0.07066714  0.17926260  0.42951895  1
  O2-  O146  1  0.07322778  0.18333294  0.76786967  1
  O2-  O147  1  0.06822679  0.67079795  0.09056486  1
  O2-  O148  1  0.07700744  0.67845729  0.42176190  1
  O2-  O149  1  0.07039577  0.67988070  0.76593716  1
  O2-  O150  1  0.57292258  0.18145089  0.08852052  1
  O2-  O151  1  0.56960021  0.17511275  0.42995399  1
  O2-  O152  1  0.57043274  0.18009690  0.76780322  1
  O2-  O153  1  0.57254127  0.67860709  0.09799512  1
  O2-  O154  1  0.56777499  0.67961757  0.42698768  1
  O2-  O155  1  0.56890085  0.67644424  0.75365181  1
  O2-  O156  1  0.17899554  0.42999390  0.24539374  1
  O2-  O157  1  0.18041054  0.42733342  0.57730278  1
  O2-  O158  1  0.17959710  0.43103686  0.90244615  1
  O2-  O159  1  0.18266684  0.92686579  0.23424107  1
  O2-  O160  1  0.17932986  0.92891608  0.57747339  1
  O2-  O161  1  0.17654293  0.93005266  0.90900708  1
  O2-  O162  1  0.67221187  0.43390196  0.24347632  1
  O2-  O163  1  0.67503685  0.42996466  0.57842448  1
  O2-  O164  1  0.67978095  0.42709710  0.91007930  1
  O2-  O165  1  0.67962742  0.92457214  0.23616071  1
  O2-  O166  1  0.67375220  0.92832566  0.57816674  1
  O2-  O167  1  0.68403287  0.93124309  0.90048037  1
  O2-  O168  1  0.43019115  0.31782396  0.09660182  1
  O2-  O169  1  0.43277758  0.32542136  0.43245042  1
  O2-  O170  1  0.42827472  0.32209460  0.75695776  1
  O2-  O171  1  0.42691345  0.82055340  0.09944147  1
  O2-  O172  1  0.42549498  0.81644633  0.42690629  1
  O2-  O173  1  0.43077738  0.82205003  0.75539451  1
  O2-  O174  1  0.93097191  0.32858737  0.08916903  1
  O2-  O175  1  0.93490771  0.32500426  0.43227939  1
  O2-  O176  1  0.92749579  0.32302395  0.75900315  1
  O2-  O177  1  0.93004335  0.81882641  0.09886977  1
  O2-  O178  1  0.92708932  0.81649060  0.43115219  1
  O2-  O179  1  0.92862167  0.82128858  0.76299618  1
  O2-  O180  1  0.32091791  0.07049537  0.24522621  1
  O2-  O181  1  0.32064984  0.06790080  0.56596495  1
  O2-  O182  1  0.31824888  0.07268644  0.90133387  1
  O2-  O183  1  0.32162788  0.57254492  0.24180123  1
  O2-  O184  1  0.32400987  0.56855621  0.56821270  1
  O2-  O185  1  0.32193592  0.57120447  0.91156650  1
  O2-  O186  1  0.82141138  0.06928856  0.24337254  1
  O2-  O187  1  0.81909414  0.07184775  0.56418265  1
  O2-  O188  1  0.82482739  0.07407399  0.90224980  1
  O2-  O189  1  0.81611379  0.57195504  0.23323427  1
  O2-  O190  1  0.81963338  0.56894335  0.56918536  1
  O2-  O191  1  0.82072788  0.56664432  0.90912427  1
  O2-  O192  1  0.04395476  0.07935623  0.26143717  1
  O2-  O193  1  0.04294214  0.08343633  0.59969448  1
  O2-  O194  1  0.04818057  0.08889377  0.93612574  1
  O2-  O195  1  0.05159611  0.58305166  0.27254072  1
  O2-  O196  1  0.04589675  0.57798798  0.60095644  1
  O2-  O197  1  0.04091340  0.58252712  0.93743865  1
  O2-  O198  1  0.54094178  0.07628421  0.26371080  1
  O2-  O199  1  0.53866673  0.08210845  0.59991910  1
  O2-  O200  1  0.55179930  0.08353093  0.94004237  1
  O2-  O201  1  0.54393717  0.58956577  0.27271950  1
  O2-  O202  1  0.53988086  0.58555404  0.60176738  1
  O2-  O203  1  0.54598643  0.58120081  0.92818246  1
  O2-  O204  1  0.16875541  0.20748315  0.26392753  1
  O2-  O205  1  0.16599041  0.21289924  0.59751775  1
  O2-  O206  1  0.16003324  0.21559958  0.93832311  1
  O2-  O207  1  0.16822683  0.70421970  0.26959607  1
  O2-  O208  1  0.17204330  0.70334309  0.60055421  1
  O2-  O209  1  0.16757832  0.69271650  0.94160413  1
  O2-  O210  1  0.66972659  0.20051385  0.26152008  1
  O2-  O211  1  0.66587271  0.21024082  0.59834780  1
  O2-  O212  1  0.66758640  0.20904253  0.93887549  1
  O2-  O213  1  0.66168509  0.70944038  0.27507748  1
  O2-  O214  1  0.66095132  0.70437960  0.60151556  1
  O2-  O215  1  0.66896640  0.70879089  0.92770053  1
  O2-  O216  1  0.08430235  0.46160920  0.07211098  1
  O2-  O217  1  0.09018654  0.45690789  0.40007259  1
  O2-  O218  1  0.08529957  0.45198037  0.73053140  1
  O2-  O219  1  0.08781436  0.95869737  0.06241595  1
  O2-  O220  1  0.07986222  0.95797509  0.39983670  1
  O2-  O221  1  0.08189151  0.95262754  0.72662416  1
  O2-  O222  1  0.58458160  0.45756483  0.06097785  1
  O2-  O223  1  0.58615903  0.45962439  0.39856440  1
  O2-  O224  1  0.58496265  0.45629184  0.73173641  1
  O2-  O225  1  0.58367284  0.95388517  0.06769996  1
  O2-  O226  1  0.57988418  0.95539480  0.40278538  1
  O2-  O227  1  0.58281824  0.95510223  0.73015927  1
  O2-  O228  1  0.21168980  0.33550177  0.07184463  1
  O2-  O229  1  0.20809549  0.33594867  0.39719671  1
  O2-  O230  1  0.20608815  0.33569223  0.73057872  1
  O2-  O231  1  0.19638316  0.82992358  0.05866861  1
  O2-  O232  1  0.21054909  0.83349179  0.40388025  1
  O2-  O233  1  0.20312735  0.83549209  0.72925170  1
  O2-  O234  1  0.70492429  0.33912724  0.06550454  1
  O2-  O235  1  0.69525362  0.32995693  0.39028841  1
  O2-  O236  1  0.70111957  0.33445047  0.73080795  1
  O2-  O237  1  0.71241849  0.82957144  0.06484668  1
  O2-  O238  1  0.71057549  0.83439515  0.40552026  1
  O2-  O239  1  0.69677787  0.83232540  0.72810526  1
  O2-  O240  1  0.46036940  0.42008971  0.26328190  1
  O2-  O241  1  0.45519145  0.41664640  0.60666413  1
  O2-  O242  1  0.45735342  0.41494066  0.92963542  1
  O2-  O243  1  0.45041619  0.91257803  0.27634760  1
  O2-  O244  1  0.45741029  0.91138631  0.60090767  1
  O2-  O245  1  0.45816122  0.92232746  0.93268592  1
  O2-  O246  1  0.96252178  0.42151395  0.26517593  1
  O2-  O247  1  0.95526343  0.41554692  0.60781974  1
  O2-  O248  1  0.96168980  0.41356532  0.93574124  1
  O2-  O249  1  0.95836304  0.91386563  0.26394588  1
  O2-  O250  1  0.95549354  0.91792442  0.59439882  1
  O2-  O251  1  0.96300348  0.91854812  0.93167777  1
  O2-  O252  1  0.33127811  0.29731368  0.26655004  1
  O2-  O253  1  0.33406173  0.29997473  0.60530589  1
  O2-  O254  1  0.32998385  0.28804043  0.93229159  1
  O2-  O255  1  0.33615906  0.78921743  0.27279799  1
  O2-  O256  1  0.33631596  0.79336140  0.60472173  1
  O2-  O257  1  0.32849722  0.79750078  0.93095373  1
  O2-  O258  1  0.82868677  0.30560923  0.26702301  1
  O2-  O259  1  0.83184876  0.30236899  0.60732959  1
  O2-  O260  1  0.83386567  0.30309333  0.93890354  1
  O2-  O261  1  0.83169884  0.78285989  0.26641724  1
  O2-  O262  1  0.82650554  0.79157471  0.59962538  1
  O2-  O263  1  0.83776295  0.78897411  0.92898579  1
  O2-  O264  1  0.41903568  0.04504223  0.06893693  1
  O2-  O265  1  0.41316711  0.04390480  0.39697147  1
  O2-  O266  1  0.41506983  0.03741980  0.73392501  1
  O2-  O267  1  0.41881720  0.54633602  0.06010280  1
  O2-  O268  1  0.41472638  0.54373554  0.39434500  1
  O2-  O269  1  0.41777504  0.54217711  0.73791759  1
  O2-  O270  1  0.92470323  0.04587847  0.06678854  1
  O2-  O271  1  0.91481112  0.04424715  0.39301874  1
  O2-  O272  1  0.91756368  0.04060499  0.73119595  1
  O2-  O273  1  0.91028270  0.53979747  0.06286293  1
  O2-  O274  1  0.91956358  0.54301385  0.40025111  1
  O2-  O275  1  0.91735131  0.54122794  0.73799372  1
  O2-  O276  1  0.28466127  0.16383024  0.07029325  1
  O2-  O277  1  0.29718892  0.16779264  0.39504540  1
  O2-  O278  1  0.29091864  0.16868664  0.73174390  1
  O2-  O279  1  0.30056907  0.66747390  0.06230216  1
  O2-  O280  1  0.29428758  0.66132719  0.39678124  1
  O2-  O281  1  0.29317193  0.66898548  0.73711062  1
  O2-  O282  1  0.80092990  0.17432054  0.06770042  1
  O2-  O283  1  0.80060364  0.16968732  0.39100866  1
  O2-  O284  1  0.79134217  0.16796032  0.73193300  1
  O2-  O285  1  0.79294263  0.66272724  0.05869833  1
  O2-  O286  1  0.78411472  0.66206437  0.40427967  1
  O2-  O287  1  0.78599022  0.66636372  0.73592545  1
