# generated using pymatgen
data_Ca2Al2SiO7
_symmetry_space_group_name_H-M   'P 1'
_cell_length_a   15.45294973
_cell_length_b   15.45281781
_cell_length_c   15.28003740
_cell_angle_alpha   89.99741850
_cell_angle_beta   89.99907748
_cell_angle_gamma   90.00196280
_symmetry_Int_Tables_number   1
_chemical_formula_structural   Ca2Al2SiO7
_chemical_formula_sum   'Ca48 Al48 Si24 O168'
_cell_volume   3648.74482944
_cell_formula_units_Z   24
loop_
 _symmetry_equiv_pos_site_id
 _symmetry_equiv_pos_as_xyz
  1  'x, y, z'
loop_
 _atom_type_symbol
 _atom_type_oxidation_number
  Ca2+  2.0
  Al0+  0.0
  Si0+  0.0
  O2-  -2.0
loop_
 _atom_site_type_symbol
 _atom_site_label
 _atom_site_symmetry_multiplicity
 _atom_site_fract_x
 _atom_site_fract_y
 _atom_site_fract_z
 _atom_site_occupancy
  Ca2+  Ca0  1  0.17075902  0.09096656  0.16772921  1
  Ca2+  Ca1  1  0.16362781  0.07744685  0.50410102  1
  Ca2+  Ca2  1  0.17055852  0.07954461  0.84047284  1
  Ca2+  Ca3  1  0.17417832  0.58362713  0.16559334  1
  Ca2+  Ca4  1  0.17360959  0.58613501  0.51157563  1
  Ca2+  Ca5  1  0.17686715  0.58594773  0.83588456  1
  Ca2+  Ca6  1  0.66348611  0.07481201  0.16638693  1
  Ca2+  Ca7  1  0.66671935  0.07718110  0.50595960  1
  Ca2+  Ca8  1  0.67248460  0.08724660  0.84220659  1
  Ca2+  Ca9  1  0.66150075  0.57602815  0.16583321  1
  Ca2+  Ca10  1  0.67199876  0.57610356  0.50453885  1
  Ca2+  Ca11  1  0.67497511  0.57721471  0.84471189  1
  Ca2+  Ca12  1  0.08204966  0.32133716  0.16107105  1
  Ca2+  Ca13  1  0.07359096  0.32953363  0.49547694  1
  Ca2+  Ca14  1  0.07667385  0.32758761  0.82918309  1
  Ca2+  Ca15  1  0.07254550  0.83540777  0.16422243  1
  Ca2+  Ca16  1  0.07958475  0.83037771  0.49826820  1
  Ca2+  Ca17  1  0.08423047  0.82860562  0.82621364  1
  Ca2+  Ca18  1  0.58486030  0.33390701  0.16143458  1
  Ca2+  Ca19  1  0.57702852  0.33163275  0.49781828  1
  Ca2+  Ca20  1  0.58676071  0.32355215  0.82857597  1
  Ca2+  Ca21  1  0.57906816  0.83499569  0.15604469  1
  Ca2+  Ca22  1  0.57968236  0.83176369  0.49094058  1
  Ca2+  Ca23  1  0.58226520  0.83343129  0.83778115  1
  Ca2+  Ca24  1  0.34250865  0.42392043  0.16972303  1
  Ca2+  Ca25  1  0.33608377  0.41829117  0.50677417  1
  Ca2+  Ca26  1  0.34167269  0.42586389  0.83530971  1
  Ca2+  Ca27  1  0.34527956  0.92398699  0.16652195  1
  Ca2+  Ca28  1  0.32731177  0.91546671  0.50603789  1
  Ca2+  Ca29  1  0.32836352  0.91915155  0.84070367  1
  Ca2+  Ca30  1  0.81920074  0.41892562  0.16688123  1
  Ca2+  Ca31  1  0.82876336  0.41577685  0.50811738  1
  Ca2+  Ca32  1  0.83355663  0.42399620  0.84002783  1
  Ca2+  Ca33  1  0.82106754  0.91592413  0.16946296  1
  Ca2+  Ca34  1  0.83166840  0.92033112  0.50316590  1
  Ca2+  Ca35  1  0.82724763  0.93069671  0.84151069  1
  Ca2+  Ca36  1  0.42199334  0.17285262  0.15627567  1
  Ca2+  Ca37  1  0.42000706  0.17792908  0.49725217  1
  Ca2+  Ca38  1  0.43009450  0.16549162  0.82957240  1
  Ca2+  Ca39  1  0.42282557  0.67824116  0.15607562  1
  Ca2+  Ca40  1  0.41556857  0.67182003  0.49527566  1
  Ca2+  Ca41  1  0.41920223  0.66434607  0.83389407  1
  Ca2+  Ca42  1  0.92698059  0.15887221  0.15942105  1
  Ca2+  Ca43  1  0.91744850  0.16689664  0.50028188  1
  Ca2+  Ca44  1  0.91279379  0.16865173  0.82881599  1
  Ca2+  Ca45  1  0.90878590  0.67170145  0.16271599  1
  Ca2+  Ca46  1  0.92052736  0.66804897  0.49869105  1
  Ca2+  Ca47  1  0.91937148  0.66192103  0.82497504  1
  Al0+  Al48  1  0.00090681  -0.00094928  -0.00295292  1
  Al0+  Al49  1  0.00130128  -0.00167836  0.32594301  1
  Al0+  Al50  1  -0.00169135  -0.00190724  0.67553599  1
  Al0+  Al51  1  0.00030361  0.50045556  0.00623193  1
  Al0+  Al52  1  0.00221325  0.49878746  0.33144011  1
  Al0+  Al53  1  0.00144428  0.49910471  0.66003923  1
  Al0+  Al54  1  0.49722963  0.00217573  -0.00241964  1
  Al0+  Al55  1  0.50027325  0.00154807  0.33773936  1
  Al0+  Al56  1  0.49875050  -0.00159835  0.66126211  1
  Al0+  Al57  1  0.49936943  0.50295936  0.00476047  1
  Al0+  Al58  1  0.50096344  0.50046595  0.33643195  1
  Al0+  Al59  1  0.50038203  0.50074344  0.66671099  1
  Al0+  Al60  1  0.24775396  0.24907817  -0.00291542  1
  Al0+  Al61  1  0.25096277  0.25228757  0.32738711  1
  Al0+  Al62  1  0.25034396  0.24897486  0.66362515  1
  Al0+  Al63  1  0.24787571  0.74992376  0.00271649  1
  Al0+  Al64  1  0.25058340  0.75159582  0.32842528  1
  Al0+  Al65  1  0.24901157  0.74904951  0.67087940  1
  Al0+  Al66  1  0.75183876  0.25120024  0.00570078  1
  Al0+  Al67  1  0.75041018  0.25087419  0.33867402  1
  Al0+  Al68  1  0.75005241  0.24734478  0.65983075  1
  Al0+  Al69  1  0.74925313  0.75091206  0.00047020  1
  Al0+  Al70  1  0.75095652  0.74967348  0.33536667  1
  Al0+  Al71  1  0.74912246  0.74949410  0.66918360  1
  Al0+  Al72  1  0.81854656  0.07042696  0.67957704  1
  Al0+  Al73  1  0.82326149  0.57269474  0.01555376  1
  Al0+  Al74  1  0.07113535  0.68008249  0.65439609  1
  Al0+  Al75  1  0.92910488  0.81890234  0.32011684  1
  Al0+  Al76  1  0.67846010  0.42856773  0.01333174  1
  Al0+  Al77  1  0.42925593  0.32262063  0.65276166  1
  Al0+  Al78  1  0.07114816  0.17776129  0.98285109  1
  Al0+  Al79  1  0.67827081  0.92897160  0.34825671  1
  Al0+  Al80  1  0.67890555  0.42917600  0.35102739  1
  Al0+  Al81  1  0.57159867  0.18124748  0.98889341  1
  Al0+  Al82  1  0.57220375  0.17646581  0.64945834  1
  Al0+  Al83  1  0.82320391  0.07252878  0.01652602  1
  Al0+  Al84  1  0.31914135  0.07099523  0.01251594  1
  Al0+  Al85  1  0.92997809  0.32052076  0.65377861  1
  Al0+  Al86  1  0.32125839  0.56972205  0.67996163  1
  Al0+  Al87  1  0.67792183  0.93132487  0.01325451  1
  Al0+  Al88  1  0.42751145  0.82212925  0.98292132  1
  Al0+  Al89  1  0.42907960  0.82229740  0.32046853  1
  Al0+  Al90  1  0.17962458  0.92938710  0.67952111  1
  Al0+  Al91  1  0.06905448  0.18007779  0.32045097  1
  Al0+  Al92  1  0.32040233  0.57122019  0.01559592  1
  Al0+  Al93  1  0.43090359  0.32177113  0.31806594  1
  Al0+  Al94  1  0.82247245  0.57002728  0.67834001  1
  Al0+  Al95  1  0.57163248  0.67859607  0.98389942  1
  Si0+  Si96  1  0.57280899  0.67906548  0.65087720  1
  Si0+  Si97  1  0.07174723  0.17485075  0.65135239  1
  Si0+  Si98  1  0.82497145  0.06955751  0.34959279  1
  Si0+  Si99  1  0.32038314  0.07344090  0.34872986  1
  Si0+  Si100  1  0.17763374  0.92701183  0.01922334  1
  Si0+  Si101  1  0.06967993  0.67797257  0.98553009  1
  Si0+  Si102  1  0.67441673  0.92660999  0.68344322  1
  Si0+  Si103  1  0.17866232  0.92955966  0.34713218  1
  Si0+  Si104  1  0.07351996  0.67654797  0.31509551  1
  Si0+  Si105  1  0.17752664  0.42544461  0.68142739  1
  Si0+  Si106  1  0.42809692  0.81867694  0.65166009  1
  Si0+  Si107  1  0.92588269  0.32368358  0.31485106  1
  Si0+  Si108  1  0.17950342  0.42767714  0.34885147  1
  Si0+  Si109  1  0.31837287  0.57188753  0.34859243  1
  Si0+  Si110  1  0.82434955  0.57159813  0.35172988  1
  Si0+  Si111  1  0.32244914  0.07287757  0.68177998  1
  Si0+  Si112  1  0.42692615  0.32390438  0.98418328  1
  Si0+  Si113  1  0.92943580  0.32242569  0.98528692  1
  Si0+  Si114  1  0.57287740  0.17867380  0.31656634  1
  Si0+  Si115  1  0.92672293  0.82243596  0.65181649  1
  Si0+  Si116  1  0.92802466  0.82025395  0.98295711  1
  Si0+  Si117  1  0.57185846  0.67883932  0.31861374  1
  Si0+  Si118  1  0.17770286  0.42760960  0.01725809  1
  Si0+  Si119  1  0.67882519  0.42830380  0.68237667  1
  O2-  O120  1  0.24645746  -0.00437103  0.06303192  1
  O2-  O121  1  0.25039670  0.00004635  0.38976699  1
  O2-  O122  1  0.25194653  0.00609740  0.72563518  1
  O2-  O123  1  0.24937657  0.49295161  0.06261102  1
  O2-  O124  1  0.24719750  0.50161442  0.39179844  1
  O2-  O125  1  0.24955905  0.49088909  0.72537377  1
  O2-  O126  1  0.74959458  0.00229567  0.06598102  1
  O2-  O127  1  0.75321141  0.00410612  0.39436415  1
  O2-  O128  1  0.74113558  -0.00191656  0.72514448  1
  O2-  O129  1  0.74824346  0.50328994  0.06382261  1
  O2-  O130  1  0.75786846  0.50093931  0.39623981  1
  O2-  O131  1  0.74937082  0.49503402  0.72614561  1
  O2-  O132  1  -0.00775742  0.25207117  0.27218559  1
  O2-  O133  1  0.00481169  0.24496770  0.60703343  1
  O2-  O134  1  -0.00539507  0.25137051  0.93892463  1
  O2-  O135  1  0.00041704  0.74084090  0.27200236  1
  O2-  O136  1  -0.00573907  0.75238555  0.60731758  1
  O2-  O137  1  -0.00271151  0.74662772  0.94222284  1
  O2-  O138  1  0.50637058  0.24869613  0.27130893  1
  O2-  O139  1  0.49983111  0.24974405  0.60157509  1
  O2-  O140  1  0.49816939  0.25748198  0.94135102  1
  O2-  O141  1  0.50706785  0.75129908  0.27502014  1
  O2-  O142  1  0.50179812  0.75063271  0.60872399  1
  O2-  O143  1  0.49890051  0.74969662  0.93244666  1
  O2-  O144  1  0.07193426  0.18043930  0.09631031  1
  O2-  O145  1  0.06830222  0.18029671  0.43394688  1
  O2-  O146  1  0.07197623  0.17629038  0.75657203  1
  O2-  O147  1  0.07041986  0.67986850  0.09091532  1
  O2-  O148  1  0.07670448  0.67831767  0.42072215  1
  O2-  O149  1  0.07189074  0.68168241  0.76749663  1
  O2-  O150  1  0.56837281  0.18099461  0.10215532  1
  O2-  O151  1  0.56931023  0.17836081  0.42215282  1
  O2-  O152  1  0.57241921  0.17693065  0.76319322  1
  O2-  O153  1  0.56889857  0.67875592  0.09788582  1
  O2-  O154  1  0.56888273  0.67898705  0.42499940  1
  O2-  O155  1  0.57363915  0.67844023  0.75530389  1
  O2-  O156  1  0.17975256  0.42813095  0.24391433  1
  O2-  O157  1  0.17748552  0.42737135  0.57534875  1
  O2-  O158  1  0.17453033  0.43060685  0.91175573  1
  O2-  O159  1  0.17709834  0.92938956  0.24251605  1
  O2-  O160  1  0.18074345  0.92974333  0.56547454  1
  O2-  O161  1  0.17794808  0.92668770  0.91336173  1
  O2-  O162  1  0.67797329  0.43110712  0.23842330  1
  O2-  O163  1  0.67887083  0.43213682  0.57636030  1
  O2-  O164  1  0.68181891  0.42736973  0.89951321  1
  O2-  O165  1  0.67706949  0.92944095  0.23582146  1
  O2-  O166  1  0.67566240  0.92479649  0.57737979  1
  O2-  O167  1  0.68094868  0.93230004  0.89949481  1
  O2-  O168  1  0.42642731  0.32139096  0.09023295  1
  O2-  O169  1  0.42895436  0.32061889  0.43095761  1
  O2-  O170  1  0.43149732  0.32367424  0.76604110  1
  O2-  O171  1  0.42951396  0.82124232  0.09686256  1
  O2-  O172  1  0.42534278  0.81785027  0.43423058  1
  O2-  O173  1  0.42748236  0.81922475  0.75610681  1
  O2-  O174  1  0.93340663  0.32345217  0.09093719  1
  O2-  O175  1  0.92886739  0.32534731  0.42067492  1
  O2-  O176  1  0.93172076  0.32168374  0.76673962  1
  O2-  O177  1  0.93024004  0.82046480  0.08844482  1
  O2-  O178  1  0.93300805  0.81988030  0.43351337  1
  O2-  O179  1  0.92786931  0.82199756  0.75721677  1
  O2-  O180  1  0.32009272  0.07366265  0.24374764  1
  O2-  O181  1  0.32117751  0.07123220  0.57555230  1
  O2-  O182  1  0.31725536  0.06978398  0.89938121  1
  O2-  O183  1  0.31659022  0.57147380  0.24368733  1
  O2-  O184  1  0.31871753  0.57279875  0.56624443  1
  O2-  O185  1  0.31801654  0.57086061  0.90241798  1
  O2-  O186  1  0.82632807  0.06702560  0.24445843  1
  O2-  O187  1  0.82202393  0.06599132  0.56607143  1
  O2-  O188  1  0.82195289  0.07173845  0.90272650  1
  O2-  O189  1  0.82348967  0.57165827  0.24648943  1
  O2-  O190  1  0.81982310  0.57050685  0.56502508  1
  O2-  O191  1  0.82738376  0.56856395  0.90177737  1
  O2-  O192  1  0.04310093  0.08354429  0.26426832  1
  O2-  O193  1  0.04260439  0.08110247  0.60695770  1
  O2-  O194  1  0.04389992  0.07987170  0.92993302  1
  O2-  O195  1  0.05384597  0.58088146  0.27044529  1
  O2-  O196  1  0.04459298  0.58423891  0.59662793  1
  O2-  O197  1  0.04496178  0.58459630  0.93999343  1
  O2-  O198  1  0.54439558  0.08526419  0.27247923  1
  O2-  O199  1  0.54219472  0.07823098  0.59500012  1
  O2-  O200  1  0.53780863  0.08723065  0.93229870  1
  O2-  O201  1  0.54114566  0.58713703  0.27274411  1
  O2-  O202  1  0.54400735  0.58799653  0.60250798  1
  O2-  O203  1  0.54157129  0.57982654  0.93192532  1
  O2-  O204  1  0.16407348  0.21434967  0.26521154  1
  O2-  O205  1  0.16611034  0.19654599  0.60470658  1
  O2-  O206  1  0.16634837  0.21074726  0.92711397  1
  O2-  O207  1  0.16441107  0.70756226  0.26658010  1
  O2-  O208  1  0.16639676  0.71486253  0.59885467  1
  O2-  O209  1  0.16072088  0.70783465  0.93800176  1
  O2-  O210  1  0.66883825  0.20135048  0.27483811  1
  O2-  O211  1  0.66934947  0.20283331  0.59346310  1
  O2-  O212  1  0.66984454  0.21060323  0.93679914  1
  O2-  O213  1  0.66744821  0.69833668  0.27573156  1
  O2-  O214  1  0.66421512  0.70708028  0.60161120  1
  O2-  O215  1  0.67065499  0.70628278  0.93109907  1
  O2-  O216  1  0.08717291  0.45690792  0.06795445  1
  O2-  O217  1  0.08583718  0.45185151  0.39557564  1
  O2-  O218  1  0.08540247  0.45474990  0.72734110  1
  O2-  O219  1  0.08395756  0.95411396  0.06370561  1
  O2-  O220  1  0.08748603  0.95891909  0.39539728  1
  O2-  O221  1  0.08357072  0.95519371  0.73648385  1
  O2-  O222  1  0.58041302  0.45569747  0.06807220  1
  O2-  O223  1  0.58352736  0.46419471  0.40624023  1
  O2-  O224  1  0.58632147  0.45579471  0.72822319  1
  O2-  O225  1  0.57919105  0.95987006  0.06477948  1
  O2-  O226  1  0.58217604  0.95985086  0.40518985  1
  O2-  O227  1  0.57890979  0.94897884  0.72634190  1
  O2-  O228  1  0.20042860  0.33277260  0.06140317  1
  O2-  O229  1  0.21013753  0.33702089  0.39678273  1
  O2-  O230  1  0.19806549  0.33000282  0.72625346  1
  O2-  O231  1  0.19937645  0.83321521  0.06613628  1
  O2-  O232  1  0.20693567  0.83693392  0.39391436  1
  O2-  O233  1  0.21273884  0.83505801  0.73580560  1
  O2-  O234  1  0.70965265  0.33360622  0.07165613  1
  O2-  O235  1  0.70687063  0.33161888  0.40575148  1
  O2-  O236  1  0.70267094  0.33249301  0.72251758  1
  O2-  O237  1  0.70631514  0.83299220  0.06599118  1
  O2-  O238  1  0.70868212  0.83171730  0.40248679  1
  O2-  O239  1  0.70122201  0.83376096  0.72979771  1
  O2-  O240  1  0.46088221  0.42000416  0.26695148  1
  O2-  O241  1  0.45781509  0.42118613  0.59827720  1
  O2-  O242  1  0.44958126  0.41932716  0.94218978  1
  O2-  O243  1  0.45690445  0.92130354  0.27061284  1
  O2-  O244  1  0.45123834  0.91092463  0.60217814  1
  O2-  O245  1  0.45404723  0.92045641  0.92955480  1
  O2-  O246  1  0.95493476  0.41617616  0.26827733  1
  O2-  O247  1  0.96185656  0.41439577  0.59423622  1
  O2-  O248  1  0.95960582  0.41565943  0.93987062  1
  O2-  O249  1  0.96409041  0.91193844  0.26246536  1
  O2-  O250  1  0.95606214  0.91517368  0.60582445  1
  O2-  O251  1  0.95980490  0.91030468  0.93452734  1
  O2-  O252  1  0.33481719  0.29247901  0.26278946  1
  O2-  O253  1  0.32959067  0.29583706  0.59861689  1
  O2-  O254  1  0.33347951  0.29829724  0.93849955  1
  O2-  O255  1  0.33378042  0.79127582  0.26433806  1
  O2-  O256  1  0.33745814  0.78687741  0.60405133  1
  O2-  O257  1  0.32699129  0.79278287  0.93424366  1
  O2-  O258  1  0.83047921  0.30095516  0.27235056  1
  O2-  O259  1  0.83529564  0.28952119  0.59627101  1
  O2-  O260  1  0.83509476  0.30029922  0.94050238  1
  O2-  O261  1  0.83192169  0.78989850  0.26606310  1
  O2-  O262  1  0.83259844  0.79781767  0.60561564  1
  O2-  O263  1  0.83590234  0.79639224  0.93574621  1
  O2-  O264  1  0.41487186  0.04172721  0.06858344  1
  O2-  O265  1  0.41138396  0.04697819  0.39813116  1
  O2-  O266  1  0.41566082  0.04359391  0.72613797  1
  O2-  O267  1  0.41617294  0.54433161  0.07229397  1
  O2-  O268  1  0.41051611  0.54509146  0.39549685  1
  O2-  O269  1  0.41876697  0.54228853  0.73402780  1
  O2-  O270  1  0.92173221  0.03932626  0.06650700  1
  O2-  O271  1  0.91777189  0.03894472  0.39544715  1
  O2-  O272  1  0.91324372  0.03935230  0.73707639  1
  O2-  O273  1  0.92031375  0.54408147  0.07229080  1
  O2-  O274  1  0.92074658  0.54839400  0.39455418  1
  O2-  O275  1  0.92081068  0.54045392  0.72914510  1
  O2-  O276  1  0.28675638  0.16759853  0.06679850  1
  O2-  O277  1  0.28885269  0.16475280  0.39515328  1
  O2-  O278  1  0.30008788  0.16726509  0.72708551  1
  O2-  O279  1  0.28426167  0.66590247  0.07076242  1
  O2-  O280  1  0.28946437  0.66454091  0.39482341  1
  O2-  O281  1  0.28607095  0.66342457  0.73576656  1
  O2-  O282  1  0.80158495  0.17154623  0.06961280  1
  O2-  O283  1  0.80435329  0.16529800  0.39372720  1
  O2-  O284  1  0.79087028  0.16868108  0.73162909  1
  O2-  O285  1  0.79683503  0.67184690  0.06657641  1
  O2-  O286  1  0.79812540  0.66466970  0.39868447  1
  O2-  O287  1  0.79346195  0.66721294  0.73203391  1
