# generated using pymatgen
data_Ca2Al2SiO7
_symmetry_space_group_name_H-M   'P 1'
_cell_length_a   15.45589116
_cell_length_b   15.45552524
_cell_length_c   15.28223156
_cell_angle_alpha   89.99788735
_cell_angle_beta   89.99159870
_cell_angle_gamma   89.99313231
_symmetry_Int_Tables_number   1
_chemical_formula_structural   Ca2Al2SiO7
_chemical_formula_sum   'Ca48 Al48 Si24 O168'
_cell_volume   3650.60283933
_cell_formula_units_Z   24
loop_
 _symmetry_equiv_pos_site_id
 _symmetry_equiv_pos_as_xyz
  1  'x, y, z'
loop_
 _atom_type_symbol
 _atom_type_oxidation_number
  Ca2+  2.0
  Al0+  0.0
  Si0+  0.0
  O2-  -2.0
loop_
 _atom_site_type_symbol
 _atom_site_label
 _atom_site_symmetry_multiplicity
 _atom_site_fract_x
 _atom_site_fract_y
 _atom_site_fract_z
 _atom_site_occupancy
  Ca2+  Ca0  1  0.16907472  0.08130852  0.16837574  1
  Ca2+  Ca1  1  0.16997588  0.07893442  0.51476014  1
  Ca2+  Ca2  1  0.16646002  0.08422027  0.82720606  1
  Ca2+  Ca3  1  0.17882030  0.58248296  0.17193893  1
  Ca2+  Ca4  1  0.17683987  0.57991327  0.51105826  1
  Ca2+  Ca5  1  0.17404674  0.58369620  0.83313550  1
  Ca2+  Ca6  1  0.67247780  0.08572145  0.17491695  1
  Ca2+  Ca7  1  0.67305367  0.08309356  0.50039428  1
  Ca2+  Ca8  1  0.67844982  0.08808466  0.83974258  1
  Ca2+  Ca9  1  0.66298207  0.57536512  0.16993247  1
  Ca2+  Ca10  1  0.66254710  0.58747594  0.50431513  1
  Ca2+  Ca11  1  0.66381027  0.57763361  0.83715192  1
  Ca2+  Ca12  1  0.06960608  0.33345110  0.16308990  1
  Ca2+  Ca13  1  0.08357568  0.32903466  0.49949120  1
  Ca2+  Ca14  1  0.07994941  0.33138254  0.82459087  1
  Ca2+  Ca15  1  0.07650405  0.83219067  0.15946420  1
  Ca2+  Ca16  1  0.08351313  0.83561592  0.50429659  1
  Ca2+  Ca17  1  0.07572027  0.83213436  0.82395898  1
  Ca2+  Ca18  1  0.58520718  0.32224581  0.15776074  1
  Ca2+  Ca19  1  0.57525186  0.32697987  0.49788822  1
  Ca2+  Ca20  1  0.57521847  0.33345673  0.83494849  1
  Ca2+  Ca21  1  0.58351789  0.83197650  0.17026619  1
  Ca2+  Ca22  1  0.57869974  0.82502478  0.49031563  1
  Ca2+  Ca23  1  0.58219073  0.82375243  0.82546340  1
  Ca2+  Ca24  1  0.34297140  0.42627929  0.16739454  1
  Ca2+  Ca25  1  0.33190821  0.42441965  0.51155881  1
  Ca2+  Ca26  1  0.33496074  0.42149133  0.83484243  1
  Ca2+  Ca27  1  0.33400159  0.91455704  0.17402076  1
  Ca2+  Ca28  1  0.33133395  0.92139835  0.50781904  1
  Ca2+  Ca29  1  0.32733736  0.91945016  0.83180013  1
  Ca2+  Ca30  1  0.82890656  0.40678325  0.16853800  1
  Ca2+  Ca31  1  0.83249580  0.41492943  0.50152453  1
  Ca2+  Ca32  1  0.82629090  0.41434575  0.84278757  1
  Ca2+  Ca33  1  0.82789091  0.92768632  0.17353660  1
  Ca2+  Ca34  1  0.82961315  0.92457528  0.50715175  1
  Ca2+  Ca35  1  0.84378202  0.92562029  0.83599586  1
  Ca2+  Ca36  1  0.43301411  0.16946737  0.15711861  1
  Ca2+  Ca37  1  0.41478422  0.17073285  0.49578582  1
  Ca2+  Ca38  1  0.41626347  0.17763037  0.82529693  1
  Ca2+  Ca39  1  0.41544648  0.66623904  0.16865512  1
  Ca2+  Ca40  1  0.42175980  0.66560465  0.49409646  1
  Ca2+  Ca41  1  0.41949440  0.65822169  0.82696593  1
  Ca2+  Ca42  1  0.90740002  0.17241325  0.16273581  1
  Ca2+  Ca43  1  0.91750639  0.16518639  0.49885196  1
  Ca2+  Ca44  1  0.91750160  0.16729292  0.82905855  1
  Ca2+  Ca45  1  0.91742634  0.67572454  0.15866106  1
  Ca2+  Ca46  1  0.92374663  0.67183770  0.50111063  1
  Ca2+  Ca47  1  0.92001017  0.68044504  0.82240894  1
  Al0+  Al48  1  0.00010820  -0.00016923  0.00293138  1
  Al0+  Al49  1  0.00075623  0.00075529  0.33577453  1
  Al0+  Al50  1  -0.00116708  0.00230869  0.66584926  1
  Al0+  Al51  1  0.00217168  0.50045640  -0.00357960  1
  Al0+  Al52  1  -0.00061221  0.49913535  0.32831132  1
  Al0+  Al53  1  -0.00136634  0.50258619  0.66697529  1
  Al0+  Al54  1  0.50139847  -0.00237794  -0.00543742  1
  Al0+  Al55  1  0.50008882  -0.00105453  0.32992101  1
  Al0+  Al56  1  0.50283054  -0.00020081  0.67200478  1
  Al0+  Al57  1  0.50077552  0.49916980  0.00681368  1
  Al0+  Al58  1  0.50084328  0.50084136  0.33521042  1
  Al0+  Al59  1  0.50048661  0.49767292  0.66128277  1
  Al0+  Al60  1  0.24974889  0.25014187  0.00078539  1
  Al0+  Al61  1  0.24721133  0.25078507  0.32963244  1
  Al0+  Al62  1  0.24851639  0.25186903  0.66492992  1
  Al0+  Al63  1  0.25075286  0.74955441  0.00493170  1
  Al0+  Al64  1  0.25031821  0.74877043  0.33441676  1
  Al0+  Al65  1  0.25025798  0.75070780  0.67216951  1
  Al0+  Al66  1  0.75097278  0.24982209  -0.00065053  1
  Al0+  Al67  1  0.74997739  0.25080800  0.33337791  1
  Al0+  Al68  1  0.74835822  0.24971668  0.67050723  1
  Al0+  Al69  1  0.74972896  0.75155599  -0.00470158  1
  Al0+  Al70  1  0.74965897  0.74901101  0.33177616  1
  Al0+  Al71  1  0.74929169  0.75025429  0.65859860  1
  Al0+  Al72  1  0.06911501  0.18171703  0.65382957  1
  Al0+  Al73  1  0.92922083  0.82097435  0.98720163  1
  Al0+  Al74  1  0.92974273  0.82333592  0.64862124  1
  Al0+  Al75  1  0.68181733  0.43090241  0.01421466  1
  Al0+  Al76  1  0.82065314  0.07272540  0.35074946  1
  Al0+  Al77  1  0.56901235  0.17996656  0.32154444  1
  Al0+  Al78  1  0.07313915  0.67852759  0.65179335  1
  Al0+  Al79  1  0.17622982  0.42906451  0.68161686  1
  Al0+  Al80  1  0.32296660  0.57010133  0.68159762  1
  Al0+  Al81  1  0.82021063  0.06877251  0.01482122  1
  Al0+  Al82  1  0.32410328  0.07327018  0.68098644  1
  Al0+  Al83  1  0.42909195  0.31878538  0.65217754  1
  Al0+  Al84  1  0.93030819  0.31977432  0.32056192  1
  Al0+  Al85  1  0.42932169  0.32173848  0.98565745  1
  Al0+  Al86  1  0.57270837  0.67726583  0.31515310  1
  Al0+  Al87  1  0.92996226  0.32086283  0.98516592  1
  Al0+  Al88  1  0.31994391  0.56948751  0.01634391  1
  Al0+  Al89  1  0.67769301  0.92764065  0.34900782  1
  Al0+  Al90  1  0.81898943  0.07055750  0.68200676  1
  Al0+  Al91  1  0.56861742  0.67836317  0.65373711  1
  Al0+  Al92  1  0.57280519  0.17683137  0.98260073  1
  Al0+  Al93  1  0.17881732  0.92936360  0.68227534  1
  Al0+  Al94  1  0.42784282  0.81986365  0.31908211  1
  Al0+  Al95  1  0.32060419  0.56890272  0.34966907  1
  Si0+  Si96  1  0.17492014  0.42853955  0.34920560  1
  Si0+  Si97  1  0.32336580  0.07151598  0.01483176  1
  Si0+  Si98  1  0.07302440  0.17536803  0.31517193  1
  Si0+  Si99  1  0.82029066  0.57319257  0.68023515  1
  Si0+  Si100  1  0.17895810  0.92890830  0.34761192  1
  Si0+  Si101  1  0.42628797  0.82066497  0.98347073  1
  Si0+  Si102  1  0.92437556  0.32337438  0.65130418  1
  Si0+  Si103  1  0.56936284  0.67912436  0.98610979  1
  Si0+  Si104  1  0.92967348  0.82209636  0.31806458  1
  Si0+  Si105  1  0.57364973  0.17681457  0.65039008  1
  Si0+  Si106  1  0.82370811  0.57443968  0.01411053  1
  Si0+  Si107  1  0.67552783  0.92449518  0.01640343  1
  Si0+  Si108  1  0.18108205  0.93026114  0.01648670  1
  Si0+  Si109  1  0.67917945  0.92495983  0.68448642  1
  Si0+  Si110  1  0.42578571  0.32234532  0.31701985  1
  Si0+  Si111  1  0.17546088  0.42545292  0.01905993  1
  Si0+  Si112  1  0.82295789  0.57185220  0.34736203  1
  Si0+  Si113  1  0.42805228  0.82437896  0.65279182  1
  Si0+  Si114  1  0.07305603  0.17709337  0.98352746  1
  Si0+  Si115  1  0.68025779  0.42948683  0.34977593  1
  Si0+  Si116  1  0.07427626  0.67947876  0.98414626  1
  Si0+  Si117  1  0.07057426  0.67911832  0.31751769  1
  Si0+  Si118  1  0.67991578  0.42955800  0.68085129  1
  Si0+  Si119  1  0.32066103  0.07174662  0.34437559  1
  O2-  O120  1  0.25308205  0.00022926  0.05919520  1
  O2-  O121  1  0.24887185  0.00195622  0.38722941  1
  O2-  O122  1  0.25265097  0.00045163  0.73169164  1
  O2-  O123  1  0.24586449  0.49306824  0.06270303  1
  O2-  O124  1  0.24817244  0.49125272  0.39385226  1
  O2-  O125  1  0.24834308  0.50087838  0.73183130  1
  O2-  O126  1  0.74223008  -0.00406964  0.05916197  1
  O2-  O127  1  0.75042948  -0.00158096  0.39966923  1
  O2-  O128  1  0.74595703  -0.00537143  0.72965253  1
  O2-  O129  1  0.75931392  0.50357700  0.06141344  1
  O2-  O130  1  0.74966363  0.50323498  0.39045641  1
  O2-  O131  1  0.75186829  0.50006507  0.72274131  1
  O2-  O132  1  0.00281843  0.24313785  0.27283919  1
  O2-  O133  1  -0.00448715  0.25776537  0.60710349  1
  O2-  O134  1  0.00707612  0.24861554  0.94015708  1
  O2-  O135  1  0.00027398  0.75081843  0.27468714  1
  O2-  O136  1  0.00355653  0.75204514  0.59954571  1
  O2-  O137  1  0.00032198  0.74265673  0.94131605  1
  O2-  O138  1  0.49221645  0.25183052  0.27332773  1
  O2-  O139  1  0.49892762  0.23876869  0.60610469  1
  O2-  O140  1  0.49658266  0.24572129  0.93478351  1
  O2-  O141  1  0.50013229  0.74934044  0.26612145  1
  O2-  O142  1  0.49401393  0.75350608  0.60865783  1
  O2-  O143  1  0.49882319  0.75035905  0.94342940  1
  O2-  O144  1  0.07345813  0.17600238  0.08958318  1
  O2-  O145  1  0.07715082  0.17495466  0.42015474  1
  O2-  O146  1  0.06642504  0.18186388  0.76704599  1
  O2-  O147  1  0.07483256  0.68293736  0.09063378  1
  O2-  O148  1  0.06977047  0.67858005  0.42201055  1
  O2-  O149  1  0.06842580  0.67869621  0.76560924  1
  O2-  O150  1  0.57217738  0.17778266  0.09673355  1
  O2-  O151  1  0.56722896  0.18291954  0.43474253  1
  O2-  O152  1  0.57670396  0.18146251  0.75554745  1
  O2-  O153  1  0.57030501  0.68010414  0.09084798  1
  O2-  O154  1  0.57075536  0.67699289  0.42844983  1
  O2-  O155  1  0.56940434  0.67778605  0.76763397  1
  O2-  O156  1  0.17215113  0.43147493  0.24353356  1
  O2-  O157  1  0.17747011  0.42969102  0.56747685  1
  O2-  O158  1  0.17290074  0.42578786  0.91408168  1
  O2-  O159  1  0.17765330  0.92935697  0.24182389  1
  O2-  O160  1  0.18076877  0.93147132  0.56801663  1
  O2-  O161  1  0.18098210  0.92934335  0.91227580  1
  O2-  O162  1  0.68178939  0.42858102  0.24459462  1
  O2-  O163  1  0.68157110  0.42828090  0.57544038  1
  O2-  O164  1  0.68049741  0.43471914  0.90082479  1
  O2-  O165  1  0.68131582  0.92833067  0.23499773  1
  O2-  O166  1  0.67933974  0.92499686  0.57910464  1
  O2-  O167  1  0.67549777  0.92014250  0.91115642  1
  O2-  O168  1  0.43285435  0.32022487  0.09976585  1
  O2-  O169  1  0.42531884  0.32053011  0.42260215  1
  O2-  O170  1  0.43332944  0.32220419  0.76493505  1
  O2-  O171  1  0.42406820  0.82140542  0.08841899  1
  O2-  O172  1  0.42547515  0.81934224  0.43234595  1
  O2-  O173  1  0.43120471  0.82487821  0.75890409  1
  O2-  O174  1  0.93028449  0.31907599  0.09856904  1
  O2-  O175  1  0.93256554  0.32262385  0.43344456  1
  O2-  O176  1  0.92220131  0.32154324  0.75684865  1
  O2-  O177  1  0.93225963  0.82000072  0.10108543  1
  O2-  O178  1  0.93179548  0.82130247  0.42254246  1
  O2-  O179  1  0.92956900  0.82088214  0.76248783  1
  O2-  O180  1  0.31804987  0.07067342  0.23882561  1
  O2-  O181  1  0.32304954  0.07096147  0.56647591  1
  O2-  O182  1  0.32146161  0.07051991  0.91039224  1
  O2-  O183  1  0.31815530  0.56889010  0.23605166  1
  O2-  O184  1  0.32381830  0.56753992  0.56803371  1
  O2-  O185  1  0.31973535  0.57129041  0.90392189  1
  O2-  O186  1  0.82007386  0.07177314  0.23691121  1
  O2-  O187  1  0.81624597  0.07297399  0.56916970  1
  O2-  O188  1  0.82276482  0.06688263  0.90188593  1
  O2-  O189  1  0.82502307  0.57157025  0.24213450  1
  O2-  O190  1  0.81990519  0.57209869  0.57474200  1
  O2-  O191  1  0.81956916  0.57534927  0.90861882  1
  O2-  O192  1  0.04944797  0.08103689  0.26872186  1
  O2-  O193  1  0.03781294  0.08654646  0.59808253  1
  O2-  O194  1  0.04455264  0.08416739  0.93870789  1
  O2-  O195  1  0.04177443  0.58862842  0.26783751  1
  O2-  O196  1  0.04043917  0.58162201  0.59697517  1
  O2-  O197  1  0.05692854  0.58376646  0.94064100  1
  O2-  O198  1  0.54138207  0.08370848  0.26575832  1
  O2-  O199  1  0.55609673  0.07984082  0.60864796  1
  O2-  O200  1  0.55022610  0.07626780  0.93138487  1
  O2-  O201  1  0.54331873  0.57798217  0.26384355  1
  O2-  O202  1  0.54063964  0.58260679  0.59722537  1
  O2-  O203  1  0.54018572  0.58739959  0.94037700  1
  O2-  O204  1  0.16535976  0.20229748  0.26518112  1
  O2-  O205  1  0.16523260  0.20982292  0.59724815  1
  O2-  O206  1  0.16800434  0.19861363  0.93899271  1
  O2-  O207  1  0.16164964  0.70846978  0.26964742  1
  O2-  O208  1  0.17304031  0.70559478  0.60117137  1
  O2-  O209  1  0.16568765  0.71196202  0.93848640  1
  O2-  O210  1  0.66438859  0.21460530  0.26788591  1
  O2-  O211  1  0.66392354  0.21133332  0.60239019  1
  O2-  O212  1  0.66906823  0.21095246  0.93050952  1
  O2-  O213  1  0.67234593  0.70291624  0.26226034  1
  O2-  O214  1  0.66436749  0.70760862  0.59749657  1
  O2-  O215  1  0.66106897  0.70524150  0.93707555  1
  O2-  O216  1  0.08225436  0.45452018  0.06616291  1
  O2-  O217  1  0.08280073  0.45824518  0.39558011  1
  O2-  O218  1  0.07670063  0.45642784  0.73421487  1
  O2-  O219  1  0.09061729  0.95988445  0.06645257  1
  O2-  O220  1  0.08760522  0.95538317  0.39592513  1
  O2-  O221  1  0.08125553  0.96133159  0.73428310  1
  O2-  O222  1  0.58786426  0.46347208  0.07187965  1
  O2-  O223  1  0.58810568  0.45529953  0.39731170  1
  O2-  O224  1  0.58931161  0.46028999  0.72765898  1
  O2-  O225  1  0.57990133  0.94604109  0.06096896  1
  O2-  O226  1  0.57818804  0.95533450  0.40007366  1
  O2-  O227  1  0.58525118  0.94677257  0.73172609  1
  O2-  O228  1  0.19776969  0.33082480  0.06558706  1
  O2-  O229  1  0.19489551  0.33142122  0.39096229  1
  O2-  O230  1  0.20351850  0.33085008  0.73396519  1
  O2-  O231  1  0.20853014  0.83899375  0.06618066  1
  O2-  O232  1  0.20672561  0.83751550  0.39464166  1
  O2-  O233  1  0.20470273  0.83182206  0.73831238  1
  O2-  O234  1  0.71318435  0.33446896  0.06810649  1
  O2-  O235  1  0.71144070  0.34007175  0.39922159  1
  O2-  O236  1  0.70684389  0.33899452  0.73066380  1
  O2-  O237  1  0.70436683  0.83183910  0.06375419  1
  O2-  O238  1  0.70501552  0.82742228  0.39932168  1
  O2-  O239  1  0.70609324  0.83075642  0.72934831  1
  O2-  O240  1  0.45536087  0.41531660  0.27323584  1
  O2-  O241  1  0.46707901  0.41122073  0.59459502  1
  O2-  O242  1  0.46327104  0.41961393  0.93498012  1
  O2-  O243  1  0.45386583  0.91824894  0.26382849  1
  O2-  O244  1  0.45539104  0.91776714  0.60645504  1
  O2-  O245  1  0.45170506  0.91204473  0.93460985  1
  O2-  O246  1  0.96067110  0.41551954  0.26259247  1
  O2-  O247  1  0.94488063  0.41889290  0.60752302  1
  O2-  O248  1  0.95553015  0.41984244  0.93240814  1
  O2-  O249  1  0.95943272  0.91387987  0.27102298  1
  O2-  O250  1  0.95771872  0.92127450  0.59600146  1
  O2-  O251  1  0.96581675  0.91593929  0.93474508  1
  O2-  O252  1  0.33070172  0.30181515  0.27099183  1
  O2-  O253  1  0.33191587  0.29343593  0.59737601  1
  O2-  O254  1  0.32811800  0.29829815  0.93644240  1
  O2-  O255  1  0.32930316  0.79013107  0.26413675  1
  O2-  O256  1  0.33258108  0.80373972  0.60999632  1
  O2-  O257  1  0.33459496  0.79105219  0.93740051  1
  O2-  O258  1  0.83348240  0.29042057  0.26661033  1
  O2-  O259  1  0.83176928  0.29417404  0.60447113  1
  O2-  O260  1  0.83426103  0.28987871  0.93132351  1
  O2-  O261  1  0.83847952  0.79357616  0.27058425  1
  O2-  O262  1  0.83314126  0.79077460  0.59465627  1
  O2-  O263  1  0.83247788  0.79425650  0.93153240  1
  O2-  O264  1  0.41581977  0.04190931  0.06045766  1
  O2-  O265  1  0.41180290  0.04492224  0.39179841  1
  O2-  O266  1  0.42282536  0.04757046  0.73545333  1
  O2-  O267  1  0.41603009  0.53956866  0.07205757  1
  O2-  O268  1  0.41878234  0.54132285  0.40159652  1
  O2-  O269  1  0.42103029  0.53606093  0.73310815  1
  O2-  O270  1  0.91660427  0.03719925  0.07027904  1
  O2-  O271  1  0.92122163  0.04584623  0.40042802  1
  O2-  O272  1  0.91578593  0.04105226  0.73506004  1
  O2-  O273  1  0.92011752  0.55462720  0.05741085  1
  O2-  O274  1  0.91391004  0.54053441  0.39487055  1
  O2-  O275  1  0.91218933  0.55006897  0.72891276  1
  O2-  O276  1  0.29579028  0.16283683  0.06401697  1
  O2-  O277  1  0.29396833  0.16506346  0.39007294  1
  O2-  O278  1  0.29223880  0.17057692  0.73284445  1
  O2-  O279  1  0.28715126  0.66586427  0.07187061  1
  O2-  O280  1  0.28709979  0.66549750  0.40145020  1
  O2-  O281  1  0.30007501  0.66970494  0.73436917  1
  O2-  O282  1  0.79033074  0.16620934  0.06697559  1
  O2-  O283  1  0.79049556  0.17095233  0.40309138  1
  O2-  O284  1  0.78727677  0.16712124  0.73678877  1
  O2-  O285  1  0.79506502  0.66751518  0.06065658  1
  O2-  O286  1  0.79797998  0.66384686  0.39518436  1
  O2-  O287  1  0.78915201  0.66430032  0.72703649  1
