# generated using pymatgen
data_Ca2Al2SiO7
_symmetry_space_group_name_H-M   'P 1'
_cell_length_a   15.45872563
_cell_length_b   15.45840924
_cell_length_c   15.28449850
_cell_angle_alpha   89.99576124
_cell_angle_beta   90.00732405
_cell_angle_gamma   90.02547681
_symmetry_Int_Tables_number   1
_chemical_formula_structural   Ca2Al2SiO7
_chemical_formula_sum   'Ca48 Al48 Si24 O168'
_cell_volume   3652.49504487
_cell_formula_units_Z   24
loop_
 _symmetry_equiv_pos_site_id
 _symmetry_equiv_pos_as_xyz
  1  'x, y, z'
loop_
 _atom_type_symbol
 _atom_type_oxidation_number
  Ca2+  2.0
  Al0+  0.0
  Si0+  0.0
  O2-  -2.0
loop_
 _atom_site_type_symbol
 _atom_site_label
 _atom_site_symmetry_multiplicity
 _atom_site_fract_x
 _atom_site_fract_y
 _atom_site_fract_z
 _atom_site_occupancy
  Ca2+  Ca0  1  0.17298502  0.08579037  0.17207343  1
  Ca2+  Ca1  1  0.16660985  0.08743862  0.50722132  1
  Ca2+  Ca2  1  0.16066572  0.07166511  0.83578126  1
  Ca2+  Ca3  1  0.17261173  0.58225953  0.17133099  1
  Ca2+  Ca4  1  0.15964033  0.57037811  0.50296337  1
  Ca2+  Ca5  1  0.16222061  0.58299519  0.83794712  1
  Ca2+  Ca6  1  0.67133940  0.08203773  0.17317816  1
  Ca2+  Ca7  1  0.68030854  0.08643692  0.50300636  1
  Ca2+  Ca8  1  0.67368913  0.07298926  0.83482579  1
  Ca2+  Ca9  1  0.67327296  0.56969869  0.16863107  1
  Ca2+  Ca10  1  0.67307431  0.57519399  0.50436994  1
  Ca2+  Ca11  1  0.68384023  0.58201382  0.84036318  1
  Ca2+  Ca12  1  0.07486053  0.33513152  0.16487059  1
  Ca2+  Ca13  1  0.08147138  0.32601141  0.49217697  1
  Ca2+  Ca14  1  0.07943316  0.32967847  0.82689555  1
  Ca2+  Ca15  1  0.08476922  0.82821086  0.15849144  1
  Ca2+  Ca16  1  0.08080189  0.83309020  0.50253045  1
  Ca2+  Ca17  1  0.08467753  0.82471499  0.82451617  1
  Ca2+  Ca18  1  0.59150903  0.32944648  0.16384168  1
  Ca2+  Ca19  1  0.58348169  0.32814360  0.48860092  1
  Ca2+  Ca20  1  0.58075193  0.33845018  0.83320667  1
  Ca2+  Ca21  1  0.58053534  0.83436162  0.15958157  1
  Ca2+  Ca22  1  0.58556888  0.83442517  0.49768893  1
  Ca2+  Ca23  1  0.58537444  0.83874808  0.82825773  1
  Ca2+  Ca24  1  0.32636578  0.42747156  0.17488362  1
  Ca2+  Ca25  1  0.31855395  0.41538174  0.50031184  1
  Ca2+  Ca26  1  0.32320506  0.42174366  0.83709358  1
  Ca2+  Ca27  1  0.32591415  0.92566734  0.16597401  1
  Ca2+  Ca28  1  0.32531352  0.92411439  0.50230489  1
  Ca2+  Ca29  1  0.31907737  0.92050024  0.84007768  1
  Ca2+  Ca30  1  0.83258231  0.41115478  0.16804229  1
  Ca2+  Ca31  1  0.83300437  0.41503112  0.50138584  1
  Ca2+  Ca32  1  0.83666521  0.42678923  0.84089994  1
  Ca2+  Ca33  1  0.82884247  0.92203045  0.17080580  1
  Ca2+  Ca34  1  0.83443663  0.92829284  0.51070080  1
  Ca2+  Ca35  1  0.83103623  0.91592888  0.83242554  1
  Ca2+  Ca36  1  0.41976023  0.15961419  0.16395675  1
  Ca2+  Ca37  1  0.42386605  0.16496746  0.48997389  1
  Ca2+  Ca38  1  0.41642677  0.16254360  0.83193144  1
  Ca2+  Ca39  1  0.41342574  0.66204071  0.16029148  1
  Ca2+  Ca40  1  0.41452586  0.66843912  0.49399043  1
  Ca2+  Ca41  1  0.41798200  0.66477213  0.83108438  1
  Ca2+  Ca42  1  0.91569854  0.17648962  0.16819668  1
  Ca2+  Ca43  1  0.92526730  0.16467737  0.49079556  1
  Ca2+  Ca44  1  0.91789575  0.17246232  0.82673290  1
  Ca2+  Ca45  1  0.92445050  0.66428939  0.15656654  1
  Ca2+  Ca46  1  0.91545287  0.67037639  0.50424940  1
  Ca2+  Ca47  1  0.92368497  0.66716382  0.82519350  1
  Al0+  Al48  1  -0.00162995  -0.00058801  0.00423000  1
  Al0+  Al49  1  -0.00066739  -0.00109271  0.33011882  1
  Al0+  Al50  1  0.00117015  0.00083022  0.66851602  1
  Al0+  Al51  1  0.00023600  0.49986853  -0.00478696  1
  Al0+  Al52  1  -0.00053122  0.50197618  0.33286719  1
  Al0+  Al53  1  -0.00014924  0.49894710  0.67002388  1
  Al0+  Al54  1  0.50031557  -0.00056725  0.00387570  1
  Al0+  Al55  1  0.49731920  -0.00192449  0.33172813  1
  Al0+  Al56  1  0.50093280  0.00054231  0.66650753  1
  Al0+  Al57  1  0.50074096  0.49896212  0.00383097  1
  Al0+  Al58  1  0.50174765  0.50128296  0.34032349  1
  Al0+  Al59  1  0.49822072  0.50020527  0.66340968  1
  Al0+  Al60  1  0.25179151  0.24993661  0.00131472  1
  Al0+  Al61  1  0.25188892  0.25034235  0.33647256  1
  Al0+  Al62  1  0.25091889  0.25333540  0.66825255  1
  Al0+  Al63  1  0.25069579  0.75129100  0.00174580  1
  Al0+  Al64  1  0.25086536  0.75210410  0.33570332  1
  Al0+  Al65  1  0.25199479  0.75016178  0.66301537  1
  Al0+  Al66  1  0.74952022  0.24891722  -0.00604343  1
  Al0+  Al67  1  0.74973795  0.24850386  0.33380214  1
  Al0+  Al68  1  0.74758372  0.24956630  0.67146930  1
  Al0+  Al69  1  0.74998075  0.74938928  0.00843168  1
  Al0+  Al70  1  0.74850813  0.74870263  0.33037452  1
  Al0+  Al71  1  0.74925157  0.74843486  0.66791307  1
  Al0+  Al72  1  0.32020310  0.07175508  0.01440084  1
  Al0+  Al73  1  0.67887774  0.92907587  0.67949075  1
  Al0+  Al74  1  0.68187504  0.42835050  0.34758539  1
  Al0+  Al75  1  0.17623533  0.92855826  0.01510999  1
  Al0+  Al76  1  0.92780337  0.82048766  0.65248456  1
  Al0+  Al77  1  0.67988459  0.92908927  0.01493377  1
  Al0+  Al78  1  0.82029047  0.06917072  0.34576934  1
  Al0+  Al79  1  0.67990018  0.42786262  0.01391551  1
  Al0+  Al80  1  0.56977954  0.17892864  0.31924559  1
  Al0+  Al81  1  0.07192505  0.68163083  0.98674504  1
  Al0+  Al82  1  0.82382028  0.07285041  0.68265310  1
  Al0+  Al83  1  0.07417023  0.17721365  0.31746231  1
  Al0+  Al84  1  0.92916209  0.31899750  0.98377862  1
  Al0+  Al85  1  0.92944597  0.32181187  0.31951399  1
  Al0+  Al86  1  0.32139233  0.57345864  0.34985863  1
  Al0+  Al87  1  0.32035835  0.57037269  0.01097461  1
  Al0+  Al88  1  0.17902419  0.42935165  0.68203122  1
  Al0+  Al89  1  0.17697335  0.42994558  0.34743344  1
  Al0+  Al90  1  0.07296966  0.67708780  0.64932933  1
  Al0+  Al91  1  0.82444353  0.57012193  0.01642891  1
  Al0+  Al92  1  0.07052913  0.18014678  0.65511845  1
  Al0+  Al93  1  0.17979727  0.92878393  0.67875223  1
  Al0+  Al94  1  0.81994959  0.56893132  0.67940676  1
  Al0+  Al95  1  0.32049900  0.07089065  0.34776238  1
  Si0+  Si96  1  0.67716802  0.92628014  0.34906303  1
  Si0+  Si97  1  0.57119204  0.67783803  0.31643877  1
  Si0+  Si98  1  0.43126720  0.82138471  0.98390400  1
  Si0+  Si99  1  0.57105493  0.67782762  0.98574632  1
  Si0+  Si100  1  0.92516986  0.82305303  0.98478432  1
  Si0+  Si101  1  0.56989467  0.17715750  0.98265375  1
  Si0+  Si102  1  0.42925196  0.32387613  0.31636186  1
  Si0+  Si103  1  0.17700781  0.92851207  0.35076653  1
  Si0+  Si104  1  0.82159843  0.07334322  0.01755707  1
  Si0+  Si105  1  0.17759581  0.42726476  0.01592744  1
  Si0+  Si106  1  0.32297459  0.57204210  0.68286141  1
  Si0+  Si107  1  0.67465607  0.42757000  0.68329017  1
  Si0+  Si108  1  0.56971012  0.17878622  0.65169320  1
  Si0+  Si109  1  0.32274268  0.07307594  0.68202426  1
  Si0+  Si110  1  0.42952636  0.32256301  0.65033003  1
  Si0+  Si111  1  0.42851003  0.81965449  0.31567529  1
  Si0+  Si112  1  0.07444463  0.17735157  0.98360053  1
  Si0+  Si113  1  0.07079399  0.68110745  0.31868752  1
  Si0+  Si114  1  0.92694678  0.82129248  0.31734345  1
  Si0+  Si115  1  0.42902797  0.32247532  0.98505385  1
  Si0+  Si116  1  0.82255793  0.57490379  0.35093876  1
  Si0+  Si117  1  0.92574827  0.32148801  0.65093332  1
  Si0+  Si118  1  0.42971785  0.82238547  0.65069219  1
  Si0+  Si119  1  0.57057037  0.67836675  0.65144687  1
  O2-  O120  1  0.24334438  0.00542781  0.06452406  1
  O2-  O121  1  0.24007325  0.00283340  0.39446504  1
  O2-  O122  1  0.25238769  0.00622249  0.72508814  1
  O2-  O123  1  0.24517738  0.49765729  0.05876567  1
  O2-  O124  1  0.24923999  0.50190545  0.39880444  1
  O2-  O125  1  0.25028294  0.50852696  0.72742193  1
  O2-  O126  1  0.75533390  0.00195210  0.06158327  1
  O2-  O127  1  0.74658020  -0.00674150  0.39290038  1
  O2-  O128  1  0.75301368  -0.00215254  0.73045930  1
  O2-  O129  1  0.75454184  0.49574950  0.06535866  1
  O2-  O130  1  0.75699031  0.50258319  0.39405943  1
  O2-  O131  1  0.74630700  0.49286368  0.72611485  1
  O2-  O132  1  0.00379590  0.25184394  0.26889431  1
  O2-  O133  1  -0.00773049  0.25076618  0.60747964  1
  O2-  O134  1  0.00498528  0.24459729  0.93838254  1
  O2-  O135  1  -0.00170846  0.75030167  0.27579139  1
  O2-  O136  1  0.00106406  0.75022055  0.60017097  1
  O2-  O137  1  -0.00389813  0.75630432  0.94163426  1
  O2-  O138  1  0.49602155  0.25405203  0.27045221  1
  O2-  O139  1  0.50087042  0.25157967  0.60909806  1
  O2-  O140  1  0.49853533  0.24937210  0.94194020  1
  O2-  O141  1  0.49882699  0.74742847  0.27381019  1
  O2-  O142  1  0.50084091  0.75082335  0.60885979  1
  O2-  O143  1  0.50207244  0.75001540  0.94117321  1
  O2-  O144  1  0.07582692  0.17994762  0.08889497  1
  O2-  O145  1  0.07176808  0.17671554  0.43128851  1
  O2-  O146  1  0.07160736  0.18273977  0.76842302  1
  O2-  O147  1  0.07236345  0.68281104  0.10059485  1
  O2-  O148  1  0.07053235  0.68187582  0.42345240  1
  O2-  O149  1  0.07353396  0.67915937  0.76294156  1
  O2-  O150  1  0.57009069  0.17625622  0.08766083  1
  O2-  O151  1  0.56884147  0.18010537  0.43280611  1
  O2-  O152  1  0.56691524  0.17735418  0.75690673  1
  O2-  O153  1  0.56782650  0.67832214  0.09090083  1
  O2-  O154  1  0.57341378  0.68080089  0.42179041  1
  O2-  O155  1  0.56792795  0.67574702  0.75656556  1
  O2-  O156  1  0.17726946  0.43390251  0.23354796  1
  O2-  O157  1  0.18125419  0.42674720  0.56938173  1
  O2-  O158  1  0.18049333  0.42614936  0.91010231  1
  O2-  O159  1  0.18069156  0.92412798  0.24542727  1
  O2-  O160  1  0.18377245  0.92932077  0.56570213  1
  O2-  O161  1  0.17945531  0.92709037  0.90144979  1
  O2-  O162  1  0.68077170  0.43010961  0.23495553  1
  O2-  O163  1  0.67244017  0.42813301  0.57764018  1
  O2-  O164  1  0.67689010  0.43293654  0.90022429  1
  O2-  O165  1  0.67814591  0.92574786  0.24329903  1
  O2-  O166  1  0.67540876  0.93269280  0.56606426  1
  O2-  O167  1  0.67802492  0.93077668  0.90213550  1
  O2-  O168  1  0.42932699  0.32420320  0.08954217  1
  O2-  O169  1  0.43228690  0.32204364  0.42247216  1
  O2-  O170  1  0.43094955  0.32464750  0.75571847  1
  O2-  O171  1  0.43277532  0.82096930  0.08913934  1
  O2-  O172  1  0.43001446  0.82038641  0.42106096  1
  O2-  O173  1  0.43004615  0.82251639  0.75582586  1
  O2-  O174  1  0.92871879  0.31729260  0.09669708  1
  O2-  O175  1  0.92903573  0.32051566  0.43319962  1
  O2-  O176  1  0.92705326  0.32097845  0.75669622  1
  O2-  O177  1  0.92507524  0.82136066  0.09090030  1
  O2-  O178  1  0.92517908  0.82123538  0.42207845  1
  O2-  O179  1  0.92675479  0.81717198  0.76598974  1
  O2-  O180  1  0.32389739  0.06554208  0.23516647  1
  O2-  O181  1  0.32553508  0.07134872  0.57641966  1
  O2-  O182  1  0.32299833  0.06818385  0.90059210  1
  O2-  O183  1  0.31941061  0.57354050  0.23596071  1
  O2-  O184  1  0.32771223  0.56837373  0.57788964  1
  O2-  O185  1  0.32265861  0.56802997  0.89783394  1
  O2-  O186  1  0.81716973  0.06699310  0.23251275  1
  O2-  O187  1  0.82064317  0.07491920  0.56894078  1
  O2-  O188  1  0.82019303  0.07344023  0.91205697  1
  O2-  O189  1  0.82063299  0.57926867  0.24581693  1
  O2-  O190  1  0.81574656  0.56850197  0.56607549  1
  O2-  O191  1  0.82199272  0.57150548  0.90280959  1
  O2-  O192  1  0.04475490  0.07870516  0.26420885  1
  O2-  O193  1  0.04619487  0.08221654  0.60150716  1
  O2-  O194  1  0.04851422  0.08175438  0.94114914  1
  O2-  O195  1  0.04499356  0.58943873  0.27041178  1
  O2-  O196  1  0.04078307  0.57834095  0.59890274  1
  O2-  O197  1  0.04365023  0.58450687  0.93275461  1
  O2-  O198  1  0.53828104  0.08155592  0.26605067  1
  O2-  O199  1  0.54053068  0.08817393  0.60254856  1
  O2-  O200  1  0.53861850  0.08603871  0.93521131  1
  O2-  O201  1  0.54409732  0.58521123  0.27068953  1
  O2-  O202  1  0.54075100  0.58758057  0.60165452  1
  O2-  O203  1  0.54098998  0.58697189  0.93749685  1
  O2-  O204  1  0.17499656  0.20276263  0.26792538  1
  O2-  O205  1  0.16806084  0.21298904  0.60273278  1
  O2-  O206  1  0.16856014  0.20230306  0.93740019  1
  O2-  O207  1  0.16296786  0.71149324  0.27260973  1
  O2-  O208  1  0.17260542  0.70373889  0.59714886  1
  O2-  O209  1  0.16902079  0.71225589  0.93262325  1
  O2-  O210  1  0.66568379  0.20931599  0.26462592  1
  O2-  O211  1  0.66256186  0.20580453  0.60582207  1
  O2-  O212  1  0.66050109  0.20385834  0.93263061  1
  O2-  O213  1  0.66209953  0.70609182  0.26686209  1
  O2-  O214  1  0.66139187  0.70470168  0.60219646  1
  O2-  O215  1  0.66418712  0.70577126  0.94109244  1
  O2-  O216  1  0.08393338  0.45254010  0.05960253  1
  O2-  O217  1  0.07940246  0.46039179  0.40140491  1
  O2-  O218  1  0.08220831  0.45566405  0.73633077  1
  O2-  O219  1  0.07603926  0.94854663  0.06785419  1
  O2-  O220  1  0.08074855  0.94648204  0.39290466  1
  O2-  O221  1  0.08406233  0.95630385  0.73434840  1
  O2-  O222  1  0.58325468  0.45837347  0.06877498  1
  O2-  O223  1  0.58667007  0.46077265  0.40381846  1
  O2-  O224  1  0.58144198  0.45701601  0.72841900  1
  O2-  O225  1  0.58414230  0.96085572  0.06970349  1
  O2-  O226  1  0.58268252  0.95034907  0.39273753  1
  O2-  O227  1  0.58122501  0.96062871  0.73410416  1
  O2-  O228  1  0.20528822  0.33489198  0.06218136  1
  O2-  O229  1  0.20709302  0.33240483  0.40100132  1
  O2-  O230  1  0.21683817  0.33603911  0.73877082  1
  O2-  O231  1  0.21321978  0.83394854  0.07009725  1
  O2-  O232  1  0.21045578  0.83840668  0.39920828  1
  O2-  O233  1  0.21534922  0.83281070  0.73168160  1
  O2-  O234  1  0.70412682  0.32668120  0.06216213  1
  O2-  O235  1  0.71000805  0.33202874  0.40261520  1
  O2-  O236  1  0.69386585  0.33289840  0.72905640  1
  O2-  O237  1  0.70543373  0.83260038  0.07165661  1
  O2-  O238  1  0.70104602  0.83132010  0.39334175  1
  O2-  O239  1  0.70063074  0.82904186  0.73131115  1
  O2-  O240  1  0.45642266  0.41862275  0.27335515  1
  O2-  O241  1  0.45663302  0.41361706  0.60071807  1
  O2-  O242  1  0.46055796  0.41267728  0.93512156  1
  O2-  O243  1  0.45816770  0.90978628  0.26625236  1
  O2-  O244  1  0.45868686  0.91377071  0.60206822  1
  O2-  O245  1  0.46111701  0.91255511  0.93622313  1
  O2-  O246  1  0.95385672  0.42228485  0.26677409  1
  O2-  O247  1  0.95224072  0.41471615  0.60589563  1
  O2-  O248  1  0.95982158  0.41557102  0.92968089  1
  O2-  O249  1  0.95411515  0.91168544  0.26717403  1
  O2-  O250  1  0.95599122  0.91973543  0.60114751  1
  O2-  O251  1  0.94603967  0.91884329  0.94093256  1
  O2-  O252  1  0.33471666  0.30142939  0.27206652  1
  O2-  O253  1  0.33834253  0.29411816  0.60285121  1
  O2-  O254  1  0.33711486  0.29599349  0.93580119  1
  O2-  O255  1  0.33623966  0.79301730  0.26819495  1
  O2-  O256  1  0.33999972  0.79436553  0.59959144  1
  O2-  O257  1  0.33971682  0.79309398  0.93668301  1
  O2-  O258  1  0.83230549  0.28888883  0.26628544  1
  O2-  O259  1  0.82908114  0.29978359  0.60855777  1
  O2-  O260  1  0.83267991  0.28899889  0.92778723  1
  O2-  O261  1  0.83463163  0.79386773  0.26944194  1
  O2-  O262  1  0.82926774  0.79042130  0.59844461  1
  O2-  O263  1  0.83081112  0.79615553  0.94074423  1
  O2-  O264  1  0.41642696  0.03784914  0.06828291  1
  O2-  O265  1  0.41507595  0.03256193  0.40268466  1
  O2-  O266  1  0.41526092  0.04450688  0.72856695  1
  O2-  O267  1  0.41571073  0.53907308  0.06671248  1
  O2-  O268  1  0.42059557  0.54866281  0.40251591  1
  O2-  O269  1  0.41531288  0.54159386  0.73038590  1
  O2-  O270  1  0.91557870  0.05169436  0.06400821  1
  O2-  O271  1  0.91731606  0.03790732  0.39828197  1
  O2-  O272  1  0.92161366  0.04730315  0.73642753  1
  O2-  O273  1  0.92341945  0.54236684  0.06767024  1
  O2-  O274  1  0.91720474  0.55392325  0.39539673  1
  O2-  O275  1  0.91584721  0.54049159  0.73458634  1
  O2-  O276  1  0.30021998  0.17238470  0.06658791  1
  O2-  O277  1  0.30068257  0.16969340  0.40143746  1
  O2-  O278  1  0.30167890  0.16783548  0.72678039  1
  O2-  O279  1  0.29379767  0.66740781  0.06520746  1
  O2-  O280  1  0.29541408  0.67299603  0.40161369  1
  O2-  O281  1  0.30495970  0.66839367  0.72531902  1
  O2-  O282  1  0.78994024  0.16520908  0.06222674  1
  O2-  O283  1  0.78746703  0.16377027  0.40094832  1
  O2-  O284  1  0.78964923  0.16916308  0.73776128  1
  O2-  O285  1  0.79406995  0.66678463  0.07114164  1
  O2-  O286  1  0.79048231  0.66670101  0.39791885  1
  O2-  O287  1  0.78592760  0.66362503  0.73434499  1
