# generated using pymatgen
data_Ca2Al2SiO7
_symmetry_space_group_name_H-M   'P 1'
_cell_length_a   15.46629507
_cell_length_b   15.46624172
_cell_length_c   15.28914099
_cell_angle_alpha   90.02110998
_cell_angle_beta   89.99381718
_cell_angle_gamma   89.99636495
_symmetry_Int_Tables_number   1
_chemical_formula_structural   Ca2Al2SiO7
_chemical_formula_sum   'Ca48 Al48 Si24 O168'
_cell_volume   3657.24569762
_cell_formula_units_Z   24
loop_
 _symmetry_equiv_pos_site_id
 _symmetry_equiv_pos_as_xyz
  1  'x, y, z'
loop_
 _atom_type_symbol
 _atom_type_oxidation_number
  Ca2+  2.0
  Al0+  0.0
  Si0+  0.0
  O2-  -2.0
loop_
 _atom_site_type_symbol
 _atom_site_label
 _atom_site_symmetry_multiplicity
 _atom_site_fract_x
 _atom_site_fract_y
 _atom_site_fract_z
 _atom_site_occupancy
  Ca2+  Ca0  1  0.17168338  0.08483892  0.17787639  1
  Ca2+  Ca1  1  0.16721332  0.08277608  0.49759133  1
  Ca2+  Ca2  1  0.16350525  0.07692320  0.83137530  1
  Ca2+  Ca3  1  0.17160680  0.57218868  0.17715948  1
  Ca2+  Ca4  1  0.16990932  0.57324307  0.50118461  1
  Ca2+  Ca5  1  0.16378077  0.56864582  0.83715417  1
  Ca2+  Ca6  1  0.67062926  0.07554454  0.18362392  1
  Ca2+  Ca7  1  0.67412566  0.08301224  0.49683252  1
  Ca2+  Ca8  1  0.67617667  0.08459927  0.83434078  1
  Ca2+  Ca9  1  0.65898566  0.57690156  0.17236887  1
  Ca2+  Ca10  1  0.66946334  0.58015873  0.49835301  1
  Ca2+  Ca11  1  0.67158092  0.58009022  0.83787762  1
  Ca2+  Ca12  1  0.08666842  0.33189100  0.17040725  1
  Ca2+  Ca13  1  0.07503845  0.33465633  0.49119934  1
  Ca2+  Ca14  1  0.08306562  0.33416535  0.82365249  1
  Ca2+  Ca15  1  0.06981215  0.83661391  0.16459185  1
  Ca2+  Ca16  1  0.07526696  0.83832903  0.49530137  1
  Ca2+  Ca17  1  0.07442215  0.83354417  0.82425578  1
  Ca2+  Ca18  1  0.58305881  0.33577562  0.16885435  1
  Ca2+  Ca19  1  0.57376417  0.33065404  0.48749297  1
  Ca2+  Ca20  1  0.57823797  0.33845005  0.82789965  1
  Ca2+  Ca21  1  0.58300078  0.82364647  0.16975439  1
  Ca2+  Ca22  1  0.58134710  0.82737110  0.48575772  1
  Ca2+  Ca23  1  0.58495654  0.82489918  0.83169177  1
  Ca2+  Ca24  1  0.32485011  0.41798881  0.18003183  1
  Ca2+  Ca25  1  0.32684348  0.41079797  0.49941740  1
  Ca2+  Ca26  1  0.32315384  0.40965871  0.83555352  1
  Ca2+  Ca27  1  0.33523153  0.92204969  0.18012001  1
  Ca2+  Ca28  1  0.33532115  0.92331121  0.50170745  1
  Ca2+  Ca29  1  0.32529874  0.91541999  0.83393545  1
  Ca2+  Ca30  1  0.82162106  0.41509420  0.17727628  1
  Ca2+  Ca31  1  0.83011966  0.41376944  0.50522690  1
  Ca2+  Ca32  1  0.83468902  0.42460614  0.83685933  1
  Ca2+  Ca33  1  0.83080152  0.91957678  0.17926542  1
  Ca2+  Ca34  1  0.83933660  0.92736129  0.50121838  1
  Ca2+  Ca35  1  0.84204163  0.92052639  0.83288780  1
  Ca2+  Ca36  1  0.42005872  0.16735691  0.17380772  1
  Ca2+  Ca37  1  0.41909646  0.17452742  0.48857855  1
  Ca2+  Ca38  1  0.42242385  0.17482205  0.82508985  1
  Ca2+  Ca39  1  0.42649176  0.65815997  0.17119769  1
  Ca2+  Ca40  1  0.42070171  0.67086322  0.48618369  1
  Ca2+  Ca41  1  0.42537938  0.66002936  0.83182676  1
  Ca2+  Ca42  1  0.91590003  0.17096248  0.17474814  1
  Ca2+  Ca43  1  0.91768729  0.17282991  0.49101230  1
  Ca2+  Ca44  1  0.91694250  0.17538695  0.82355840  1
  Ca2+  Ca45  1  0.90996377  0.68057630  0.16544700  1
  Ca2+  Ca46  1  0.91084765  0.67635616  0.49584582  1
  Ca2+  Ca47  1  0.91195496  0.67650113  0.82505298  1
  Al0+  Al48  1  0.00133476  0.00242886  -0.00387660  1
  Al0+  Al49  1  0.00009211  0.00184584  0.32766237  1
  Al0+  Al50  1  0.00030849  0.00032525  0.67190306  1
  Al0+  Al51  1  -0.00090552  0.50152318  0.00703464  1
  Al0+  Al52  1  -0.00171642  0.50144299  0.33208576  1
  Al0+  Al53  1  0.00011547  0.50135523  0.67188482  1
  Al0+  Al54  1  0.50113940  0.00104087  -0.00354636  1
  Al0+  Al55  1  0.49950848  -0.00016961  0.33576399  1
  Al0+  Al56  1  0.50158327  -0.00162710  0.67056720  1
  Al0+  Al57  1  0.49980178  0.49977678  -0.00339506  1
  Al0+  Al58  1  0.49902594  0.50012212  0.33486239  1
  Al0+  Al59  1  0.49979472  0.49996402  0.66168464  1
  Al0+  Al60  1  0.25005613  0.24821288  0.00173807  1
  Al0+  Al61  1  0.24878840  0.24784039  0.33442319  1
  Al0+  Al62  1  0.25196249  0.24909617  0.66796498  1
  Al0+  Al63  1  0.24848657  0.75017691  -0.00001741  1
  Al0+  Al64  1  0.24814361  0.74883603  0.33261068  1
  Al0+  Al65  1  0.25110677  0.74929251  0.67301628  1
  Al0+  Al66  1  0.75109548  0.25005019  0.00222746  1
  Al0+  Al67  1  0.74975042  0.24946487  0.33438247  1
  Al0+  Al68  1  0.74946678  0.24806505  0.66902001  1
  Al0+  Al69  1  0.74841930  0.75250027  -0.01008049  1
  Al0+  Al70  1  0.74800938  0.74925157  0.32794905  1
  Al0+  Al71  1  0.75021163  0.74961506  0.66650587  1
  Al0+  Al72  1  0.18059740  0.42890553  0.68013481  1
  Al0+  Al73  1  0.82268104  0.07026494  0.34795883  1
  Al0+  Al74  1  0.07027594  0.18020635  0.31901867  1
  Al0+  Al75  1  0.57179989  0.17865432  0.31933607  1
  Al0+  Al76  1  0.32089130  0.57158113  0.34871632  1
  Al0+  Al77  1  0.93049298  0.82110095  0.65065696  1
  Al0+  Al78  1  0.57058300  0.67801452  0.31877124  1
  Al0+  Al79  1  0.18006863  0.92894727  0.67956515  1
  Al0+  Al80  1  0.42589804  0.82218453  0.32071660  1
  Al0+  Al81  1  0.67928697  0.42872242  0.34758408  1
  Al0+  Al82  1  0.92696847  0.32437823  0.31857704  1
  Al0+  Al83  1  0.42976624  0.32006141  0.65244325  1
  Al0+  Al84  1  0.82019046  0.57134089  0.67959677  1
  Al0+  Al85  1  0.82065869  0.07104915  0.68175611  1
  Al0+  Al86  1  0.17717903  0.42758930  0.35009362  1
  Al0+  Al87  1  0.42840692  0.32082421  0.31747650  1
  Al0+  Al88  1  0.67957737  0.42984387  0.01296345  1
  Al0+  Al89  1  0.92942815  0.32301179  0.65567456  1
  Al0+  Al90  1  0.93062533  0.82141928  0.98353404  1
  Al0+  Al91  1  0.56794842  0.67871299  0.98350385  1
  Al0+  Al92  1  0.17843226  0.42764092  0.01549819  1
  Al0+  Al93  1  0.32131586  0.06952083  0.34685553  1
  Al0+  Al94  1  0.67866352  0.92667181  0.34733586  1
  Al0+  Al95  1  0.93032153  0.82045546  0.32067287  1
  Si0+  Si96  1  0.17639815  0.92726174  0.34712660  1
  Si0+  Si97  1  0.32192264  0.06885038  0.01410446  1
  Si0+  Si98  1  0.42926488  0.31855741  0.98515316  1
  Si0+  Si99  1  0.57276820  0.17529978  0.65047758  1
  Si0+  Si100  1  0.32439694  0.07128300  0.68544115  1
  Si0+  Si101  1  0.07250896  0.67675864  0.31626990  1
  Si0+  Si102  1  0.57336358  0.17793913  0.98374085  1
  Si0+  Si103  1  0.07250487  0.67688467  0.98269055  1
  Si0+  Si104  1  0.82018013  0.57555779  0.01689180  1
  Si0+  Si105  1  0.82240963  0.07078345  0.01567975  1
  Si0+  Si106  1  0.67735539  0.42840883  0.68202433  1
  Si0+  Si107  1  0.67782007  0.92696147  0.68565110  1
  Si0+  Si108  1  0.32189441  0.57220658  0.01576792  1
  Si0+  Si109  1  0.07214232  0.17811726  0.65146611  1
  Si0+  Si110  1  0.92789262  0.32130728  0.98579386  1
  Si0+  Si111  1  0.07265279  0.18179820  0.98256104  1
  Si0+  Si112  1  0.07409564  0.67788945  0.65095885  1
  Si0+  Si113  1  0.32377367  0.57210596  0.68487809  1
  Si0+  Si114  1  0.42792182  0.82068565  0.65371623  1
  Si0+  Si115  1  0.82159476  0.57335368  0.34814972  1
  Si0+  Si116  1  0.57069773  0.67996301  0.65054417  1
  Si0+  Si117  1  0.17836655  0.92952837  0.01506339  1
  Si0+  Si118  1  0.42690316  0.82526972  0.98183360  1
  Si0+  Si119  1  0.67881454  0.93018665  0.01375438  1
  O2-  O120  1  0.25471021  -0.00563167  0.05624231  1
  O2-  O121  1  0.24936571  -0.00895174  0.39135733  1
  O2-  O122  1  0.25511189  0.00277297  0.72920426  1
  O2-  O123  1  0.25123710  0.50538175  0.05876101  1
  O2-  O124  1  0.25041773  0.49873248  0.39919571  1
  O2-  O125  1  0.25606037  0.50238996  0.72925148  1
  O2-  O126  1  0.75123680  -0.00063744  0.05586146  1
  O2-  O127  1  0.75142623  -0.00259584  0.39758738  1
  O2-  O128  1  0.74639143  -0.00398086  0.73010661  1
  O2-  O129  1  0.75355945  0.50495460  0.06025354  1
  O2-  O130  1  0.75788288  0.50019942  0.39258282  1
  O2-  O131  1  0.74884544  0.49345333  0.72742668  1
  O2-  O132  1  0.00092217  0.25438652  0.26781910  1
  O2-  O133  1  0.00528254  0.24925417  0.60998026  1
  O2-  O134  1  0.00311780  0.25506474  0.94195382  1
  O2-  O135  1  0.00410086  0.74598641  0.27190882  1
  O2-  O136  1  0.00637821  0.74690429  0.60558783  1
  O2-  O137  1  0.00408821  0.74503000  0.93684809  1
  O2-  O138  1  0.50264264  0.25174893  0.26605496  1
  O2-  O139  1  0.50473402  0.24494604  0.60847842  1
  O2-  O140  1  0.50343367  0.25052481  0.94210603  1
  O2-  O141  1  0.49676247  0.74959847  0.27003874  1
  O2-  O142  1  0.49857459  0.75068918  0.61111810  1
  O2-  O143  1  0.49200455  0.75335414  0.93671270  1
  O2-  O144  1  0.07492281  0.17906753  0.08668724  1
  O2-  O145  1  0.06885382  0.17757343  0.43255095  1
  O2-  O146  1  0.07147004  0.17889506  0.75824348  1
  O2-  O147  1  0.07325886  0.67954492  0.08780358  1
  O2-  O148  1  0.07231201  0.67734721  0.42186363  1
  O2-  O149  1  0.07302392  0.67959046  0.75705715  1
  O2-  O150  1  0.57284190  0.17376953  0.08778991  1
  O2-  O151  1  0.56973628  0.17981704  0.43306646  1
  O2-  O152  1  0.57137836  0.17544887  0.75727327  1
  O2-  O153  1  0.56732472  0.67874158  0.09540412  1
  O2-  O154  1  0.57144226  0.67989224  0.43264612  1
  O2-  O155  1  0.56925091  0.67953488  0.75625619  1
  O2-  O156  1  0.17931428  0.43000898  0.23603232  1
  O2-  O157  1  0.17978657  0.42947013  0.56836782  1
  O2-  O158  1  0.18069593  0.42603346  0.90176413  1
  O2-  O159  1  0.17558234  0.93036353  0.24094361  1
  O2-  O160  1  0.18167579  0.92959916  0.56714480  1
  O2-  O161  1  0.17801420  0.93194701  0.90976708  1
  O2-  O162  1  0.67951581  0.43141934  0.23395427  1
  O2-  O163  1  0.67655601  0.43052977  0.57707048  1
  O2-  O164  1  0.68091540  0.43020567  0.89929327  1
  O2-  O165  1  0.68129064  0.92683559  0.23274219  1
  O2-  O166  1  0.67456900  0.92666797  0.58115797  1
  O2-  O167  1  0.67727997  0.93286272  0.90831441  1
  O2-  O168  1  0.42784599  0.31705647  0.08933110  1
  O2-  O169  1  0.42912925  0.31772096  0.43104597  1
  O2-  O170  1  0.43143439  0.31873253  0.76702493  1
  O2-  O171  1  0.42893277  0.83078345  0.08622648  1
  O2-  O172  1  0.42736903  0.82094381  0.43497793  1
  O2-  O173  1  0.42932123  0.82010092  0.75935920  1
  O2-  O174  1  0.92516912  0.31704989  0.08995048  1
  O2-  O175  1  0.92795011  0.32313733  0.43237734  1
  O2-  O176  1  0.93129111  0.32145593  0.76998194  1
  O2-  O177  1  0.93103499  0.82260073  0.09639110  1
  O2-  O178  1  0.93223099  0.82052242  0.43364481  1
  O2-  O179  1  0.93227474  0.81982294  0.76426779  1
  O2-  O180  1  0.31931802  0.06854353  0.23288034  1
  O2-  O181  1  0.32687932  0.07048602  0.58075808  1
  O2-  O182  1  0.32069228  0.06909224  0.90868898  1
  O2-  O183  1  0.31835384  0.57051673  0.23449285  1
  O2-  O184  1  0.32317768  0.57524918  0.58032458  1
  O2-  O185  1  0.32233811  0.57030115  0.90967833  1
  O2-  O186  1  0.82239962  0.06675665  0.23354803  1
  O2-  O187  1  0.82152486  0.07109590  0.56988611  1
  O2-  O188  1  0.82139053  0.07170216  0.91019456  1
  O2-  O189  1  0.81959433  0.57526710  0.24229332  1
  O2-  O190  1  0.81649833  0.57446679  0.56725908  1
  O2-  O191  1  0.82020135  0.57380381  0.91088670  1
  O2-  O192  1  0.04077477  0.08408349  0.26064484  1
  O2-  O193  1  0.04503651  0.08484843  0.60782018  1
  O2-  O194  1  0.04215281  0.09098258  0.93363991  1
  O2-  O195  1  0.04644758  0.58452092  0.26824190  1
  O2-  O196  1  0.04783901  0.58447791  0.60676809  1
  O2-  O197  1  0.04654404  0.58185042  0.93855753  1
  O2-  O198  1  0.54007267  0.08129507  0.26595494  1
  O2-  O199  1  0.54703262  0.08074652  0.60739538  1
  O2-  O200  1  0.54353670  0.08788947  0.93250107  1
  O2-  O201  1  0.53984629  0.58101277  0.26470458  1
  O2-  O202  1  0.54456443  0.58814320  0.60361170  1
  O2-  O203  1  0.53704589  0.58253775  0.92642946  1
  O2-  O204  1  0.16833426  0.20644097  0.26415658  1
  O2-  O205  1  0.16772587  0.19894828  0.60892203  1
  O2-  O206  1  0.16495920  0.20718975  0.93364106  1
  O2-  O207  1  0.16523174  0.70111787  0.26811458  1
  O2-  O208  1  0.16910065  0.70281476  0.60799310  1
  O2-  O209  1  0.16674235  0.70106118  0.93589065  1
  O2-  O210  1  0.67037303  0.20353051  0.26601260  1
  O2-  O211  1  0.66701355  0.19844448  0.60681112  1
  O2-  O212  1  0.66568868  0.20597474  0.93642423  1
  O2-  O213  1  0.66670980  0.70645182  0.26117045  1
  O2-  O214  1  0.66166723  0.70917504  0.60445068  1
  O2-  O215  1  0.66279350  0.71187214  0.92634618  1
  O2-  O216  1  0.08093911  0.45509060  0.06893879  1
  O2-  O217  1  0.07796320  0.45842158  0.40009695  1
  O2-  O218  1  0.08541171  0.46093189  0.73752782  1
  O2-  O219  1  0.08834812  0.96387580  0.06173810  1
  O2-  O220  1  0.08567350  0.95994815  0.39392473  1
  O2-  O221  1  0.08612790  0.96218365  0.73819716  1
  O2-  O222  1  0.58130494  0.45917777  0.06361431  1
  O2-  O223  1  0.58405136  0.46143611  0.40181084  1
  O2-  O224  1  0.58473488  0.45924398  0.72881198  1
  O2-  O225  1  0.58674412  0.95910690  0.05955137  1
  O2-  O226  1  0.58135574  0.95508221  0.40113187  1
  O2-  O227  1  0.58451706  0.95212358  0.73517511  1
  O2-  O228  1  0.21168480  0.33099411  0.06717085  1
  O2-  O229  1  0.20418671  0.32890319  0.40099250  1
  O2-  O230  1  0.21157606  0.33170586  0.73557085  1
  O2-  O231  1  0.19818412  0.83495408  0.06000652  1
  O2-  O232  1  0.19349881  0.83190844  0.39146172  1
  O2-  O233  1  0.21087387  0.83356163  0.73831995  1
  O2-  O234  1  0.70958423  0.33268297  0.06606724  1
  O2-  O235  1  0.70650444  0.33186197  0.40154127  1
  O2-  O236  1  0.69665829  0.33302173  0.72724803  1
  O2-  O237  1  0.70505960  0.83653315  0.05675084  1
  O2-  O238  1  0.70531231  0.82728627  0.39808732  1
  O2-  O239  1  0.70527420  0.83408474  0.73251898  1
  O2-  O240  1  0.45469031  0.41978271  0.26615174  1
  O2-  O241  1  0.45815484  0.41686992  0.59898620  1
  O2-  O242  1  0.45426600  0.41056658  0.93657584  1
  O2-  O243  1  0.45516424  0.91963309  0.26737174  1
  O2-  O244  1  0.45421616  0.91420202  0.60945518  1
  O2-  O245  1  0.45602317  0.91696985  0.93173689  1
  O2-  O246  1  0.95050859  0.42372282  0.26494123  1
  O2-  O247  1  0.95695127  0.42091423  0.60417846  1
  O2-  O248  1  0.95059243  0.41709961  0.94355624  1
  O2-  O249  1  0.96237894  0.91488063  0.26349977  1
  O2-  O250  1  0.96312525  0.91889311  0.60147056  1
  O2-  O251  1  0.96494077  0.91808454  0.93016027  1
  O2-  O252  1  0.33115335  0.28836149  0.26548975  1
  O2-  O253  1  0.33315501  0.28833389  0.60043663  1
  O2-  O254  1  0.33895839  0.28512039  0.93653837  1
  O2-  O255  1  0.32617849  0.79854746  0.26743416  1
  O2-  O256  1  0.33537419  0.79450265  0.60851417  1
  O2-  O257  1  0.33085604  0.80225998  0.93823725  1
  O2-  O258  1  0.83042105  0.29167102  0.26462546  1
  O2-  O259  1  0.83141958  0.29225426  0.60542349  1
  O2-  O260  1  0.83800022  0.28939166  0.93587952  1
  O2-  O261  1  0.83489610  0.78892320  0.26485826  1
  O2-  O262  1  0.83282535  0.79004135  0.60037525  1
  O2-  O263  1  0.83380710  0.79443979  0.92779814  1
  O2-  O264  1  0.41575216  0.04488451  0.05905475  1
  O2-  O265  1  0.41639171  0.04111057  0.40379774  1
  O2-  O266  1  0.41719572  0.04437140  0.73439259  1
  O2-  O267  1  0.41498289  0.54400313  0.05992939  1
  O2-  O268  1  0.41930423  0.54639578  0.40167722  1
  O2-  O269  1  0.41810078  0.54481508  0.72988018  1
  O2-  O270  1  0.91532811  0.04321081  0.06006978  1
  O2-  O271  1  0.92102570  0.04003138  0.39950994  1
  O2-  O272  1  0.91636396  0.04068010  0.73879160  1
  O2-  O273  1  0.91459221  0.55511790  0.06293193  1
  O2-  O274  1  0.91686264  0.55561507  0.39300570  1
  O2-  O275  1  0.91660881  0.54518211  0.73728650  1
  O2-  O276  1  0.29045820  0.15886856  0.06147375  1
  O2-  O277  1  0.28720841  0.16339149  0.40263198  1
  O2-  O278  1  0.29759192  0.16390377  0.73339317  1
  O2-  O279  1  0.30025591  0.66790701  0.05934449  1
  O2-  O280  1  0.29176061  0.67044047  0.40162303  1
  O2-  O281  1  0.29989540  0.66483506  0.73462297  1
  O2-  O282  1  0.79495170  0.16251661  0.06204097  1
  O2-  O283  1  0.79470060  0.16814620  0.40043433  1
  O2-  O284  1  0.78810823  0.16659910  0.73997839  1
  O2-  O285  1  0.79137524  0.67013284  0.05854175  1
  O2-  O286  1  0.79004425  0.66464136  0.39508313  1
  O2-  O287  1  0.78529443  0.66631190  0.73625463  1
