# generated using pymatgen
data_Ca2Al2SiO7
_symmetry_space_group_name_H-M   'P 1'
_cell_length_a   15.45940503
_cell_length_b   15.45877575
_cell_length_c   15.28443294
_cell_angle_alpha   90.00682240
_cell_angle_beta   89.99458584
_cell_angle_gamma   90.01204795
_symmetry_Int_Tables_number   1
_chemical_formula_structural   Ca2Al2SiO7
_chemical_formula_sum   'Ca48 Al48 Si24 O168'
_cell_volume   3652.72678398
_cell_formula_units_Z   24
loop_
 _symmetry_equiv_pos_site_id
 _symmetry_equiv_pos_as_xyz
  1  'x, y, z'
loop_
 _atom_type_symbol
 _atom_type_oxidation_number
  Ca2+  2.0
  Al0+  0.0
  Si0+  0.0
  O2-  -2.0
loop_
 _atom_site_type_symbol
 _atom_site_label
 _atom_site_symmetry_multiplicity
 _atom_site_fract_x
 _atom_site_fract_y
 _atom_site_fract_z
 _atom_site_occupancy
  Ca2+  Ca0  1  0.16930831  0.08435649  0.16764847  1
  Ca2+  Ca1  1  0.17053262  0.08786770  0.50357065  1
  Ca2+  Ca2  1  0.17810065  0.08097630  0.83754697  1
  Ca2+  Ca3  1  0.17411360  0.58719385  0.16798622  1
  Ca2+  Ca4  1  0.17393525  0.57754179  0.51190005  1
  Ca2+  Ca5  1  0.17712492  0.57775148  0.83411784  1
  Ca2+  Ca6  1  0.67764338  0.07428416  0.17299949  1
  Ca2+  Ca7  1  0.66710418  0.07155866  0.50364079  1
  Ca2+  Ca8  1  0.66630086  0.07305064  0.83791186  1
  Ca2+  Ca9  1  0.65997731  0.57233620  0.17206150  1
  Ca2+  Ca10  1  0.66550752  0.58209295  0.50445907  1
  Ca2+  Ca11  1  0.66932640  0.58049630  0.83202760  1
  Ca2+  Ca12  1  0.07543704  0.32686459  0.16795704  1
  Ca2+  Ca13  1  0.07406737  0.33396595  0.49526352  1
  Ca2+  Ca14  1  0.07857775  0.33378969  0.82301528  1
  Ca2+  Ca15  1  0.07745329  0.84158747  0.16343932  1
  Ca2+  Ca16  1  0.06852193  0.83625623  0.49534039  1
  Ca2+  Ca17  1  0.07775226  0.83709339  0.82992758  1
  Ca2+  Ca18  1  0.58912571  0.33521594  0.16163570  1
  Ca2+  Ca19  1  0.58119968  0.33029849  0.49819317  1
  Ca2+  Ca20  1  0.57977084  0.32451147  0.82381035  1
  Ca2+  Ca21  1  0.58609987  0.83483256  0.16785593  1
  Ca2+  Ca22  1  0.58696969  0.82363520  0.49358661  1
  Ca2+  Ca23  1  0.58804122  0.82999565  0.82343915  1
  Ca2+  Ca24  1  0.33689956  0.42617814  0.17007304  1
  Ca2+  Ca25  1  0.32718602  0.41891042  0.51316548  1
  Ca2+  Ca26  1  0.33875430  0.42380012  0.82979025  1
  Ca2+  Ca27  1  0.33022035  0.91718631  0.16916847  1
  Ca2+  Ca28  1  0.33592146  0.91968653  0.50496593  1
  Ca2+  Ca29  1  0.33228983  0.93038214  0.83935242  1
  Ca2+  Ca30  1  0.82241925  0.41420293  0.17436695  1
  Ca2+  Ca31  1  0.83363806  0.41892114  0.50475609  1
  Ca2+  Ca32  1  0.83043246  0.41995624  0.83471901  1
  Ca2+  Ca33  1  0.82698953  0.92355294  0.17501957  1
  Ca2+  Ca34  1  0.82716877  0.91298303  0.50445247  1
  Ca2+  Ca35  1  0.82269399  0.91825694  0.83670793  1
  Ca2+  Ca36  1  0.41839898  0.16754325  0.16113127  1
  Ca2+  Ca37  1  0.42067546  0.16615019  0.50399491  1
  Ca2+  Ca38  1  0.41991600  0.16629464  0.82181510  1
  Ca2+  Ca39  1  0.42034849  0.67157225  0.16547659  1
  Ca2+  Ca40  1  0.42652440  0.66832472  0.49394455  1
  Ca2+  Ca41  1  0.42095457  0.66412884  0.82658141  1
  Ca2+  Ca42  1  0.91199507  0.16292817  0.16680061  1
  Ca2+  Ca43  1  0.91894756  0.17665020  0.48927721  1
  Ca2+  Ca44  1  0.91450441  0.17096287  0.82745735  1
  Ca2+  Ca45  1  0.91321864  0.67595756  0.16638059  1
  Ca2+  Ca46  1  0.90790220  0.67652961  0.49958638  1
  Ca2+  Ca47  1  0.91447852  0.67274300  0.82111677  1
  Al0+  Al48  1  0.00072171  0.00173978  0.00155272  1
  Al0+  Al49  1  0.00270521  0.00105512  0.32920328  1
  Al0+  Al50  1  -0.00145882  0.00055612  0.66247963  1
  Al0+  Al51  1  0.00115134  0.50118649  -0.00035229  1
  Al0+  Al52  1  0.00070274  0.49867074  0.32715612  1
  Al0+  Al53  1  0.00008454  0.50075077  0.67112336  1
  Al0+  Al54  1  0.49934563  -0.00031667  0.00624463  1
  Al0+  Al55  1  0.49952588  0.00070270  0.33264965  1
  Al0+  Al56  1  0.49999526  -0.00137541  0.67065755  1
  Al0+  Al57  1  0.49941763  0.50112895  0.00564030  1
  Al0+  Al58  1  0.50025434  0.50049688  0.33479641  1
  Al0+  Al59  1  0.50029214  0.49857689  0.66268707  1
  Al0+  Al60  1  0.24814691  0.25230212  0.00166601  1
  Al0+  Al61  1  0.24955345  0.25125690  0.32880185  1
  Al0+  Al62  1  0.25004540  0.24931318  0.67191906  1
  Al0+  Al63  1  0.25011300  0.74950677  0.00529736  1
  Al0+  Al64  1  0.25192820  0.75180057  0.33276107  1
  Al0+  Al65  1  0.24877590  0.74972600  0.67113390  1
  Al0+  Al66  1  0.74886297  0.25062810  0.00346937  1
  Al0+  Al67  1  0.74866775  0.25042231  0.33812189  1
  Al0+  Al68  1  0.75066920  0.24794282  0.65731567  1
  Al0+  Al69  1  0.74973212  0.74873526  0.00138583  1
  Al0+  Al70  1  0.75027035  0.74729883  0.32484411  1
  Al0+  Al71  1  0.74897499  0.74904818  0.66732792  1
  Al0+  Al72  1  0.81897195  0.57024965  0.67844343  1
  Al0+  Al73  1  0.92629532  0.32140341  0.31590540  1
  Al0+  Al74  1  0.67787683  0.42926081  0.34989000  1
  Al0+  Al75  1  0.56991572  0.67912494  0.65467524  1
  Al0+  Al76  1  0.92918783  0.32292374  0.65395743  1
  Al0+  Al77  1  0.32425085  0.57229758  0.68053001  1
  Al0+  Al78  1  0.92960339  0.82017947  0.31811254  1
  Al0+  Al79  1  0.17997272  0.92984631  0.01501788  1
  Al0+  Al80  1  0.07235816  0.17971474  0.31679660  1
  Al0+  Al81  1  0.67822463  0.92550886  0.01601388  1
  Al0+  Al82  1  0.68105464  0.43164639  0.01044205  1
  Al0+  Al83  1  0.82376935  0.07005672  0.35123780  1
  Al0+  Al84  1  0.17823249  0.42827478  0.68140982  1
  Al0+  Al85  1  0.92941449  0.82061095  0.65481419  1
  Al0+  Al86  1  0.42875651  0.82297486  0.31748827  1
  Al0+  Al87  1  0.82007165  0.07162571  0.01295392  1
  Al0+  Al88  1  0.68076681  0.92879031  0.67926090  1
  Al0+  Al89  1  0.57198310  0.17472957  0.65113754  1
  Al0+  Al90  1  0.32143423  0.07411453  0.01674887  1
  Al0+  Al91  1  0.32020387  0.06881226  0.67849382  1
  Al0+  Al92  1  0.42870523  0.31968268  0.65239863  1
  Al0+  Al93  1  0.32033316  0.56918265  0.01557632  1
  Al0+  Al94  1  0.57098099  0.67774850  0.31542014  1
  Al0+  Al95  1  0.67942322  0.92732750  0.35014132  1
  Si0+  Si96  1  0.18004847  0.42932603  0.34671814  1
  Si0+  Si97  1  0.67826846  0.42460349  0.68152082  1
  Si0+  Si98  1  0.07143231  0.17963723  0.98222661  1
  Si0+  Si99  1  0.07316304  0.67824578  0.65194699  1
  Si0+  Si100  1  0.82499704  0.57254601  0.01684497  1
  Si0+  Si101  1  0.42911249  0.32075069  0.31757343  1
  Si0+  Si102  1  0.17444770  0.42845510  0.01989792  1
  Si0+  Si103  1  0.56984533  0.67815294  0.98375701  1
  Si0+  Si104  1  0.07185926  0.17818252  0.65183210  1
  Si0+  Si105  1  0.17395487  0.92774016  0.68143413  1
  Si0+  Si106  1  0.31988176  0.57184630  0.34948643  1
  Si0+  Si107  1  0.56985213  0.17937581  0.98708204  1
  Si0+  Si108  1  0.92925979  0.82081405  0.98392759  1
  Si0+  Si109  1  0.57013694  0.17918849  0.31719628  1
  Si0+  Si110  1  0.32058738  0.07375818  0.34900419  1
  Si0+  Si111  1  0.18014946  0.92853909  0.34977255  1
  Si0+  Si112  1  0.82339157  0.07320505  0.68132610  1
  Si0+  Si113  1  0.92784162  0.32118337  0.98443298  1
  Si0+  Si114  1  0.07430751  0.67788828  0.31696667  1
  Si0+  Si115  1  0.42565586  0.82198021  0.65394510  1
  Si0+  Si116  1  0.42845109  0.32299097  0.98636823  1
  Si0+  Si117  1  0.07265594  0.67879315  0.98362191  1
  Si0+  Si118  1  0.42806568  0.82078288  0.98449252  1
  Si0+  Si119  1  0.82458717  0.57029495  0.34820384  1
  O2-  O120  1  0.25093124  0.00144326  0.06767925  1
  O2-  O121  1  0.25092638  0.00069704  0.39061488  1
  O2-  O122  1  0.24568042  -0.00639619  0.72457322  1
  O2-  O123  1  0.24547602  0.49500617  0.06373905  1
  O2-  O124  1  0.24712115  0.50278607  0.39044478  1
  O2-  O125  1  0.25263888  0.49911284  0.73004030  1
  O2-  O126  1  0.75137301  -0.00285383  0.06347379  1
  O2-  O127  1  0.75409311  -0.00413932  0.40153956  1
  O2-  O128  1  0.75324160  0.00612599  0.72543450  1
  O2-  O129  1  0.75647073  0.50378433  0.06001838  1
  O2-  O130  1  0.75557403  0.50237382  0.39286874  1
  O2-  O131  1  0.74761012  0.49258191  0.72605916  1
  O2-  O132  1  -0.00528460  0.24561492  0.26584096  1
  O2-  O133  1  0.00377732  0.24753720  0.60850852  1
  O2-  O134  1  -0.00024872  0.25113004  0.94142058  1
  O2-  O135  1  0.00527852  0.74553784  0.27140263  1
  O2-  O136  1  0.00613059  0.74796806  0.60733741  1
  O2-  O137  1  -0.00052665  0.74817561  0.94179642  1
  O2-  O138  1  0.50114655  0.25211488  0.27379193  1
  O2-  O139  1  0.50171564  0.24939749  0.60133256  1
  O2-  O140  1  0.49451117  0.24677609  0.94527749  1
  O2-  O141  1  0.50206641  0.75314406  0.26566147  1
  O2-  O142  1  0.49063946  0.75001942  0.61005902  1
  O2-  O143  1  0.50323219  0.75382194  0.94206165  1
  O2-  O144  1  0.07304527  0.18091569  0.08681991  1
  O2-  O145  1  0.07818311  0.18599781  0.43024752  1
  O2-  O146  1  0.06978325  0.17684782  0.75785697  1
  O2-  O147  1  0.07154391  0.67783333  0.08872437  1
  O2-  O148  1  0.07617429  0.67860883  0.42241404  1
  O2-  O149  1  0.07261944  0.67971186  0.75786681  1
  O2-  O150  1  0.57034876  0.18289893  0.09225052  1
  O2-  O151  1  0.56615106  0.17814599  0.42196107  1
  O2-  O152  1  0.57096300  0.17550901  0.76570670  1
  O2-  O153  1  0.56731870  0.67532460  0.08834041  1
  O2-  O154  1  0.56790377  0.67593921  0.42905090  1
  O2-  O155  1  0.57087101  0.68068623  0.76853718  1
  O2-  O156  1  0.18361542  0.43009295  0.24149499  1
  O2-  O157  1  0.17797420  0.43072856  0.56724337  1
  O2-  O158  1  0.17109217  0.43000429  0.91472933  1
  O2-  O159  1  0.18155009  0.92673965  0.24490486  1
  O2-  O160  1  0.17265226  0.92837656  0.57583354  1
  O2-  O161  1  0.18068352  0.93156763  0.90105595  1
  O2-  O162  1  0.67655638  0.43110545  0.23617065  1
  O2-  O163  1  0.67868133  0.42647223  0.57624442  1
  O2-  O164  1  0.68172351  0.43166794  0.89743144  1
  O2-  O165  1  0.67992172  0.93140433  0.23658628  1
  O2-  O166  1  0.68164008  0.92629271  0.56677559  1
  O2-  O167  1  0.67954243  0.92459808  0.90201478  1
  O2-  O168  1  0.43090838  0.32421578  0.09189981  1
  O2-  O169  1  0.42614792  0.31927189  0.42216082  1
  O2-  O170  1  0.43147884  0.31909115  0.76669901  1
  O2-  O171  1  0.42666413  0.81831170  0.08924777  1
  O2-  O172  1  0.42412562  0.81937796  0.43114629  1
  O2-  O173  1  0.42706323  0.82284547  0.75992903  1
  O2-  O174  1  0.92844695  0.32141463  0.08902083  1
  O2-  O175  1  0.93210780  0.32557877  0.42922749  1
  O2-  O176  1  0.92893200  0.32071105  0.76801386  1
  O2-  O177  1  0.93046514  0.81912476  0.08887684  1
  O2-  O178  1  0.93028959  0.81808770  0.43135310  1
  O2-  O179  1  0.93100713  0.82018812  0.76836902  1
  O2-  O180  1  0.31909776  0.07579771  0.24404880  1
  O2-  O181  1  0.31848949  0.06783220  0.56503173  1
  O2-  O182  1  0.32089220  0.07381127  0.90313863  1
  O2-  O183  1  0.31904548  0.57025120  0.24397742  1
  O2-  O184  1  0.32071421  0.57275128  0.56674991  1
  O2-  O185  1  0.32158159  0.56737321  0.90298752  1
  O2-  O186  1  0.82010880  0.06846628  0.23736039  1
  O2-  O187  1  0.82638910  0.07074468  0.57644495  1
  O2-  O188  1  0.81776467  0.07307497  0.89898324  1
  O2-  O189  1  0.82587237  0.56820137  0.24221840  1
  O2-  O190  1  0.81757922  0.57176053  0.56563921  1
  O2-  O191  1  0.82557889  0.57300684  0.91112293  1
  O2-  O192  1  0.05269436  0.07955885  0.26416538  1
  O2-  O193  1  0.04778973  0.08525754  0.60358702  1
  O2-  O194  1  0.04476244  0.08753249  0.93456509  1
  O2-  O195  1  0.05121635  0.58441816  0.26893791  1
  O2-  O196  1  0.04705542  0.58508841  0.60643397  1
  O2-  O197  1  0.04712690  0.58592125  0.93636228  1
  O2-  O198  1  0.53968202  0.08919577  0.26814496  1
  O2-  O199  1  0.53745872  0.07806047  0.59822800  1
  O2-  O200  1  0.54527096  0.08556545  0.94169739  1
  O2-  O201  1  0.53515230  0.58049694  0.26260753  1
  O2-  O202  1  0.54458742  0.58200997  0.59988569  1
  O2-  O203  1  0.53660531  0.58755054  0.93678410  1
  O2-  O204  1  0.16793407  0.21543241  0.25992614  1
  O2-  O205  1  0.16604098  0.20250578  0.60754438  1
  O2-  O206  1  0.16334195  0.20906023  0.93475871  1
  O2-  O207  1  0.16728242  0.70521522  0.27027966  1
  O2-  O208  1  0.16742090  0.70146725  0.60556897  1
  O2-  O209  1  0.16434159  0.70828290  0.93689662  1
  O2-  O210  1  0.66233226  0.20674206  0.27148650  1
  O2-  O211  1  0.66968438  0.19913490  0.59614203  1
  O2-  O212  1  0.66004441  0.21134628  0.93878563  1
  O2-  O213  1  0.67010858  0.69813482  0.26097020  1
  O2-  O214  1  0.66417561  0.71354137  0.59958595  1
  O2-  O215  1  0.66458200  0.70065079  0.93871631  1
  O2-  O216  1  0.08233235  0.45748378  0.06762670  1
  O2-  O217  1  0.08634562  0.45416068  0.39123820  1
  O2-  O218  1  0.08231608  0.45948158  0.73799180  1
  O2-  O219  1  0.08171065  0.95855718  0.06728610  1
  O2-  O220  1  0.08845260  0.95620603  0.39658874  1
  O2-  O221  1  0.08195976  0.95708802  0.72934746  1
  O2-  O222  1  0.58606700  0.46287709  0.06742861  1
  O2-  O223  1  0.58129958  0.46142422  0.40351720  1
  O2-  O224  1  0.58480708  0.45070266  0.72698982  1
  O2-  O225  1  0.58011662  0.95284093  0.06819576  1
  O2-  O226  1  0.57998413  0.95847735  0.40017510  1
  O2-  O227  1  0.58423705  0.95691974  0.73483646  1
  O2-  O228  1  0.19821918  0.33439123  0.06454966  1
  O2-  O229  1  0.21170905  0.33884180  0.39379141  1
  O2-  O230  1  0.20412098  0.33052925  0.73661098  1
  O2-  O231  1  0.20631155  0.83168052  0.06905510  1
  O2-  O232  1  0.20820283  0.83708277  0.39817832  1
  O2-  O233  1  0.19439804  0.83331001  0.72778161  1
  O2-  O234  1  0.70971976  0.33599899  0.06687706  1
  O2-  O235  1  0.70371073  0.33214381  0.40359264  1
  O2-  O236  1  0.70386316  0.32994680  0.72562861  1
  O2-  O237  1  0.70565603  0.82661090  0.06803023  1
  O2-  O238  1  0.70574118  0.82485221  0.39526985  1
  O2-  O239  1  0.71500915  0.83458282  0.73562922  1
  O2-  O240  1  0.45622345  0.41328175  0.27107381  1
  O2-  O241  1  0.45393453  0.41784003  0.59780821  1
  O2-  O242  1  0.46157034  0.41333114  0.93933391  1
  O2-  O243  1  0.45262614  0.92289000  0.26502769  1
  O2-  O244  1  0.45333518  0.91401260  0.60711618  1
  O2-  O245  1  0.45176321  0.91546691  0.94018686  1
  O2-  O246  1  0.95923073  0.41789328  0.25977503  1
  O2-  O247  1  0.96078342  0.41982525  0.60120182  1
  O2-  O248  1  0.95543619  0.41450434  0.93878337  1
  O2-  O249  1  0.96316627  0.91556563  0.26402597  1
  O2-  O250  1  0.95858392  0.91650059  0.59837572  1
  O2-  O251  1  0.95826117  0.91285896  0.93756458  1
  O2-  O252  1  0.33882216  0.29249363  0.26718130  1
  O2-  O253  1  0.32948206  0.29032104  0.60120193  1
  O2-  O254  1  0.33362377  0.30234905  0.94193270  1
  O2-  O255  1  0.33103483  0.79135762  0.26315877  1
  O2-  O256  1  0.32981170  0.80193099  0.60936815  1
  O2-  O257  1  0.33699144  0.78908621  0.93793974  1
  O2-  O258  1  0.82552369  0.29570130  0.26661661  1
  O2-  O259  1  0.83394034  0.29504968  0.59719312  1
  O2-  O260  1  0.83595574  0.29281171  0.93727416  1
  O2-  O261  1  0.83568881  0.78826344  0.26002398  1
  O2-  O262  1  0.83526581  0.78455104  0.60077319  1
  O2-  O263  1  0.83676810  0.79219672  0.93757654  1
  O2-  O264  1  0.41940132  0.04737968  0.07011129  1
  O2-  O265  1  0.41268096  0.04725032  0.39548294  1
  O2-  O266  1  0.41489198  0.03781004  0.73606784  1
  O2-  O267  1  0.41465348  0.53665957  0.07276686  1
  O2-  O268  1  0.41067202  0.54115941  0.39547888  1
  O2-  O269  1  0.42226838  0.54190573  0.73394487  1
  O2-  O270  1  0.91973460  0.04765514  0.06397846  1
  O2-  O271  1  0.92609203  0.04765263  0.39851692  1
  O2-  O272  1  0.91667220  0.04663887  0.72858170  1
  O2-  O273  1  0.91893098  0.54902114  0.06264961  1
  O2-  O274  1  0.91909747  0.54550571  0.39328891  1
  O2-  O275  1  0.91586615  0.54450314  0.73471986  1
  O2-  O276  1  0.29274029  0.17330840  0.06850535  1
  O2-  O277  1  0.28989633  0.16536546  0.39540163  1
  O2-  O278  1  0.29061099  0.16390460  0.73560118  1
  O2-  O279  1  0.28809019  0.66435269  0.07080932  1
  O2-  O280  1  0.29378054  0.66427725  0.39564279  1
  O2-  O281  1  0.29529464  0.66999192  0.73590204  1
  O2-  O282  1  0.78982609  0.16842622  0.06786840  1
  O2-  O283  1  0.79408286  0.16874733  0.40174893  1
  O2-  O284  1  0.79944029  0.16811550  0.72551388  1
  O2-  O285  1  0.79889955  0.66558890  0.06272994  1
  O2-  O286  1  0.79910116  0.66493738  0.39089655  1
  O2-  O287  1  0.78492022  0.66400367  0.73635471  1
