# generated using pymatgen
data_Ca2Al2SiO7
_symmetry_space_group_name_H-M   'P 1'
_cell_length_a   15.45410813
_cell_length_b   15.45437995
_cell_length_c   15.28088592
_cell_angle_alpha   90.00517962
_cell_angle_beta   89.99599694
_cell_angle_gamma   90.00676580
_symmetry_Int_Tables_number   1
_chemical_formula_structural   Ca2Al2SiO7
_chemical_formula_sum   'Ca48 Al48 Si24 O168'
_cell_volume   3649.58984246
_cell_formula_units_Z   24
loop_
 _symmetry_equiv_pos_site_id
 _symmetry_equiv_pos_as_xyz
  1  'x, y, z'
loop_
 _atom_type_symbol
 _atom_type_oxidation_number
  Ca2+  2.0
  Al0+  0.0
  Si0+  0.0
  O2-  -2.0
loop_
 _atom_site_type_symbol
 _atom_site_label
 _atom_site_symmetry_multiplicity
 _atom_site_fract_x
 _atom_site_fract_y
 _atom_site_fract_z
 _atom_site_occupancy
  Ca2+  Ca0  1  0.17283796  0.07963982  0.17288361  1
  Ca2+  Ca1  1  0.17782160  0.08111152  0.50768101  1
  Ca2+  Ca2  1  0.17098103  0.07915754  0.83194601  1
  Ca2+  Ca3  1  0.16295513  0.57769855  0.17342634  1
  Ca2+  Ca4  1  0.16624191  0.57662739  0.49802783  1
  Ca2+  Ca5  1  0.16272848  0.57357148  0.83892482  1
  Ca2+  Ca6  1  0.66776065  0.08308207  0.16096329  1
  Ca2+  Ca7  1  0.66819160  0.07700249  0.50643401  1
  Ca2+  Ca8  1  0.67005994  0.07350323  0.84330098  1
  Ca2+  Ca9  1  0.67773843  0.58839005  0.16562425  1
  Ca2+  Ca10  1  0.67448872  0.58263061  0.50087595  1
  Ca2+  Ca11  1  0.67143577  0.57839234  0.84549832  1
  Ca2+  Ca12  1  0.08078362  0.34252923  0.16647212  1
  Ca2+  Ca13  1  0.07805245  0.34350557  0.49663294  1
  Ca2+  Ca14  1  0.08026939  0.33728506  0.82751485  1
  Ca2+  Ca15  1  0.07967539  0.81697014  0.15629006  1
  Ca2+  Ca16  1  0.08294566  0.83132351  0.49627641  1
  Ca2+  Ca17  1  0.07339639  0.83092422  0.82678973  1
  Ca2+  Ca18  1  0.57622983  0.33381527  0.15792690  1
  Ca2+  Ca19  1  0.56692074  0.33391566  0.49399528  1
  Ca2+  Ca20  1  0.58385052  0.32736871  0.82870767  1
  Ca2+  Ca21  1  0.58245334  0.82809005  0.15703807  1
  Ca2+  Ca22  1  0.57870487  0.83825510  0.50310058  1
  Ca2+  Ca23  1  0.58833594  0.83074078  0.82917805  1
  Ca2+  Ca24  1  0.32294933  0.42159556  0.17694593  1
  Ca2+  Ca25  1  0.32471199  0.41337967  0.50519274  1
  Ca2+  Ca26  1  0.32274547  0.40948503  0.83583378  1
  Ca2+  Ca27  1  0.33442453  0.92339025  0.17356536  1
  Ca2+  Ca28  1  0.33092894  0.92679910  0.51189153  1
  Ca2+  Ca29  1  0.33386013  0.91617997  0.82959072  1
  Ca2+  Ca30  1  0.83093020  0.42695763  0.17099360  1
  Ca2+  Ca31  1  0.84468817  0.42220063  0.50138101  1
  Ca2+  Ca32  1  0.82979965  0.42163905  0.84417071  1
  Ca2+  Ca33  1  0.83131027  0.91367736  0.16201584  1
  Ca2+  Ca34  1  0.82839614  0.91492726  0.51004644  1
  Ca2+  Ca35  1  0.82854314  0.91531593  0.84235142  1
  Ca2+  Ca36  1  0.41876174  0.17142108  0.16378983  1
  Ca2+  Ca37  1  0.40672603  0.17337668  0.49739916  1
  Ca2+  Ca38  1  0.42261515  0.16824646  0.82761991  1
  Ca2+  Ca39  1  0.42130652  0.66288124  0.16079612  1
  Ca2+  Ca40  1  0.41092048  0.67218920  0.49577982  1
  Ca2+  Ca41  1  0.42593257  0.67073240  0.82898352  1
  Ca2+  Ca42  1  0.91318923  0.17245862  0.16179737  1
  Ca2+  Ca43  1  0.91905140  0.18029803  0.49531193  1
  Ca2+  Ca44  1  0.91454395  0.17138338  0.82848697  1
  Ca2+  Ca45  1  0.92329954  0.66258591  0.15954743  1
  Ca2+  Ca46  1  0.92334043  0.67058635  0.49357300  1
  Ca2+  Ca47  1  0.91496079  0.67390883  0.83452964  1
  Al0+  Al48  1  0.00101942  0.00131829  0.00137366  1
  Al0+  Al49  1  -0.00325466  0.00123275  0.33346039  1
  Al0+  Al50  1  0.00096792  0.00071349  0.66379402  1
  Al0+  Al51  1  0.00043799  0.49937156  0.00261751  1
  Al0+  Al52  1  -0.00162685  0.50172774  0.33306974  1
  Al0+  Al53  1  0.00152464  0.50158856  0.66802125  1
  Al0+  Al54  1  0.50011850  0.00288652  0.00036365  1
  Al0+  Al55  1  0.50015627  0.00004783  0.33704574  1
  Al0+  Al56  1  0.50270430  -0.00211273  0.67103534  1
  Al0+  Al57  1  0.49659158  0.50074250  -0.00403425  1
  Al0+  Al58  1  0.50014613  0.50090612  0.33149978  1
  Al0+  Al59  1  0.50209888  0.49867985  0.66168813  1
  Al0+  Al60  1  0.24770524  0.25003222  0.00464875  1
  Al0+  Al61  1  0.24898909  0.24889265  0.33563105  1
  Al0+  Al62  1  0.25085895  0.24960617  0.67292524  1
  Al0+  Al63  1  0.24937811  0.74940578  -0.00570284  1
  Al0+  Al64  1  0.24890693  0.74946645  0.33043544  1
  Al0+  Al65  1  0.25230447  0.74921728  0.66674727  1
  Al0+  Al66  1  0.74752170  0.24876662  0.00257801  1
  Al0+  Al67  1  0.74885683  0.24866193  0.33011882  1
  Al0+  Al68  1  0.75070385  0.25101586  0.65923230  1
  Al0+  Al69  1  0.74873730  0.74987157  0.00079058  1
  Al0+  Al70  1  0.74857990  0.74982384  0.33909434  1
  Al0+  Al71  1  0.75249561  0.74904904  0.66512968  1
  Al0+  Al72  1  0.17975771  0.42928732  0.01538434  1
  Al0+  Al73  1  0.57064672  0.18060648  0.98552325  1
  Al0+  Al74  1  0.92949271  0.32105753  0.31728990  1
  Al0+  Al75  1  0.43072287  0.81978603  0.65291104  1
  Al0+  Al76  1  0.32069192  0.06927427  0.34691156  1
  Al0+  Al77  1  0.06969944  0.68179914  0.31979101  1
  Al0+  Al78  1  0.92999902  0.82177130  0.98571615  1
  Al0+  Al79  1  0.81958155  0.57000667  0.34911812  1
  Al0+  Al80  1  0.32190366  0.07118305  0.68478231  1
  Al0+  Al81  1  0.17738081  0.92629811  0.68175845  1
  Al0+  Al82  1  0.67800593  0.92866620  0.01603926  1
  Al0+  Al83  1  0.67505787  0.42711876  0.01360261  1
  Al0+  Al84  1  0.92978340  0.32220967  0.65442307  1
  Al0+  Al85  1  0.82341853  0.07160805  0.01493534  1
  Al0+  Al86  1  0.68225722  0.92888217  0.68110402  1
  Al0+  Al87  1  0.81973585  0.57040412  0.01442388  1
  Al0+  Al88  1  0.17920090  0.43026439  0.34968720  1
  Al0+  Al89  1  0.42731580  0.32096982  0.31867375  1
  Al0+  Al90  1  0.32415077  0.57277350  0.34823762  1
  Al0+  Al91  1  0.07176692  0.67562740  0.98198434  1
  Al0+  Al92  1  0.92970992  0.82162076  0.65206169  1
  Al0+  Al93  1  0.18020225  0.43163522  0.68171315  1
  Al0+  Al94  1  0.57002759  0.67901605  0.98723168  1
  Al0+  Al95  1  0.42882359  0.31956384  0.65372247  1
  Si0+  Si96  1  0.42752598  0.82477482  0.98371681  1
  Si0+  Si97  1  0.67762429  0.42546872  0.35046046  1
  Si0+  Si98  1  0.57235872  0.17718349  0.64918989  1
  Si0+  Si99  1  0.82224519  0.07479980  0.68054550  1
  Si0+  Si100  1  0.68005782  0.92937133  0.35000544  1
  Si0+  Si101  1  0.82108520  0.56931745  0.68187960  1
  Si0+  Si102  1  0.07332660  0.17833574  0.98514755  1
  Si0+  Si103  1  0.57237014  0.67997393  0.31896764  1
  Si0+  Si104  1  0.17884098  0.92765431  0.01458964  1
  Si0+  Si105  1  0.07287913  0.17829815  0.65052281  1
  Si0+  Si106  1  0.82137360  0.07322864  0.35032640  1
  Si0+  Si107  1  0.32129470  0.57443060  0.01436291  1
  Si0+  Si108  1  0.92445072  0.82385910  0.31669993  1
  Si0+  Si109  1  0.57106194  0.17590594  0.31583527  1
  Si0+  Si110  1  0.42530991  0.32122956  0.98353324  1
  Si0+  Si111  1  0.32613567  0.57222851  0.68393931  1
  Si0+  Si112  1  0.43006885  0.82185533  0.31978155  1
  Si0+  Si113  1  0.57388517  0.67682187  0.64743595  1
  Si0+  Si114  1  0.67814138  0.42846723  0.67904133  1
  Si0+  Si115  1  0.07095123  0.17619259  0.31615440  1
  Si0+  Si116  1  0.32014170  0.07027229  0.01593208  1
  Si0+  Si117  1  0.17662931  0.92728380  0.34713064  1
  Si0+  Si118  1  0.92966375  0.31913946  0.98706864  1
  Si0+  Si119  1  0.07279085  0.67805814  0.64914898  1
  O2-  O120  1  0.25206724  -0.00384103  0.05797703  1
  O2-  O121  1  0.24441581  -0.00419234  0.39237110  1
  O2-  O122  1  0.25011305  -0.00250600  0.73306077  1
  O2-  O123  1  0.25223417  0.50689096  0.05926616  1
  O2-  O124  1  0.25518559  0.49860977  0.39938555  1
  O2-  O125  1  0.25723584  0.50403250  0.72874047  1
  O2-  O126  1  0.75244323  -0.00149749  0.06603774  1
  O2-  O127  1  0.75243041  -0.00033827  0.39150130  1
  O2-  O128  1  0.75764442  0.00342305  0.72570676  1
  O2-  O129  1  0.74616090  0.49932488  0.06452335  1
  O2-  O130  1  0.74777733  0.49213549  0.39652009  1
  O2-  O131  1  0.75043417  0.49721042  0.72229262  1
  O2-  O132  1  0.00392788  0.24586138  0.27061269  1
  O2-  O133  1  0.00443843  0.24771556  0.60685683  1
  O2-  O134  1  -0.00010414  0.24755578  0.94414575  1
  O2-  O135  1  -0.00379403  0.75840272  0.27382174  1
  O2-  O136  1  0.00836933  0.75133770  0.60521272  1
  O2-  O137  1  0.00117803  0.74986014  0.93392487  1
  O2-  O138  1  0.50415552  0.24728584  0.27317484  1
  O2-  O139  1  0.50187102  0.24382971  0.60495023  1
  O2-  O140  1  0.49836424  0.25753186  0.93883695  1
  O2-  O141  1  0.49702316  0.74736837  0.27758219  1
  O2-  O142  1  0.50327579  0.74393457  0.60347445  1
  O2-  O143  1  0.49718174  0.75602126  0.94133922  1
  O2-  O144  1  0.07671715  0.17792817  0.09011310  1
  O2-  O145  1  0.06774059  0.17229475  0.42152452  1
  O2-  O146  1  0.07107713  0.17799989  0.75649791  1
  O2-  O147  1  0.07247324  0.67705533  0.09573538  1
  O2-  O148  1  0.06884696  0.68419672  0.43317275  1
  O2-  O149  1  0.06867995  0.67508270  0.75437741  1
  O2-  O150  1  0.56516005  0.17851220  0.09871367  1
  O2-  O151  1  0.57155067  0.17397138  0.42162987  1
  O2-  O152  1  0.57477506  0.18044309  0.75458301  1
  O2-  O153  1  0.56723962  0.68063465  0.10088645  1
  O2-  O154  1  0.57571793  0.68339752  0.42400830  1
  O2-  O155  1  0.57436275  0.67599345  0.75291693  1
  O2-  O156  1  0.17952848  0.43267749  0.23608765  1
  O2-  O157  1  0.17821925  0.43329036  0.56912920  1
  O2-  O158  1  0.18074796  0.42634254  0.90207464  1
  O2-  O159  1  0.17946170  0.92858858  0.24106892  1
  O2-  O160  1  0.17893165  0.92924572  0.56758374  1
  O2-  O161  1  0.17868698  0.92993060  0.90995737  1
  O2-  O162  1  0.67815293  0.42685368  0.24522200  1
  O2-  O163  1  0.67673954  0.43068060  0.57400666  1
  O2-  O164  1  0.67938208  0.42720844  0.89909834  1
  O2-  O165  1  0.67818898  0.92793607  0.24548080  1
  O2-  O166  1  0.68243856  0.93117716  0.56709057  1
  O2-  O167  1  0.67809853  0.93036917  0.90268713  1
  O2-  O168  1  0.42409278  0.31812075  0.08921297  1
  O2-  O169  1  0.42792717  0.31856687  0.43199936  1
  O2-  O170  1  0.43210820  0.31937914  0.76676286  1
  O2-  O171  1  0.42655951  0.82506476  0.09002821  1
  O2-  O172  1  0.43281287  0.82402840  0.42463776  1
  O2-  O173  1  0.43330190  0.81774287  0.76587025  1
  O2-  O174  1  0.93169533  0.31845532  0.09210604  1
  O2-  O175  1  0.93105111  0.31942744  0.43076023  1
  O2-  O176  1  0.92815774  0.32099982  0.76777363  1
  O2-  O177  1  0.93402066  0.82178266  0.09968702  1
  O2-  O178  1  0.92399874  0.82332700  0.42267414  1
  O2-  O179  1  0.92634275  0.81858098  0.76450035  1
  O2-  O180  1  0.32172923  0.06591280  0.23319859  1
  O2-  O181  1  0.31966313  0.07092150  0.57096463  1
  O2-  O182  1  0.31901228  0.07160567  0.91134751  1
  O2-  O183  1  0.32441187  0.57274411  0.23461019  1
  O2-  O184  1  0.32580058  0.57154210  0.57845525  1
  O2-  O185  1  0.32239029  0.57349635  0.90868805  1
  O2-  O186  1  0.82201497  0.07416262  0.24582842  1
  O2-  O187  1  0.81839482  0.07565993  0.57444310  1
  O2-  O188  1  0.82245268  0.07324478  0.90117186  1
  O2-  O189  1  0.81723091  0.57233651  0.23671176  1
  O2-  O190  1  0.82070800  0.56910156  0.57648836  1
  O2-  O191  1  0.81933702  0.56760263  0.90022184  1
  O2-  O192  1  0.04366014  0.08296029  0.26813726  1
  O2-  O193  1  0.04880228  0.08574721  0.60152812  1
  O2-  O194  1  0.04803361  0.08652235  0.93694080  1
  O2-  O195  1  0.03560695  0.58658529  0.26639788  1
  O2-  O196  1  0.04006887  0.58728044  0.60133597  1
  O2-  O197  1  0.04078877  0.57730041  0.93028393  1
  O2-  O198  1  0.54175958  0.08299794  0.26968407  1
  O2-  O199  1  0.54914714  0.08228498  0.60551283  1
  O2-  O200  1  0.53714419  0.08489629  0.93079411  1
  O2-  O201  1  0.55048828  0.58720445  0.27148510  1
  O2-  O202  1  0.55105196  0.58301607  0.60030766  1
  O2-  O203  1  0.53834300  0.58373216  0.92942450  1
  O2-  O204  1  0.16557361  0.19906030  0.27134534  1
  O2-  O205  1  0.16701567  0.20422025  0.60683045  1
  O2-  O206  1  0.16365138  0.20928673  0.93626844  1
  O2-  O207  1  0.16643603  0.70995993  0.26318141  1
  O2-  O208  1  0.16859025  0.69777676  0.60566970  1
  O2-  O209  1  0.17078620  0.70235496  0.92913475  1
  O2-  O210  1  0.66542949  0.19785795  0.27007669  1
  O2-  O211  1  0.66448624  0.20406565  0.59964917  1
  O2-  O212  1  0.66801762  0.20775083  0.93079234  1
  O2-  O213  1  0.66215577  0.71421432  0.27112713  1
  O2-  O214  1  0.66642378  0.70563156  0.60066803  1
  O2-  O215  1  0.66640359  0.70725676  0.93237554  1
  O2-  O216  1  0.08313509  0.45824290  0.06895740  1
  O2-  O217  1  0.08170998  0.46358317  0.40134142  1
  O2-  O218  1  0.08396488  0.46412477  0.73651366  1
  O2-  O219  1  0.08948165  0.95832373  0.06436503  1
  O2-  O220  1  0.08145353  0.95106706  0.39128647  1
  O2-  O221  1  0.07872418  0.95694320  0.73376070  1
  O2-  O222  1  0.57455841  0.45371912  0.06268394  1
  O2-  O223  1  0.58488901  0.45493285  0.39634026  1
  O2-  O224  1  0.58712282  0.45627102  0.72781803  1
  O2-  O225  1  0.57986010  0.96052697  0.06941047  1
  O2-  O226  1  0.58924570  0.95969645  0.39864763  1
  O2-  O227  1  0.58657440  0.95744120  0.73617795  1
  O2-  O228  1  0.21025167  0.33309679  0.07096402  1
  O2-  O229  1  0.20185318  0.32948284  0.40004693  1
  O2-  O230  1  0.20812430  0.33447423  0.73599226  1
  O2-  O231  1  0.20553081  0.83456365  0.06035980  1
  O2-  O232  1  0.20194010  0.83417402  0.39274121  1
  O2-  O233  1  0.20547805  0.82755413  0.73401703  1
  O2-  O234  1  0.70112948  0.32928859  0.06744307  1
  O2-  O235  1  0.69948656  0.33013614  0.39489450  1
  O2-  O236  1  0.70474568  0.33488113  0.72342400  1
  O2-  O237  1  0.70409049  0.83030516  0.06962572  1
  O2-  O238  1  0.70638595  0.83856392  0.40016694  1
  O2-  O239  1  0.71209672  0.83076473  0.73206294  1
  O2-  O240  1  0.45761307  0.41828139  0.26530904  1
  O2-  O241  1  0.46087369  0.41518484  0.59756795  1
  O2-  O242  1  0.44269308  0.41648539  0.93838192  1
  O2-  O243  1  0.46255734  0.91208826  0.27113591  1
  O2-  O244  1  0.46461588  0.91629847  0.59925339  1
  O2-  O245  1  0.45201315  0.91858435  0.93867305  1
  O2-  O246  1  0.95943466  0.41781427  0.26451900  1
  O2-  O247  1  0.96276947  0.41853376  0.60062513  1
  O2-  O248  1  0.95868644  0.41019237  0.93940466  1
  O2-  O249  1  0.94441552  0.91971473  0.27311755  1
  O2-  O250  1  0.95456251  0.92018640  0.59771594  1
  O2-  O251  1  0.95854385  0.92123072  0.93416411  1
  O2-  O252  1  0.33097664  0.28793093  0.26539591  1
  O2-  O253  1  0.33121782  0.28888170  0.60183592  1
  O2-  O254  1  0.33338016  0.28778555  0.93807256  1
  O2-  O255  1  0.33695577  0.80003477  0.27230633  1
  O2-  O256  1  0.33323938  0.79237830  0.59796205  1
  O2-  O257  1  0.33482087  0.79915770  0.93609877  1
  O2-  O258  1  0.83199655  0.28959981  0.26515546  1
  O2-  O259  1  0.83423638  0.29352906  0.59584528  1
  O2-  O260  1  0.83716945  0.29259135  0.94084730  1
  O2-  O261  1  0.83083532  0.79481422  0.27307843  1
  O2-  O262  1  0.83497413  0.78618869  0.59589135  1
  O2-  O263  1  0.83056177  0.79428868  0.93521637  1
  O2-  O264  1  0.41190389  0.04477151  0.06414064  1
  O2-  O265  1  0.41638850  0.03764813  0.40228247  1
  O2-  O266  1  0.42053063  0.04198855  0.73598166  1
  O2-  O267  1  0.41448843  0.54854097  0.06063492  1
  O2-  O268  1  0.42511235  0.55137021  0.39952466  1
  O2-  O269  1  0.42101522  0.54611547  0.72777529  1
  O2-  O270  1  0.92278314  0.04729002  0.06941933  1
  O2-  O271  1  0.91378509  0.04837187  0.39866008  1
  O2-  O272  1  0.91807404  0.05508030  0.72280246  1
  O2-  O273  1  0.91675421  0.53896360  0.06776636  1
  O2-  O274  1  0.91550006  0.53999809  0.40392709  1
  O2-  O275  1  0.91238499  0.54222361  0.72936828  1
  O2-  O276  1  0.28804533  0.16001321  0.06500676  1
  O2-  O277  1  0.28950625  0.16485652  0.40133127  1
  O2-  O278  1  0.29217479  0.16770649  0.74040112  1
  O2-  O279  1  0.29945214  0.66953950  0.05979594  1
  O2-  O280  1  0.29299984  0.67178064  0.39980405  1
  O2-  O281  1  0.30312408  0.66625826  0.72947100  1
  O2-  O282  1  0.79074262  0.16782822  0.06998076  1
  O2-  O283  1  0.79087844  0.16409112  0.39868538  1
  O2-  O284  1  0.79421229  0.16836526  0.72599447  1
  O2-  O285  1  0.79172631  0.66814903  0.06800064  1
  O2-  O286  1  0.78568232  0.66545842  0.40517542  1
  O2-  O287  1  0.79147049  0.66048141  0.72829116  1
