# generated using pymatgen
data_Ca2Al2SiO7
_symmetry_space_group_name_H-M   'P 1'
_cell_length_a   15.45709123
_cell_length_b   15.45764737
_cell_length_c   15.28306347
_cell_angle_alpha   90.00014097
_cell_angle_beta   89.99419276
_cell_angle_gamma   89.99104240
_symmetry_Int_Tables_number   1
_chemical_formula_structural   Ca2Al2SiO7
_chemical_formula_sum   'Ca48 Al48 Si24 O168'
_cell_volume   3651.58635171
_cell_formula_units_Z   24
loop_
 _symmetry_equiv_pos_site_id
 _symmetry_equiv_pos_as_xyz
  1  'x, y, z'
loop_
 _atom_type_symbol
 _atom_type_oxidation_number
  Ca2+  2.0
  Al0+  0.0
  Si0+  0.0
  O2-  -2.0
loop_
 _atom_site_type_symbol
 _atom_site_label
 _atom_site_symmetry_multiplicity
 _atom_site_fract_x
 _atom_site_fract_y
 _atom_site_fract_z
 _atom_site_occupancy
  Ca2+  Ca0  1  0.16754407  0.07636174  0.16399548  1
  Ca2+  Ca1  1  0.17449370  0.08306698  0.50720234  1
  Ca2+  Ca2  1  0.17970146  0.08173588  0.84196018  1
  Ca2+  Ca3  1  0.17649938  0.59427424  0.17076742  1
  Ca2+  Ca4  1  0.17105268  0.57986844  0.50044934  1
  Ca2+  Ca5  1  0.17085830  0.58003942  0.84012730  1
  Ca2+  Ca6  1  0.66630850  0.07471050  0.16509575  1
  Ca2+  Ca7  1  0.66024057  0.07190616  0.50542898  1
  Ca2+  Ca8  1  0.66441808  0.07450680  0.84296128  1
  Ca2+  Ca9  1  0.67268732  0.59133295  0.17429422  1
  Ca2+  Ca10  1  0.67103221  0.58815787  0.49759791  1
  Ca2+  Ca11  1  0.66583860  0.58116536  0.84053538  1
  Ca2+  Ca12  1  0.06940944  0.33594718  0.16274670  1
  Ca2+  Ca13  1  0.08292354  0.33570344  0.49536487  1
  Ca2+  Ca14  1  0.08014117  0.33710762  0.83156921  1
  Ca2+  Ca15  1  0.08156059  0.82401899  0.15544639  1
  Ca2+  Ca16  1  0.07514309  0.82899106  0.49235576  1
  Ca2+  Ca17  1  0.07501296  0.84210909  0.83431250  1
  Ca2+  Ca18  1  0.57852762  0.32834992  0.16044174  1
  Ca2+  Ca19  1  0.57194336  0.32693718  0.49655413  1
  Ca2+  Ca20  1  0.57575713  0.31575968  0.82725646  1
  Ca2+  Ca21  1  0.58473124  0.82861046  0.16548561  1
  Ca2+  Ca22  1  0.58000151  0.83400854  0.49203734  1
  Ca2+  Ca23  1  0.59298856  0.83041495  0.83247259  1
  Ca2+  Ca24  1  0.33778194  0.42936634  0.17276901  1
  Ca2+  Ca25  1  0.33550098  0.41878424  0.50547575  1
  Ca2+  Ca26  1  0.32997342  0.41709184  0.83700534  1
  Ca2+  Ca27  1  0.33392607  0.91692107  0.16740741  1
  Ca2+  Ca28  1  0.33649005  0.92055867  0.50432494  1
  Ca2+  Ca29  1  0.33039584  0.92832611  0.84299303  1
  Ca2+  Ca30  1  0.83361957  0.41882817  0.17442729  1
  Ca2+  Ca31  1  0.83836824  0.42298520  0.49777079  1
  Ca2+  Ca32  1  0.83158204  0.41622768  0.84071929  1
  Ca2+  Ca33  1  0.82222989  0.90868003  0.16702953  1
  Ca2+  Ca34  1  0.82052577  0.91003284  0.50576360  1
  Ca2+  Ca35  1  0.82751197  0.91852770  0.84319173  1
  Ca2+  Ca36  1  0.41985181  0.17089387  0.16077106  1
  Ca2+  Ca37  1  0.41497145  0.17332937  0.49961833  1
  Ca2+  Ca38  1  0.42267514  0.15932370  0.82673023  1
  Ca2+  Ca39  1  0.42392165  0.66580385  0.16149455  1
  Ca2+  Ca40  1  0.42268114  0.67345749  0.48462410  1
  Ca2+  Ca41  1  0.41968451  0.66457474  0.83640143  1
  Ca2+  Ca42  1  0.90616618  0.17710767  0.15942219  1
  Ca2+  Ca43  1  0.92007410  0.17389558  0.49361906  1
  Ca2+  Ca44  1  0.91221559  0.16773259  0.83566350  1
  Ca2+  Ca45  1  0.92869555  0.66553038  0.15949029  1
  Ca2+  Ca46  1  0.92138676  0.66842631  0.49360056  1
  Ca2+  Ca47  1  0.92119762  0.68239130  0.83373426  1
  Al0+  Al48  1  -0.00002227  0.00419754  0.00459918  1
  Al0+  Al49  1  0.00006241  0.00059817  0.33508944  1
  Al0+  Al50  1  -0.00284219  0.00095518  0.65903972  1
  Al0+  Al51  1  -0.00054832  0.50039398  -0.00954470  1
  Al0+  Al52  1  0.00018642  0.49951503  0.33038254  1
  Al0+  Al53  1  0.00153227  0.50170161  0.67144332  1
  Al0+  Al54  1  0.50025860  -0.00042298  0.00601694  1
  Al0+  Al55  1  0.49950697  0.00032552  0.33403780  1
  Al0+  Al56  1  0.50135238  -0.00303373  0.67136203  1
  Al0+  Al57  1  0.49921428  0.49942823  -0.00197092  1
  Al0+  Al58  1  0.50130265  0.49930392  0.33220899  1
  Al0+  Al59  1  0.50217910  0.49957203  0.66384491  1
  Al0+  Al60  1  0.24676421  0.25263785  0.00669709  1
  Al0+  Al61  1  0.24980581  0.24919209  0.32738088  1
  Al0+  Al62  1  0.24909737  0.25162137  0.67240098  1
  Al0+  Al63  1  0.25183405  0.74844585  0.00057744  1
  Al0+  Al64  1  0.24984027  0.75111299  0.33366975  1
  Al0+  Al65  1  0.24959661  0.74830503  0.66745694  1
  Al0+  Al66  1  0.74625771  0.24973984  -0.00579170  1
  Al0+  Al67  1  0.75014511  0.24940722  0.33301778  1
  Al0+  Al68  1  0.74958308  0.25013875  0.65973799  1
  Al0+  Al69  1  0.75076976  0.74817145  -0.00394825  1
  Al0+  Al70  1  0.74998623  0.75020703  0.34089586  1
  Al0+  Al71  1  0.75197905  0.74985369  0.66675678  1
  Al0+  Al72  1  0.32251330  0.57146705  0.34770810  1
  Al0+  Al73  1  0.93024392  0.31923316  0.32090762  1
  Al0+  Al74  1  0.57070034  0.17491480  0.65022785  1
  Al0+  Al75  1  0.68040924  0.92551747  0.01699256  1
  Al0+  Al76  1  0.68002456  0.93070309  0.34887564  1
  Al0+  Al77  1  0.92779019  0.32027811  0.98468069  1
  Al0+  Al78  1  0.56722228  0.17803862  0.98725412  1
  Al0+  Al79  1  0.07515277  0.67946411  0.98215939  1
  Al0+  Al80  1  0.31954478  0.06900593  0.67901023  1
  Al0+  Al81  1  0.57121200  0.67855723  0.98562272  1
  Al0+  Al82  1  0.17951833  0.43043005  0.68055532  1
  Al0+  Al83  1  0.32120567  0.56873373  0.01361144  1
  Al0+  Al84  1  0.68108111  0.92919046  0.68222519  1
  Al0+  Al85  1  0.42810278  0.32115543  0.31847731  1
  Al0+  Al86  1  0.17840659  0.92900839  0.01449599  1
  Al0+  Al87  1  0.92950213  0.82144945  0.65072670  1
  Al0+  Al88  1  0.32261691  0.07320322  0.01795008  1
  Al0+  Al89  1  0.57250170  0.67979751  0.31960204  1
  Al0+  Al90  1  0.81999463  0.07379971  0.01424526  1
  Al0+  Al91  1  0.06998352  0.67971619  0.32095649  1
  Al0+  Al92  1  0.42727633  0.32056773  0.65277934  1
  Al0+  Al93  1  0.42833511  0.82328761  0.31816882  1
  Al0+  Al94  1  0.92984940  0.82337008  0.98725992  1
  Al0+  Al95  1  0.82217812  0.56940792  0.34601486  1
  Si0+  Si96  1  0.67884414  0.42804648  0.68109649  1
  Si0+  Si97  1  0.17945349  0.42778448  0.34773173  1
  Si0+  Si98  1  0.07212322  0.67722874  0.64880355  1
  Si0+  Si99  1  0.07282859  0.17545012  0.31539935  1
  Si0+  Si100  1  0.32513271  0.57288245  0.68282249  1
  Si0+  Si101  1  0.42591527  0.32220588  0.98422281  1
  Si0+  Si102  1  0.17485240  0.92705054  0.68010394  1
  Si0+  Si103  1  0.42896972  0.82179455  0.98274825  1
  Si0+  Si104  1  0.92906745  0.32393677  0.65088407  1
  Si0+  Si105  1  0.82060624  0.56918735  0.01276752  1
  Si0+  Si106  1  0.57139042  0.17781111  0.31620557  1
  Si0+  Si107  1  0.17418155  0.42980010  0.01925294  1
  Si0+  Si108  1  0.17775910  0.92849919  0.35013603  1
  Si0+  Si109  1  0.57202241  0.67811415  0.65121878  1
  Si0+  Si110  1  0.42819617  0.81895288  0.65456410  1
  Si0+  Si111  1  0.82324233  0.07496615  0.68141697  1
  Si0+  Si112  1  0.07319246  0.17958574  0.98263764  1
  Si0+  Si113  1  0.82299536  0.07421488  0.35211719  1
  Si0+  Si114  1  0.67910630  0.42897810  0.01306117  1
  Si0+  Si115  1  0.92755342  0.82280801  0.31770198  1
  Si0+  Si116  1  0.67787783  0.42489637  0.35122494  1
  Si0+  Si117  1  0.07085897  0.18043800  0.65311015  1
  Si0+  Si118  1  0.82089012  0.56970139  0.68364764  1
  Si0+  Si119  1  0.31931939  0.07191290  0.34917854  1
  O2-  O120  1  0.25157609  -0.00076983  0.06671725  1
  O2-  O121  1  0.24877750  0.00018616  0.39195691  1
  O2-  O122  1  0.24441892  -0.00594329  0.72444674  1
  O2-  O123  1  0.24381538  0.49752096  0.06222318  1
  O2-  O124  1  0.25030190  0.49335729  0.39367232  1
  O2-  O125  1  0.25679366  0.50319770  0.72570309  1
  O2-  O126  1  0.75419035  -0.00297003  0.06562277  1
  O2-  O127  1  0.75586235  0.00459348  0.39666357  1
  O2-  O128  1  0.75422058  0.00706342  0.72515014  1
  O2-  O129  1  0.74971423  0.49926916  0.05653445  1
  O2-  O130  1  0.74636707  0.49540693  0.39407983  1
  O2-  O131  1  0.75025001  0.49789221  0.72539614  1
  O2-  O132  1  0.00099093  0.24176152  0.27318906  1
  O2-  O133  1  -0.00047798  0.25156840  0.61025725  1
  O2-  O134  1  0.00288183  0.24641210  0.93728570  1
  O2-  O135  1  -0.00325027  0.75536806  0.27391732  1
  O2-  O136  1  0.00729690  0.74938151  0.60453038  1
  O2-  O137  1  0.00624268  0.75633904  0.93517108  1
  O2-  O138  1  0.50479252  0.24856502  0.27238393  1
  O2-  O139  1  0.49786741  0.24735281  0.60187024  1
  O2-  O140  1  0.48627304  0.24637946  0.94030816  1
  O2-  O141  1  0.49816506  0.74866795  0.26907050  1
  O2-  O142  1  0.49691046  0.74578727  0.61180526  1
  O2-  O143  1  0.49958491  0.75525161  0.93710978  1
  O2-  O144  1  0.07498330  0.18282318  0.08809894  1
  O2-  O145  1  0.07449491  0.17637907  0.42170928  1
  O2-  O146  1  0.06983220  0.17950246  0.75771119  1
  O2-  O147  1  0.07157303  0.67711038  0.09586525  1
  O2-  O148  1  0.06831733  0.68053533  0.43467040  1
  O2-  O149  1  0.07083431  0.67591130  0.75380609  1
  O2-  O150  1  0.56921717  0.18348917  0.10042011  1
  O2-  O151  1  0.56942939  0.17766216  0.42197254  1
  O2-  O152  1  0.57051307  0.17620440  0.76365575  1
  O2-  O153  1  0.57174691  0.67609173  0.09793077  1
  O2-  O154  1  0.57189885  0.68243632  0.43403490  1
  O2-  O155  1  0.57284224  0.67656461  0.75638532  1
  O2-  O156  1  0.17846397  0.42866788  0.24258179  1
  O2-  O157  1  0.17609507  0.43265509  0.56735278  1
  O2-  O158  1  0.17529243  0.42932161  0.91325428  1
  O2-  O159  1  0.17529141  0.92970739  0.24566432  1
  O2-  O160  1  0.17611464  0.92831788  0.57409918  1
  O2-  O161  1  0.18015144  0.93298778  0.90012707  1
  O2-  O162  1  0.68000679  0.42112775  0.24557299  1
  O2-  O163  1  0.67948426  0.42973223  0.57621291  1
  O2-  O164  1  0.68076496  0.43062153  0.90740468  1
  O2-  O165  1  0.68106078  0.93002798  0.23647692  1
  O2-  O166  1  0.68067399  0.92804998  0.56898433  1
  O2-  O167  1  0.68205984  0.92595276  0.90318845  1
  O2-  O168  1  0.43146804  0.32470122  0.08985013  1
  O2-  O169  1  0.42624706  0.31790711  0.43166636  1
  O2-  O170  1  0.42970562  0.32155646  0.76616924  1
  O2-  O171  1  0.42844939  0.81908513  0.08808224  1
  O2-  O172  1  0.42968820  0.82387336  0.43296588  1
  O2-  O173  1  0.42680955  0.81775092  0.75931289  1
  O2-  O174  1  0.92798029  0.32192060  0.09774749  1
  O2-  O175  1  0.93416632  0.31943325  0.43471378  1
  O2-  O176  1  0.92816220  0.32403732  0.75572496  1
  O2-  O177  1  0.92784398  0.81608514  0.10071890  1
  O2-  O178  1  0.93009533  0.82168363  0.42387880  1
  O2-  O179  1  0.92978062  0.82192328  0.76335781  1
  O2-  O180  1  0.31773986  0.07276168  0.24463333  1
  O2-  O181  1  0.31699649  0.06825885  0.56526960  1
  O2-  O182  1  0.32120909  0.07224510  0.90387311  1
  O2-  O183  1  0.32149244  0.57119691  0.23495896  1
  O2-  O184  1  0.32462980  0.57459254  0.57736444  1
  O2-  O185  1  0.32335502  0.56396840  0.90000175  1
  O2-  O186  1  0.82225896  0.07695321  0.24718841  1
  O2-  O187  1  0.82513941  0.07527015  0.57569130  1
  O2-  O188  1  0.81622264  0.07520513  0.90022859  1
  O2-  O189  1  0.82271808  0.56732932  0.23290443  1
  O2-  O190  1  0.82162656  0.56841895  0.57838890  1
  O2-  O191  1  0.81827046  0.56731039  0.90715301  1
  O2-  O192  1  0.04938148  0.08087010  0.27089504  1
  O2-  O193  1  0.04457365  0.09001602  0.60108066  1
  O2-  O194  1  0.05072463  0.08562540  0.93678540  1
  O2-  O195  1  0.03939136  0.58415510  0.26620912  1
  O2-  O196  1  0.04067413  0.58503519  0.60264101  1
  O2-  O197  1  0.04134002  0.58358850  0.92708463  1
  O2-  O198  1  0.54264047  0.08582158  0.27028377  1
  O2-  O199  1  0.54056370  0.07607625  0.59917257  1
  O2-  O200  1  0.54172382  0.07917414  0.93535319  1
  O2-  O201  1  0.55137753  0.57906318  0.26957109  1
  O2-  O202  1  0.54942745  0.58540655  0.60323588  1
  O2-  O203  1  0.53778661  0.58251035  0.92973191  1
  O2-  O204  1  0.16441680  0.20218528  0.26710442  1
  O2-  O205  1  0.16169730  0.21004966  0.60498424  1
  O2-  O206  1  0.16620309  0.20899636  0.93596895  1
  O2-  O207  1  0.16609756  0.71109737  0.26828936  1
  O2-  O208  1  0.16814404  0.69756957  0.60450059  1
  O2-  O209  1  0.17529262  0.70154708  0.93025957  1
  O2-  O210  1  0.66607604  0.20164718  0.27230726  1
  O2-  O211  1  0.66866345  0.20473398  0.59589025  1
  O2-  O212  1  0.65953970  0.21515182  0.92920866  1
  O2-  O213  1  0.67161260  0.71024879  0.26939255  1
  O2-  O214  1  0.66332740  0.70843134  0.60476765  1
  O2-  O215  1  0.66788648  0.70533832  0.92929670  1
  O2-  O216  1  0.07926307  0.45659230  0.06168421  1
  O2-  O217  1  0.08687254  0.45606689  0.39497281  1
  O2-  O218  1  0.08404873  0.46245286  0.73746096  1
  O2-  O219  1  0.08149931  0.95870435  0.07006613  1
  O2-  O220  1  0.08589719  0.95705848  0.39931701  1
  O2-  O221  1  0.08085162  0.95541009  0.72318208  1
  O2-  O222  1  0.58711506  0.45561284  0.05962460  1
  O2-  O223  1  0.58478983  0.45050427  0.39775898  1
  O2-  O224  1  0.58784303  0.45712094  0.72964474  1
  O2-  O225  1  0.58240428  0.95373621  0.06930752  1
  O2-  O226  1  0.58281250  0.96304955  0.40258175  1
  O2-  O227  1  0.58406054  0.95493450  0.73704197  1
  O2-  O228  1  0.19518901  0.33599299  0.06639466  1
  O2-  O229  1  0.20164394  0.33183974  0.39201234  1
  O2-  O230  1  0.20593295  0.33444943  0.73795875  1
  O2-  O231  1  0.20568791  0.82966953  0.06514368  1
  O2-  O232  1  0.20508430  0.83791105  0.39982371  1
  O2-  O233  1  0.19712441  0.83212333  0.72472534  1
  O2-  O234  1  0.70741053  0.33807835  0.06048134  1
  O2-  O235  1  0.70584506  0.33254182  0.39967120  1
  O2-  O236  1  0.70721786  0.33529073  0.72666040  1
  O2-  O237  1  0.71020701  0.82617882  0.06815599  1
  O2-  O238  1  0.71022675  0.83509064  0.40602372  1
  O2-  O239  1  0.71450109  0.83220417  0.73439647  1
  O2-  O240  1  0.45901299  0.41741911  0.26515566  1
  O2-  O241  1  0.45863527  0.41868631  0.59913236  1
  O2-  O242  1  0.45866226  0.41178417  0.93478498  1
  O2-  O243  1  0.45729852  0.92128873  0.26567439  1
  O2-  O244  1  0.45843249  0.90946570  0.60668122  1
  O2-  O245  1  0.45202239  0.91700505  0.93967765  1
  O2-  O246  1  0.96256117  0.41379916  0.26503135  1
  O2-  O247  1  0.95996508  0.41576045  0.60509777  1
  O2-  O248  1  0.95830797  0.41522159  0.92693076  1
  O2-  O249  1  0.95069775  0.91804417  0.27472410  1
  O2-  O250  1  0.95496200  0.91844717  0.59372107  1
  O2-  O251  1  0.95337673  0.92471955  0.93706460  1
  O2-  O252  1  0.33256771  0.29012654  0.26281543  1
  O2-  O253  1  0.32734177  0.29417408  0.60155416  1
  O2-  O254  1  0.32778798  0.30567155  0.94483967  1
  O2-  O255  1  0.32841085  0.79928970  0.26834920  1
  O2-  O256  1  0.33485970  0.79555770  0.60621566  1
  O2-  O257  1  0.33684879  0.79403950  0.93499824  1
  O2-  O258  1  0.83200518  0.29248047  0.26794986  1
  O2-  O259  1  0.83764142  0.29903058  0.60138532  1
  O2-  O260  1  0.83184968  0.29004900  0.92892357  1
  O2-  O261  1  0.83355607  0.79601475  0.27591952  1
  O2-  O262  1  0.83478707  0.78385003  0.59663367  1
  O2-  O263  1  0.83491441  0.78799328  0.93095897  1
  O2-  O264  1  0.42001256  0.04585143  0.07217364  1
  O2-  O265  1  0.41122917  0.04509670  0.39651691  1
  O2-  O266  1  0.41451321  0.03598644  0.73372978  1
  O2-  O267  1  0.41715370  0.53468076  0.06779306  1
  O2-  O268  1  0.42027895  0.54243236  0.40109538  1
  O2-  O269  1  0.41984261  0.54839994  0.72753443  1
  O2-  O270  1  0.92154071  0.05926353  0.06520833  1
  O2-  O271  1  0.91842139  0.05141617  0.39744945  1
  O2-  O272  1  0.91772659  0.04947795  0.72617368  1
  O2-  O273  1  0.91323596  0.54017392  0.05716840  1
  O2-  O274  1  0.91723637  0.53455350  0.40242511  1
  O2-  O275  1  0.91202499  0.54210589  0.73169124  1
  O2-  O276  1  0.29242515  0.17178233  0.07037213  1
  O2-  O277  1  0.28853399  0.16353982  0.39641434  1
  O2-  O278  1  0.28869728  0.16465272  0.73390108  1
  O2-  O279  1  0.29585547  0.66653399  0.06663522  1
  O2-  O280  1  0.28948141  0.66777622  0.40239963  1
  O2-  O281  1  0.29821869  0.66583215  0.73049206  1
  O2-  O282  1  0.78380597  0.17082919  0.06675178  1
  O2-  O283  1  0.79738880  0.16785807  0.39946750  1
  O2-  O284  1  0.80047741  0.17064182  0.72491903  1
  O2-  O285  1  0.79347851  0.66032580  0.05996232  1
  O2-  O286  1  0.79238447  0.66441653  0.40442476  1
  O2-  O287  1  0.79084886  0.66072232  0.73045869  1
