# generated using pymatgen
data_Ca2Al2SiO7
_symmetry_space_group_name_H-M   'P 1'
_cell_length_a   15.45938137
_cell_length_b   15.45947134
_cell_length_c   15.28518833
_cell_angle_alpha   90.00616436
_cell_angle_beta   90.00170670
_cell_angle_gamma   90.00567949
_symmetry_Int_Tables_number   1
_chemical_formula_structural   Ca2Al2SiO7
_chemical_formula_sum   'Ca48 Al48 Si24 O168'
_cell_volume   3653.06616661
_cell_formula_units_Z   24
loop_
 _symmetry_equiv_pos_site_id
 _symmetry_equiv_pos_as_xyz
  1  'x, y, z'
loop_
 _atom_type_symbol
 _atom_type_oxidation_number
  Ca2+  2.0
  Al0+  0.0
  Si0+  0.0
  O2-  -2.0
loop_
 _atom_site_type_symbol
 _atom_site_label
 _atom_site_symmetry_multiplicity
 _atom_site_fract_x
 _atom_site_fract_y
 _atom_site_fract_z
 _atom_site_occupancy
  Ca2+  Ca0  1  0.17858721  0.08271163  0.17126519  1
  Ca2+  Ca1  1  0.17932958  0.09127851  0.50057058  1
  Ca2+  Ca2  1  0.17898563  0.07890337  0.83996299  1
  Ca2+  Ca3  1  0.17369483  0.57585239  0.17486925  1
  Ca2+  Ca4  1  0.16894459  0.57100395  0.50376294  1
  Ca2+  Ca5  1  0.16276712  0.57439021  0.83504300  1
  Ca2+  Ca6  1  0.67279965  0.08993493  0.17502830  1
  Ca2+  Ca7  1  0.65747225  0.07007129  0.49869777  1
  Ca2+  Ca8  1  0.67151976  0.08162879  0.83920314  1
  Ca2+  Ca9  1  0.65550816  0.57184741  0.17076801  1
  Ca2+  Ca10  1  0.66212524  0.58030006  0.50491598  1
  Ca2+  Ca11  1  0.66834184  0.58131588  0.83344741  1
  Ca2+  Ca12  1  0.08530193  0.32644367  0.16983330  1
  Ca2+  Ca13  1  0.08054441  0.33389314  0.49402462  1
  Ca2+  Ca14  1  0.07706356  0.33202583  0.82287076  1
  Ca2+  Ca15  1  0.08511139  0.83655631  0.15965008  1
  Ca2+  Ca16  1  0.07260509  0.83846189  0.49621861  1
  Ca2+  Ca17  1  0.07729260  0.83650176  0.82912242  1
  Ca2+  Ca18  1  0.58138549  0.32632078  0.16004126  1
  Ca2+  Ca19  1  0.57645193  0.32602936  0.48532365  1
  Ca2+  Ca20  1  0.58325189  0.32820737  0.83663395  1
  Ca2+  Ca21  1  0.57236088  0.84128089  0.16976347  1
  Ca2+  Ca22  1  0.58940675  0.82551204  0.49230811  1
  Ca2+  Ca23  1  0.58036698  0.83385764  0.82627603  1
  Ca2+  Ca24  1  0.33371710  0.40761758  0.17444095  1
  Ca2+  Ca25  1  0.32210669  0.40427386  0.50051743  1
  Ca2+  Ca26  1  0.33098929  0.41498785  0.83658449  1
  Ca2+  Ca27  1  0.33883515  0.92348111  0.17096706  1
  Ca2+  Ca28  1  0.34551201  0.92984635  0.50037085  1
  Ca2+  Ca29  1  0.33228232  0.92582500  0.84296496  1
  Ca2+  Ca30  1  0.81666576  0.41630384  0.17181178  1
  Ca2+  Ca31  1  0.82686854  0.41991035  0.50494369  1
  Ca2+  Ca32  1  0.82944592  0.41923212  0.83611320  1
  Ca2+  Ca33  1  0.82453484  0.92993452  0.17442179  1
  Ca2+  Ca34  1  0.82365593  0.91965957  0.50333135  1
  Ca2+  Ca35  1  0.82658756  0.91592957  0.83672923  1
  Ca2+  Ca36  1  0.42438082  0.16993510  0.16367154  1
  Ca2+  Ca37  1  0.41847707  0.16698823  0.48956256  1
  Ca2+  Ca38  1  0.41592091  0.16384608  0.83616005  1
  Ca2+  Ca39  1  0.42124081  0.67666824  0.16499141  1
  Ca2+  Ca40  1  0.42928545  0.67456471  0.49036561  1
  Ca2+  Ca41  1  0.42359594  0.67460665  0.82884535  1
  Ca2+  Ca42  1  0.92045202  0.15602761  0.16421357  1
  Ca2+  Ca43  1  0.92340966  0.16894336  0.49226059  1
  Ca2+  Ca44  1  0.91520896  0.17104137  0.82827315  1
  Ca2+  Ca45  1  0.91926668  0.66796474  0.16590796  1
  Ca2+  Ca46  1  0.90998484  0.66966726  0.50229590  1
  Ca2+  Ca47  1  0.91493431  0.67098868  0.82134540  1
  Al0+  Al48  1  -0.00003641  -0.00127277  0.00309157  1
  Al0+  Al49  1  0.00041666  0.00099651  0.33181019  1
  Al0+  Al50  1  0.00114500  0.00102047  0.66058196  1
  Al0+  Al51  1  0.00032524  0.50016335  0.00157518  1
  Al0+  Al52  1  0.00089247  0.50062091  0.33519523  1
  Al0+  Al53  1  -0.00162557  0.49969729  0.66994855  1
  Al0+  Al54  1  0.50045281  -0.00012496  -0.00564873  1
  Al0+  Al55  1  0.50195686  0.00048173  0.33385334  1
  Al0+  Al56  1  0.50080092  0.00099762  0.67710485  1
  Al0+  Al57  1  0.49897903  0.50014762  -0.00237773  1
  Al0+  Al58  1  0.49783457  0.50217939  0.33249657  1
  Al0+  Al59  1  0.49790560  0.49896506  0.66398127  1
  Al0+  Al60  1  0.24905652  0.24902063  -0.00097249  1
  Al0+  Al61  1  0.24681547  0.24837825  0.33362797  1
  Al0+  Al62  1  0.24980551  0.24961452  0.67744546  1
  Al0+  Al63  1  0.24905184  0.74712432  -0.00373878  1
  Al0+  Al64  1  0.24830912  0.74997488  0.33210819  1
  Al0+  Al65  1  0.25010903  0.75016729  0.66500751  1
  Al0+  Al66  1  0.75079184  0.25100204  0.00290459  1
  Al0+  Al67  1  0.75241845  0.25417132  0.34009025  1
  Al0+  Al68  1  0.74901889  0.24931240  0.66047195  1
  Al0+  Al69  1  0.75198524  0.74935359  0.00220045  1
  Al0+  Al70  1  0.75199082  0.74929985  0.32848860  1
  Al0+  Al71  1  0.74981056  0.74918793  0.66743459  1
  Al0+  Al72  1  0.81776162  0.56888783  0.67941505  1
  Al0+  Al73  1  0.32274074  0.07131327  0.01874324  1
  Al0+  Al74  1  0.32050647  0.06973599  0.68238783  1
  Al0+  Al75  1  0.42735180  0.32168644  0.98297543  1
  Al0+  Al76  1  0.68014213  0.92958681  0.34729637  1
  Al0+  Al77  1  0.32039120  0.06905106  0.34571539  1
  Al0+  Al78  1  0.57412064  0.67789207  0.31652463  1
  Al0+  Al79  1  0.57382150  0.17994294  0.32035871  1
  Al0+  Al80  1  0.82427313  0.07355812  0.35074800  1
  Al0+  Al81  1  0.17956570  0.43129982  0.68193174  1
  Al0+  Al82  1  0.92804095  0.32195758  0.65258485  1
  Al0+  Al83  1  0.67593500  0.43113331  0.34808544  1
  Al0+  Al84  1  0.56969066  0.67972621  0.65384416  1
  Al0+  Al85  1  0.42865533  0.82197326  0.31961249  1
  Al0+  Al86  1  0.57408465  0.17907514  0.98376748  1
  Al0+  Al87  1  0.68205949  0.92874245  0.68166720  1
  Al0+  Al88  1  0.42863968  0.82033260  0.98457774  1
  Al0+  Al89  1  0.92937579  0.82134289  0.65283574  1
  Al0+  Al90  1  0.17995010  0.92729126  0.01369452  1
  Al0+  Al91  1  0.67927965  0.43135315  0.01187495  1
  Al0+  Al92  1  0.81964361  0.07096456  0.01156008  1
  Al0+  Al93  1  0.42693795  0.31988851  0.32115660  1
  Al0+  Al94  1  0.06881310  0.17902585  0.31899332  1
  Al0+  Al95  1  0.18073721  0.42927647  0.34622800  1
  Si0+  Si96  1  0.82394895  0.57320268  0.01782531  1
  Si0+  Si97  1  0.31998540  0.56982676  0.01367478  1
  Si0+  Si98  1  0.07031513  0.67678731  0.98377344  1
  Si0+  Si99  1  0.57261177  0.67763464  0.98215100  1
  Si0+  Si100  1  0.82332603  0.57114854  0.34962518  1
  Si0+  Si101  1  0.07244501  0.67674372  0.64926620  1
  Si0+  Si102  1  0.32311190  0.57384005  0.68349421  1
  Si0+  Si103  1  0.17539095  0.92645027  0.68132830  1
  Si0+  Si104  1  0.07035139  0.67856078  0.31813517  1
  Si0+  Si105  1  0.57054670  0.17811044  0.65152598  1
  Si0+  Si106  1  0.67473750  0.42529173  0.68309644  1
  Si0+  Si107  1  0.93045735  0.82029304  0.98536390  1
  Si0+  Si108  1  0.82397248  0.07284279  0.68152914  1
  Si0+  Si109  1  0.17732729  0.42875727  0.01615800  1
  Si0+  Si110  1  0.32102301  0.57519189  0.35077950  1
  Si0+  Si111  1  0.92993203  0.82151798  0.31580106  1
  Si0+  Si112  1  0.92922708  0.32549210  0.31578713  1
  Si0+  Si113  1  0.93024107  0.32194739  0.98613013  1
  Si0+  Si114  1  0.42768423  0.82442678  0.65100082  1
  Si0+  Si115  1  0.07324049  0.18031226  0.65080887  1
  Si0+  Si116  1  0.06958161  0.17772211  0.98414326  1
  Si0+  Si117  1  0.67804234  0.92551200  0.01642574  1
  Si0+  Si118  1  0.17763360  0.92563749  0.35056366  1
  Si0+  Si119  1  0.42759128  0.31921989  0.65263393  1
  O2-  O120  1  0.25301150  -0.00446806  0.06658703  1
  O2-  O121  1  0.24858222  -0.00859604  0.39448016  1
  O2-  O122  1  0.24706867  -0.00853649  0.72532963  1
  O2-  O123  1  0.25365658  0.49439069  0.05698918  1
  O2-  O124  1  0.25758412  0.50100264  0.39414213  1
  O2-  O125  1  0.25244768  0.50760779  0.72923819  1
  O2-  O126  1  0.74188547  -0.00037796  0.05822566  1
  O2-  O127  1  0.74938722  0.00381211  0.39915985  1
  O2-  O128  1  0.75800412  0.00301932  0.72754486  1
  O2-  O129  1  0.75216687  0.50781760  0.06007719  1
  O2-  O130  1  0.75003442  0.50767364  0.39318853  1
  O2-  O131  1  0.74447474  0.49336286  0.72700194  1
  O2-  O132  1  -0.00896464  0.25070139  0.27108395  1
  O2-  O133  1  0.00221329  0.24645801  0.60689470  1
  O2-  O134  1  0.00008501  0.25052658  0.94215387  1
  O2-  O135  1  0.00270316  0.75158930  0.27390019  1
  O2-  O136  1  0.00746859  0.74923275  0.60556328  1
  O2-  O137  1  -0.00030939  0.74799139  0.94190697  1
  O2-  O138  1  0.50383812  0.25410913  0.27051313  1
  O2-  O139  1  0.50107341  0.25137877  0.61082138  1
  O2-  O140  1  0.49854511  0.24834321  0.93326380  1
  O2-  O141  1  0.50170120  0.75089858  0.26889826  1
  O2-  O142  1  0.49395620  0.75363345  0.60759186  1
  O2-  O143  1  0.50835931  0.75023438  0.93775192  1
  O2-  O144  1  0.06879041  0.17878662  0.08900701  1
  O2-  O145  1  0.07073751  0.18258397  0.43225256  1
  O2-  O146  1  0.07207570  0.18100339  0.75694101  1
  O2-  O147  1  0.06878749  0.67390881  0.08891345  1
  O2-  O148  1  0.06904280  0.67732997  0.42288028  1
  O2-  O149  1  0.07058896  0.67583885  0.75530965  1
  O2-  O150  1  0.57795832  0.18285145  0.09664019  1
  O2-  O151  1  0.56853568  0.17860149  0.43470126  1
  O2-  O152  1  0.57318448  0.17950462  0.75660985  1
  O2-  O153  1  0.57000819  0.67535732  0.08712457  1
  O2-  O154  1  0.57332002  0.67916542  0.43051156  1
  O2-  O155  1  0.56818290  0.68057064  0.76731114  1
  O2-  O156  1  0.17855179  0.43283551  0.23279002  1
  O2-  O157  1  0.18110924  0.43016422  0.56911960  1
  O2-  O158  1  0.17274088  0.43251605  0.91106513  1
  O2-  O159  1  0.17680553  0.92531473  0.24500965  1
  O2-  O160  1  0.17255123  0.92697432  0.57613878  1
  O2-  O161  1  0.17700482  0.92972308  0.89975402  1
  O2-  O162  1  0.67838356  0.43136355  0.23470119  1
  O2-  O163  1  0.67405492  0.42687606  0.57783144  1
  O2-  O164  1  0.68337341  0.43253697  0.89844744  1
  O2-  O165  1  0.68224220  0.92893155  0.23365643  1
  O2-  O166  1  0.68092181  0.92871184  0.56912116  1
  O2-  O167  1  0.68378377  0.92087650  0.91061939  1
  O2-  O168  1  0.42773296  0.32342336  0.09581014  1
  O2-  O169  1  0.42578581  0.31573210  0.43552340  1
  O2-  O170  1  0.42788433  0.31985410  0.75772065  1
  O2-  O171  1  0.42674354  0.81697375  0.09717551  1
  O2-  O172  1  0.42774771  0.81968120  0.43341415  1
  O2-  O173  1  0.42820840  0.82238032  0.75683419  1
  O2-  O174  1  0.93317671  0.32525332  0.09075901  1
  O2-  O175  1  0.93404638  0.32946500  0.42128088  1
  O2-  O176  1  0.92940030  0.32008004  0.76662448  1
  O2-  O177  1  0.93234964  0.81829882  0.09037980  1
  O2-  O178  1  0.93063939  0.81981938  0.42090242  1
  O2-  O179  1  0.93123394  0.81961507  0.76648031  1
  O2-  O180  1  0.31879147  0.06950568  0.23339765  1
  O2-  O181  1  0.32016340  0.07143952  0.56925374  1
  O2-  O182  1  0.31745118  0.07037383  0.90470112  1
  O2-  O183  1  0.31589895  0.57876504  0.24492166  1
  O2-  O184  1  0.32204775  0.57381370  0.57837749  1
  O2-  O185  1  0.31593635  0.57010332  0.90838134  1
  O2-  O186  1  0.82565574  0.06815349  0.23685570  1
  O2-  O187  1  0.82380529  0.07199830  0.57668203  1
  O2-  O188  1  0.82199805  0.06869814  0.89797097  1
  O2-  O189  1  0.82910499  0.56738196  0.24389913  1
  O2-  O190  1  0.81713781  0.56836034  0.56660705  1
  O2-  O191  1  0.82747714  0.57331528  0.91240187  1
  O2-  O192  1  0.04162454  0.08188620  0.26341959  1
  O2-  O193  1  0.05269382  0.08628264  0.60376780  1
  O2-  O194  1  0.03978145  0.08638243  0.93672220  1
  O2-  O195  1  0.03894027  0.58839710  0.26836950  1
  O2-  O196  1  0.04171178  0.58495615  0.60328119  1
  O2-  O197  1  0.04020651  0.58543504  0.93522018  1
  O2-  O198  1  0.54662405  0.08186187  0.26792359  1
  O2-  O199  1  0.53858723  0.08600602  0.60764766  1
  O2-  O200  1  0.55042120  0.07963894  0.93037652  1
  O2-  O201  1  0.54048507  0.58144683  0.26308920  1
  O2-  O202  1  0.53991295  0.58206845  0.60040325  1
  O2-  O203  1  0.54312088  0.58639404  0.93344782  1
  O2-  O204  1  0.16239484  0.21468473  0.26297106  1
  O2-  O205  1  0.16641760  0.21120749  0.60725944  1
  O2-  O206  1  0.16080979  0.20567581  0.93614153  1
  O2-  O207  1  0.16212784  0.70306328  0.26903389  1
  O2-  O208  1  0.16808391  0.69671628  0.60459154  1
  O2-  O209  1  0.16116614  0.70146810  0.93357997  1
  O2-  O210  1  0.67450259  0.20806372  0.27204572  1
  O2-  O211  1  0.66216010  0.20172462  0.60240023  1
  O2-  O212  1  0.67191567  0.21260566  0.92969517  1
  O2-  O213  1  0.67393679  0.70018262  0.26334802  1
  O2-  O214  1  0.66582076  0.71032600  0.60060321  1
  O2-  O215  1  0.66981813  0.69915066  0.94041907  1
  O2-  O216  1  0.08793701  0.46237255  0.06516891  1
  O2-  O217  1  0.08575555  0.46505219  0.40085537  1
  O2-  O218  1  0.08355234  0.46250896  0.73724931  1
  O2-  O219  1  0.08215003  0.95649408  0.06742487  1
  O2-  O220  1  0.08457940  0.95440951  0.39547279  1
  O2-  O221  1  0.08248084  0.95524754  0.72832031  1
  O2-  O222  1  0.58191339  0.46116170  0.06438054  1
  O2-  O223  1  0.57852258  0.45995180  0.40192730  1
  O2-  O224  1  0.58115777  0.45206537  0.72890604  1
  O2-  O225  1  0.58181564  0.94566198  0.05638354  1
  O2-  O226  1  0.58200673  0.95507312  0.40232850  1
  O2-  O227  1  0.58721707  0.96058696  0.73832235  1
  O2-  O228  1  0.19943274  0.33479632  0.06036489  1
  O2-  O229  1  0.20842214  0.33315702  0.40175100  1
  O2-  O230  1  0.21043771  0.33667849  0.73929827  1
  O2-  O231  1  0.20099366  0.82498591  0.06225588  1
  O2-  O232  1  0.19658101  0.83026861  0.39615559  1
  O2-  O233  1  0.19549841  0.83040260  0.72593431  1
  O2-  O234  1  0.71382976  0.33733069  0.06725346  1
  O2-  O235  1  0.70830346  0.33692162  0.40548762  1
  O2-  O236  1  0.70226019  0.33122844  0.72741563  1
  O2-  O237  1  0.70861176  0.83394149  0.06439498  1
  O2-  O238  1  0.71346263  0.83043984  0.39739357  1
  O2-  O239  1  0.71373859  0.83334885  0.73693442  1
  O2-  O240  1  0.44477619  0.42230071  0.27317790  1
  O2-  O241  1  0.44916556  0.41243470  0.60547208  1
  O2-  O242  1  0.45557511  0.42067748  0.92920754  1
  O2-  O243  1  0.45913534  0.91902202  0.26589799  1
  O2-  O244  1  0.45705258  0.91850829  0.60900560  1
  O2-  O245  1  0.45533414  0.91708703  0.92934438  1
  O2-  O246  1  0.96240840  0.41608271  0.26716461  1
  O2-  O247  1  0.96065973  0.41826725  0.60005140  1
  O2-  O248  1  0.95974332  0.41384503  0.93794475  1
  O2-  O249  1  0.95816079  0.91274381  0.26830214  1
  O2-  O250  1  0.95809636  0.91776468  0.59655944  1
  O2-  O251  1  0.95932990  0.91120881  0.93682959  1
  O2-  O252  1  0.32984729  0.28890348  0.26791023  1
  O2-  O253  1  0.33530217  0.28754774  0.60870394  1
  O2-  O254  1  0.32689544  0.29531930  0.93094803  1
  O2-  O255  1  0.32920134  0.79331664  0.26746682  1
  O2-  O256  1  0.33217627  0.80378394  0.60627935  1
  O2-  O257  1  0.33329283  0.78429874  0.92950513  1
  O2-  O258  1  0.83286275  0.30695830  0.27417414  1
  O2-  O259  1  0.83130274  0.29429736  0.59747537  1
  O2-  O260  1  0.83898085  0.29489361  0.93842490  1
  O2-  O261  1  0.84085355  0.79150507  0.26497262  1
  O2-  O262  1  0.83511983  0.78570750  0.59886675  1
  O2-  O263  1  0.83797158  0.79281586  0.93844324  1
  O2-  O264  1  0.42417226  0.04577807  0.06505835  1
  O2-  O265  1  0.41689990  0.04028679  0.40097379  1
  O2-  O266  1  0.41571726  0.04130339  0.73977577  1
  O2-  O267  1  0.41340661  0.54853140  0.05947201  1
  O2-  O268  1  0.41606115  0.55610582  0.39475238  1
  O2-  O269  1  0.41509367  0.54408440  0.73114413  1
  O2-  O270  1  0.91435875  0.03609225  0.06649466  1
  O2-  O271  1  0.92203479  0.04026093  0.40294975  1
  O2-  O272  1  0.91986056  0.05089187  0.72527374  1
  O2-  O273  1  0.91664587  0.54463366  0.06517783  1
  O2-  O274  1  0.91489240  0.54227266  0.39844563  1
  O2-  O275  1  0.91442803  0.54070562  0.73539708  1
  O2-  O276  1  0.28924945  0.16978232  0.06822935  1
  O2-  O277  1  0.28395941  0.16335429  0.40105110  1
  O2-  O278  1  0.28643670  0.16330633  0.74036048  1
  O2-  O279  1  0.28572692  0.65859413  0.06236130  1
  O2-  O280  1  0.28787096  0.66542460  0.39966894  1
  O2-  O281  1  0.30047807  0.66898712  0.72909153  1
  O2-  O282  1  0.79604459  0.16843829  0.06645108  1
  O2-  O283  1  0.80629999  0.17499288  0.40013600  1
  O2-  O284  1  0.79512584  0.16655588  0.72678829  1
  O2-  O285  1  0.80277222  0.66769408  0.06431412  1
  O2-  O286  1  0.80389618  0.66750555  0.39141220  1
  O2-  O287  1  0.78724373  0.66424074  0.73586512  1
