# generated using pymatgen
data_Ca2Al2SiO7
_symmetry_space_group_name_H-M   'P 1'
_cell_length_a   15.45880943
_cell_length_b   15.45978501
_cell_length_c   15.28438922
_cell_angle_alpha   89.99521119
_cell_angle_beta   90.00394009
_cell_angle_gamma   89.98591694
_symmetry_Int_Tables_number   1
_chemical_formula_structural   Ca2Al2SiO7
_chemical_formula_sum   'Ca48 Al48 Si24 O168'
_cell_volume   3652.81406546
_cell_formula_units_Z   24
loop_
 _symmetry_equiv_pos_site_id
 _symmetry_equiv_pos_as_xyz
  1  'x, y, z'
loop_
 _atom_type_symbol
 _atom_type_oxidation_number
  Ca2+  2.0
  Al0+  0.0
  Si0+  0.0
  O2-  -2.0
loop_
 _atom_site_type_symbol
 _atom_site_label
 _atom_site_symmetry_multiplicity
 _atom_site_fract_x
 _atom_site_fract_y
 _atom_site_fract_z
 _atom_site_occupancy
  Ca2+  Ca0  1  0.17353746  0.07126517  0.17885375  1
  Ca2+  Ca1  1  0.16646730  0.08511690  0.49941108  1
  Ca2+  Ca2  1  0.16500775  0.07791981  0.83857832  1
  Ca2+  Ca3  1  0.17317696  0.58453332  0.17163267  1
  Ca2+  Ca4  1  0.17392397  0.58263678  0.50699312  1
  Ca2+  Ca5  1  0.15842506  0.57934745  0.83583291  1
  Ca2+  Ca6  1  0.66921599  0.08466246  0.17272287  1
  Ca2+  Ca7  1  0.67191198  0.08763237  0.50527970  1
  Ca2+  Ca8  1  0.66393969  0.08915096  0.83567056  1
  Ca2+  Ca9  1  0.66973095  0.58544324  0.17551611  1
  Ca2+  Ca10  1  0.66444346  0.57318961  0.50261159  1
  Ca2+  Ca11  1  0.67242230  0.57932441  0.84050745  1
  Ca2+  Ca12  1  0.08503985  0.32503299  0.16566465  1
  Ca2+  Ca13  1  0.08484064  0.32718491  0.49947629  1
  Ca2+  Ca14  1  0.07730342  0.33065434  0.81778135  1
  Ca2+  Ca15  1  0.08837382  0.83041515  0.16177586  1
  Ca2+  Ca16  1  0.08065054  0.83272043  0.49860366  1
  Ca2+  Ca17  1  0.08154219  0.82301594  0.82914234  1
  Ca2+  Ca18  1  0.57973435  0.33077673  0.16061978  1
  Ca2+  Ca19  1  0.58570885  0.33617964  0.50004990  1
  Ca2+  Ca20  1  0.57648205  0.32807443  0.82622795  1
  Ca2+  Ca21  1  0.57245592  0.82440970  0.16217520  1
  Ca2+  Ca22  1  0.57582268  0.82423502  0.48865767  1
  Ca2+  Ca23  1  0.58095021  0.82816125  0.83363760  1
  Ca2+  Ca24  1  0.33782362  0.42270630  0.17243046  1
  Ca2+  Ca25  1  0.33244499  0.42197870  0.50710014  1
  Ca2+  Ca26  1  0.33095818  0.40947194  0.83212331  1
  Ca2+  Ca27  1  0.32697257  0.91161631  0.17445352  1
  Ca2+  Ca28  1  0.33145134  0.91909942  0.49840216  1
  Ca2+  Ca29  1  0.32757063  0.91695522  0.84343044  1
  Ca2+  Ca30  1  0.82419392  0.43029592  0.17521870  1
  Ca2+  Ca31  1  0.82456869  0.41702449  0.50395868  1
  Ca2+  Ca32  1  0.82956533  0.41640986  0.83667594  1
  Ca2+  Ca33  1  0.82977371  0.92306670  0.17445178  1
  Ca2+  Ca34  1  0.83767158  0.92093114  0.50241721  1
  Ca2+  Ca35  1  0.83575115  0.91594538  0.83441548  1
  Ca2+  Ca36  1  0.41873266  0.17136097  0.15996021  1
  Ca2+  Ca37  1  0.41640784  0.17235390  0.49762373  1
  Ca2+  Ca38  1  0.42529238  0.17621272  0.82832450  1
  Ca2+  Ca39  1  0.42291867  0.67079926  0.16509016  1
  Ca2+  Ca40  1  0.41992865  0.66847856  0.48750099  1
  Ca2+  Ca41  1  0.41869837  0.67137597  0.83569535  1
  Ca2+  Ca42  1  0.92009868  0.16196145  0.16937092  1
  Ca2+  Ca43  1  0.92499155  0.17049091  0.49538059  1
  Ca2+  Ca44  1  0.92442410  0.17456095  0.82106178  1
  Ca2+  Ca45  1  0.91938038  0.66159850  0.15979089  1
  Ca2+  Ca46  1  0.91993642  0.66614201  0.49834931  1
  Ca2+  Ca47  1  0.92534396  0.66624421  0.82799036  1
  Al0+  Al48  1  0.00039763  -0.00127981  0.00473395  1
  Al0+  Al49  1  -0.00001084  -0.00031790  0.33581289  1
  Al0+  Al50  1  0.00061755  -0.00108250  0.66286510  1
  Al0+  Al51  1  -0.00085400  0.49905449  0.00243895  1
  Al0+  Al52  1  -0.00246835  0.49879153  0.33511812  1
  Al0+  Al53  1  0.00168064  0.50100955  0.66108733  1
  Al0+  Al54  1  0.50039799  0.00098294  -0.00576753  1
  Al0+  Al55  1  0.49770715  0.00061883  0.33277699  1
  Al0+  Al56  1  0.50104923  0.00047744  0.66541503  1
  Al0+  Al57  1  0.49838032  0.49951983  -0.00779789  1
  Al0+  Al58  1  0.49955357  0.49970352  0.33678409  1
  Al0+  Al59  1  0.50100188  0.50056473  0.67124853  1
  Al0+  Al60  1  0.24907354  0.24833030  -0.00235998  1
  Al0+  Al61  1  0.24934620  0.24737020  0.32963779  1
  Al0+  Al62  1  0.25259365  0.25108829  0.66490164  1
  Al0+  Al63  1  0.24826344  0.74770966  -0.00412864  1
  Al0+  Al64  1  0.24804589  0.74940765  0.33930708  1
  Al0+  Al65  1  0.25089282  0.75155714  0.66549683  1
  Al0+  Al66  1  0.75121865  0.25079682  -0.00039056  1
  Al0+  Al67  1  0.75068100  0.25114056  0.33900259  1
  Al0+  Al68  1  0.75080668  0.25024963  0.66629634  1
  Al0+  Al69  1  0.75034589  0.75227637  0.00153764  1
  Al0+  Al70  1  0.75187033  0.75029759  0.33353398  1
  Al0+  Al71  1  0.74961942  0.75174759  0.66423258  1
  Al0+  Al72  1  0.42625374  0.32195258  0.98480954  1
  Al0+  Al73  1  0.57088624  0.17856210  0.64913657  1
  Al0+  Al74  1  0.68012825  0.42855073  0.68456681  1
  Al0+  Al75  1  0.81978047  0.07033507  0.34793349  1
  Al0+  Al76  1  0.32269877  0.07265292  0.34887818  1
  Al0+  Al77  1  0.18023114  0.92790707  0.01297282  1
  Al0+  Al78  1  0.82063232  0.57144747  0.01242556  1
  Al0+  Al79  1  0.57409906  0.67899433  0.98420525  1
  Al0+  Al80  1  0.07306757  0.17819597  0.65205863  1
  Al0+  Al81  1  0.42645689  0.82172651  0.31906874  1
  Al0+  Al82  1  0.57155974  0.67719477  0.31959900  1
  Al0+  Al83  1  0.57370446  0.17980466  0.98627139  1
  Al0+  Al84  1  0.67795398  0.43024655  0.34790535  1
  Al0+  Al85  1  0.42755961  0.82025582  0.98489919  1
  Al0+  Al86  1  0.82284507  0.57413234  0.35055286  1
  Al0+  Al87  1  0.07030133  0.17892577  0.31693364  1
  Al0+  Al88  1  0.31911909  0.56950928  0.34497158  1
  Al0+  Al89  1  0.07266461  0.67892011  0.64968150  1
  Al0+  Al90  1  0.92792188  0.82026017  0.65122739  1
  Al0+  Al91  1  0.18034914  0.43029197  0.67916176  1
  Al0+  Al92  1  0.17889349  0.92784472  0.35124422  1
  Al0+  Al93  1  0.06929617  0.67778397  0.98838640  1
  Al0+  Al94  1  0.43056669  0.32262024  0.64888970  1
  Al0+  Al95  1  0.92801038  0.32282802  0.65072239  1
  Si0+  Si96  1  0.42920745  0.82198241  0.65177648  1
  Si0+  Si97  1  0.67729384  0.92981230  0.01520370  1
  Si0+  Si98  1  0.82124897  0.07187568  0.01426702  1
  Si0+  Si99  1  0.67789426  0.92858479  0.68245840  1
  Si0+  Si100  1  0.32277885  0.07066296  0.68341478  1
  Si0+  Si101  1  0.32039988  0.56949343  0.01366980  1
  Si0+  Si102  1  0.67717906  0.42867696  0.01547635  1
  Si0+  Si103  1  0.92983780  0.82158820  0.31683962  1
  Si0+  Si104  1  0.42859982  0.32054974  0.31901350  1
  Si0+  Si105  1  0.92630770  0.32174127  0.31390886  1
  Si0+  Si106  1  0.17921142  0.92938119  0.68379249  1
  Si0+  Si107  1  0.17737089  0.42669687  0.01473073  1
  Si0+  Si108  1  0.57284532  0.17938405  0.31954897  1
  Si0+  Si109  1  0.06974933  0.67729090  0.31836834  1
  Si0+  Si110  1  0.82130614  0.57411206  0.68335509  1
  Si0+  Si111  1  0.67717503  0.92858222  0.34910878  1
  Si0+  Si112  1  0.17730323  0.42593009  0.34757803  1
  Si0+  Si113  1  0.06932692  0.17670546  0.98623057  1
  Si0+  Si114  1  0.82170224  0.06925350  0.68238148  1
  Si0+  Si115  1  0.92799151  0.82440325  0.98574058  1
  Si0+  Si116  1  0.93147666  0.32019552  0.98697930  1
  Si0+  Si117  1  0.32225779  0.07189647  0.01534874  1
  Si0+  Si118  1  0.32254243  0.57476159  0.68645849  1
  Si0+  Si119  1  0.57062265  0.68016443  0.65261815  1
  O2-  O120  1  0.25690797  0.00040570  0.05971347  1
  O2-  O121  1  0.25159551  0.00015123  0.39979714  1
  O2-  O122  1  0.24978498  0.00113969  0.72596202  1
  O2-  O123  1  0.25204704  0.49469785  0.05544771  1
  O2-  O124  1  0.24431511  0.49550759  0.39183375  1
  O2-  O125  1  0.25236807  0.50651278  0.72945997  1
  O2-  O126  1  0.74769323  0.00288227  0.05578266  1
  O2-  O127  1  0.74333281  -0.00177278  0.39573355  1
  O2-  O128  1  0.74933806  -0.00042607  0.72530412  1
  O2-  O129  1  0.74045612  0.50238568  0.05933130  1
  O2-  O130  1  0.74859574  0.50379352  0.39825874  1
  O2-  O131  1  0.75664184  0.50274624  0.72981071  1
  O2-  O132  1  -0.00388759  0.25406932  0.26875230  1
  O2-  O133  1  0.00213503  0.25168575  0.60285369  1
  O2-  O134  1  0.00122052  0.24907105  0.94310944  1
  O2-  O135  1  -0.00217188  0.74731895  0.27521512  1
  O2-  O136  1  -0.00116468  0.74875061  0.59954214  1
  O2-  O137  1  -0.00633108  0.75245289  0.94322277  1
  O2-  O138  1  0.50024391  0.24914672  0.27784002  1
  O2-  O139  1  0.50231961  0.25181046  0.59694197  1
  O2-  O140  1  0.50107239  0.25138172  0.93750168  1
  O2-  O141  1  0.49998749  0.75038105  0.27070124  1
  O2-  O142  1  0.49748686  0.74863448  0.61022721  1
  O2-  O143  1  0.50170483  0.75082455  0.93358536  1
  O2-  O144  1  0.06780115  0.17691156  0.09112651  1
  O2-  O145  1  0.06949628  0.18154241  0.42940892  1
  O2-  O146  1  0.06913417  0.17674176  0.76687341  1
  O2-  O147  1  0.06952624  0.67752523  0.10168504  1
  O2-  O148  1  0.06968367  0.67789188  0.42298785  1
  O2-  O149  1  0.07176949  0.68077694  0.76382216  1
  O2-  O150  1  0.57590052  0.18144729  0.10038313  1
  O2-  O151  1  0.57390277  0.17975045  0.42409952  1
  O2-  O152  1  0.56816206  0.17714687  0.76274118  1
  O2-  O153  1  0.57337043  0.68027699  0.09741060  1
  O2-  O154  1  0.56869507  0.67841735  0.43375670  1
  O2-  O155  1  0.57195902  0.68354189  0.75770572  1
  O2-  O156  1  0.17882281  0.42697242  0.24108527  1
  O2-  O157  1  0.18385960  0.43102354  0.56619355  1
  O2-  O158  1  0.17403096  0.42707547  0.90993099  1
  O2-  O159  1  0.17938594  0.92766836  0.23708374  1
  O2-  O160  1  0.18060914  0.92816374  0.57925030  1
  O2-  O161  1  0.17792272  0.93185862  0.89950918  1
  O2-  O162  1  0.67867843  0.42844228  0.23372286  1
  O2-  O163  1  0.67904164  0.43187716  0.57191982  1
  O2-  O164  1  0.68242077  0.42625940  0.91016049  1
  O2-  O165  1  0.67964230  0.93057025  0.24310227  1
  O2-  O166  1  0.67682918  0.92807679  0.57768333  1
  O2-  O167  1  0.67940525  0.92824852  0.90991184  1
  O2-  O168  1  0.42583970  0.32108343  0.09910098  1
  O2-  O169  1  0.42712863  0.32086065  0.42351586  1
  O2-  O170  1  0.43023237  0.31867296  0.76236924  1
  O2-  O171  1  0.42750110  0.81795831  0.09794079  1
  O2-  O172  1  0.42936523  0.81996300  0.43327530  1
  O2-  O173  1  0.42992637  0.82236823  0.75693457  1
  O2-  O174  1  0.93258401  0.31880110  0.09190302  1
  O2-  O175  1  0.92667053  0.32069071  0.41896261  1
  O2-  O176  1  0.92934116  0.31932218  0.76577115  1
  O2-  O177  1  0.92875180  0.82807905  0.09120541  1
  O2-  O178  1  0.93081980  0.82296198  0.42158775  1
  O2-  O179  1  0.92891528  0.82094316  0.76542863  1
  O2-  O180  1  0.32114344  0.07525249  0.23498607  1
  O2-  O181  1  0.32464398  0.06781840  0.57872561  1
  O2-  O182  1  0.31827613  0.07268399  0.90947891  1
  O2-  O183  1  0.31856547  0.56802882  0.23120669  1
  O2-  O184  1  0.32281369  0.57566253  0.58074154  1
  O2-  O185  1  0.31831269  0.57149497  0.90876503  1
  O2-  O186  1  0.81780066  0.06850768  0.23382675  1
  O2-  O187  1  0.82142761  0.06714724  0.57760605  1
  O2-  O188  1  0.82448689  0.07091376  0.90927142  1
  O2-  O189  1  0.82433921  0.57131372  0.23637414  1
  O2-  O190  1  0.81594156  0.57645773  0.57826952  1
  O2-  O191  1  0.82373850  0.56695551  0.89942021  1
  O2-  O192  1  0.03620745  0.08227395  0.26421807  1
  O2-  O193  1  0.04332011  0.08095207  0.59930512  1
  O2-  O194  1  0.03878817  0.08557132  0.93912682  1
  O2-  O195  1  0.04431927  0.58416804  0.27129688  1
  O2-  O196  1  0.04931450  0.58070253  0.59597269  1
  O2-  O197  1  0.03768568  0.58111489  0.93433142  1
  O2-  O198  1  0.54715359  0.08707345  0.27192139  1
  O2-  O199  1  0.54296368  0.07934386  0.59734755  1
  O2-  O200  1  0.54880112  0.08143966  0.93207128  1
  O2-  O201  1  0.54108496  0.57925703  0.26677999  1
  O2-  O202  1  0.54405349  0.58760973  0.60793601  1
  O2-  O203  1  0.54645255  0.58117039  0.93060903  1
  O2-  O204  1  0.16621166  0.20969143  0.26026073  1
  O2-  O205  1  0.17160434  0.20469117  0.60077401  1
  O2-  O206  1  0.16199878  0.20049687  0.93962989  1
  O2-  O207  1  0.16155840  0.70660915  0.27204328  1
  O2-  O208  1  0.17116253  0.71018832  0.59842079  1
  O2-  O209  1  0.16367960  0.70752603  0.93101843  1
  O2-  O210  1  0.66471816  0.20818665  0.27223127  1
  O2-  O211  1  0.67128890  0.20326779  0.60070252  1
  O2-  O212  1  0.67267133  0.20715419  0.93260984  1
  O2-  O213  1  0.67095196  0.70589331  0.26844261  1
  O2-  O214  1  0.66078127  0.71025524  0.60436148  1
  O2-  O215  1  0.67202682  0.71046314  0.93098729  1
  O2-  O216  1  0.08788787  0.45682846  0.06531443  1
  O2-  O217  1  0.08273883  0.44822300  0.39169980  1
  O2-  O218  1  0.08174388  0.45874959  0.73266763  1
  O2-  O219  1  0.08419122  0.95931392  0.06860030  1
  O2-  O220  1  0.08104652  0.95820367  0.40293350  1
  O2-  O221  1  0.08649267  0.95660111  0.73019926  1
  O2-  O222  1  0.58014975  0.44801085  0.05658808  1
  O2-  O223  1  0.58026943  0.45642180  0.40302561  1
  O2-  O224  1  0.58382210  0.46102794  0.73880688  1
  O2-  O225  1  0.58509801  0.95710651  0.06204276  1
  O2-  O226  1  0.58265474  0.95109249  0.39367221  1
  O2-  O227  1  0.58654041  0.95677972  0.73142781  1
  O2-  O228  1  0.20214670  0.33308490  0.06121844  1
  O2-  O229  1  0.20399674  0.33269133  0.39178067  1
  O2-  O230  1  0.21114473  0.33310603  0.73439230  1
  O2-  O231  1  0.20858206  0.82962235  0.06490898  1
  O2-  O232  1  0.20526856  0.83032018  0.40614448  1
  O2-  O233  1  0.20928527  0.83780332  0.73125712  1
  O2-  O234  1  0.70843984  0.33676950  0.06294987  1
  O2-  O235  1  0.70829125  0.33333898  0.40258376  1
  O2-  O236  1  0.71093472  0.33089313  0.73743991  1
  O2-  O237  1  0.70674625  0.83989990  0.06518752  1
  O2-  O238  1  0.70506034  0.83599747  0.39539143  1
  O2-  O239  1  0.70700376  0.83736822  0.73138382  1
  O2-  O240  1  0.45743691  0.41189070  0.27137086  1
  O2-  O241  1  0.45710690  0.42357702  0.60069044  1
  O2-  O242  1  0.44911583  0.41991955  0.92975921  1
  O2-  O243  1  0.45280446  0.92097987  0.26612115  1
  O2-  O244  1  0.45963212  0.91234962  0.60433812  1
  O2-  O245  1  0.45357838  0.91925309  0.93183926  1
  O2-  O246  1  0.95202310  0.41587408  0.26799839  1
  O2-  O247  1  0.95272431  0.42102954  0.59805790  1
  O2-  O248  1  0.96005839  0.41083017  0.93891405  1
  O2-  O249  1  0.95929827  0.91239766  0.26832564  1
  O2-  O250  1  0.95743926  0.91773028  0.59790787  1
  O2-  O251  1  0.95709872  0.91651118  0.93744658  1
  O2-  O252  1  0.33756571  0.29364348  0.26925778  1
  O2-  O253  1  0.33276274  0.29351311  0.59651843  1
  O2-  O254  1  0.32813675  0.29119735  0.93100429  1
  O2-  O255  1  0.32755639  0.79042480  0.26922770  1
  O2-  O256  1  0.33679105  0.79770456  0.60503710  1
  O2-  O257  1  0.33129529  0.78830502  0.92938792  1
  O2-  O258  1  0.83331393  0.29277123  0.26792034  1
  O2-  O259  1  0.83140314  0.29122450  0.59829714  1
  O2-  O260  1  0.83964841  0.29311572  0.93951464  1
  O2-  O261  1  0.83658849  0.79868017  0.26938696  1
  O2-  O262  1  0.82850722  0.79630377  0.59774679  1
  O2-  O263  1  0.83341943  0.80385646  0.94038706  1
  O2-  O264  1  0.41853776  0.05163977  0.05792591  1
  O2-  O265  1  0.42162733  0.04691764  0.40252272  1
  O2-  O266  1  0.41382580  0.03955034  0.73142123  1
  O2-  O267  1  0.41368808  0.54397194  0.05985283  1
  O2-  O268  1  0.41413758  0.53921990  0.40118188  1
  O2-  O269  1  0.41551044  0.54876252  0.73328429  1
  O2-  O270  1  0.91103291  0.04103280  0.06459387  1
  O2-  O271  1  0.91470911  0.03706558  0.40167131  1
  O2-  O272  1  0.91317948  0.03927895  0.73060156  1
  O2-  O273  1  0.91490380  0.53534257  0.06907994  1
  O2-  O274  1  0.92043602  0.54281566  0.40358304  1
  O2-  O275  1  0.91800679  0.55261088  0.72411826  1
  O2-  O276  1  0.29338590  0.16463627  0.06218482  1
  O2-  O277  1  0.29108648  0.17055429  0.40126453  1
  O2-  O278  1  0.29658811  0.16305979  0.72991170  1
  O2-  O279  1  0.28807617  0.65934683  0.06168076  1
  O2-  O280  1  0.28876485  0.66387737  0.40248899  1
  O2-  O281  1  0.29745282  0.66944874  0.73152085  1
  O2-  O282  1  0.79619620  0.16417887  0.06255308  1
  O2-  O283  1  0.79229252  0.16668700  0.40227890  1
  O2-  O284  1  0.79560503  0.16120294  0.73030199  1
  O2-  O285  1  0.79741351  0.67099218  0.06483562  1
  O2-  O286  1  0.80053836  0.67459177  0.40124839  1
  O2-  O287  1  0.79223219  0.66723106  0.73008133  1
