# generated using pymatgen
data_Ca2Al2SiO7
_symmetry_space_group_name_H-M   'P 1'
_cell_length_a   15.46370603
_cell_length_b   15.46336402
_cell_length_c   15.28784232
_cell_angle_alpha   89.99112934
_cell_angle_beta   89.97820057
_cell_angle_gamma   90.02545532
_symmetry_Int_Tables_number   1
_chemical_formula_structural   Ca2Al2SiO7
_chemical_formula_sum   'Ca48 Al48 Si24 O168'
_cell_volume   3655.64218046
_cell_formula_units_Z   24
loop_
 _symmetry_equiv_pos_site_id
 _symmetry_equiv_pos_as_xyz
  1  'x, y, z'
loop_
 _atom_type_symbol
 _atom_type_oxidation_number
  Ca2+  2.0
  Al0+  0.0
  Si0+  0.0
  O2-  -2.0
loop_
 _atom_site_type_symbol
 _atom_site_label
 _atom_site_symmetry_multiplicity
 _atom_site_fract_x
 _atom_site_fract_y
 _atom_site_fract_z
 _atom_site_occupancy
  Ca2+  Ca0  1  0.16536555  0.08676119  0.17476151  1
  Ca2+  Ca1  1  0.17018192  0.08761972  0.49710218  1
  Ca2+  Ca2  1  0.16471480  0.08095769  0.83839545  1
  Ca2+  Ca3  1  0.17690875  0.59399376  0.16894995  1
  Ca2+  Ca4  1  0.17818441  0.58119709  0.50827236  1
  Ca2+  Ca5  1  0.17462118  0.59012739  0.83868302  1
  Ca2+  Ca6  1  0.68061729  0.07350660  0.17599136  1
  Ca2+  Ca7  1  0.67692374  0.07350294  0.50520183  1
  Ca2+  Ca8  1  0.67948544  0.07566696  0.83479108  1
  Ca2+  Ca9  1  0.67594907  0.58452596  0.17582990  1
  Ca2+  Ca10  1  0.67096988  0.57928812  0.49726293  1
  Ca2+  Ca11  1  0.67760595  0.58430401  0.83070475  1
  Ca2+  Ca12  1  0.08340421  0.32094345  0.16469956  1
  Ca2+  Ca13  1  0.08476814  0.32990216  0.49498218  1
  Ca2+  Ca14  1  0.08591926  0.32903475  0.83023972  1
  Ca2+  Ca15  1  0.06955215  0.82849282  0.16200973  1
  Ca2+  Ca16  1  0.06936453  0.83115966  0.49615536  1
  Ca2+  Ca17  1  0.07118124  0.82537110  0.83284118  1
  Ca2+  Ca18  1  0.57752689  0.34424510  0.16876068  1
  Ca2+  Ca19  1  0.58016860  0.34205462  0.49049766  1
  Ca2+  Ca20  1  0.58709556  0.33359884  0.82677665  1
  Ca2+  Ca21  1  0.58899839  0.82820941  0.17021249  1
  Ca2+  Ca22  1  0.58544883  0.83149335  0.49471955  1
  Ca2+  Ca23  1  0.57735765  0.83381927  0.82271731  1
  Ca2+  Ca24  1  0.33189469  0.42489809  0.17442089  1
  Ca2+  Ca25  1  0.33207660  0.42554670  0.50209631  1
  Ca2+  Ca26  1  0.32724802  0.42897685  0.83329930  1
  Ca2+  Ca27  1  0.32645027  0.92498992  0.17550282  1
  Ca2+  Ca28  1  0.33617433  0.92088055  0.50391829  1
  Ca2+  Ca29  1  0.33238275  0.91283981  0.83572142  1
  Ca2+  Ca30  1  0.82987089  0.42978755  0.17492075  1
  Ca2+  Ca31  1  0.82426657  0.42604129  0.50856348  1
  Ca2+  Ca32  1  0.83117526  0.42665531  0.83620287  1
  Ca2+  Ca33  1  0.83784579  0.91982766  0.17488573  1
  Ca2+  Ca34  1  0.82805170  0.91818652  0.50264904  1
  Ca2+  Ca35  1  0.84178365  0.92058903  0.83436664  1
  Ca2+  Ca36  1  0.41557368  0.17264744  0.16740310  1
  Ca2+  Ca37  1  0.41983331  0.17476763  0.48803721  1
  Ca2+  Ca38  1  0.42255620  0.16950946  0.82628213  1
  Ca2+  Ca39  1  0.42296062  0.65747582  0.16563186  1
  Ca2+  Ca40  1  0.42099965  0.66518402  0.49372429  1
  Ca2+  Ca41  1  0.41503764  0.66809175  0.82543546  1
  Ca2+  Ca42  1  0.92323207  0.15899264  0.16182040  1
  Ca2+  Ca43  1  0.91823832  0.16300725  0.49319830  1
  Ca2+  Ca44  1  0.91802422  0.16005979  0.83028085  1
  Ca2+  Ca45  1  0.91121612  0.67541257  0.15958327  1
  Ca2+  Ca46  1  0.90216811  0.67505593  0.49524863  1
  Ca2+  Ca47  1  0.91035556  0.67205504  0.82751333  1
  Al0+  Al48  1  0.00148609  -0.00113067  -0.00459323  1
  Al0+  Al49  1  0.00157234  -0.00144388  0.32974133  1
  Al0+  Al50  1  0.00313607  -0.00184232  0.66415634  1
  Al0+  Al51  1  0.00184601  0.49743433  0.00203845  1
  Al0+  Al52  1  0.00269054  0.50018769  0.33497334  1
  Al0+  Al53  1  0.00155749  0.49679030  0.67186372  1
  Al0+  Al54  1  0.50033585  0.00183399  0.00012529  1
  Al0+  Al55  1  0.49873520  0.00167552  0.33795046  1
  Al0+  Al56  1  0.50111882  0.00124836  0.66523891  1
  Al0+  Al57  1  0.49710839  0.50068195  -0.00088898  1
  Al0+  Al58  1  0.49877590  0.50200513  0.33065122  1
  Al0+  Al59  1  0.49855759  0.49952372  0.67367933  1
  Al0+  Al60  1  0.25096911  0.25169654  -0.00616394  1
  Al0+  Al61  1  0.25093211  0.25043241  0.32832084  1
  Al0+  Al62  1  0.25242666  0.25038353  0.66951861  1
  Al0+  Al63  1  0.24943441  0.75196549  0.00312191  1
  Al0+  Al64  1  0.24940531  0.75265775  0.33823667  1
  Al0+  Al65  1  0.24982523  0.75297477  0.66492502  1
  Al0+  Al66  1  0.74847968  0.24788411  0.00484855  1
  Al0+  Al67  1  0.74947195  0.24955694  0.33682383  1
  Al0+  Al68  1  0.75249690  0.24744981  0.67235284  1
  Al0+  Al69  1  0.74602538  0.74972748  -0.00302270  1
  Al0+  Al70  1  0.74743139  0.75059002  0.33047810  1
  Al0+  Al71  1  0.74625854  0.74966584  0.66813632  1
  Al0+  Al72  1  0.42784020  0.82242194  0.65208070  1
  Al0+  Al73  1  0.31887661  0.57321300  0.68205355  1
  Al0+  Al74  1  0.31974462  0.07286611  0.34595176  1
  Al0+  Al75  1  0.56746462  0.68111572  0.31933096  1
  Al0+  Al76  1  0.92828060  0.81876995  0.65105352  1
  Al0+  Al77  1  0.82204448  0.06783000  0.01479792  1
  Al0+  Al78  1  0.17903754  0.42658195  0.68195364  1
  Al0+  Al79  1  0.67862116  0.42980828  0.34526093  1
  Al0+  Al80  1  0.82136180  0.57149112  0.01362246  1
  Al0+  Al81  1  0.82459285  0.06801249  0.68230930  1
  Al0+  Al82  1  0.67869836  0.92840852  0.34779437  1
  Al0+  Al83  1  0.43122109  0.32090657  0.31910706  1
  Al0+  Al84  1  0.31985255  0.57228998  0.34666246  1
  Al0+  Al85  1  0.82496868  0.07066344  0.34777387  1
  Al0+  Al86  1  0.07050957  0.17995944  0.98437051  1
  Al0+  Al87  1  0.67749197  0.92872752  0.68239671  1
  Al0+  Al88  1  0.82383517  0.57197102  0.34668605  1
  Al0+  Al89  1  0.31845446  0.57183045  0.01576814  1
  Al0+  Al90  1  0.67825923  0.42711896  0.68153477  1
  Al0+  Al91  1  0.07263001  0.67697749  0.98670260  1
  Al0+  Al92  1  0.06828680  0.18109396  0.32104641  1
  Al0+  Al93  1  0.82121679  0.57182659  0.68106601  1
  Al0+  Al94  1  0.92679207  0.81847816  0.98369045  1
  Al0+  Al95  1  0.92906210  0.81719173  0.32057021  1
  Si0+  Si96  1  0.17893748  0.42451221  0.01892908  1
  Si0+  Si97  1  0.42537958  0.82533580  0.31611201  1
  Si0+  Si98  1  0.18064237  0.93117185  0.01530411  1
  Si0+  Si99  1  0.07325096  0.17920568  0.65078059  1
  Si0+  Si100  1  0.57334282  0.17981727  0.65116717  1
  Si0+  Si101  1  0.43074362  0.31985728  0.65163081  1
  Si0+  Si102  1  0.92539742  0.32459835  0.31795452  1
  Si0+  Si103  1  0.56913639  0.67640825  0.64937180  1
  Si0+  Si104  1  0.42946389  0.82309059  0.98752504  1
  Si0+  Si105  1  0.32147898  0.07133042  0.68185112  1
  Si0+  Si106  1  0.17984635  0.93022620  0.68246676  1
  Si0+  Si107  1  0.17833016  0.92906441  0.35195565  1
  Si0+  Si108  1  0.67416753  0.92840778  0.01687562  1
  Si0+  Si109  1  0.07562830  0.67645704  0.31905684  1
  Si0+  Si110  1  0.57337905  0.17591620  0.31593926  1
  Si0+  Si111  1  0.07203978  0.67584430  0.65050871  1
  Si0+  Si112  1  0.67734559  0.42775177  0.01659298  1
  Si0+  Si113  1  0.32220906  0.07321595  0.01365595  1
  Si0+  Si114  1  0.56847553  0.67793009  0.98263947  1
  Si0+  Si115  1  0.43025713  0.32191101  0.98128724  1
  Si0+  Si116  1  0.92876192  0.32022969  0.65245856  1
  Si0+  Si117  1  0.92542102  0.32106771  0.98388533  1
  Si0+  Si118  1  0.57046809  0.17828343  0.98412699  1
  Si0+  Si119  1  0.17950033  0.42645133  0.34806462  1
  O2-  O120  1  0.24959521  0.00504442  0.05654829  1
  O2-  O121  1  0.24893503  -0.00352153  0.39545848  1
  O2-  O122  1  0.25277079  -0.00048513  0.72573785  1
  O2-  O123  1  0.24151253  0.49917104  0.06235088  1
  O2-  O124  1  0.24180482  0.50092614  0.39184468  1
  O2-  O125  1  0.24336900  0.50505503  0.73264483  1
  O2-  O126  1  0.74953527  -0.00972712  0.05948580  1
  O2-  O127  1  0.75046182  0.00113718  0.39653611  1
  O2-  O128  1  0.75458086  -0.00557238  0.73319357  1
  O2-  O129  1  0.74763956  0.49489557  0.05932993  1
  O2-  O130  1  0.75686915  0.49435773  0.39506044  1
  O2-  O131  1  0.75095309  0.49784594  0.73143361  1
  O2-  O132  1  -0.00921524  0.25233593  0.27330332  1
  O2-  O133  1  0.00131384  0.24971683  0.61044905  1
  O2-  O134  1  -0.00614584  0.25228491  0.93763187  1
  O2-  O135  1  0.00044687  0.73809258  0.27557749  1
  O2-  O136  1  -0.00231081  0.73769152  0.60539499  1
  O2-  O137  1  -0.00664360  0.73991800  0.93503908  1
  O2-  O138  1  0.50800012  0.24815451  0.27088871  1
  O2-  O139  1  0.50611980  0.25434026  0.60885833  1
  O2-  O140  1  0.50264938  0.25183933  0.93979797  1
  O2-  O141  1  0.49251579  0.75620751  0.27081540  1
  O2-  O142  1  0.50049832  0.74620432  0.60638209  1
  O2-  O143  1  0.49884787  0.75193386  0.94330735  1
  O2-  O144  1  0.07340128  0.18087741  0.09719523  1
  O2-  O145  1  0.07156658  0.18398847  0.43437547  1
  O2-  O146  1  0.07488975  0.17919136  0.75602227  1
  O2-  O147  1  0.07682324  0.68509240  0.09989759  1
  O2-  O148  1  0.08110800  0.67988954  0.42432780  1
  O2-  O149  1  0.07520218  0.68094646  0.75596119  1
  O2-  O150  1  0.56640292  0.17556919  0.08857005  1
  O2-  O151  1  0.56924592  0.17502008  0.42151960  1
  O2-  O152  1  0.56875786  0.17926462  0.75693077  1
  O2-  O153  1  0.56806947  0.67618953  0.08756819  1
  O2-  O154  1  0.56556108  0.67991896  0.43210385  1
  O2-  O155  1  0.56693176  0.67673659  0.75564158  1
  O2-  O156  1  0.18215105  0.42296648  0.24257244  1
  O2-  O157  1  0.18430199  0.42282238  0.56837646  1
  O2-  O158  1  0.18464723  0.41928703  0.91373078  1
  O2-  O159  1  0.17940539  0.92931452  0.24597345  1
  O2-  O160  1  0.17923229  0.93277251  0.57771163  1
  O2-  O161  1  0.18382407  0.93118926  0.90986823  1
  O2-  O162  1  0.67807103  0.43428093  0.23133665  1
  O2-  O163  1  0.67788212  0.42713233  0.56854152  1
  O2-  O164  1  0.67709975  0.42704542  0.91102991  1
  O2-  O165  1  0.67940055  0.92968946  0.23361720  1
  O2-  O166  1  0.67579377  0.93282084  0.56949373  1
  O2-  O167  1  0.66617640  0.93338558  0.91195177  1
  O2-  O168  1  0.42967646  0.32135812  0.08625398  1
  O2-  O169  1  0.43030621  0.31965032  0.43243568  1
  O2-  O170  1  0.42957701  0.31553781  0.75713368  1
  O2-  O171  1  0.43032521  0.82624240  0.09215685  1
  O2-  O172  1  0.42517388  0.82465998  0.42146832  1
  O2-  O173  1  0.42846204  0.82300596  0.76618519  1
  O2-  O174  1  0.92622818  0.31926585  0.08939100  1
  O2-  O175  1  0.92890059  0.32574621  0.42352735  1
  O2-  O176  1  0.92814935  0.31860951  0.75760810  1
  O2-  O177  1  0.92974496  0.82096148  0.09725269  1
  O2-  O178  1  0.93097871  0.81843620  0.43373977  1
  O2-  O179  1  0.93334153  0.82083722  0.76396913  1
  O2-  O180  1  0.31711720  0.07193411  0.23218665  1
  O2-  O181  1  0.31916048  0.07390872  0.57716439  1
  O2-  O182  1  0.32398262  0.07086749  0.90821640  1
  O2-  O183  1  0.31898527  0.57014345  0.23330162  1
  O2-  O184  1  0.32034606  0.57051567  0.56863265  1
  O2-  O185  1  0.31990680  0.57155216  0.90296007  1
  O2-  O186  1  0.82566878  0.06720676  0.23380794  1
  O2-  O187  1  0.82421038  0.06962009  0.56933133  1
  O2-  O188  1  0.82040435  0.06825741  0.90190988  1
  O2-  O189  1  0.82127255  0.57205359  0.23272706  1
  O2-  O190  1  0.81928137  0.57020357  0.56791184  1
  O2-  O191  1  0.81764721  0.57059477  0.90072856  1
  O2-  O192  1  0.04366236  0.08342316  0.26580917  1
  O2-  O193  1  0.04810781  0.08711200  0.60337183  1
  O2-  O194  1  0.04347930  0.08282805  0.92959943  1
  O2-  O195  1  0.06095743  0.57970517  0.27515800  1
  O2-  O196  1  0.05655795  0.57804509  0.60963211  1
  O2-  O197  1  0.05874873  0.57316174  0.93989038  1
  O2-  O198  1  0.54172214  0.08438663  0.26846812  1
  O2-  O199  1  0.54014895  0.09061766  0.60291950  1
  O2-  O200  1  0.53767218  0.08879439  0.93393844  1
  O2-  O201  1  0.53452714  0.58679664  0.26179116  1
  O2-  O202  1  0.54100012  0.58238162  0.60559408  1
  O2-  O203  1  0.53708301  0.58744983  0.93444080  1
  O2-  O204  1  0.16356100  0.21403130  0.26456355  1
  O2-  O205  1  0.16582331  0.20877063  0.60492757  1
  O2-  O206  1  0.16770534  0.21044757  0.92916739  1
  O2-  O207  1  0.16630625  0.71102696  0.27076542  1
  O2-  O208  1  0.16300782  0.70927238  0.60296246  1
  O2-  O209  1  0.16840302  0.71626484  0.93257075  1
  O2-  O210  1  0.66882289  0.19646255  0.27142534  1
  O2-  O211  1  0.66739599  0.20224093  0.60691177  1
  O2-  O212  1  0.66333072  0.20413109  0.93775925  1
  O2-  O213  1  0.66235265  0.71298725  0.26194817  1
  O2-  O214  1  0.66251698  0.70108795  0.60366445  1
  O2-  O215  1  0.65943229  0.70429005  0.93345129  1
  O2-  O216  1  0.08264765  0.43932852  0.06235873  1
  O2-  O217  1  0.08421843  0.44426514  0.39342297  1
  O2-  O218  1  0.07855591  0.44271690  0.73428106  1
  O2-  O219  1  0.08903398  0.95866604  0.06177331  1
  O2-  O220  1  0.08684057  0.95887451  0.39840781  1
  O2-  O221  1  0.09075161  0.96181868  0.73201191  1
  O2-  O222  1  0.58319330  0.45627306  0.05970946  1
  O2-  O223  1  0.58227152  0.46438871  0.39798837  1
  O2-  O224  1  0.58037846  0.45393307  0.73678661  1
  O2-  O225  1  0.58355744  0.96102430  0.06617208  1
  O2-  O226  1  0.57941386  0.95447982  0.39958022  1
  O2-  O227  1  0.58049602  0.96385816  0.73631752  1
  O2-  O228  1  0.21373906  0.33328074  0.06567759  1
  O2-  O229  1  0.21241136  0.33608923  0.39562213  1
  O2-  O230  1  0.21575524  0.33126852  0.73794398  1
  O2-  O231  1  0.21193386  0.84250155  0.06577461  1
  O2-  O232  1  0.20241920  0.83672963  0.40055959  1
  O2-  O233  1  0.20708451  0.83913079  0.73092153  1
  O2-  O234  1  0.69730180  0.33296454  0.06266292  1
  O2-  O235  1  0.69453221  0.32806064  0.39558349  1
  O2-  O236  1  0.70625627  0.32894536  0.73563103  1
  O2-  O237  1  0.69214958  0.83150020  0.05770525  1
  O2-  O238  1  0.70639952  0.83061509  0.40015967  1
  O2-  O239  1  0.69583351  0.82798610  0.73291580  1
  O2-  O240  1  0.46098396  0.41648298  0.26244646  1
  O2-  O241  1  0.45362988  0.41414129  0.60763846  1
  O2-  O242  1  0.45734874  0.41376535  0.93338186  1
  O2-  O243  1  0.44983108  0.91996161  0.27079651  1
  O2-  O244  1  0.45767785  0.92018491  0.59917379  1
  O2-  O245  1  0.45607865  0.91530737  0.93848098  1
  O2-  O246  1  0.95499925  0.41691947  0.26980103  1
  O2-  O247  1  0.95545181  0.41223706  0.60452161  1
  O2-  O248  1  0.95180909  0.41439719  0.93759394  1
  O2-  O249  1  0.96609079  0.91154595  0.26535181  1
  O2-  O250  1  0.96754411  0.91343648  0.59765507  1
  O2-  O251  1  0.96508296  0.91374380  0.93003611  1
  O2-  O252  1  0.33715920  0.28636305  0.26197759  1
  O2-  O253  1  0.34078488  0.28596457  0.60428328  1
  O2-  O254  1  0.34031274  0.29139421  0.93205463  1
  O2-  O255  1  0.33023623  0.80163491  0.27175404  1
  O2-  O256  1  0.32976797  0.79745471  0.59782864  1
  O2-  O257  1  0.33728624  0.79606181  0.94064201  1
  O2-  O258  1  0.83018465  0.30384611  0.27317481  1
  O2-  O259  1  0.83737754  0.29054926  0.60516418  1
  O2-  O260  1  0.83061918  0.29571317  0.93960499  1
  O2-  O261  1  0.83242437  0.79122316  0.26513456  1
  O2-  O262  1  0.82855689  0.79270567  0.60112752  1
  O2-  O263  1  0.82544837  0.79804453  0.93271955  1
  O2-  O264  1  0.41293533  0.04417363  0.06206638  1
  O2-  O265  1  0.41595135  0.04671633  0.40168490  1
  O2-  O266  1  0.41351308  0.04532371  0.72937715  1
  O2-  O267  1  0.41483702  0.53660562  0.06776769  1
  O2-  O268  1  0.41418475  0.53671727  0.39977867  1
  O2-  O269  1  0.41460700  0.54064014  0.73756873  1
  O2-  O270  1  0.92108172  0.03953960  0.06475139  1
  O2-  O271  1  0.92317569  0.04092095  0.39948447  1
  O2-  O272  1  0.92454216  0.04061140  0.73340800  1
  O2-  O273  1  0.91976192  0.54408523  0.06587106  1
  O2-  O274  1  0.92524176  0.55264017  0.39729886  1
  O2-  O275  1  0.92049031  0.54585650  0.73304187  1
  O2-  O276  1  0.29603747  0.16653202  0.05786945  1
  O2-  O277  1  0.28587022  0.16822702  0.40022116  1
  O2-  O278  1  0.29276189  0.16153718  0.73205636  1
  O2-  O279  1  0.29149100  0.66977053  0.06956216  1
  O2-  O280  1  0.29424229  0.67012938  0.40036634  1
  O2-  O281  1  0.29345852  0.67367483  0.73296855  1
  O2-  O282  1  0.78964088  0.16420202  0.06864789  1
  O2-  O283  1  0.80083283  0.17069118  0.39879084  1
  O2-  O284  1  0.79500445  0.16516471  0.73716274  1
  O2-  O285  1  0.78630074  0.66822698  0.06515973  1
  O2-  O286  1  0.78622953  0.66726978  0.39789177  1
  O2-  O287  1  0.78817184  0.66800131  0.73527297  1
