# generated using pymatgen
data_Ca2Al2SiO7
_symmetry_space_group_name_H-M   'P 1'
_cell_length_a   15.45941717
_cell_length_b   15.45875717
_cell_length_c   15.28404860
_cell_angle_alpha   89.98781483
_cell_angle_beta   90.00203407
_cell_angle_gamma   90.00389767
_symmetry_Int_Tables_number   1
_chemical_formula_structural   Ca2Al2SiO7
_chemical_formula_sum   'Ca48 Al48 Si24 O168'
_cell_volume   3652.63344227
_cell_formula_units_Z   24
loop_
 _symmetry_equiv_pos_site_id
 _symmetry_equiv_pos_as_xyz
  1  'x, y, z'
loop_
 _atom_type_symbol
 _atom_type_oxidation_number
  Ca2+  2.0
  Al0+  0.0
  Si0+  0.0
  O2-  -2.0
loop_
 _atom_site_type_symbol
 _atom_site_label
 _atom_site_symmetry_multiplicity
 _atom_site_fract_x
 _atom_site_fract_y
 _atom_site_fract_z
 _atom_site_occupancy
  Ca2+  Ca0  1  0.16925502  0.08293702  0.16924760  1
  Ca2+  Ca1  1  0.16584111  0.07152767  0.51148141  1
  Ca2+  Ca2  1  0.16552137  0.08431609  0.83573151  1
  Ca2+  Ca3  1  0.16954531  0.57810890  0.17432015  1
  Ca2+  Ca4  1  0.15949178  0.57749708  0.50959813  1
  Ca2+  Ca5  1  0.17237409  0.58026537  0.83263013  1
  Ca2+  Ca6  1  0.66810820  0.07954198  0.16939192  1
  Ca2+  Ca7  1  0.67883829  0.08595067  0.50838276  1
  Ca2+  Ca8  1  0.66845489  0.08341287  0.83698682  1
  Ca2+  Ca9  1  0.67098683  0.58484562  0.17048223  1
  Ca2+  Ca10  1  0.68210068  0.58462108  0.50558737  1
  Ca2+  Ca11  1  0.67277343  0.58653177  0.83723164  1
  Ca2+  Ca12  1  0.08397883  0.32937298  0.16227745  1
  Ca2+  Ca13  1  0.08492516  0.33496259  0.50258016  1
  Ca2+  Ca14  1  0.08370606  0.32319048  0.82422674  1
  Ca2+  Ca15  1  0.07999005  0.83541349  0.17093233  1
  Ca2+  Ca16  1  0.08022534  0.82827975  0.49561098  1
  Ca2+  Ca17  1  0.07953761  0.82927260  0.82033918  1
  Ca2+  Ca18  1  0.57524823  0.32609095  0.15401148  1
  Ca2+  Ca19  1  0.58401292  0.32725571  0.50171188  1
  Ca2+  Ca20  1  0.57433086  0.32337538  0.82942283  1
  Ca2+  Ca21  1  0.58545154  0.82845923  0.15742748  1
  Ca2+  Ca22  1  0.57895631  0.83338636  0.49906739  1
  Ca2+  Ca23  1  0.58442944  0.83291620  0.83362216  1
  Ca2+  Ca24  1  0.33090410  0.41772733  0.16799230  1
  Ca2+  Ca25  1  0.31850409  0.42351020  0.50850763  1
  Ca2+  Ca26  1  0.33258919  0.42181959  0.83556371  1
  Ca2+  Ca27  1  0.32831618  0.92526130  0.16957755  1
  Ca2+  Ca28  1  0.31803907  0.91672832  0.50826736  1
  Ca2+  Ca29  1  0.32659157  0.92730094  0.83286774  1
  Ca2+  Ca30  1  0.83083907  0.42340653  0.17435115  1
  Ca2+  Ca31  1  0.84220074  0.42789098  0.50789915  1
  Ca2+  Ca32  1  0.84052435  0.41976795  0.82876940  1
  Ca2+  Ca33  1  0.82989914  0.92015469  0.17193414  1
  Ca2+  Ca34  1  0.84326788  0.92359633  0.50399045  1
  Ca2+  Ca35  1  0.83336273  0.92153401  0.83333531  1
  Ca2+  Ca36  1  0.41799632  0.17368947  0.15134746  1
  Ca2+  Ca37  1  0.42036099  0.15795337  0.50270322  1
  Ca2+  Ca38  1  0.42259302  0.15728408  0.82895268  1
  Ca2+  Ca39  1  0.42177521  0.66722478  0.15549896  1
  Ca2+  Ca40  1  0.41314768  0.66448101  0.49958798  1
  Ca2+  Ca41  1  0.41974140  0.65820734  0.82986527  1
  Ca2+  Ca42  1  0.92249199  0.16330055  0.16338035  1
  Ca2+  Ca43  1  0.91905258  0.16511622  0.50139050  1
  Ca2+  Ca44  1  0.92601037  0.17000622  0.82089045  1
  Ca2+  Ca45  1  0.92066576  0.66757818  0.16906116  1
  Ca2+  Ca46  1  0.92390993  0.67295446  0.49573423  1
  Ca2+  Ca47  1  0.92286873  0.67337353  0.81943976  1
  Al0+  Al48  1  -0.00121894  -0.00047341  -0.00274997  1
  Al0+  Al49  1  0.00014528  -0.00043100  0.33462877  1
  Al0+  Al50  1  -0.00183051  0.00062032  0.66933851  1
  Al0+  Al51  1  0.00042262  0.50196985  0.00137433  1
  Al0+  Al52  1  0.00011440  0.49979126  0.33473428  1
  Al0+  Al53  1  0.00017772  0.49973254  0.67162017  1
  Al0+  Al54  1  0.49926058  -0.00193283  0.00598809  1
  Al0+  Al55  1  0.50171983  -0.00058876  0.33096907  1
  Al0+  Al56  1  0.49993230  -0.00233333  0.66299453  1
  Al0+  Al57  1  0.50157865  0.50058556  -0.00398473  1
  Al0+  Al58  1  0.49996477  0.49789355  0.33274730  1
  Al0+  Al59  1  0.50136501  0.49784189  0.66585693  1
  Al0+  Al60  1  0.24789387  0.25124523  -0.00327475  1
  Al0+  Al61  1  0.25182657  0.25176757  0.33713372  1
  Al0+  Al62  1  0.25232405  0.25032632  0.66784794  1
  Al0+  Al63  1  0.24952815  0.74952982  0.00559086  1
  Al0+  Al64  1  0.25144296  0.75079077  0.33007549  1
  Al0+  Al65  1  0.25149165  0.74993254  0.67137189  1
  Al0+  Al66  1  0.75023317  0.25232355  -0.00193129  1
  Al0+  Al67  1  0.75002705  0.24920001  0.33423366  1
  Al0+  Al68  1  0.74918903  0.25020573  0.66324973  1
  Al0+  Al69  1  0.74998935  0.75186516  0.00056381  1
  Al0+  Al70  1  0.74942122  0.75099097  0.33387346  1
  Al0+  Al71  1  0.74928921  0.74972509  0.66619846  1
  Al0+  Al72  1  0.42779160  0.32178744  0.98363852  1
  Al0+  Al73  1  0.32246352  0.07002773  0.68003193  1
  Al0+  Al74  1  0.17640661  0.92938141  0.68244340  1
  Al0+  Al75  1  0.68003434  0.92996658  0.01335768  1
  Al0+  Al76  1  0.07382786  0.17878470  0.64994241  1
  Al0+  Al77  1  0.57100481  0.17587127  0.98526121  1
  Al0+  Al78  1  0.92674544  0.82181478  0.65189411  1
  Al0+  Al79  1  0.56935878  0.17733125  0.65153686  1
  Al0+  Al80  1  0.81989130  0.07195575  0.68089140  1
  Al0+  Al81  1  0.57130601  0.68071817  0.98607625  1
  Al0+  Al82  1  0.32227692  0.57018929  0.01517246  1
  Al0+  Al83  1  0.17967088  0.42916951  0.34671461  1
  Al0+  Al84  1  0.07180858  0.67703970  0.31662908  1
  Al0+  Al85  1  0.92929745  0.32067870  0.65085137  1
  Al0+  Al86  1  0.31864491  0.07143844  0.01343398  1
  Al0+  Al87  1  0.32283421  0.57120529  0.68137417  1
  Al0+  Al88  1  0.07314177  0.68000594  0.65398257  1
  Al0+  Al89  1  0.06849218  0.17927040  0.98779273  1
  Al0+  Al90  1  0.82035841  0.57141810  0.68135193  1
  Al0+  Al91  1  0.81987809  0.07068647  0.34672077  1
  Al0+  Al92  1  0.81942345  0.57111812  0.34673952  1
  Al0+  Al93  1  0.92855124  0.82276522  0.31599866  1
  Al0+  Al94  1  0.18070612  0.92963017  0.34607027  1
  Al0+  Al95  1  0.17734347  0.42830204  0.68434969  1
  Si0+  Si96  1  0.42562230  0.82150400  0.98344937  1
  Si0+  Si97  1  0.57157006  0.67629532  0.65037667  1
  Si0+  Si98  1  0.67677033  0.42722500  0.34971121  1
  Si0+  Si99  1  0.92830838  0.32119290  0.31815418  1
  Si0+  Si100  1  0.82239156  0.07363270  0.01573821  1
  Si0+  Si101  1  0.42874734  0.32383446  0.64655297  1
  Si0+  Si102  1  0.56992791  0.67887856  0.31933370  1
  Si0+  Si103  1  0.67646182  0.92762554  0.35131904  1
  Si0+  Si104  1  0.67963743  0.42931365  0.01427018  1
  Si0+  Si105  1  0.92934073  0.81949921  0.98508303  1
  Si0+  Si106  1  0.32395639  0.57197903  0.34771399  1
  Si0+  Si107  1  0.92714841  0.32564022  0.98495199  1
  Si0+  Si108  1  0.07195990  0.17949301  0.31968609  1
  Si0+  Si109  1  0.57244963  0.17916836  0.31698622  1
  Si0+  Si110  1  0.43047185  0.81957782  0.65200985  1
  Si0+  Si111  1  0.07197089  0.67838851  0.98551705  1
  Si0+  Si112  1  0.32364134  0.07286555  0.34899222  1
  Si0+  Si113  1  0.42895240  0.82186997  0.31656723  1
  Si0+  Si114  1  0.67657490  0.92781204  0.68245648  1
  Si0+  Si115  1  0.17708652  0.42952959  0.01797192  1
  Si0+  Si116  1  0.67795406  0.42776999  0.68456184  1
  Si0+  Si117  1  0.82113279  0.57211519  0.01572596  1
  Si0+  Si118  1  0.17488109  0.92736074  0.01845396  1
  Si0+  Si119  1  0.42942748  0.31976457  0.31808965  1
  O2-  O120  1  0.24321295  -0.00235930  0.06131100  1
  O2-  O121  1  0.25552803  0.00417720  0.39221077  1
  O2-  O122  1  0.24379636  0.00658222  0.73140829  1
  O2-  O123  1  0.24723428  0.49664902  0.06296423  1
  O2-  O124  1  0.25021287  0.50918637  0.39078570  1
  O2-  O125  1  0.25095393  0.50019229  0.73216546  1
  O2-  O126  1  0.75050374  0.00854239  0.06053744  1
  O2-  O127  1  0.74587797  -0.00472673  0.39409187  1
  O2-  O128  1  0.74598645  -0.00440810  0.72599521  1
  O2-  O129  1  0.75186704  0.49895576  0.05770580  1
  O2-  O130  1  0.74529390  0.49555692  0.39347691  1
  O2-  O131  1  0.74633527  0.49647608  0.72936538  1
  O2-  O132  1  0.00033640  0.25058318  0.27666460  1
  O2-  O133  1  0.00181822  0.25047786  0.59847631  1
  O2-  O134  1  -0.00719669  0.25369647  0.94338662  1
  O2-  O135  1  -0.00005568  0.74962093  0.26553472  1
  O2-  O136  1  0.00153453  0.75198786  0.60340844  1
  O2-  O137  1  0.00345269  0.75167411  0.94421780  1
  O2-  O138  1  0.49918553  0.24766684  0.27506098  1
  O2-  O139  1  0.49366555  0.25058918  0.60288103  1
  O2-  O140  1  0.49531720  0.24416690  0.93546130  1
  O2-  O141  1  0.49899589  0.74900451  0.27557288  1
  O2-  O142  1  0.49818860  0.74497469  0.60873137  1
  O2-  O143  1  0.49317828  0.75148981  0.93888160  1
  O2-  O144  1  0.06708658  0.17992732  0.10220262  1
  O2-  O145  1  0.07219985  0.17970618  0.42383973  1
  O2-  O146  1  0.07013506  0.17953421  0.76373536  1
  O2-  O147  1  0.06933719  0.67540217  0.09056998  1
  O2-  O148  1  0.07127009  0.67633144  0.42940046  1
  O2-  O149  1  0.07124897  0.68205626  0.76847773  1
  O2-  O150  1  0.57174903  0.18030842  0.09981628  1
  O2-  O151  1  0.57242444  0.17927637  0.42182695  1
  O2-  O152  1  0.56849809  0.17707794  0.76427021  1
  O2-  O153  1  0.57221624  0.68209922  0.09995480  1
  O2-  O154  1  0.56828990  0.67906091  0.42439866  1
  O2-  O155  1  0.57306335  0.67745148  0.75534181  1
  O2-  O156  1  0.18364821  0.42566320  0.23324019  1
  O2-  O157  1  0.17906982  0.43107128  0.57021572  1
  O2-  O158  1  0.17319208  0.43269747  0.91342337  1
  O2-  O159  1  0.18294128  0.93348096  0.23246735  1
  O2-  O160  1  0.18031994  0.92651374  0.56862171  1
  O2-  O161  1  0.17393393  0.92547944  0.91352887  1
  O2-  O162  1  0.67631775  0.42785994  0.24364569  1
  O2-  O163  1  0.67589363  0.43119535  0.57854454  1
  O2-  O164  1  0.68057178  0.42931732  0.90975701  1
  O2-  O165  1  0.67379591  0.92871508  0.24560581  1
  O2-  O166  1  0.67318756  0.92840206  0.57672597  1
  O2-  O167  1  0.68421855  0.92631461  0.90077363  1
  O2-  O168  1  0.43116560  0.32122707  0.09858002  1
  O2-  O169  1  0.43122484  0.32110786  0.42256484  1
  O2-  O170  1  0.43349213  0.32875058  0.75153546  1
  O2-  O171  1  0.42763580  0.81960491  0.08972647  1
  O2-  O172  1  0.43022285  0.82302165  0.42164516  1
  O2-  O173  1  0.43411384  0.82214542  0.75674216  1
  O2-  O174  1  0.92737477  0.32828268  0.09123548  1
  O2-  O175  1  0.92608065  0.32168661  0.42224454  1
  O2-  O176  1  0.92876702  0.31816383  0.76494614  1
  O2-  O177  1  0.92835321  0.81939258  0.09022672  1
  O2-  O178  1  0.92902798  0.82231861  0.42857715  1
  O2-  O179  1  0.92442092  0.81783829  0.76640123  1
  O2-  O180  1  0.32344375  0.07390312  0.24309239  1
  O2-  O181  1  0.32528797  0.06191531  0.56609627  1
  O2-  O182  1  0.31957459  0.06776426  0.90132183  1
  O2-  O183  1  0.32876994  0.56807426  0.24213378  1
  O2-  O184  1  0.32555805  0.56899343  0.56731152  1
  O2-  O185  1  0.32112574  0.56986119  0.90295978  1
  O2-  O186  1  0.81632581  0.07218613  0.23303795  1
  O2-  O187  1  0.81736497  0.07149952  0.56757357  1
  O2-  O188  1  0.82339479  0.07146969  0.91075009  1
  O2-  O189  1  0.81607373  0.56867909  0.23270722  1
  O2-  O190  1  0.81738280  0.57180919  0.56826872  1
  O2-  O191  1  0.82095955  0.57268005  0.91106258  1
  O2-  O192  1  0.04307870  0.08886562  0.27068040  1
  O2-  O193  1  0.04248436  0.08010276  0.59981158  1
  O2-  O194  1  0.03935320  0.08242775  0.93365786  1
  O2-  O195  1  0.04083858  0.57865690  0.26265670  1
  O2-  O196  1  0.04270725  0.58132618  0.60476431  1
  O2-  O197  1  0.04164327  0.58755605  0.93792344  1
  O2-  O198  1  0.54827079  0.08540545  0.27092799  1
  O2-  O199  1  0.53918290  0.08098195  0.59519023  1
  O2-  O200  1  0.54637046  0.07500769  0.93683864  1
  O2-  O201  1  0.54424600  0.58566323  0.27213415  1
  O2-  O202  1  0.54664478  0.58428638  0.60195946  1
  O2-  O203  1  0.54579761  0.58384586  0.93157371  1
  O2-  O204  1  0.16472185  0.20860843  0.27321979  1
  O2-  O205  1  0.17421463  0.20329478  0.59875223  1
  O2-  O206  1  0.16391150  0.20921354  0.93329012  1
  O2-  O207  1  0.17168925  0.70461419  0.26416037  1
  O2-  O208  1  0.17320665  0.70499671  0.60256973  1
  O2-  O209  1  0.16548658  0.70384434  0.94148492  1
  O2-  O210  1  0.66322537  0.20908528  0.26845688  1
  O2-  O211  1  0.66380462  0.21209443  0.59578135  1
  O2-  O212  1  0.66968308  0.20702602  0.93433528  1
  O2-  O213  1  0.66105093  0.70702099  0.27102560  1
  O2-  O214  1  0.66107218  0.70820535  0.60099279  1
  O2-  O215  1  0.66700741  0.71486467  0.93206683  1
  O2-  O216  1  0.08394993  0.45785236  0.06621821  1
  O2-  O217  1  0.08164537  0.45423902  0.39879859  1
  O2-  O218  1  0.08042814  0.45580633  0.73967420  1
  O2-  O219  1  0.08103851  0.95442322  0.06420111  1
  O2-  O220  1  0.08440579  0.95922410  0.39881697  1
  O2-  O221  1  0.07775919  0.95312793  0.73580235  1
  O2-  O222  1  0.58921045  0.45920460  0.06322251  1
  O2-  O223  1  0.58331639  0.45274599  0.39629053  1
  O2-  O224  1  0.58527271  0.45453552  0.73099424  1
  O2-  O225  1  0.58285138  0.95352495  0.07055335  1
  O2-  O226  1  0.58263507  0.95415606  0.39748594  1
  O2-  O227  1  0.58404716  0.95458269  0.72928001  1
  O2-  O228  1  0.20074115  0.33519069  0.06332755  1
  O2-  O229  1  0.21461396  0.33500537  0.40291569  1
  O2-  O230  1  0.20658119  0.32959450  0.73516728  1
  O2-  O231  1  0.20144648  0.83469104  0.06647983  1
  O2-  O232  1  0.21322764  0.83265360  0.39828080  1
  O2-  O233  1  0.21138518  0.83376830  0.73691386  1
  O2-  O234  1  0.70606738  0.33763493  0.06453022  1
  O2-  O235  1  0.70174569  0.33359829  0.39490409  1
  O2-  O236  1  0.70329708  0.33430574  0.72950152  1
  O2-  O237  1  0.71497173  0.83491650  0.07018520  1
  O2-  O238  1  0.69781730  0.83306526  0.39638714  1
  O2-  O239  1  0.70017635  0.83359647  0.72794076  1
  O2-  O240  1  0.45814122  0.41146407  0.26931341  1
  O2-  O241  1  0.46124140  0.41455006  0.59678299  1
  O2-  O242  1  0.46325565  0.41709805  0.93021279  1
  O2-  O243  1  0.45882792  0.91322378  0.26783331  1
  O2-  O244  1  0.46284952  0.90716448  0.59896018  1
  O2-  O245  1  0.45442031  0.91415820  0.93889335  1
  O2-  O246  1  0.95536182  0.41233559  0.26888278  1
  O2-  O247  1  0.95769844  0.42035127  0.60094423  1
  O2-  O248  1  0.95488176  0.41875916  0.93876028  1
  O2-  O249  1  0.95922785  0.92097407  0.26164726  1
  O2-  O250  1  0.95219860  0.92130163  0.60217812  1
  O2-  O251  1  0.95338619  0.91227895  0.93811261  1
  O2-  O252  1  0.33746258  0.29275670  0.27000732  1
  O2-  O253  1  0.33409106  0.30248754  0.60217415  1
  O2-  O254  1  0.32706700  0.30224253  0.93457236  1
  O2-  O255  1  0.33822963  0.79678326  0.26636496  1
  O2-  O256  1  0.33870378  0.79298075  0.60435276  1
  O2-  O257  1  0.33063797  0.79814868  0.94011817  1
  O2-  O258  1  0.83624432  0.29265477  0.26941278  1
  O2-  O259  1  0.83003282  0.29579385  0.59770877  1
  O2-  O260  1  0.83257993  0.30532084  0.93946735  1
  O2-  O261  1  0.82794841  0.79491702  0.26489669  1
  O2-  O262  1  0.82823165  0.79272653  0.59872061  1
  O2-  O263  1  0.83922943  0.78830051  0.93769338  1
  O2-  O264  1  0.41420993  0.03989201  0.07069657  1
  O2-  O265  1  0.41852250  0.04630816  0.39212925  1
  O2-  O266  1  0.41817270  0.03159739  0.73292126  1
  O2-  O267  1  0.42084258  0.54052650  0.06727681  1
  O2-  O268  1  0.41594691  0.54199023  0.39569137  1
  O2-  O269  1  0.42243490  0.54151594  0.73240905  1
  O2-  O270  1  0.91413004  0.04228334  0.06351850  1
  O2-  O271  1  0.91686405  0.04209726  0.39923129  1
  O2-  O272  1  0.91497656  0.04240705  0.73705112  1
  O2-  O273  1  0.91314104  0.54498583  0.06389375  1
  O2-  O274  1  0.91543693  0.53983425  0.39906900  1
  O2-  O275  1  0.91498416  0.54108363  0.73807983  1
  O2-  O276  1  0.28857098  0.16924729  0.06700445  1
  O2-  O277  1  0.30087521  0.16636752  0.39527495  1
  O2-  O278  1  0.30883362  0.17247009  0.72754737  1
  O2-  O279  1  0.29340747  0.66743065  0.07053548  1
  O2-  O280  1  0.30647744  0.66868527  0.38926703  1
  O2-  O281  1  0.30054031  0.67003040  0.73520597  1
  O2-  O282  1  0.80231554  0.16974108  0.06005716  1
  O2-  O283  1  0.78797865  0.16699548  0.40067478  1
  O2-  O284  1  0.78704702  0.16833407  0.73361751  1
  O2-  O285  1  0.78977930  0.66225466  0.06385426  1
  O2-  O286  1  0.78614741  0.66685535  0.40008012  1
  O2-  O287  1  0.78545167  0.66691209  0.73576656  1
