# generated using pymatgen
data_Ca2Al2SiO7
_symmetry_space_group_name_H-M   'P 1'
_cell_length_a   15.45917843
_cell_length_b   15.45816250
_cell_length_c   15.28347834
_cell_angle_alpha   90.00089524
_cell_angle_beta   89.99429191
_cell_angle_gamma   90.00689370
_symmetry_Int_Tables_number   1
_chemical_formula_structural   Ca2Al2SiO7
_chemical_formula_sum   'Ca48 Al48 Si24 O168'
_cell_volume   3652.30029951
_cell_formula_units_Z   24
loop_
 _symmetry_equiv_pos_site_id
 _symmetry_equiv_pos_as_xyz
  1  'x, y, z'
loop_
 _atom_type_symbol
 _atom_type_oxidation_number
  Ca2+  2.0
  Al0+  0.0
  Si0+  0.0
  O2-  -2.0
loop_
 _atom_site_type_symbol
 _atom_site_label
 _atom_site_symmetry_multiplicity
 _atom_site_fract_x
 _atom_site_fract_y
 _atom_site_fract_z
 _atom_site_occupancy
  Ca2+  Ca0  1  0.17913464  0.08424620  0.16993829  1
  Ca2+  Ca1  1  0.17042402  0.08663315  0.50286776  1
  Ca2+  Ca2  1  0.17062303  0.08088586  0.84138361  1
  Ca2+  Ca3  1  0.16207654  0.57442430  0.17111871  1
  Ca2+  Ca4  1  0.17554996  0.57742081  0.49891679  1
  Ca2+  Ca5  1  0.17017423  0.57813399  0.84022743  1
  Ca2+  Ca6  1  0.67063245  0.07631252  0.17023433  1
  Ca2+  Ca7  1  0.65791148  0.07672645  0.50245258  1
  Ca2+  Ca8  1  0.66480465  0.07670499  0.83838540  1
  Ca2+  Ca9  1  0.67941129  0.58269682  0.17145708  1
  Ca2+  Ca10  1  0.67425024  0.58490802  0.50099646  1
  Ca2+  Ca11  1  0.67466575  0.57845774  0.83972376  1
  Ca2+  Ca12  1  0.07822891  0.34178034  0.16210429  1
  Ca2+  Ca13  1  0.07781462  0.33383481  0.49805888  1
  Ca2+  Ca14  1  0.07589048  0.33000424  0.83025947  1
  Ca2+  Ca15  1  0.08146090  0.82625743  0.15927682  1
  Ca2+  Ca16  1  0.07360252  0.83096670  0.49060333  1
  Ca2+  Ca17  1  0.09047546  0.82775437  0.83274359  1
  Ca2+  Ca18  1  0.58212848  0.32591003  0.16551226  1
  Ca2+  Ca19  1  0.57941799  0.32139931  0.49657166  1
  Ca2+  Ca20  1  0.57610656  0.32401829  0.82196378  1
  Ca2+  Ca21  1  0.58171068  0.84105601  0.16810303  1
  Ca2+  Ca22  1  0.57520164  0.83994594  0.49401540  1
  Ca2+  Ca23  1  0.58069569  0.83844158  0.82846327  1
  Ca2+  Ca24  1  0.31761135  0.42145276  0.17748260  1
  Ca2+  Ca25  1  0.33697393  0.42618010  0.50620305  1
  Ca2+  Ca26  1  0.32968460  0.41787650  0.83771056  1
  Ca2+  Ca27  1  0.33015260  0.92304168  0.16979631  1
  Ca2+  Ca28  1  0.34199565  0.91903708  0.50086544  1
  Ca2+  Ca29  1  0.33037986  0.92332104  0.84027346  1
  Ca2+  Ca30  1  0.84619724  0.42609994  0.17082049  1
  Ca2+  Ca31  1  0.84085049  0.41658780  0.49880081  1
  Ca2+  Ca32  1  0.83972441  0.41649836  0.83980171  1
  Ca2+  Ca33  1  0.82408539  0.91508962  0.17328896  1
  Ca2+  Ca34  1  0.82047223  0.91251200  0.50465078  1
  Ca2+  Ca35  1  0.82112492  0.92767987  0.84332716  1
  Ca2+  Ca36  1  0.41968827  0.15403975  0.16674117  1
  Ca2+  Ca37  1  0.42671847  0.16276998  0.49480235  1
  Ca2+  Ca38  1  0.41816551  0.17056827  0.82544779  1
  Ca2+  Ca39  1  0.40967682  0.67210798  0.16600825  1
  Ca2+  Ca40  1  0.41022319  0.67501562  0.49417369  1
  Ca2+  Ca41  1  0.41654606  0.67379262  0.82294559  1
  Ca2+  Ca42  1  0.91217332  0.17953776  0.15941155  1
  Ca2+  Ca43  1  0.92262627  0.17580585  0.49473234  1
  Ca2+  Ca44  1  0.91855782  0.17387672  0.82659317  1
  Ca2+  Ca45  1  0.91631316  0.66768662  0.16139916  1
  Ca2+  Ca46  1  0.91581487  0.67080251  0.48984150  1
  Ca2+  Ca47  1  0.92267967  0.66331190  0.83632743  1
  Al0+  Al48  1  -0.00118178  0.00079216  0.00648572  1
  Al0+  Al49  1  -0.00085080  0.00129592  0.32705699  1
  Al0+  Al50  1  -0.00050317  -0.00101962  0.66417249  1
  Al0+  Al51  1  0.00098901  0.50156448  -0.00298157  1
  Al0+  Al52  1  0.00074248  0.50029814  0.34060502  1
  Al0+  Al53  1  0.00238848  0.50109845  0.66362545  1
  Al0+  Al54  1  0.50032071  -0.00068639  0.00463126  1
  Al0+  Al55  1  0.49993708  -0.00163776  0.33118027  1
  Al0+  Al56  1  0.49851312  -0.00156913  0.66606634  1
  Al0+  Al57  1  0.50120810  0.50121526  -0.00131651  1
  Al0+  Al58  1  0.50174089  0.49941316  0.33543498  1
  Al0+  Al59  1  0.50333619  0.50204017  0.66860811  1
  Al0+  Al60  1  0.24984599  0.25160811  0.00797387  1
  Al0+  Al61  1  0.25003868  0.24891818  0.34333564  1
  Al0+  Al62  1  0.24838147  0.25195520  0.66125648  1
  Al0+  Al63  1  0.25015499  0.75110184  -0.00308798  1
  Al0+  Al64  1  0.24875129  0.74974996  0.33091842  1
  Al0+  Al65  1  0.25076940  0.74893690  0.66532108  1
  Al0+  Al66  1  0.74694072  0.24982869  -0.00320249  1
  Al0+  Al67  1  0.75065974  0.24997197  0.32379395  1
  Al0+  Al68  1  0.75066230  0.25066092  0.65853579  1
  Al0+  Al69  1  0.74887801  0.74862915  0.00444259  1
  Al0+  Al70  1  0.74855153  0.74996759  0.33799633  1
  Al0+  Al71  1  0.74981830  0.74992334  0.67444796  1
  Al0+  Al72  1  0.81933731  0.56959893  0.34776269  1
  Al0+  Al73  1  0.32280271  0.57213133  0.34760669  1
  Al0+  Al74  1  0.32067619  0.06747465  0.35021396  1
  Al0+  Al75  1  0.17739421  0.92566606  0.01416134  1
  Al0+  Al76  1  0.32218635  0.57123253  0.68188974  1
  Al0+  Al77  1  0.42971780  0.81855439  0.65386820  1
  Al0+  Al78  1  0.56909196  0.17767232  0.65211027  1
  Al0+  Al79  1  0.07025344  0.68128754  0.98561344  1
  Al0+  Al80  1  0.68146829  0.93135483  0.34920233  1
  Al0+  Al81  1  0.42883914  0.81884840  0.31712715  1
  Al0+  Al82  1  0.31985902  0.07143531  0.01356655  1
  Al0+  Al83  1  0.56900317  0.17872910  0.31633283  1
  Al0+  Al84  1  0.92952310  0.32249186  0.65037141  1
  Al0+  Al85  1  0.18035657  0.43131957  0.01175189  1
  Al0+  Al86  1  0.92986281  0.32013968  0.98619161  1
  Al0+  Al87  1  0.07138372  0.17552874  0.65237212  1
  Al0+  Al88  1  0.42804708  0.32464760  0.65251967  1
  Al0+  Al89  1  0.67982146  0.92901112  0.01709990  1
  Al0+  Al90  1  0.93278599  0.32056233  0.31735271  1
  Al0+  Al91  1  0.67766940  0.93085713  0.68161110  1
  Al0+  Al92  1  0.82147531  0.07523088  0.01422944  1
  Al0+  Al93  1  0.82051232  0.56716137  0.01239045  1
  Al0+  Al94  1  0.17796114  0.42827597  0.35209660  1
  Al0+  Al95  1  0.92583246  0.82153715  0.32006051  1
  Si0+  Si96  1  0.32460593  0.57293366  0.01457646  1
  Si0+  Si97  1  0.92794355  0.81925100  0.65461447  1
  Si0+  Si98  1  0.42701596  0.32341265  0.31674328  1
  Si0+  Si99  1  0.82308497  0.57094275  0.68328436  1
  Si0+  Si100  1  0.43101734  0.82040420  0.98408196  1
  Si0+  Si101  1  0.31928958  0.07077328  0.67993384  1
  Si0+  Si102  1  0.17646248  0.92798487  0.67941882  1
  Si0+  Si103  1  0.68105308  0.42767959  0.68087668  1
  Si0+  Si104  1  0.57561809  0.67829663  0.65080274  1
  Si0+  Si105  1  0.57291042  0.67594799  0.31638314  1
  Si0+  Si106  1  0.57278380  0.67752837  0.98409926  1
  Si0+  Si107  1  0.56769389  0.17863184  0.98426825  1
  Si0+  Si108  1  0.07154195  0.67987151  0.65013460  1
  Si0+  Si109  1  0.82332978  0.07255577  0.68071850  1
  Si0+  Si110  1  0.06967914  0.67957026  0.31713423  1
  Si0+  Si111  1  0.82313273  0.07496044  0.35003533  1
  Si0+  Si112  1  0.92473294  0.82347989  0.98317527  1
  Si0+  Si113  1  0.17557304  0.92767206  0.34979092  1
  Si0+  Si114  1  0.07470941  0.17731055  0.98640995  1
  Si0+  Si115  1  0.42741609  0.32304796  0.98741615  1
  Si0+  Si116  1  0.17794865  0.42896992  0.68575449  1
  Si0+  Si117  1  0.67482981  0.42715722  0.01589310  1
  Si0+  Si118  1  0.07529356  0.17715677  0.31419447  1
  Si0+  Si119  1  0.67789222  0.42473098  0.35017743  1
  O2-  O120  1  0.24556167  0.00132218  0.06317916  1
  O2-  O121  1  0.24369648  -0.00511402  0.39726283  1
  O2-  O122  1  0.24479028  0.00242359  0.72074687  1
  O2-  O123  1  0.25674369  0.50433190  0.05838485  1
  O2-  O124  1  0.25616742  0.49596476  0.39893653  1
  O2-  O125  1  0.25078929  0.49395057  0.72963433  1
  O2-  O126  1  0.75570964  -0.00213845  0.06504773  1
  O2-  O127  1  0.75737772  0.00465555  0.39659285  1
  O2-  O128  1  0.75138428  0.00753954  0.72596002  1
  O2-  O129  1  0.74716082  0.49171102  0.05984048  1
  O2-  O130  1  0.74564257  0.49427449  0.39510775  1
  O2-  O131  1  0.75455496  0.49659997  0.72366071  1
  O2-  O132  1  0.00735167  0.24636718  0.26981802  1
  O2-  O133  1  0.00036757  0.24852062  0.60240099  1
  O2-  O134  1  0.00113775  0.24085331  0.94142805  1
  O2-  O135  1  0.00217882  0.74919339  0.27284202  1
  O2-  O136  1  -0.00142078  0.74944082  0.60961149  1
  O2-  O137  1  -0.00172051  0.75963765  0.93788295  1
  O2-  O138  1  0.49326251  0.25357388  0.26994309  1
  O2-  O139  1  0.49648562  0.24948254  0.60232179  1
  O2-  O140  1  0.49696101  0.25096622  0.94387093  1
  O2-  O141  1  0.50022458  0.74008545  0.27123397  1
  O2-  O142  1  0.50513028  0.74462665  0.60695227  1
  O2-  O143  1  0.50123727  0.74824641  0.94213635  1
  O2-  O144  1  0.07840161  0.18207780  0.09145927  1
  O2-  O145  1  0.07198470  0.17473875  0.41984171  1
  O2-  O146  1  0.07047123  0.17368635  0.76639841  1
  O2-  O147  1  0.06823465  0.67976796  0.09835810  1
  O2-  O148  1  0.06890860  0.68208309  0.42335061  1
  O2-  O149  1  0.07148968  0.67953353  0.75541890  1
  O2-  O150  1  0.56734955  0.17898437  0.08919337  1
  O2-  O151  1  0.56800299  0.17932544  0.42938528  1
  O2-  O152  1  0.56699538  0.17874790  0.76640692  1
  O2-  O153  1  0.57235938  0.67356338  0.08862961  1
  O2-  O154  1  0.57529514  0.67794421  0.42207363  1
  O2-  O155  1  0.57678126  0.67889918  0.75678699  1
  O2-  O156  1  0.17610909  0.43276958  0.23803541  1
  O2-  O157  1  0.17518346  0.43304320  0.58076730  1
  O2-  O158  1  0.18259251  0.43124367  0.89850508  1
  O2-  O159  1  0.17736208  0.92797458  0.24447872  1
  O2-  O160  1  0.17496331  0.92603201  0.57458335  1
  O2-  O161  1  0.18347778  0.92476095  0.89968304  1
  O2-  O162  1  0.67649028  0.42653893  0.24443503  1
  O2-  O163  1  0.67999842  0.43014615  0.57612880  1
  O2-  O164  1  0.67164789  0.43012942  0.91001664  1
  O2-  O165  1  0.68208317  0.93158427  0.23644349  1
  O2-  O166  1  0.67935761  0.92839408  0.56885040  1
  O2-  O167  1  0.67685909  0.93184444  0.90302165  1
  O2-  O168  1  0.43006295  0.32636758  0.09203566  1
  O2-  O169  1  0.43135806  0.32409478  0.42214688  1
  O2-  O170  1  0.42963147  0.32187610  0.76722102  1
  O2-  O171  1  0.43075357  0.81939288  0.08896899  1
  O2-  O172  1  0.43113743  0.81912280  0.43038590  1
  O2-  O173  1  0.42993999  0.81906542  0.76742452  1
  O2-  O174  1  0.93300974  0.32309103  0.09887361  1
  O2-  O175  1  0.93329157  0.31904592  0.43030842  1
  O2-  O176  1  0.93113915  0.32333988  0.76434800  1
  O2-  O177  1  0.92240181  0.81764959  0.08847997  1
  O2-  O178  1  0.92735413  0.81821102  0.43422297  1
  O2-  O179  1  0.92919340  0.81818716  0.75954470  1
  O2-  O180  1  0.32005308  0.06545171  0.23724706  1
  O2-  O181  1  0.32138880  0.06703863  0.57513689  1
  O2-  O182  1  0.32109433  0.07144637  0.89917077  1
  O2-  O183  1  0.31976053  0.57168116  0.23359442  1
  O2-  O184  1  0.31831825  0.57344074  0.56936678  1
  O2-  O185  1  0.32534505  0.57144946  0.90870125  1
  O2-  O186  1  0.81978296  0.07463842  0.24457714  1
  O2-  O187  1  0.82613955  0.06808525  0.57547355  1
  O2-  O188  1  0.81667934  0.07597236  0.89988298  1
  O2-  O189  1  0.81961901  0.56902628  0.23470455  1
  O2-  O190  1  0.82157176  0.57480649  0.57843764  1
  O2-  O191  1  0.81889626  0.56615176  0.89868644  1
  O2-  O192  1  0.05174030  0.08359767  0.26697421  1
  O2-  O193  1  0.04426251  0.07722498  0.59698959  1
  O2-  O194  1  0.05593518  0.08042163  0.94355540  1
  O2-  O195  1  0.04092828  0.58623883  0.27384516  1
  O2-  O196  1  0.04419149  0.58888317  0.60196052  1
  O2-  O197  1  0.03564603  0.58752243  0.92781255  1
  O2-  O198  1  0.53591409  0.08322699  0.26240080  1
  O2-  O199  1  0.53803738  0.08050569  0.59904191  1
  O2-  O200  1  0.53832488  0.08668445  0.93775002  1
  O2-  O201  1  0.55435528  0.57998613  0.27148528  1
  O2-  O202  1  0.55454461  0.58387959  0.60563667  1
  O2-  O203  1  0.54614218  0.58584435  0.93383541  1
  O2-  O204  1  0.17097412  0.20206910  0.27253950  1
  O2-  O205  1  0.16912419  0.20289227  0.59816014  1
  O2-  O206  1  0.16705776  0.20814327  0.93893866  1
  O2-  O207  1  0.16285816  0.70300562  0.26975430  1
  O2-  O208  1  0.16172513  0.70997252  0.60200529  1
  O2-  O209  1  0.16768718  0.70988197  0.92935298  1
  O2-  O210  1  0.66449957  0.21012313  0.26048682  1
  O2-  O211  1  0.66724549  0.20431912  0.59856946  1
  O2-  O212  1  0.65841258  0.20601779  0.93464047  1
  O2-  O213  1  0.66442990  0.70752546  0.26973254  1
  O2-  O214  1  0.66940300  0.70548653  0.60558896  1
  O2-  O215  1  0.66432921  0.70559269  0.93571550  1
  O2-  O216  1  0.08567614  0.46682664  0.06518427  1
  O2-  O217  1  0.08405611  0.46455700  0.40859986  1
  O2-  O218  1  0.08586514  0.46125252  0.73222342  1
  O2-  O219  1  0.07631779  0.94333279  0.06454596  1
  O2-  O220  1  0.08065757  0.95313957  0.39430315  1
  O2-  O221  1  0.08404213  0.95168787  0.72832927  1
  O2-  O222  1  0.58341708  0.45707870  0.06453396  1
  O2-  O223  1  0.58452682  0.44860902  0.39742190  1
  O2-  O224  1  0.59123309  0.45755542  0.73186491  1
  O2-  O225  1  0.58304471  0.96059373  0.07014643  1
  O2-  O226  1  0.58459074  0.96387750  0.40068098  1
  O2-  O227  1  0.58076052  0.96106727  0.73595910  1
  O2-  O228  1  0.20848353  0.33672314  0.06986249  1
  O2-  O229  1  0.19879178  0.32853264  0.40422333  1
  O2-  O230  1  0.19886511  0.33296464  0.72917398  1
  O2-  O231  1  0.21042427  0.82892784  0.06801526  1
  O2-  O232  1  0.19914935  0.83304172  0.39444174  1
  O2-  O233  1  0.20820155  0.83748487  0.72722023  1
  O2-  O234  1  0.69470849  0.33184477  0.05870694  1
  O2-  O235  1  0.70672468  0.33141648  0.39428510  1
  O2-  O236  1  0.70625313  0.33455579  0.72769355  1
  O2-  O237  1  0.70301106  0.82908035  0.06836817  1
  O2-  O238  1  0.70985793  0.83448893  0.40406170  1
  O2-  O239  1  0.70916386  0.83455141  0.73714114  1
  O2-  O240  1  0.45380438  0.41680659  0.26988695  1
  O2-  O241  1  0.46144809  0.42219564  0.60104943  1
  O2-  O242  1  0.45581668  0.41451024  0.93806534  1
  O2-  O243  1  0.46395595  0.91318754  0.26254851  1
  O2-  O244  1  0.46016470  0.91447112  0.59969169  1
  O2-  O245  1  0.46104860  0.91226776  0.93741512  1
  O2-  O246  1  0.96476945  0.41943231  0.26819810  1
  O2-  O247  1  0.96003228  0.42100589  0.59786074  1
  O2-  O248  1  0.96444063  0.41500753  0.93088597  1
  O2-  O249  1  0.95191079  0.91896670  0.26570072  1
  O2-  O250  1  0.95359828  0.91050597  0.60584045  1
  O2-  O251  1  0.94376277  0.92040244  0.94102867  1
  O2-  O252  1  0.33095048  0.29889500  0.27615008  1
  O2-  O253  1  0.32802732  0.30429135  0.60170541  1
  O2-  O254  1  0.33519382  0.29532115  0.94086842  1
  O2-  O255  1  0.33085928  0.79105409  0.26326514  1
  O2-  O256  1  0.33340348  0.78835641  0.59875612  1
  O2-  O257  1  0.33929810  0.79429336  0.93546736  1
  O2-  O258  1  0.83564200  0.29362823  0.26217173  1
  O2-  O259  1  0.83100778  0.29897303  0.59603608  1
  O2-  O260  1  0.83018173  0.29510577  0.93363947  1
  O2-  O261  1  0.83027762  0.78683512  0.26737805  1
  O2-  O262  1  0.83601067  0.78910303  0.60859514  1
  O2-  O263  1  0.83280256  0.79153820  0.93607587  1
  O2-  O264  1  0.41577867  0.03811790  0.06758226  1
  O2-  O265  1  0.41623780  0.03231616  0.40268722  1
  O2-  O266  1  0.40893934  0.03926077  0.72935006  1
  O2-  O267  1  0.41887440  0.54997929  0.06021726  1
  O2-  O268  1  0.42373498  0.54994157  0.39905090  1
  O2-  O269  1  0.42174923  0.54708752  0.73446142  1
  O2-  O270  1  0.92240838  0.05837722  0.06559562  1
  O2-  O271  1  0.91907582  0.05242411  0.39239511  1
  O2-  O272  1  0.91517055  0.04282032  0.72924334  1
  O2-  O273  1  0.91692851  0.53804406  0.06574105  1
  O2-  O274  1  0.91483915  0.54101543  0.40428442  1
  O2-  O275  1  0.91663506  0.54517700  0.72841003  1
  O2-  O276  1  0.29611080  0.16925572  0.06980909  1
  O2-  O277  1  0.29528805  0.16479925  0.40505019  1
  O2-  O278  1  0.29513420  0.16481522  0.72500958  1
  O2-  O279  1  0.29867460  0.66690531  0.05784412  1
  O2-  O280  1  0.28924388  0.66970082  0.40014251  1
  O2-  O281  1  0.28721414  0.66723165  0.73603586  1
  O2-  O282  1  0.78640839  0.17160126  0.06770049  1
  O2-  O283  1  0.79504669  0.16872053  0.39394216  1
  O2-  O284  1  0.80127297  0.16884868  0.72266656  1
  O2-  O285  1  0.78874872  0.66276510  0.06661610  1
  O2-  O286  1  0.78618318  0.66428468  0.40448842  1
  O2-  O287  1  0.79286779  0.66047091  0.73410501  1
