# generated using pymatgen
data_Ca2Al2SiO7
_symmetry_space_group_name_H-M   'P 1'
_cell_length_a   15.45966044
_cell_length_b   15.45994875
_cell_length_c   15.28518329
_cell_angle_alpha   90.01239111
_cell_angle_beta   90.00235919
_cell_angle_gamma   89.97909987
_symmetry_Int_Tables_number   1
_chemical_formula_structural   Ca2Al2SiO7
_chemical_formula_sum   'Ca48 Al48 Si24 O168'
_cell_volume   3653.24343227
_cell_formula_units_Z   24
loop_
 _symmetry_equiv_pos_site_id
 _symmetry_equiv_pos_as_xyz
  1  'x, y, z'
loop_
 _atom_type_symbol
 _atom_type_oxidation_number
  Ca2+  2.0
  Al0+  0.0
  Si0+  0.0
  O2-  -2.0
loop_
 _atom_site_type_symbol
 _atom_site_label
 _atom_site_symmetry_multiplicity
 _atom_site_fract_x
 _atom_site_fract_y
 _atom_site_fract_z
 _atom_site_occupancy
  Ca2+  Ca0  1  0.15917719  0.07240299  0.16959910  1
  Ca2+  Ca1  1  0.16806677  0.07577705  0.49923603  1
  Ca2+  Ca2  1  0.16396109  0.07803669  0.84193077  1
  Ca2+  Ca3  1  0.16351228  0.57565884  0.17743130  1
  Ca2+  Ca4  1  0.16940408  0.58551483  0.49383993  1
  Ca2+  Ca5  1  0.16532481  0.57983908  0.84215332  1
  Ca2+  Ca6  1  0.66828872  0.07765682  0.17631926  1
  Ca2+  Ca7  1  0.66784004  0.07795009  0.50240175  1
  Ca2+  Ca8  1  0.67628809  0.08225007  0.83471756  1
  Ca2+  Ca9  1  0.67564523  0.58688010  0.17693062  1
  Ca2+  Ca10  1  0.66686811  0.58547899  0.50265302  1
  Ca2+  Ca11  1  0.66459331  0.58054501  0.83214272  1
  Ca2+  Ca12  1  0.08535365  0.33136980  0.15637630  1
  Ca2+  Ca13  1  0.07976867  0.33488300  0.49526017  1
  Ca2+  Ca14  1  0.07446611  0.33418039  0.83481760  1
  Ca2+  Ca15  1  0.08215553  0.82572196  0.16123762  1
  Ca2+  Ca16  1  0.07271584  0.83025238  0.48940270  1
  Ca2+  Ca17  1  0.07910247  0.83372413  0.83332404  1
  Ca2+  Ca18  1  0.56999800  0.33480033  0.16783270  1
  Ca2+  Ca19  1  0.58323745  0.32878827  0.49119840  1
  Ca2+  Ca20  1  0.57879366  0.33787655  0.82828793  1
  Ca2+  Ca21  1  0.58317614  0.83009195  0.17143187  1
  Ca2+  Ca22  1  0.57652821  0.82733618  0.48815986  1
  Ca2+  Ca23  1  0.57560531  0.82447664  0.82246738  1
  Ca2+  Ca24  1  0.32446982  0.41701424  0.17572702  1
  Ca2+  Ca25  1  0.33449692  0.42096072  0.49689645  1
  Ca2+  Ca26  1  0.32745927  0.41948714  0.84486145  1
  Ca2+  Ca27  1  0.32121213  0.91223880  0.17577014  1
  Ca2+  Ca28  1  0.32866773  0.90113228  0.49880936  1
  Ca2+  Ca29  1  0.32873004  0.91677162  0.84041564  1
  Ca2+  Ca30  1  0.83892545  0.42521066  0.17422570  1
  Ca2+  Ca31  1  0.82941740  0.42578615  0.50686305  1
  Ca2+  Ca32  1  0.83131366  0.41101041  0.83537570  1
  Ca2+  Ca33  1  0.83129254  0.91081239  0.17580477  1
  Ca2+  Ca34  1  0.83032456  0.91536358  0.50361018  1
  Ca2+  Ca35  1  0.84386826  0.91856332  0.83489455  1
  Ca2+  Ca36  1  0.41764674  0.17554125  0.16721185  1
  Ca2+  Ca37  1  0.42481861  0.17388629  0.48732039  1
  Ca2+  Ca38  1  0.41358156  0.17495468  0.83372886  1
  Ca2+  Ca39  1  0.41481040  0.66500169  0.17247481  1
  Ca2+  Ca40  1  0.42658108  0.67045665  0.49290708  1
  Ca2+  Ca41  1  0.42062381  0.67226595  0.82434638  1
  Ca2+  Ca42  1  0.92411253  0.17553501  0.15823878  1
  Ca2+  Ca43  1  0.90825350  0.17229466  0.50153605  1
  Ca2+  Ca44  1  0.92033056  0.17253778  0.82994731  1
  Ca2+  Ca45  1  0.92549857  0.67266119  0.16628863  1
  Ca2+  Ca46  1  0.91707362  0.67546972  0.48954896  1
  Ca2+  Ca47  1  0.92431708  0.67635618  0.83232690  1
  Al0+  Al48  1  0.00022299  0.00197265  -0.00077944  1
  Al0+  Al49  1  -0.00089017  0.00275076  0.33670738  1
  Al0+  Al50  1  0.00134327  0.00012357  0.66651227  1
  Al0+  Al51  1  -0.00091283  0.50147378  -0.00415154  1
  Al0+  Al52  1  -0.00159207  0.50137083  0.34145479  1
  Al0+  Al53  1  -0.00050682  0.49847942  0.66446385  1
  Al0+  Al54  1  0.50205758  0.00038667  -0.00006877  1
  Al0+  Al55  1  0.50082905  0.00027596  0.32929402  1
  Al0+  Al56  1  0.49756541  0.00165752  0.66674784  1
  Al0+  Al57  1  0.50112764  0.49975527  -0.00300064  1
  Al0+  Al58  1  0.49940902  0.49898947  0.32839614  1
  Al0+  Al59  1  0.49897043  0.50055839  0.66825332  1
  Al0+  Al60  1  0.25212794  0.25029923  -0.00484460  1
  Al0+  Al61  1  0.24808370  0.24878467  0.33522738  1
  Al0+  Al62  1  0.24872085  0.24868564  0.66743104  1
  Al0+  Al63  1  0.25172280  0.75034212  -0.00009101  1
  Al0+  Al64  1  0.24960976  0.74707948  0.33623926  1
  Al0+  Al65  1  0.24972846  0.74804083  0.66668123  1
  Al0+  Al66  1  0.74777586  0.24901504  0.00043626  1
  Al0+  Al67  1  0.75064137  0.24972334  0.32773873  1
  Al0+  Al68  1  0.75022140  0.24974266  0.67217792  1
  Al0+  Al69  1  0.74980878  0.74969824  -0.00521830  1
  Al0+  Al70  1  0.74900630  0.75170040  0.33599749  1
  Al0+  Al71  1  0.75125557  0.74832593  0.66377005  1
  Al0+  Al72  1  0.57359946  0.17808069  0.31803541  1
  Al0+  Al73  1  0.32292169  0.57011865  0.34947280  1
  Al0+  Al74  1  0.57193388  0.67829882  0.31714721  1
  Al0+  Al75  1  0.42700812  0.32121112  0.31916402  1
  Al0+  Al76  1  0.92818038  0.82122148  0.98525346  1
  Al0+  Al77  1  0.82040276  0.06904775  0.68154027  1
  Al0+  Al78  1  0.57041415  0.67773817  0.65166873  1
  Al0+  Al79  1  0.42775733  0.82293256  0.65228914  1
  Al0+  Al80  1  0.17958830  0.93009768  0.01388999  1
  Al0+  Al81  1  0.17837416  0.92802737  0.34765955  1
  Al0+  Al82  1  0.17744572  0.42635375  0.34997759  1
  Al0+  Al83  1  0.67943599  0.43046620  0.67986713  1
  Al0+  Al84  1  0.42740716  0.82073333  0.31659244  1
  Al0+  Al85  1  0.43111900  0.32073650  0.98492567  1
  Al0+  Al86  1  0.92893401  0.82374261  0.31951134  1
  Al0+  Al87  1  0.93177136  0.82200221  0.65164821  1
  Al0+  Al88  1  0.92813424  0.31944242  0.65147235  1
  Al0+  Al89  1  0.07197920  0.17913438  0.98521896  1
  Al0+  Al90  1  0.17883914  0.43079478  0.01175223  1
  Al0+  Al91  1  0.67877902  0.93043565  0.34692356  1
  Al0+  Al92  1  0.92680854  0.32285967  0.98595567  1
  Al0+  Al93  1  0.07025062  0.67826917  0.31975118  1
  Al0+  Al94  1  0.81980825  0.57188423  0.34708125  1
  Al0+  Al95  1  0.07400867  0.67906764  0.98538159  1
  Si0+  Si96  1  0.82044793  0.07134781  0.01594837  1
  Si0+  Si97  1  0.31922313  0.56887108  0.68309872  1
  Si0+  Si98  1  0.17792330  0.42637821  0.68377240  1
  Si0+  Si99  1  0.67918664  0.42688136  0.34675991  1
  Si0+  Si100  1  0.57198957  0.67952435  0.98393875  1
  Si0+  Si101  1  0.67722922  0.42825941  0.01641531  1
  Si0+  Si102  1  0.07268722  0.17816794  0.64766348  1
  Si0+  Si103  1  0.57086102  0.18038505  0.65377345  1
  Si0+  Si104  1  0.92954198  0.32159753  0.32066840  1
  Si0+  Si105  1  0.07095040  0.17939013  0.31973967  1
  Si0+  Si106  1  0.82229825  0.07471498  0.34987380  1
  Si0+  Si107  1  0.82431100  0.57318255  0.68625533  1
  Si0+  Si108  1  0.67654570  0.92690181  0.68342170  1
  Si0+  Si109  1  0.18120908  0.92927547  0.68156824  1
  Si0+  Si110  1  0.32184823  0.07409061  0.68270368  1
  Si0+  Si111  1  0.32459132  0.57232554  0.01610812  1
  Si0+  Si112  1  0.57179683  0.17588295  0.98040560  1
  Si0+  Si113  1  0.81871270  0.57132586  0.01341285  1
  Si0+  Si114  1  0.67922816  0.92791112  0.01389974  1
  Si0+  Si115  1  0.32483932  0.07210345  0.01736049  1
  Si0+  Si116  1  0.42722790  0.32056173  0.65248576  1
  Si0+  Si117  1  0.32153641  0.07108750  0.34928704  1
  Si0+  Si118  1  0.07233042  0.67582971  0.64896178  1
  Si0+  Si119  1  0.42987203  0.82212022  0.98600266  1
  O2-  O120  1  0.25481450  0.00484768  0.06077502  1
  O2-  O121  1  0.25758857  -0.00139089  0.39527073  1
  O2-  O122  1  0.25463683  -0.00139584  0.72326394  1
  O2-  O123  1  0.25259605  0.50630907  0.05806556  1
  O2-  O124  1  0.25093930  0.49732172  0.39972037  1
  O2-  O125  1  0.24785011  0.49855418  0.72588866  1
  O2-  O126  1  0.75161806  -0.00242623  0.05641795  1
  O2-  O127  1  0.75390405  0.00529380  0.39281758  1
  O2-  O128  1  0.74831268  -0.00843204  0.72983056  1
  O2-  O129  1  0.75167656  0.49614647  0.05660544  1
  O2-  O130  1  0.74341753  0.49795668  0.39276654  1
  O2-  O131  1  0.75382737  0.50486686  0.72925094  1
  O2-  O132  1  0.00262591  0.25325078  0.27860935  1
  O2-  O133  1  0.00397649  0.24663083  0.60334847  1
  O2-  O134  1  -0.00011830  0.25159004  0.93588626  1
  O2-  O135  1  0.00323934  0.75462122  0.26958702  1
  O2-  O136  1  0.00237384  0.74350965  0.60627081  1
  O2-  O137  1  0.00427514  0.75340755  0.93525209  1
  O2-  O138  1  0.50001838  0.24938900  0.27002517  1
  O2-  O139  1  0.49887335  0.25016503  0.61123734  1
  O2-  O140  1  0.50528888  0.24638386  0.93568483  1
  O2-  O141  1  0.49876586  0.74846801  0.26550106  1
  O2-  O142  1  0.50506609  0.75648855  0.60370627  1
  O2-  O143  1  0.49900017  0.74949387  0.94349078  1
  O2-  O144  1  0.06882120  0.17869826  0.09909386  1
  O2-  O145  1  0.07066264  0.17815929  0.42500669  1
  O2-  O146  1  0.07437589  0.17858061  0.75301307  1
  O2-  O147  1  0.07250924  0.67740506  0.09819948  1
  O2-  O148  1  0.06655314  0.67931663  0.43368935  1
  O2-  O149  1  0.07391712  0.67659643  0.75484613  1
  O2-  O150  1  0.57128560  0.17407864  0.08527709  1
  O2-  O151  1  0.57442665  0.18108842  0.43250970  1
  O2-  O152  1  0.56905464  0.18065400  0.75908129  1
  O2-  O153  1  0.57573254  0.67974951  0.08823614  1
  O2-  O154  1  0.57186436  0.67975409  0.43040288  1
  O2-  O155  1  0.56544352  0.67726109  0.76640608  1
  O2-  O156  1  0.17634027  0.42481184  0.23623334  1
  O2-  O157  1  0.17995569  0.42347265  0.57927771  1
  O2-  O158  1  0.18153792  0.43228230  0.89787935  1
  O2-  O159  1  0.17659768  0.93171744  0.23465541  1
  O2-  O160  1  0.18129663  0.93063755  0.57668778  1
  O2-  O161  1  0.18341017  0.93108608  0.89993849  1
  O2-  O162  1  0.68399929  0.42578378  0.24089384  1
  O2-  O163  1  0.67995775  0.42928278  0.56702446  1
  O2-  O164  1  0.67480883  0.43038864  0.91107034  1
  O2-  O165  1  0.68138273  0.93122919  0.23304274  1
  O2-  O166  1  0.67455386  0.93136245  0.57843713  1
  O2-  O167  1  0.67625200  0.92978556  0.90871276  1
  O2-  O168  1  0.43210856  0.32048563  0.09716966  1
  O2-  O169  1  0.42918584  0.31858658  0.43360684  1
  O2-  O170  1  0.42712828  0.31913303  0.75781137  1
  O2-  O171  1  0.43054101  0.82367033  0.09024987  1
  O2-  O172  1  0.43069483  0.81993558  0.43011196  1
  O2-  O173  1  0.42702388  0.82048559  0.76703825  1
  O2-  O174  1  0.92656348  0.32150113  0.09987047  1
  O2-  O175  1  0.92691306  0.31808299  0.42579155  1
  O2-  O176  1  0.92987840  0.31780279  0.76431617  1
  O2-  O177  1  0.92381870  0.81769945  0.09788125  1
  O2-  O178  1  0.93004332  0.82330634  0.43336253  1
  O2-  O179  1  0.93659506  0.82303770  0.76483299  1
  O2-  O180  1  0.31710865  0.07357872  0.24383427  1
  O2-  O181  1  0.32070053  0.08155484  0.57851271  1
  O2-  O182  1  0.32735345  0.06860828  0.91107969  1
  O2-  O183  1  0.32166924  0.56740656  0.23561764  1
  O2-  O184  1  0.32043981  0.56781354  0.57883938  1
  O2-  O185  1  0.32693069  0.57036012  0.90970794  1
  O2-  O186  1  0.82258971  0.07732621  0.24421795  1
  O2-  O187  1  0.81610064  0.07073373  0.56875998  1
  O2-  O188  1  0.81825337  0.07253746  0.91065516  1
  O2-  O189  1  0.82122245  0.56868294  0.23323862  1
  O2-  O190  1  0.82556008  0.57172686  0.58099242  1
  O2-  O191  1  0.81472188  0.57304020  0.90829030  1
  O2-  O192  1  0.03951820  0.08958900  0.27115619  1
  O2-  O193  1  0.04735008  0.08466996  0.60226703  1
  O2-  O194  1  0.04122808  0.08250397  0.93006184  1
  O2-  O195  1  0.03654576  0.58004149  0.26922890  1
  O2-  O196  1  0.04972299  0.58137042  0.60437673  1
  O2-  O197  1  0.04151512  0.58338021  0.92926100  1
  O2-  O198  1  0.54594051  0.08115075  0.26324050  1
  O2-  O199  1  0.54386274  0.08839147  0.60669006  1
  O2-  O200  1  0.54509513  0.08293274  0.93228272  1
  O2-  O201  1  0.54813382  0.57907469  0.26372805  1
  O2-  O202  1  0.53613657  0.58110111  0.59927043  1
  O2-  O203  1  0.54483355  0.58758850  0.93620547  1
  O2-  O204  1  0.16284477  0.20305903  0.27177341  1
  O2-  O205  1  0.16624941  0.20497229  0.60143866  1
  O2-  O206  1  0.17092445  0.20303273  0.93137086  1
  O2-  O207  1  0.17050624  0.69937919  0.26990060  1
  O2-  O208  1  0.16583646  0.70272227  0.60445360  1
  O2-  O209  1  0.17352437  0.70517375  0.93156277  1
  O2-  O210  1  0.67052356  0.20704748  0.26156739  1
  O2-  O211  1  0.66194153  0.20927055  0.60743588  1
  O2-  O212  1  0.66582186  0.20101638  0.93530680  1
  O2-  O213  1  0.66885313  0.71147298  0.26410826  1
  O2-  O214  1  0.67233432  0.69569803  0.60405399  1
  O2-  O215  1  0.66096179  0.70943020  0.93232416  1
  O2-  O216  1  0.08008621  0.45762498  0.06338840  1
  O2-  O217  1  0.08083671  0.45671293  0.40572681  1
  O2-  O218  1  0.08497743  0.45375964  0.72920031  1
  O2-  O219  1  0.08274867  0.96166995  0.06687593  1
  O2-  O220  1  0.08420768  0.96573810  0.40341037  1
  O2-  O221  1  0.09104160  0.96069297  0.72976098  1
  O2-  O222  1  0.58677167  0.46033412  0.06380862  1
  O2-  O223  1  0.58333787  0.44604346  0.38941158  1
  O2-  O224  1  0.58231977  0.46129873  0.73580801  1
  O2-  O225  1  0.58811032  0.95722641  0.06223742  1
  O2-  O226  1  0.58199667  0.96203760  0.40067588  1
  O2-  O227  1  0.58339294  0.95640596  0.73053193  1
  O2-  O228  1  0.21063480  0.33257938  0.06209292  1
  O2-  O229  1  0.20426527  0.32738535  0.40407472  1
  O2-  O230  1  0.20686402  0.33461815  0.73134679  1
  O2-  O231  1  0.21154105  0.83311438  0.06625163  1
  O2-  O232  1  0.20571966  0.83139032  0.40247976  1
  O2-  O233  1  0.20679293  0.83640120  0.72882510  1
  O2-  O234  1  0.69899928  0.33412768  0.06155873  1
  O2-  O235  1  0.70844774  0.33408560  0.39326603  1
  O2-  O236  1  0.70931789  0.33481238  0.73712929  1
  O2-  O237  1  0.70587816  0.83498897  0.05935361  1
  O2-  O238  1  0.70854574  0.83545249  0.40330221  1
  O2-  O239  1  0.69832803  0.83108751  0.72690737  1
  O2-  O240  1  0.45512014  0.41719280  0.26282155  1
  O2-  O241  1  0.45427191  0.41273154  0.60753171  1
  O2-  O242  1  0.46319749  0.41695240  0.92922853  1
  O2-  O243  1  0.45410705  0.91958774  0.26441518  1
  O2-  O244  1  0.44622663  0.92505011  0.60325129  1
  O2-  O245  1  0.45935759  0.91351803  0.93757774  1
  O2-  O246  1  0.95490853  0.41461828  0.27638556  1
  O2-  O247  1  0.95702963  0.41683747  0.59850687  1
  O2-  O248  1  0.95255015  0.42043329  0.93083460  1
  O2-  O249  1  0.95251726  0.92489697  0.27008896  1
  O2-  O250  1  0.96422287  0.91808971  0.59809553  1
  O2-  O251  1  0.95434052  0.92097309  0.93481204  1
  O2-  O252  1  0.32887267  0.28954055  0.26758556  1
  O2-  O253  1  0.33564729  0.29143614  0.60615958  1
  O2-  O254  1  0.33629956  0.28973241  0.92746397  1
  O2-  O255  1  0.32855742  0.79165005  0.26590811  1
  O2-  O256  1  0.33076860  0.78872678  0.60115290  1
  O2-  O257  1  0.33854933  0.79610434  0.93689989  1
  O2-  O258  1  0.83989735  0.29308347  0.26966616  1
  O2-  O259  1  0.83146278  0.28574491  0.59977112  1
  O2-  O260  1  0.82765175  0.29250377  0.93461654  1
  O2-  O261  1  0.83105735  0.79327719  0.26882615  1
  O2-  O262  1  0.83228284  0.79665468  0.60194726  1
  O2-  O263  1  0.83141178  0.78997135  0.92861417  1
  O2-  O264  1  0.41862827  0.04597425  0.06298758  1
  O2-  O265  1  0.41756678  0.05189830  0.39233325  1
  O2-  O266  1  0.41435457  0.05084656  0.73206088  1
  O2-  O267  1  0.41788535  0.54395132  0.06124291  1
  O2-  O268  1  0.42191216  0.53960952  0.40166839  1
  O2-  O269  1  0.41011999  0.54056685  0.73262988  1
  O2-  O270  1  0.91329378  0.04827414  0.06241551  1
  O2-  O271  1  0.91521695  0.05249437  0.39852964  1
  O2-  O272  1  0.91901224  0.04092342  0.73421378  1
  O2-  O273  1  0.91158260  0.54647606  0.05922291  1
  O2-  O274  1  0.91253187  0.53889139  0.40630587  1
  O2-  O275  1  0.91772218  0.54460943  0.73189071  1
  O2-  O276  1  0.30145083  0.16719355  0.05973376  1
  O2-  O277  1  0.29097549  0.16191746  0.39897740  1
  O2-  O278  1  0.28961124  0.16357549  0.73411165  1
  O2-  O279  1  0.30447648  0.66766424  0.05954813  1
  O2-  O280  1  0.29485216  0.66729305  0.40508240  1
  O2-  O281  1  0.29164587  0.66100760  0.73165275  1
  O2-  O282  1  0.78968900  0.16216133  0.06455987  1
  O2-  O283  1  0.79367466  0.16801612  0.39625011  1
  O2-  O284  1  0.78631349  0.16336887  0.73847005  1
  O2-  O285  1  0.78535237  0.66161731  0.06060592  1
  O2-  O286  1  0.78917581  0.66727460  0.40217163  1
  O2-  O287  1  0.79951796  0.66725190  0.73264590  1
