# generated using pymatgen
data_Ca2Al2SiO7
_symmetry_space_group_name_H-M   'P 1'
_cell_length_a   15.46261281
_cell_length_b   15.46395023
_cell_length_c   15.28757733
_cell_angle_alpha   89.98101843
_cell_angle_beta   89.99155473
_cell_angle_gamma   89.99986680
_symmetry_Int_Tables_number   1
_chemical_formula_structural   Ca2Al2SiO7
_chemical_formula_sum   'Ca48 Al48 Si24 O168'
_cell_volume   3655.45938359
_cell_formula_units_Z   24
loop_
 _symmetry_equiv_pos_site_id
 _symmetry_equiv_pos_as_xyz
  1  'x, y, z'
loop_
 _atom_type_symbol
 _atom_type_oxidation_number
  Ca2+  2.0
  Al0+  0.0
  Si0+  0.0
  O2-  -2.0
loop_
 _atom_site_type_symbol
 _atom_site_label
 _atom_site_symmetry_multiplicity
 _atom_site_fract_x
 _atom_site_fract_y
 _atom_site_fract_z
 _atom_site_occupancy
  Ca2+  Ca0  1  0.16308539  0.08192714  0.17131985  1
  Ca2+  Ca1  1  0.17438038  0.09795252  0.50088359  1
  Ca2+  Ca2  1  0.16708900  0.08706264  0.83896374  1
  Ca2+  Ca3  1  0.16517885  0.58141382  0.17500862  1
  Ca2+  Ca4  1  0.16450487  0.57246566  0.50173361  1
  Ca2+  Ca5  1  0.17816973  0.58543649  0.84171899  1
  Ca2+  Ca6  1  0.67814445  0.08359099  0.17342373  1
  Ca2+  Ca7  1  0.67995053  0.10065437  0.49807808  1
  Ca2+  Ca8  1  0.68113858  0.07953953  0.84151606  1
  Ca2+  Ca9  1  0.67241820  0.57958256  0.17431905  1
  Ca2+  Ca10  1  0.67205449  0.57524386  0.49704966  1
  Ca2+  Ca11  1  0.66533861  0.58076941  0.84055992  1
  Ca2+  Ca12  1  0.08288390  0.32487615  0.16942463  1
  Ca2+  Ca13  1  0.07608750  0.32573340  0.49219542  1
  Ca2+  Ca14  1  0.07590853  0.32061828  0.82662520  1
  Ca2+  Ca15  1  0.08151028  0.82404774  0.15670154  1
  Ca2+  Ca16  1  0.08537290  0.82410991  0.49499730  1
  Ca2+  Ca17  1  0.08421223  0.83594479  0.83956786  1
  Ca2+  Ca18  1  0.58440485  0.33111975  0.17143111  1
  Ca2+  Ca19  1  0.57050541  0.33201085  0.49051350  1
  Ca2+  Ca20  1  0.57568292  0.33154771  0.82751971  1
  Ca2+  Ca21  1  0.58440256  0.82936000  0.15705565  1
  Ca2+  Ca22  1  0.58074662  0.83256422  0.49481235  1
  Ca2+  Ca23  1  0.59188613  0.82725819  0.83567067  1
  Ca2+  Ca24  1  0.32668023  0.42008314  0.17355053  1
  Ca2+  Ca25  1  0.32696431  0.41013984  0.50280764  1
  Ca2+  Ca26  1  0.33521117  0.42336345  0.83565457  1
  Ca2+  Ca27  1  0.32406863  0.92066300  0.17073409  1
  Ca2+  Ca28  1  0.33223870  0.93275607  0.50258622  1
  Ca2+  Ca29  1  0.32485345  0.92464862  0.83824133  1
  Ca2+  Ca30  1  0.83183545  0.42244668  0.18183109  1
  Ca2+  Ca31  1  0.83464514  0.41011503  0.49811196  1
  Ca2+  Ca32  1  0.83500683  0.41402852  0.83453730  1
  Ca2+  Ca33  1  0.83823206  0.92496859  0.16570867  1
  Ca2+  Ca34  1  0.83417690  0.93162876  0.50216166  1
  Ca2+  Ca35  1  0.83500775  0.92593813  0.84357181  1
  Ca2+  Ca36  1  0.41596318  0.17001407  0.17058391  1
  Ca2+  Ca37  1  0.41643422  0.17285078  0.48841248  1
  Ca2+  Ca38  1  0.41607372  0.17197202  0.82264592  1
  Ca2+  Ca39  1  0.42243332  0.66467876  0.15748208  1
  Ca2+  Ca40  1  0.41197627  0.66676686  0.49836657  1
  Ca2+  Ca41  1  0.41721274  0.66224544  0.83205747  1
  Ca2+  Ca42  1  0.92202202  0.16377082  0.16249783  1
  Ca2+  Ca43  1  0.92378887  0.17014695  0.49242003  1
  Ca2+  Ca44  1  0.92500326  0.16031672  0.82713740  1
  Ca2+  Ca45  1  0.92644244  0.66723222  0.16083994  1
  Ca2+  Ca46  1  0.92075570  0.66787891  0.48873695  1
  Ca2+  Ca47  1  0.92081775  0.67572846  0.83401578  1
  Al0+  Al48  1  0.00253833  0.00004342  0.00025442  1
  Al0+  Al49  1  -0.00081737  -0.00278088  0.33636804  1
  Al0+  Al50  1  0.00014390  -0.00331171  0.66448413  1
  Al0+  Al51  1  0.00172141  0.49864334  -0.00579482  1
  Al0+  Al52  1  0.00233304  0.50083302  0.33473749  1
  Al0+  Al53  1  -0.00093531  0.49974604  0.66690462  1
  Al0+  Al54  1  0.50121236  0.00115326  0.00114615  1
  Al0+  Al55  1  0.49823526  -0.00015246  0.33220112  1
  Al0+  Al56  1  0.49951553  -0.00368636  0.67150679  1
  Al0+  Al57  1  0.49958355  0.50111131  0.00024327  1
  Al0+  Al58  1  0.50056768  0.50195080  0.33343309  1
  Al0+  Al59  1  0.50103519  0.49956264  0.66518477  1
  Al0+  Al60  1  0.24988919  0.25379187  -0.00467629  1
  Al0+  Al61  1  0.24926793  0.25195401  0.33156387  1
  Al0+  Al62  1  0.24921167  0.25121556  0.66708127  1
  Al0+  Al63  1  0.25339178  0.75189084  0.00378097  1
  Al0+  Al64  1  0.24999832  0.75135231  0.32994898  1
  Al0+  Al65  1  0.25190365  0.74943112  0.66981997  1
  Al0+  Al66  1  0.74792717  0.25057723  0.00285782  1
  Al0+  Al67  1  0.74723942  0.25123490  0.33461899  1
  Al0+  Al68  1  0.74949799  0.25043767  0.67203560  1
  Al0+  Al69  1  0.74977384  0.74871605  -0.00595423  1
  Al0+  Al70  1  0.74908535  0.75092169  0.33782810  1
  Al0+  Al71  1  0.75045618  0.74745948  0.66444327  1
  Al0+  Al72  1  0.18122123  0.93159031  0.01413287  1
  Al0+  Al73  1  0.07102413  0.67967754  0.32118682  1
  Al0+  Al74  1  0.67900604  0.92678800  0.01459545  1
  Al0+  Al75  1  0.82021500  0.07011580  0.68052269  1
  Al0+  Al76  1  0.82176962  0.07124798  0.01620061  1
  Al0+  Al77  1  0.92810835  0.32103114  0.31865230  1
  Al0+  Al78  1  0.43039585  0.32073065  0.65347855  1
  Al0+  Al79  1  0.32043044  0.56968393  0.68004751  1
  Al0+  Al80  1  0.57057202  0.17777439  0.31772356  1
  Al0+  Al81  1  0.93041270  0.82006935  0.98539578  1
  Al0+  Al82  1  0.32104248  0.57015106  0.01464923  1
  Al0+  Al83  1  0.17992648  0.42975391  0.34690649  1
  Al0+  Al84  1  0.31985246  0.07278775  0.67978960  1
  Al0+  Al85  1  0.56953582  0.67957099  0.98633234  1
  Al0+  Al86  1  0.82229989  0.57159255  0.34754835  1
  Al0+  Al87  1  0.06995474  0.17613921  0.65076879  1
  Al0+  Al88  1  0.31867817  0.07011919  0.34474393  1
  Al0+  Al89  1  0.07029706  0.18021762  0.98638671  1
  Al0+  Al90  1  0.82162892  0.07080318  0.34765582  1
  Al0+  Al91  1  0.92672764  0.32183451  0.65141345  1
  Al0+  Al92  1  0.42745104  0.32356509  0.31642389  1
  Al0+  Al93  1  0.07504758  0.67675199  0.98360159  1
  Al0+  Al94  1  0.67749256  0.42865482  0.34968077  1
  Al0+  Al95  1  0.07030079  0.17740949  0.31733896  1
  Si0+  Si96  1  0.57049471  0.17498375  0.65349496  1
  Si0+  Si97  1  0.57178695  0.67838508  0.64929201  1
  Si0+  Si98  1  0.82191520  0.57281115  0.68396987  1
  Si0+  Si99  1  0.17920512  0.92564115  0.68281873  1
  Si0+  Si100  1  0.42881722  0.82166955  0.31757027  1
  Si0+  Si101  1  0.17768965  0.92590436  0.35091173  1
  Si0+  Si102  1  0.67922006  0.43115397  0.68307737  1
  Si0+  Si103  1  0.67809895  0.42987941  0.01441864  1
  Si0+  Si104  1  0.57121017  0.68108320  0.31905805  1
  Si0+  Si105  1  0.67601460  0.92830081  0.35048028  1
  Si0+  Si106  1  0.42828549  0.82519974  0.98190422  1
  Si0+  Si107  1  0.32325647  0.07695001  0.01601620  1
  Si0+  Si108  1  0.82240200  0.56924959  0.01154697  1
  Si0+  Si109  1  0.92439133  0.32212935  0.98422436  1
  Si0+  Si110  1  0.92739613  0.81891139  0.64960293  1
  Si0+  Si111  1  0.07250600  0.68012417  0.65295709  1
  Si0+  Si112  1  0.43099685  0.32069745  0.98418204  1
  Si0+  Si113  1  0.17584460  0.42828942  0.68597214  1
  Si0+  Si114  1  0.17765623  0.42836278  0.01641070  1
  Si0+  Si115  1  0.42830225  0.81992392  0.65132294  1
  Si0+  Si116  1  0.57250628  0.17830889  0.98375776  1
  Si0+  Si117  1  0.32239570  0.57432930  0.34929976  1
  Si0+  Si118  1  0.67839956  0.92316475  0.68352383  1
  Si0+  Si119  1  0.92569635  0.82127201  0.31767916  1
  O2-  O120  1  0.25527280  0.00762081  0.05964030  1
  O2-  O121  1  0.24099517  -0.00040755  0.39440175  1
  O2-  O122  1  0.24153690  0.00125346  0.72525909  1
  O2-  O123  1  0.24087312  0.50221944  0.06079477  1
  O2-  O124  1  0.25609939  0.50416467  0.39345035  1
  O2-  O125  1  0.24576683  0.49668109  0.72915519  1
  O2-  O126  1  0.74922192  -0.00100450  0.06564241  1
  O2-  O127  1  0.74295796  -0.00137118  0.39424132  1
  O2-  O128  1  0.74443635  -0.00508195  0.72549358  1
  O2-  O129  1  0.75503503  0.49529223  0.05421194  1
  O2-  O130  1  0.75411262  0.49652094  0.39947347  1
  O2-  O131  1  0.75323262  0.49922270  0.72582840  1
  O2-  O132  1  -0.00548610  0.24521942  0.26679120  1
  O2-  O133  1  -0.00330062  0.24781361  0.60257594  1
  O2-  O134  1  -0.00894468  0.25112860  0.94111163  1
  O2-  O135  1  -0.00568783  0.75208786  0.27506456  1
  O2-  O136  1  -0.00052190  0.74812960  0.60906821  1
  O2-  O137  1  0.00310116  0.74886348  0.93343675  1
  O2-  O138  1  0.49994870  0.25138777  0.26709560  1
  O2-  O139  1  0.49839559  0.23931419  0.60866705  1
  O2-  O140  1  0.49824770  0.24610662  0.94140277  1
  O2-  O141  1  0.49964379  0.75048394  0.27599926  1
  O2-  O142  1  0.50119852  0.75053388  0.60828119  1
  O2-  O143  1  0.49791675  0.75671566  0.93783547  1
  O2-  O144  1  0.07278691  0.18208953  0.09887016  1
  O2-  O145  1  0.07112984  0.17965848  0.43067096  1
  O2-  O146  1  0.06879757  0.17683878  0.76485286  1
  O2-  O147  1  0.07146108  0.67607697  0.09691617  1
  O2-  O148  1  0.07281535  0.68259299  0.43518392  1
  O2-  O149  1  0.07237945  0.68230026  0.75770515  1
  O2-  O150  1  0.57435189  0.18018212  0.08815190  1
  O2-  O151  1  0.56724988  0.17719912  0.43184974  1
  O2-  O152  1  0.56958997  0.17846462  0.75968750  1
  O2-  O153  1  0.56796374  0.67783559  0.09937064  1
  O2-  O154  1  0.57068362  0.68319404  0.42460079  1
  O2-  O155  1  0.57304579  0.67810126  0.75431790  1
  O2-  O156  1  0.18092032  0.43199088  0.23366315  1
  O2-  O157  1  0.17517814  0.43035854  0.58045473  1
  O2-  O158  1  0.18142129  0.42647468  0.91073235  1
  O2-  O159  1  0.18126809  0.92209869  0.24563338  1
  O2-  O160  1  0.18418403  0.91768908  0.57768906  1
  O2-  O161  1  0.18350756  0.93275422  0.90058880  1
  O2-  O162  1  0.67552015  0.43508631  0.23566939  1
  O2-  O163  1  0.67651172  0.43421483  0.57886383  1
  O2-  O164  1  0.67605702  0.43108713  0.90869683  1
  O2-  O165  1  0.67640558  0.92454039  0.24545391  1
  O2-  O166  1  0.67910663  0.91721285  0.57824779  1
  O2-  O167  1  0.68042085  0.92969459  0.90054078  1
  O2-  O168  1  0.43141715  0.32172744  0.08860739  1
  O2-  O169  1  0.42797406  0.32216159  0.43026493  1
  O2-  O170  1  0.43503913  0.32283630  0.76732888  1
  O2-  O171  1  0.42894250  0.82408826  0.08764131  1
  O2-  O172  1  0.42880175  0.82053648  0.42317661  1
  O2-  O173  1  0.42748973  0.81924517  0.75592865  1
  O2-  O174  1  0.92331674  0.32541324  0.08913992  1
  O2-  O175  1  0.93121682  0.31921082  0.43208716  1
  O2-  O176  1  0.92855985  0.32287435  0.76547628  1
  O2-  O177  1  0.93059663  0.81654759  0.09884253  1
  O2-  O178  1  0.92629434  0.81988081  0.42397350  1
  O2-  O179  1  0.92497071  0.81793064  0.75428208  1
  O2-  O180  1  0.31975173  0.06538138  0.23175599  1
  O2-  O181  1  0.32314327  0.06987413  0.56697037  1
  O2-  O182  1  0.32278892  0.07660725  0.90996529  1
  O2-  O183  1  0.32168138  0.57585494  0.24375310  1
  O2-  O184  1  0.31783452  0.57231230  0.56729441  1
  O2-  O185  1  0.32378533  0.56535646  0.90128312  1
  O2-  O186  1  0.82279326  0.06719707  0.23513924  1
  O2-  O187  1  0.81829645  0.06946916  0.56752346  1
  O2-  O188  1  0.81994030  0.07129911  0.90216462  1
  O2-  O189  1  0.81850029  0.57430818  0.23351874  1
  O2-  O190  1  0.82001464  0.57814706  0.57958966  1
  O2-  O191  1  0.82000836  0.56765617  0.90585554  1
  O2-  O192  1  0.04633433  0.07520527  0.26983859  1
  O2-  O193  1  0.04706187  0.07563622  0.59922822  1
  O2-  O194  1  0.04399610  0.08289847  0.93244605  1
  O2-  O195  1  0.04320498  0.58364829  0.26667537  1
  O2-  O196  1  0.04608146  0.58726374  0.60766651  1
  O2-  O197  1  0.04776963  0.57851043  0.92887441  1
  O2-  O198  1  0.54097797  0.07949143  0.26460120  1
  O2-  O199  1  0.55199052  0.07850808  0.61127302  1
  O2-  O200  1  0.54872220  0.08527343  0.93666650  1
  O2-  O201  1  0.54513750  0.58959255  0.27139982  1
  O2-  O202  1  0.54211135  0.58798046  0.60138746  1
  O2-  O203  1  0.53561758  0.58401995  0.93023320  1
  O2-  O204  1  0.16724836  0.20944221  0.26437695  1
  O2-  O205  1  0.16873770  0.20760836  0.60122513  1
  O2-  O206  1  0.16604196  0.21448049  0.93058044  1
  O2-  O207  1  0.16671450  0.71193416  0.26581296  1
  O2-  O208  1  0.16359860  0.71077763  0.60571520  1
  O2-  O209  1  0.17447396  0.70786146  0.93402946  1
  O2-  O210  1  0.66848730  0.20632730  0.26452637  1
  O2-  O211  1  0.66297892  0.20647455  0.60979992  1
  O2-  O212  1  0.66253163  0.21057108  0.93442760  1
  O2-  O213  1  0.66295547  0.70979122  0.27231265  1
  O2-  O214  1  0.66345502  0.70588702  0.60112274  1
  O2-  O215  1  0.66540400  0.70637470  0.92799016  1
  O2-  O216  1  0.08143748  0.44786819  0.05918214  1
  O2-  O217  1  0.08614280  0.46331172  0.40412266  1
  O2-  O218  1  0.08250120  0.45501592  0.73229977  1
  O2-  O219  1  0.08495093  0.95881761  0.06882451  1
  O2-  O220  1  0.08225543  0.94259335  0.39597088  1
  O2-  O221  1  0.08264324  0.94319483  0.72506562  1
  O2-  O222  1  0.58937149  0.46401899  0.06243683  1
  O2-  O223  1  0.58132809  0.46513067  0.40408601  1
  O2-  O224  1  0.58971029  0.46428236  0.73269422  1
  O2-  O225  1  0.57866535  0.95165257  0.06557417  1
  O2-  O226  1  0.58130096  0.95051521  0.39607020  1
  O2-  O227  1  0.58329960  0.94287428  0.72906634  1
  O2-  O228  1  0.21074532  0.33746587  0.06336900  1
  O2-  O229  1  0.21121416  0.33441936  0.40228682  1
  O2-  O230  1  0.20251774  0.33538479  0.73225957  1
  O2-  O231  1  0.21348850  0.83597841  0.06956734  1
  O2-  O232  1  0.21130699  0.83498518  0.39913350  1
  O2-  O233  1  0.21304755  0.83649765  0.73349402  1
  O2-  O234  1  0.69880532  0.33668405  0.06116439  1
  O2-  O235  1  0.69749476  0.32910798  0.40274202  1
  O2-  O236  1  0.70246544  0.33912457  0.73299153  1
  O2-  O237  1  0.70501158  0.82604494  0.06398482  1
  O2-  O238  1  0.70262254  0.83591415  0.39983692  1
  O2-  O239  1  0.70741269  0.83008636  0.73008896  1
  O2-  O240  1  0.45621491  0.42323691  0.26549536  1
  O2-  O241  1  0.46626688  0.41521727  0.59888294  1
  O2-  O242  1  0.46483075  0.41056228  0.93617481  1
  O2-  O243  1  0.45593547  0.91199992  0.26847742  1
  O2-  O244  1  0.45603477  0.91183223  0.60315551  1
  O2-  O245  1  0.45158040  0.91977414  0.93575825  1
  O2-  O246  1  0.96004204  0.41913429  0.26739739  1
  O2-  O247  1  0.95336260  0.42214452  0.60040398  1
  O2-  O248  1  0.95193672  0.41407808  0.93467028  1
  O2-  O249  1  0.95199429  0.91408283  0.27213082  1
  O2-  O250  1  0.95506914  0.90965623  0.60073476  1
  O2-  O251  1  0.96090640  0.91762850  0.93178550  1
  O2-  O252  1  0.33069110  0.29382321  0.26218974  1
  O2-  O253  1  0.33120160  0.29713401  0.60334049  1
  O2-  O254  1  0.33874801  0.29773125  0.93508812  1
  O2-  O255  1  0.33788881  0.79386142  0.26878986  1
  O2-  O256  1  0.33829462  0.78863553  0.60229712  1
  O2-  O257  1  0.33597467  0.79764721  0.93506258  1
  O2-  O258  1  0.82589740  0.30255444  0.27060306  1
  O2-  O259  1  0.82513794  0.29774864  0.60359814  1
  O2-  O260  1  0.82911032  0.30016745  0.93866239  1
  O2-  O261  1  0.83128747  0.79698325  0.27335968  1
  O2-  O262  1  0.83659332  0.78880627  0.60115924  1
  O2-  O263  1  0.83366344  0.78977896  0.92910244  1
  O2-  O264  1  0.41778672  0.05306888  0.06014954  1
  O2-  O265  1  0.41383774  0.03504601  0.40010426  1
  O2-  O266  1  0.41552763  0.03818058  0.73537635  1
  O2-  O267  1  0.41608653  0.53465726  0.06900993  1
  O2-  O268  1  0.41722330  0.55349612  0.39430999  1
  O2-  O269  1  0.41850425  0.53930792  0.73236757  1
  O2-  O270  1  0.92002109  0.04187640  0.06692430  1
  O2-  O271  1  0.91617596  0.03594333  0.40428272  1
  O2-  O272  1  0.91710646  0.03546445  0.73202488  1
  O2-  O273  1  0.91617221  0.54537698  0.05663924  1
  O2-  O274  1  0.92124703  0.54810797  0.40041208  1
  O2-  O275  1  0.91458297  0.54788034  0.73115110  1
  O2-  O276  1  0.29731278  0.17121872  0.05954299  1
  O2-  O277  1  0.29173191  0.16779093  0.39734496  1
  O2-  O278  1  0.29333031  0.17002505  0.73495348  1
  O2-  O279  1  0.30129031  0.66979024  0.06615840  1
  O2-  O280  1  0.29550176  0.66824646  0.39493280  1
  O2-  O281  1  0.29138129  0.66643639  0.73556587  1
  O2-  O282  1  0.79120781  0.17000253  0.06757274  1
  O2-  O283  1  0.79063625  0.16750342  0.40068720  1
  O2-  O284  1  0.79006538  0.16603525  0.73684885  1
  O2-  O285  1  0.79142077  0.65996046  0.05716630  1
  O2-  O286  1  0.78880173  0.66824147  0.40361598  1
  O2-  O287  1  0.78949037  0.66295711  0.73265140  1
