# generated using pymatgen
data_Ca2Al2SiO7
_symmetry_space_group_name_H-M   'P 1'
_cell_length_a   15.45804032
_cell_length_b   15.45820046
_cell_length_c   15.28342271
_cell_angle_alpha   90.01430383
_cell_angle_beta   89.99685369
_cell_angle_gamma   89.98277054
_symmetry_Int_Tables_number   1
_chemical_formula_structural   Ca2Al2SiO7
_chemical_formula_sum   'Ca48 Al48 Si24 O168'
_cell_volume   3652.02684970
_cell_formula_units_Z   24
loop_
 _symmetry_equiv_pos_site_id
 _symmetry_equiv_pos_as_xyz
  1  'x, y, z'
loop_
 _atom_type_symbol
 _atom_type_oxidation_number
  Ca2+  2.0
  Al0+  0.0
  Si0+  0.0
  O2-  -2.0
loop_
 _atom_site_type_symbol
 _atom_site_label
 _atom_site_symmetry_multiplicity
 _atom_site_fract_x
 _atom_site_fract_y
 _atom_site_fract_z
 _atom_site_occupancy
  Ca2+  Ca0  1  0.17574693  0.08393400  0.17102409  1
  Ca2+  Ca1  1  0.17271001  0.07874183  0.50520280  1
  Ca2+  Ca2  1  0.16727776  0.07448011  0.83457077  1
  Ca2+  Ca3  1  0.16983693  0.59169944  0.16630145  1
  Ca2+  Ca4  1  0.16226920  0.58025396  0.50669011  1
  Ca2+  Ca5  1  0.16840482  0.58380818  0.83820487  1
  Ca2+  Ca6  1  0.66605388  0.07292936  0.17099894  1
  Ca2+  Ca7  1  0.66934985  0.07701434  0.50372939  1
  Ca2+  Ca8  1  0.67443235  0.07376446  0.83794507  1
  Ca2+  Ca9  1  0.66376889  0.57801551  0.17215388  1
  Ca2+  Ca10  1  0.66760523  0.57500456  0.49963688  1
  Ca2+  Ca11  1  0.66370014  0.58372653  0.83998942  1
  Ca2+  Ca12  1  0.07129827  0.33156551  0.16265824  1
  Ca2+  Ca13  1  0.07898290  0.33411009  0.49490848  1
  Ca2+  Ca14  1  0.07948633  0.33478853  0.83026904  1
  Ca2+  Ca15  1  0.07298940  0.82709917  0.16040806  1
  Ca2+  Ca16  1  0.08318909  0.82550539  0.49388259  1
  Ca2+  Ca17  1  0.08599354  0.82343159  0.82703846  1
  Ca2+  Ca18  1  0.57898006  0.32891857  0.16454515  1
  Ca2+  Ca19  1  0.57478285  0.32584893  0.48887079  1
  Ca2+  Ca20  1  0.56935777  0.33457817  0.82958275  1
  Ca2+  Ca21  1  0.58185051  0.83263304  0.15692341  1
  Ca2+  Ca22  1  0.58233977  0.84344023  0.49882489  1
  Ca2+  Ca23  1  0.57809247  0.83873326  0.83252716  1
  Ca2+  Ca24  1  0.34140289  0.42225622  0.16960923  1
  Ca2+  Ca25  1  0.32966249  0.41528743  0.50740315  1
  Ca2+  Ca26  1  0.33057876  0.41951836  0.84058636  1
  Ca2+  Ca27  1  0.33614576  0.92086299  0.17264072  1
  Ca2+  Ca28  1  0.33201011  0.92318480  0.50655952  1
  Ca2+  Ca29  1  0.33018168  0.90268292  0.83549878  1
  Ca2+  Ca30  1  0.83102245  0.41452194  0.17401672  1
  Ca2+  Ca31  1  0.82838666  0.41038615  0.49970010  1
  Ca2+  Ca32  1  0.83311566  0.41884672  0.84068856  1
  Ca2+  Ca33  1  0.82505249  0.90897270  0.17071060  1
  Ca2+  Ca34  1  0.82397109  0.91696694  0.50817073  1
  Ca2+  Ca35  1  0.82684808  0.92313198  0.84549896  1
  Ca2+  Ca36  1  0.42026660  0.17280503  0.16651288  1
  Ca2+  Ca37  1  0.41813158  0.17528913  0.48938922  1
  Ca2+  Ca38  1  0.41372680  0.17817771  0.82852604  1
  Ca2+  Ca39  1  0.42302064  0.67152265  0.15422632  1
  Ca2+  Ca40  1  0.41626189  0.67522504  0.50094955  1
  Ca2+  Ca41  1  0.41925302  0.67297102  0.83660538  1
  Ca2+  Ca42  1  0.90520436  0.17675428  0.16267363  1
  Ca2+  Ca43  1  0.91475159  0.16761175  0.49627198  1
  Ca2+  Ca44  1  0.90623057  0.16744236  0.83410713  1
  Ca2+  Ca45  1  0.92475152  0.67604190  0.16187914  1
  Ca2+  Ca46  1  0.92906281  0.67241498  0.49143594  1
  Ca2+  Ca47  1  0.92510212  0.67388826  0.83226310  1
  Al0+  Al48  1  0.00032937  0.00296708  0.00362976  1
  Al0+  Al49  1  0.00054585  -0.00079840  0.32965226  1
  Al0+  Al50  1  0.00123036  0.00168868  0.67384236  1
  Al0+  Al51  1  -0.00054123  0.49756987  -0.00612454  1
  Al0+  Al52  1  0.00207802  0.50039186  0.32541277  1
  Al0+  Al53  1  0.00009524  0.49988651  0.66665121  1
  Al0+  Al54  1  0.49985585  0.00128443  -0.00113763  1
  Al0+  Al55  1  0.50007917  0.00259301  0.33899953  1
  Al0+  Al56  1  0.50148929  0.00227827  0.66736301  1
  Al0+  Al57  1  0.49771187  0.50043542  -0.00349188  1
  Al0+  Al58  1  0.49935840  0.50125504  0.33856046  1
  Al0+  Al59  1  0.49929066  0.50137789  0.66170862  1
  Al0+  Al60  1  0.24728331  0.24994312  -0.00233686  1
  Al0+  Al61  1  0.24995554  0.25241596  0.33325998  1
  Al0+  Al62  1  0.24638811  0.25157000  0.66710884  1
  Al0+  Al63  1  0.25076988  0.74767732  0.00067095  1
  Al0+  Al64  1  0.25167687  0.74931152  0.33140291  1
  Al0+  Al65  1  0.25289600  0.74901410  0.66043398  1
  Al0+  Al66  1  0.74849959  0.24924112  -0.00241798  1
  Al0+  Al67  1  0.74770873  0.24832885  0.33110014  1
  Al0+  Al68  1  0.74780214  0.25111536  0.67074219  1
  Al0+  Al69  1  0.75175394  0.74756045  -0.00295146  1
  Al0+  Al70  1  0.75043063  0.74839146  0.33809787  1
  Al0+  Al71  1  0.74975621  0.74760115  0.66983325  1
  Al0+  Al72  1  0.31921884  0.56902234  0.01401501  1
  Al0+  Al73  1  0.07145683  0.67978964  0.98310000  1
  Al0+  Al74  1  0.82153315  0.07232093  0.01917402  1
  Al0+  Al75  1  0.42993787  0.82361080  0.98749111  1
  Al0+  Al76  1  0.92914538  0.31845290  0.32176778  1
  Al0+  Al77  1  0.31987235  0.07208383  0.34671404  1
  Al0+  Al78  1  0.68009801  0.92717740  0.34836678  1
  Al0+  Al79  1  0.57026955  0.17733740  0.31770431  1
  Al0+  Al80  1  0.67781114  0.92702595  0.68435143  1
  Al0+  Al81  1  0.07041102  0.67952710  0.65175271  1
  Al0+  Al82  1  0.42836853  0.32068341  0.98642478  1
  Al0+  Al83  1  0.43200829  0.82135905  0.65143861  1
  Al0+  Al84  1  0.67889622  0.42774095  0.34635705  1
  Al0+  Al85  1  0.92680969  0.82211527  0.32017791  1
  Al0+  Al86  1  0.42665092  0.32130650  0.65178207  1
  Al0+  Al87  1  0.42747255  0.32342944  0.31765615  1
  Al0+  Al88  1  0.57247720  0.67781719  0.98710895  1
  Al0+  Al89  1  0.92872955  0.82351985  0.98400421  1
  Al0+  Al90  1  0.18230528  0.92755912  0.67882345  1
  Al0+  Al91  1  0.82143204  0.07218772  0.68213796  1
  Al0+  Al92  1  0.17793338  0.42954792  0.68060060  1
  Al0+  Al93  1  0.92780326  0.31850000  0.98496771  1
  Al0+  Al94  1  0.07360372  0.67896688  0.31622455  1
  Al0+  Al95  1  0.67942007  0.92754334  0.01665322  1
  Si0+  Si96  1  0.67768330  0.43033763  0.68209327  1
  Si0+  Si97  1  0.18051751  0.92762642  0.01547973  1
  Si0+  Si98  1  0.92825873  0.82369926  0.65200950  1
  Si0+  Si99  1  0.82324379  0.56909741  0.01472636  1
  Si0+  Si100  1  0.67788377  0.43038199  0.01329132  1
  Si0+  Si101  1  0.07374028  0.17801452  0.98160409  1
  Si0+  Si102  1  0.17642331  0.42651475  0.01858757  1
  Si0+  Si103  1  0.57194710  0.18119521  0.64983261  1
  Si0+  Si104  1  0.57062934  0.67847651  0.32178494  1
  Si0+  Si105  1  0.43122770  0.82168129  0.32070335  1
  Si0+  Si106  1  0.32306985  0.57146717  0.68346336  1
  Si0+  Si107  1  0.32190274  0.57262880  0.35064608  1
  Si0+  Si108  1  0.07369531  0.17696568  0.31765021  1
  Si0+  Si109  1  0.92805298  0.32059845  0.65211582  1
  Si0+  Si110  1  0.07020709  0.17753051  0.65158574  1
  Si0+  Si111  1  0.57095464  0.17806305  0.98079703  1
  Si0+  Si112  1  0.82172681  0.56876873  0.68155894  1
  Si0+  Si113  1  0.17859071  0.92717669  0.34856921  1
  Si0+  Si114  1  0.82398893  0.56963524  0.34969916  1
  Si0+  Si115  1  0.32143710  0.07331266  0.68340985  1
  Si0+  Si116  1  0.32036152  0.07388854  0.01383670  1
  Si0+  Si117  1  0.57531119  0.67689961  0.64662852  1
  Si0+  Si118  1  0.82322201  0.07204994  0.34911527  1
  Si0+  Si119  1  0.17824826  0.43103496  0.34689024  1
  O2-  O120  1  0.25304707  -0.00122992  0.05576797  1
  O2-  O121  1  0.24430969  -0.00177875  0.39350164  1
  O2-  O122  1  0.25878006  -0.00040276  0.72859091  1
  O2-  O123  1  0.24487011  0.49486288  0.06337827  1
  O2-  O124  1  0.24971888  0.50136963  0.39033606  1
  O2-  O125  1  0.25519679  0.50139895  0.72658409  1
  O2-  O126  1  0.75359947  -0.00360589  0.06876107  1
  O2-  O127  1  0.75897192  -0.00076296  0.39311451  1
  O2-  O128  1  0.75435188  -0.00440414  0.73170805  1
  O2-  O129  1  0.74986642  0.49993717  0.05648356  1
  O2-  O130  1  0.75682676  0.49916563  0.39458822  1
  O2-  O131  1  0.74755197  0.50145717  0.72515331  1
  O2-  O132  1  0.00020274  0.24078706  0.27414201  1
  O2-  O133  1  -0.00321322  0.24720708  0.61054677  1
  O2-  O134  1  0.00104517  0.24294117  0.93783195  1
  O2-  O135  1  0.00141765  0.75248309  0.27053487  1
  O2-  O136  1  -0.00195655  0.75691247  0.60587128  1
  O2-  O137  1  0.00304722  0.75468454  0.93251009  1
  O2-  O138  1  0.49993031  0.25185868  0.26844371  1
  O2-  O139  1  0.49969557  0.24580382  0.60495686  1
  O2-  O140  1  0.50035948  0.24534960  0.93706301  1
  O2-  O141  1  0.50388092  0.75270473  0.27904820  1
  O2-  O142  1  0.51088604  0.75063130  0.60381258  1
  O2-  O143  1  0.50569650  0.75508590  0.93811123  1
  O2-  O144  1  0.07987800  0.18175715  0.08707323  1
  O2-  O145  1  0.07499080  0.17876956  0.42353870  1
  O2-  O146  1  0.07371272  0.17873722  0.75629950  1
  O2-  O147  1  0.07010060  0.68177700  0.09650875  1
  O2-  O148  1  0.07291317  0.67833842  0.43030864  1
  O2-  O149  1  0.06867285  0.67872115  0.76425989  1
  O2-  O150  1  0.57025956  0.17878811  0.08625561  1
  O2-  O151  1  0.56876492  0.17893426  0.43167229  1
  O2-  O152  1  0.57200181  0.18557889  0.75546118  1
  O2-  O153  1  0.56887991  0.67440249  0.10125192  1
  O2-  O154  1  0.56788674  0.67659499  0.42689444  1
  O2-  O155  1  0.57366531  0.67098839  0.75148728  1
  O2-  O156  1  0.17734976  0.43044789  0.24220476  1
  O2-  O157  1  0.17592446  0.43072045  0.56698971  1
  O2-  O158  1  0.17781798  0.42614132  0.91277637  1
  O2-  O159  1  0.18188404  0.92699103  0.24285730  1
  O2-  O160  1  0.18219718  0.93096998  0.56557800  1
  O2-  O161  1  0.18171686  0.92763374  0.91012572  1
  O2-  O162  1  0.67835947  0.43180227  0.23314494  1
  O2-  O163  1  0.67980468  0.42923428  0.57703030  1
  O2-  O164  1  0.67887349  0.43202752  0.90756563  1
  O2-  O165  1  0.67721029  0.92518556  0.23589371  1
  O2-  O166  1  0.67953051  0.92998036  0.57030461  1
  O2-  O167  1  0.67833046  0.93084343  0.90344119  1
  O2-  O168  1  0.43124844  0.32034483  0.09908898  1
  O2-  O169  1  0.42691175  0.32209866  0.43148618  1
  O2-  O170  1  0.42833613  0.32118631  0.76514566  1
  O2-  O171  1  0.42921860  0.82252602  0.10176982  1
  O2-  O172  1  0.42952866  0.81956238  0.42588764  1
  O2-  O173  1  0.42978636  0.81658577  0.76388405  1
  O2-  O174  1  0.92866957  0.31967910  0.09814857  1
  O2-  O175  1  0.93158000  0.31857586  0.43552726  1
  O2-  O176  1  0.92853444  0.32169420  0.75699053  1
  O2-  O177  1  0.92915556  0.81922501  0.09758541  1
  O2-  O178  1  0.92787232  0.82000202  0.43433056  1
  O2-  O179  1  0.92994777  0.82079508  0.75716044  1
  O2-  O180  1  0.31890625  0.06967833  0.23309360  1
  O2-  O181  1  0.31715737  0.07425321  0.57775860  1
  O2-  O182  1  0.31671195  0.07836287  0.90890203  1
  O2-  O183  1  0.32444179  0.57383887  0.24584674  1
  O2-  O184  1  0.32301776  0.57057280  0.57725532  1
  O2-  O185  1  0.31960361  0.56726354  0.90099539  1
  O2-  O186  1  0.82058776  0.07407713  0.24418648  1
  O2-  O187  1  0.82013479  0.07499980  0.56816835  1
  O2-  O188  1  0.81672049  0.07350198  0.90566640  1
  O2-  O189  1  0.82196795  0.56932435  0.24413512  1
  O2-  O190  1  0.82222684  0.56542346  0.57641624  1
  O2-  O191  1  0.82396559  0.56545280  0.90917712  1
  O2-  O192  1  0.05663270  0.08164164  0.27219051  1
  O2-  O193  1  0.04486484  0.08539659  0.60314294  1
  O2-  O194  1  0.05302076  0.08268002  0.93800968  1
  O2-  O195  1  0.04566488  0.58186028  0.26151256  1
  O2-  O196  1  0.03515788  0.58341151  0.59814006  1
  O2-  O197  1  0.04188065  0.58121872  0.93162730  1
  O2-  O198  1  0.53699107  0.08039563  0.26480616  1
  O2-  O199  1  0.55163030  0.08586761  0.60600573  1
  O2-  O200  1  0.54528363  0.08522054  0.93416982  1
  O2-  O201  1  0.53921458  0.58843215  0.27376448  1
  O2-  O202  1  0.54405497  0.58569554  0.59736609  1
  O2-  O203  1  0.53760934  0.58312021  0.92988541  1
  O2-  O204  1  0.16409398  0.20914246  0.26914679  1
  O2-  O205  1  0.16003590  0.20847043  0.60178201  1
  O2-  O206  1  0.16411859  0.20739826  0.93073091  1
  O2-  O207  1  0.17260935  0.70739039  0.26426944  1
  O2-  O208  1  0.16770832  0.70650072  0.59751466  1
  O2-  O209  1  0.17067036  0.70627194  0.93179655  1
  O2-  O210  1  0.66794331  0.20438159  0.26395850  1
  O2-  O211  1  0.66391066  0.21241970  0.60308916  1
  O2-  O212  1  0.66251356  0.20747158  0.93355030  1
  O2-  O213  1  0.66482566  0.69935237  0.27722577  1
  O2-  O214  1  0.67130497  0.69577875  0.60192991  1
  O2-  O215  1  0.67263334  0.69569186  0.93461353  1
  O2-  O216  1  0.08150440  0.45196540  0.06198358  1
  O2-  O217  1  0.08644632  0.45959332  0.39498960  1
  O2-  O218  1  0.08173580  0.46098420  0.73518496  1
  O2-  O219  1  0.08990985  0.95733561  0.06391630  1
  O2-  O220  1  0.08351250  0.94947266  0.39327996  1
  O2-  O221  1  0.08746688  0.95961790  0.73524797  1
  O2-  O222  1  0.58679308  0.45949694  0.06043994  1
  O2-  O223  1  0.58473208  0.46300606  0.40386807  1
  O2-  O224  1  0.58508220  0.45909188  0.72757816  1
  O2-  O225  1  0.57954918  0.95857821  0.06737828  1
  O2-  O226  1  0.58505841  0.96226541  0.40335158  1
  O2-  O227  1  0.57983124  0.95935842  0.73624663  1
  O2-  O228  1  0.20094612  0.33222023  0.06361472  1
  O2-  O229  1  0.20395070  0.33908854  0.39562747  1
  O2-  O230  1  0.20453906  0.33208183  0.73521402  1
  O2-  O231  1  0.20842687  0.83677620  0.06395024  1
  O2-  O232  1  0.20807163  0.83447242  0.39493876  1
  O2-  O233  1  0.21407347  0.83039200  0.73117795  1
  O2-  O234  1  0.70475362  0.33789942  0.05868960  1
  O2-  O235  1  0.70845661  0.33099728  0.40108588  1
  O2-  O236  1  0.70539846  0.33995286  0.73161772  1
  O2-  O237  1  0.70489486  0.82584151  0.06546638  1
  O2-  O238  1  0.70657383  0.82962052  0.40441855  1
  O2-  O239  1  0.69860108  0.82485792  0.73270963  1
  O2-  O240  1  0.45741061  0.42317656  0.26888337  1
  O2-  O241  1  0.45739990  0.41810540  0.59838928  1
  O2-  O242  1  0.46118324  0.41500963  0.93025912  1
  O2-  O243  1  0.45634876  0.91450230  0.27582093  1
  O2-  O244  1  0.45746912  0.92119719  0.59973839  1
  O2-  O245  1  0.45049562  0.92327215  0.93344120  1
  O2-  O246  1  0.96146175  0.41318584  0.26563486  1
  O2-  O247  1  0.95839063  0.41081406  0.60360163  1
  O2-  O248  1  0.95938342  0.41344917  0.92827486  1
  O2-  O249  1  0.95120261  0.92104800  0.26630180  1
  O2-  O250  1  0.95173645  0.91921182  0.60930315  1
  O2-  O251  1  0.95336702  0.92507786  0.93688816  1
  O2-  O252  1  0.32870955  0.29636777  0.26535015  1
  O2-  O253  1  0.32844180  0.29202576  0.60014290  1
  O2-  O254  1  0.33075604  0.29102414  0.93375411  1
  O2-  O255  1  0.34030807  0.79277726  0.27260453  1
  O2-  O256  1  0.33812291  0.78694942  0.59343859  1
  O2-  O257  1  0.33366238  0.78857977  0.93497567  1
  O2-  O258  1  0.83204957  0.29180576  0.26759384  1
  O2-  O259  1  0.83446841  0.29501068  0.60659793  1
  O2-  O260  1  0.83055951  0.29093574  0.92987670  1
  O2-  O261  1  0.82931657  0.78839217  0.26837903  1
  O2-  O262  1  0.83433877  0.79491970  0.60773375  1
  O2-  O263  1  0.83256606  0.79078586  0.92999013  1
  O2-  O264  1  0.41336017  0.05038735  0.06011044  1
  O2-  O265  1  0.41406247  0.04073446  0.40426956  1
  O2-  O266  1  0.41760637  0.05623129  0.72608776  1
  O2-  O267  1  0.41594729  0.53667199  0.06823727  1
  O2-  O268  1  0.41211169  0.54549659  0.40163202  1
  O2-  O269  1  0.41760971  0.54678220  0.72795279  1
  O2-  O270  1  0.92444584  0.05639564  0.06843156  1
  O2-  O271  1  0.92021839  0.05307915  0.39239114  1
  O2-  O272  1  0.92198555  0.05339353  0.73468148  1
  O2-  O273  1  0.91373052  0.53691461  0.06213432  1
  O2-  O274  1  0.91863466  0.54368234  0.39372129  1
  O2-  O275  1  0.91074544  0.53608816  0.73089975  1
  O2-  O276  1  0.28695306  0.16323552  0.06371170  1
  O2-  O277  1  0.28854154  0.16909592  0.40056173  1
  O2-  O278  1  0.28829733  0.16438021  0.73038641  1
  O2-  O279  1  0.28977833  0.66546834  0.07041697  1
  O2-  O280  1  0.29350963  0.66458067  0.39860306  1
  O2-  O281  1  0.29567772  0.66466604  0.72758490  1
  O2-  O282  1  0.78723673  0.17111108  0.06922835  1
  O2-  O283  1  0.79417476  0.16429539  0.39672863  1
  O2-  O284  1  0.78845597  0.16993875  0.73603853  1
  O2-  O285  1  0.79886350  0.66125689  0.06193714  1
  O2-  O286  1  0.79617969  0.66083244  0.39949853  1
  O2-  O287  1  0.79792942  0.66107573  0.72951262  1
