# generated using pymatgen
data_Ca2Al2SiO7
_symmetry_space_group_name_H-M   'P 1'
_cell_length_a   15.45764342
_cell_length_b   15.45761460
_cell_length_c   15.28384534
_cell_angle_alpha   89.98823940
_cell_angle_beta   89.98952005
_cell_angle_gamma   89.99761425
_symmetry_Int_Tables_number   1
_chemical_formula_structural   Ca2Al2SiO7
_chemical_formula_sum   'Ca48 Al48 Si24 O168'
_cell_volume   3651.89580045
_cell_formula_units_Z   24
loop_
 _symmetry_equiv_pos_site_id
 _symmetry_equiv_pos_as_xyz
  1  'x, y, z'
loop_
 _atom_type_symbol
 _atom_type_oxidation_number
  Ca2+  2.0
  Al0+  0.0
  Si0+  0.0
  O2-  -2.0
loop_
 _atom_site_type_symbol
 _atom_site_label
 _atom_site_symmetry_multiplicity
 _atom_site_fract_x
 _atom_site_fract_y
 _atom_site_fract_z
 _atom_site_occupancy
  Ca2+  Ca0  1  0.17795298  0.08552981  0.17309129  1
  Ca2+  Ca1  1  0.17575158  0.09392659  0.50029289  1
  Ca2+  Ca2  1  0.18000872  0.08622063  0.83954364  1
  Ca2+  Ca3  1  0.17516234  0.59454128  0.16807425  1
  Ca2+  Ca4  1  0.17066125  0.58990953  0.49973167  1
  Ca2+  Ca5  1  0.17159957  0.58053152  0.84358892  1
  Ca2+  Ca6  1  0.66729519  0.07362564  0.16603957  1
  Ca2+  Ca7  1  0.66165523  0.07149264  0.50622187  1
  Ca2+  Ca8  1  0.66356937  0.07868274  0.84165363  1
  Ca2+  Ca9  1  0.66539416  0.57891257  0.17579262  1
  Ca2+  Ca10  1  0.67970666  0.57790047  0.50077412  1
  Ca2+  Ca11  1  0.66897405  0.58371909  0.83751935  1
  Ca2+  Ca12  1  0.08413505  0.32826741  0.16795798  1
  Ca2+  Ca13  1  0.07822643  0.32964601  0.49749723  1
  Ca2+  Ca14  1  0.07762610  0.33234271  0.82858498  1
  Ca2+  Ca15  1  0.07275480  0.82481656  0.15999429  1
  Ca2+  Ca16  1  0.07254554  0.82740779  0.48591260  1
  Ca2+  Ca17  1  0.07986418  0.83005060  0.83624778  1
  Ca2+  Ca18  1  0.57882287  0.33027354  0.15615195  1
  Ca2+  Ca19  1  0.58169426  0.32957333  0.49856453  1
  Ca2+  Ca20  1  0.57237177  0.31980724  0.82867682  1
  Ca2+  Ca21  1  0.58270398  0.83030325  0.15803273  1
  Ca2+  Ca22  1  0.58660872  0.83710767  0.49688584  1
  Ca2+  Ca23  1  0.58462457  0.83748009  0.83703413  1
  Ca2+  Ca24  1  0.34016918  0.42977095  0.16867729  1
  Ca2+  Ca25  1  0.33403674  0.42011949  0.50204904  1
  Ca2+  Ca26  1  0.33928925  0.41670005  0.83996404  1
  Ca2+  Ca27  1  0.34239369  0.92770054  0.16873665  1
  Ca2+  Ca28  1  0.33075202  0.93051006  0.50454905  1
  Ca2+  Ca29  1  0.33854004  0.92676830  0.84114935  1
  Ca2+  Ca30  1  0.82232550  0.42457026  0.17618834  1
  Ca2+  Ca31  1  0.83732548  0.42526929  0.50436144  1
  Ca2+  Ca32  1  0.83730286  0.42090302  0.83607472  1
  Ca2+  Ca33  1  0.82502039  0.90829954  0.16787830  1
  Ca2+  Ca34  1  0.82297175  0.90944419  0.50221708  1
  Ca2+  Ca35  1  0.82271065  0.92198365  0.84383437  1
  Ca2+  Ca36  1  0.42090438  0.17001654  0.15620264  1
  Ca2+  Ca37  1  0.41715129  0.16565493  0.50023578  1
  Ca2+  Ca38  1  0.42285231  0.16542260  0.82808165  1
  Ca2+  Ca39  1  0.42006915  0.67044798  0.15263609  1
  Ca2+  Ca40  1  0.41775638  0.66886966  0.49246070  1
  Ca2+  Ca41  1  0.42177995  0.66951156  0.83752579  1
  Ca2+  Ca42  1  0.92112326  0.16061192  0.16120203  1
  Ca2+  Ca43  1  0.92020564  0.17309498  0.49307106  1
  Ca2+  Ca44  1  0.91236645  0.17098152  0.82889613  1
  Ca2+  Ca45  1  0.91820807  0.67452929  0.16233090  1
  Ca2+  Ca46  1  0.91752866  0.66701041  0.48906543  1
  Ca2+  Ca47  1  0.91608557  0.67063826  0.83189367  1
  Al0+  Al48  1  0.00116309  0.00033474  -0.00342469  1
  Al0+  Al49  1  -0.00061398  0.00034461  0.32435558  1
  Al0+  Al50  1  -0.00001300  -0.00264282  0.66500649  1
  Al0+  Al51  1  0.00092317  0.49893919  -0.00034349  1
  Al0+  Al52  1  0.00252496  0.49898677  0.33076859  1
  Al0+  Al53  1  0.00175553  0.50023320  0.66687325  1
  Al0+  Al54  1  0.50129645  -0.00072670  0.00267157  1
  Al0+  Al55  1  0.50042311  0.00164494  0.34167950  1
  Al0+  Al56  1  0.49854903  -0.00138728  0.67036285  1
  Al0+  Al57  1  0.49958264  0.50000973  -0.00478712  1
  Al0+  Al58  1  0.49898307  0.49940231  0.34348270  1
  Al0+  Al59  1  0.50180852  0.50040586  0.66227542  1
  Al0+  Al60  1  0.24760199  0.25173863  0.00191542  1
  Al0+  Al61  1  0.25076073  0.25277613  0.33310191  1
  Al0+  Al62  1  0.25075313  0.25202010  0.66827378  1
  Al0+  Al63  1  0.24954408  0.74981277  -0.00533343  1
  Al0+  Al64  1  0.24998434  0.75365048  0.33509750  1
  Al0+  Al65  1  0.25066068  0.75011579  0.66665396  1
  Al0+  Al66  1  0.75023735  0.24988839  0.00066242  1
  Al0+  Al67  1  0.74764577  0.24773488  0.33575742  1
  Al0+  Al68  1  0.74911997  0.25033703  0.65595120  1
  Al0+  Al69  1  0.75121720  0.75002621  -0.00453308  1
  Al0+  Al70  1  0.74773786  0.74867478  0.33777176  1
  Al0+  Al71  1  0.75008126  0.74895060  0.67521662  1
  Al0+  Al72  1  0.82260307  0.07347538  0.01431172  1
  Al0+  Al73  1  0.57272443  0.67730922  0.98587322  1
  Al0+  Al74  1  0.42709074  0.32130353  0.98703489  1
  Al0+  Al75  1  0.92483138  0.81938122  0.31793683  1
  Al0+  Al76  1  0.68080598  0.93009171  0.34765714  1
  Al0+  Al77  1  0.42897776  0.82229230  0.98625789  1
  Al0+  Al78  1  0.07070534  0.67756710  0.98284532  1
  Al0+  Al79  1  0.82140959  0.56927437  0.34594178  1
  Al0+  Al80  1  0.31943277  0.57408430  0.34693997  1
  Al0+  Al81  1  0.07135073  0.18060273  0.31902706  1
  Al0+  Al82  1  0.67674925  0.42529857  0.34961373  1
  Al0+  Al83  1  0.92845065  0.82226408  0.98152946  1
  Al0+  Al84  1  0.57145146  0.17883955  0.98730243  1
  Al0+  Al85  1  0.32067857  0.07114839  0.01450952  1
  Al0+  Al86  1  0.07393296  0.67748228  0.31751372  1
  Al0+  Al87  1  0.92944601  0.32165718  0.65293453  1
  Al0+  Al88  1  0.32046617  0.56964971  0.01102245  1
  Al0+  Al89  1  0.67996251  0.92819122  0.01681579  1
  Al0+  Al90  1  0.82189573  0.56792608  0.68280083  1
  Al0+  Al91  1  0.31992595  0.07266638  0.34779997  1
  Al0+  Al92  1  0.68001814  0.93003296  0.68308550  1
  Al0+  Al93  1  0.42795437  0.32216837  0.64847165  1
  Al0+  Al94  1  0.31723720  0.07068447  0.68205078  1
  Al0+  Al95  1  0.56952428  0.17577559  0.64906580  1
  Si0+  Si96  1  0.82503356  0.07205410  0.35009862  1
  Si0+  Si97  1  0.57275972  0.67961339  0.64963441  1
  Si0+  Si98  1  0.56748903  0.67854916  0.32240782  1
  Si0+  Si99  1  0.17940708  0.42770238  0.35089002  1
  Si0+  Si100  1  0.82288238  0.57036079  0.01453273  1
  Si0+  Si101  1  0.17620709  0.93023823  0.34845166  1
  Si0+  Si102  1  0.92799815  0.81935544  0.65154758  1
  Si0+  Si103  1  0.17621123  0.92496758  0.68343436  1
  Si0+  Si104  1  0.67755445  0.42634705  0.68462660  1
  Si0+  Si105  1  0.17776382  0.92766426  0.01668132  1
  Si0+  Si106  1  0.07199520  0.17703760  0.65208655  1
  Si0+  Si107  1  0.07177189  0.67977554  0.65097807  1
  Si0+  Si108  1  0.92892226  0.32029176  0.98705453  1
  Si0+  Si109  1  0.32333351  0.57280511  0.68223436  1
  Si0+  Si110  1  0.67980092  0.43021241  0.01166984  1
  Si0+  Si111  1  0.18064770  0.43130876  0.68156753  1
  Si0+  Si112  1  0.56990150  0.17660193  0.31799932  1
  Si0+  Si113  1  0.82399707  0.07371237  0.67932622  1
  Si0+  Si114  1  0.07194468  0.17887606  0.98437334  1
  Si0+  Si115  1  0.42846463  0.81949304  0.65017895  1
  Si0+  Si116  1  0.42998755  0.82351663  0.32183095  1
  Si0+  Si117  1  0.92586137  0.32165084  0.31545750  1
  Si0+  Si118  1  0.43061707  0.32190330  0.31819711  1
  Si0+  Si119  1  0.17476336  0.42795974  0.01881380  1
  O2-  O120  1  0.24774412  -0.00533942  0.06195199  1
  O2-  O121  1  0.24184695  0.00098542  0.39454915  1
  O2-  O122  1  0.24086148  -0.00305502  0.72762943  1
  O2-  O123  1  0.24509756  0.49638649  0.05979810  1
  O2-  O124  1  0.24210047  0.50232310  0.39481643  1
  O2-  O125  1  0.25491686  0.49898464  0.72323459  1
  O2-  O126  1  0.75422527  -0.00102642  0.06559593  1
  O2-  O127  1  0.75815870  0.00225835  0.39490810  1
  O2-  O128  1  0.75351380  0.00834096  0.72478099  1
  O2-  O129  1  0.74770554  0.50353190  0.05582464  1
  O2-  O130  1  0.75458549  0.49274068  0.39736729  1
  O2-  O131  1  0.74868010  0.49183891  0.73034199  1
  O2-  O132  1  -0.00746608  0.25095358  0.27106851  1
  O2-  O133  1  -0.00082939  0.24126505  0.60768137  1
  O2-  O134  1  -0.00219789  0.24751564  0.94371911  1
  O2-  O135  1  -0.00186523  0.74691496  0.27013633  1
  O2-  O136  1  0.00132906  0.75092824  0.60886858  1
  O2-  O137  1  -0.00121428  0.74827731  0.93096839  1
  O2-  O138  1  0.50317386  0.25233558  0.27672637  1
  O2-  O139  1  0.49893195  0.24949838  0.59805078  1
  O2-  O140  1  0.49408162  0.24510045  0.93713448  1
  O2-  O141  1  0.49524741  0.74752497  0.27983905  1
  O2-  O142  1  0.50026668  0.74941213  0.60705667  1
  O2-  O143  1  0.50225368  0.75124700  0.93580187  1
  O2-  O144  1  0.07398048  0.18121248  0.08939687  1
  O2-  O145  1  0.07114662  0.18500821  0.43257989  1
  O2-  O146  1  0.07253442  0.17945520  0.75772025  1
  O2-  O147  1  0.06916609  0.67787353  0.09596926  1
  O2-  O148  1  0.07414401  0.68142698  0.43212574  1
  O2-  O149  1  0.07292932  0.67954376  0.75558313  1
  O2-  O150  1  0.57202091  0.18306068  0.10148901  1
  O2-  O151  1  0.56648546  0.17435940  0.42289716  1
  O2-  O152  1  0.56824485  0.17595251  0.76240794  1
  O2-  O153  1  0.57031253  0.67382068  0.10006154  1
  O2-  O154  1  0.56694415  0.68042139  0.42791778  1
  O2-  O155  1  0.57104759  0.67813866  0.75437598  1
  O2-  O156  1  0.18351788  0.42241000  0.24588356  1
  O2-  O157  1  0.17853125  0.43317590  0.57657459  1
  O2-  O158  1  0.17061364  0.42776322  0.91294591  1
  O2-  O159  1  0.17950308  0.92996957  0.24330477  1
  O2-  O160  1  0.17793223  0.92180120  0.57789988  1
  O2-  O161  1  0.17752986  0.93193839  0.91059243  1
  O2-  O162  1  0.67448156  0.42870152  0.23524083  1
  O2-  O163  1  0.67793278  0.43065374  0.57916676  1
  O2-  O164  1  0.68392844  0.42967002  0.90673894  1
  O2-  O165  1  0.67696922  0.92995251  0.23556913  1
  O2-  O166  1  0.68209159  0.92768759  0.56953646  1
  O2-  O167  1  0.68095228  0.93079808  0.90320421  1
  O2-  O168  1  0.43120200  0.32371823  0.10116352  1
  O2-  O169  1  0.42939199  0.32138156  0.42318464  1
  O2-  O170  1  0.42800588  0.32199761  0.76155750  1
  O2-  O171  1  0.42962923  0.82061798  0.10057640  1
  O2-  O172  1  0.43194671  0.82297943  0.42747192  1
  O2-  O173  1  0.42585360  0.81739953  0.75466837  1
  O2-  O174  1  0.93019616  0.32189797  0.09186427  1
  O2-  O175  1  0.92893166  0.32162276  0.42126029  1
  O2-  O176  1  0.93329157  0.32256586  0.76644471  1
  O2-  O177  1  0.92816449  0.81900929  0.09490300  1
  O2-  O178  1  0.92590513  0.81768894  0.43263032  1
  O2-  O179  1  0.92989760  0.81938591  0.75603292  1
  O2-  O180  1  0.32185732  0.07163269  0.23502918  1
  O2-  O181  1  0.31503613  0.06985908  0.56857740  1
  O2-  O182  1  0.31772612  0.07203694  0.90133588  1
  O2-  O183  1  0.32356490  0.57256589  0.23433459  1
  O2-  O184  1  0.31982978  0.57573833  0.57695428  1
  O2-  O185  1  0.31957389  0.56652772  0.89751324  1
  O2-  O186  1  0.82291557  0.07463303  0.24498135  1
  O2-  O187  1  0.82800602  0.06958303  0.57387880  1
  O2-  O188  1  0.82100955  0.07642239  0.90024462  1
  O2-  O189  1  0.81627467  0.56953093  0.23216504  1
  O2-  O190  1  0.82278105  0.56826462  0.56984669  1
  O2-  O191  1  0.82531542  0.56548670  0.90923804  1
  O2-  O192  1  0.04700663  0.08373824  0.26311803  1
  O2-  O193  1  0.05319966  0.08117427  0.60682007  1
  O2-  O194  1  0.04994670  0.08711428  0.93529745  1
  O2-  O195  1  0.05517536  0.57589656  0.26761643  1
  O2-  O196  1  0.04450095  0.58794221  0.60402579  1
  O2-  O197  1  0.04283131  0.57774636  0.93103074  1
  O2-  O198  1  0.53644731  0.08643565  0.27128716  1
  O2-  O199  1  0.53662875  0.07740079  0.59733284  1
  O2-  O200  1  0.54703328  0.07952873  0.93687357  1
  O2-  O201  1  0.54092528  0.58519056  0.27767375  1
  O2-  O202  1  0.54672709  0.58795324  0.60111669  1
  O2-  O203  1  0.54133935  0.58176204  0.92842744  1
  O2-  O204  1  0.16666859  0.21682824  0.26484567  1
  O2-  O205  1  0.16288479  0.20998907  0.60519906  1
  O2-  O206  1  0.16098137  0.21215400  0.93464096  1
  O2-  O207  1  0.17176147  0.71140063  0.26585380  1
  O2-  O208  1  0.16444203  0.70716970  0.60375810  1
  O2-  O209  1  0.16817212  0.70573644  0.92789934  1
  O2-  O210  1  0.66436678  0.19805234  0.27320079  1
  O2-  O211  1  0.66844753  0.20044330  0.59450487  1
  O2-  O212  1  0.66817740  0.21203984  0.93305970  1
  O2-  O213  1  0.65874862  0.70628783  0.27551463  1
  O2-  O214  1  0.66493339  0.71022227  0.60462579  1
  O2-  O215  1  0.67106338  0.70141272  0.93158731  1
  O2-  O216  1  0.08203621  0.45365652  0.06727695  1
  O2-  O217  1  0.08330054  0.44609071  0.39496842  1
  O2-  O218  1  0.09095486  0.46229711  0.73146197  1
  O2-  O219  1  0.08465001  0.95485454  0.06209273  1
  O2-  O220  1  0.08080980  0.95312043  0.39253298  1
  O2-  O221  1  0.08074061  0.94634639  0.72802268  1
  O2-  O222  1  0.58750874  0.45637808  0.05837702  1
  O2-  O223  1  0.58222669  0.45827887  0.40722589  1
  O2-  O224  1  0.58445433  0.45640848  0.72951149  1
  O2-  O225  1  0.58203000  0.95569929  0.07071964  1
  O2-  O226  1  0.58635359  0.96382358  0.40537552  1
  O2-  O227  1  0.58181673  0.95647336  0.73475026  1
  O2-  O228  1  0.19859705  0.33443279  0.06547273  1
  O2-  O229  1  0.21167880  0.33804375  0.40150791  1
  O2-  O230  1  0.20398101  0.33885070  0.73007343  1
  O2-  O231  1  0.20024910  0.83245053  0.05943190  1
  O2-  O232  1  0.20403406  0.83877286  0.39828268  1
  O2-  O233  1  0.20557393  0.83275290  0.73092071  1
  O2-  O234  1  0.71013612  0.34054127  0.06162697  1
  O2-  O235  1  0.69914420  0.32492400  0.40119151  1
  O2-  O236  1  0.70054634  0.33012531  0.72551851  1
  O2-  O237  1  0.70789309  0.82749070  0.06668687  1
  O2-  O238  1  0.70807251  0.83315453  0.40377120  1
  O2-  O239  1  0.71212931  0.83475353  0.73781058  1
  O2-  O240  1  0.45853299  0.41539047  0.27387145  1
  O2-  O241  1  0.45623579  0.42162103  0.59574366  1
  O2-  O242  1  0.45956416  0.41628614  0.93070101  1
  O2-  O243  1  0.46298519  0.91400684  0.27551438  1
  O2-  O244  1  0.45559411  0.91144572  0.60361312  1
  O2-  O245  1  0.45782568  0.91997768  0.93276348  1
  O2-  O246  1  0.95356656  0.41403204  0.26833003  1
  O2-  O247  1  0.96866385  0.41559970  0.59812381  1
  O2-  O248  1  0.95967330  0.41039562  0.93749498  1
  O2-  O249  1  0.95031542  0.91816223  0.26516328  1
  O2-  O250  1  0.95259050  0.91217062  0.60318298  1
  O2-  O251  1  0.95921568  0.92031792  0.92799185  1
  O2-  O252  1  0.33914016  0.29450558  0.27102675  1
  O2-  O253  1  0.32765071  0.29570516  0.59744991  1
  O2-  O254  1  0.32535912  0.30076160  0.93746752  1
  O2-  O255  1  0.33628000  0.80304732  0.27656317  1
  O2-  O256  1  0.33682776  0.79035209  0.60133740  1
  O2-  O257  1  0.33165409  0.79511312  0.93061959  1
  O2-  O258  1  0.83029458  0.29851732  0.27240636  1
  O2-  O259  1  0.83291142  0.29893976  0.59582304  1
  O2-  O260  1  0.83764507  0.29514614  0.93782182  1
  O2-  O261  1  0.82660933  0.78777440  0.26641844  1
  O2-  O262  1  0.83629733  0.78765336  0.60669511  1
  O2-  O263  1  0.83120852  0.79355811  0.92750822  1
  O2-  O264  1  0.41714181  0.04194784  0.06883879  1
  O2-  O265  1  0.41315485  0.03757624  0.40512474  1
  O2-  O266  1  0.41242383  0.03607331  0.73468582  1
  O2-  O267  1  0.41725839  0.53822485  0.06528014  1
  O2-  O268  1  0.41295922  0.54054112  0.40553718  1
  O2-  O269  1  0.41715668  0.54771968  0.72590346  1
  O2-  O270  1  0.92429291  0.04981462  0.06268129  1
  O2-  O271  1  0.92072674  0.05029479  0.39383827  1
  O2-  O272  1  0.91789956  0.04783848  0.72631953  1
  O2-  O273  1  0.91262173  0.53761919  0.06277439  1
  O2-  O274  1  0.92246646  0.54475761  0.39662019  1
  O2-  O275  1  0.91934206  0.53727645  0.73592178  1
  O2-  O276  1  0.28678138  0.16777492  0.06748454  1
  O2-  O277  1  0.28861054  0.16963620  0.40109321  1
  O2-  O278  1  0.28728235  0.16801797  0.73520764  1
  O2-  O279  1  0.29105230  0.66767697  0.06308175  1
  O2-  O280  1  0.29204296  0.67156430  0.40288117  1
  O2-  O281  1  0.29269215  0.66373600  0.72951100  1
  O2-  O282  1  0.79452515  0.17165772  0.06935161  1
  O2-  O283  1  0.79906034  0.16548217  0.39689862  1
  O2-  O284  1  0.80250050  0.17038475  0.72072717  1
  O2-  O285  1  0.79986752  0.66407541  0.05782467  1
  O2-  O286  1  0.78755274  0.66412215  0.40283087  1
  O2-  O287  1  0.78898014  0.66275104  0.73812369  1
