# generated using pymatgen
data_Ca2Al2SiO7
_symmetry_space_group_name_H-M   'P 1'
_cell_length_a   15.45880179
_cell_length_b   15.45824114
_cell_length_c   15.28419273
_cell_angle_alpha   90.00247849
_cell_angle_beta   90.00694903
_cell_angle_gamma   90.00640642
_symmetry_Int_Tables_number   1
_chemical_formula_structural   Ca2Al2SiO7
_chemical_formula_sum   'Ca48 Al48 Si24 O168'
_cell_volume   3652.40060243
_cell_formula_units_Z   24
loop_
 _symmetry_equiv_pos_site_id
 _symmetry_equiv_pos_as_xyz
  1  'x, y, z'
loop_
 _atom_type_symbol
 _atom_type_oxidation_number
  Ca2+  2.0
  Al0+  0.0
  Si0+  0.0
  O2-  -2.0
loop_
 _atom_site_type_symbol
 _atom_site_label
 _atom_site_symmetry_multiplicity
 _atom_site_fract_x
 _atom_site_fract_y
 _atom_site_fract_z
 _atom_site_occupancy
  Ca2+  Ca0  1  0.17088751  0.08085443  0.17473146  1
  Ca2+  Ca1  1  0.17437183  0.07545545  0.50773739  1
  Ca2+  Ca2  1  0.16825529  0.08665306  0.83128934  1
  Ca2+  Ca3  1  0.17190526  0.57653940  0.17525399  1
  Ca2+  Ca4  1  0.16897013  0.58306883  0.50642420  1
  Ca2+  Ca5  1  0.16174326  0.57003405  0.83408060  1
  Ca2+  Ca6  1  0.67131855  0.08288747  0.17521928  1
  Ca2+  Ca7  1  0.65970903  0.07400835  0.50319099  1
  Ca2+  Ca8  1  0.67151519  0.07857607  0.83586874  1
  Ca2+  Ca9  1  0.66386152  0.57520163  0.16856380  1
  Ca2+  Ca10  1  0.67342501  0.58156693  0.51339506  1
  Ca2+  Ca11  1  0.66329505  0.57641744  0.82934154  1
  Ca2+  Ca12  1  0.08532065  0.32634451  0.15776083  1
  Ca2+  Ca13  1  0.08958659  0.32947088  0.50315375  1
  Ca2+  Ca14  1  0.09131884  0.32464507  0.82557217  1
  Ca2+  Ca15  1  0.08546520  0.83235785  0.16929018  1
  Ca2+  Ca16  1  0.08677734  0.82672768  0.49359859  1
  Ca2+  Ca17  1  0.08216051  0.82688935  0.82049187  1
  Ca2+  Ca18  1  0.57247492  0.33144545  0.16242040  1
  Ca2+  Ca19  1  0.57356848  0.32996479  0.49350457  1
  Ca2+  Ca20  1  0.57489173  0.34055662  0.82683136  1
  Ca2+  Ca21  1  0.58498445  0.83441748  0.16711189  1
  Ca2+  Ca22  1  0.58342422  0.83489597  0.49979847  1
  Ca2+  Ca23  1  0.57946733  0.82872030  0.81901484  1
  Ca2+  Ca24  1  0.33362334  0.41591768  0.16950671  1
  Ca2+  Ca25  1  0.33569223  0.41959912  0.50500605  1
  Ca2+  Ca26  1  0.32579731  0.40702695  0.83411526  1
  Ca2+  Ca27  1  0.32580784  0.92642472  0.18120608  1
  Ca2+  Ca28  1  0.32981966  0.92764048  0.50916879  1
  Ca2+  Ca29  1  0.33238116  0.91944188  0.82819468  1
  Ca2+  Ca30  1  0.82565406  0.41365215  0.16827378  1
  Ca2+  Ca31  1  0.82552085  0.42356889  0.51216003  1
  Ca2+  Ca32  1  0.82192787  0.41986925  0.83368953  1
  Ca2+  Ca33  1  0.83106418  0.92099969  0.17386274  1
  Ca2+  Ca34  1  0.82371288  0.90762677  0.50174345  1
  Ca2+  Ca35  1  0.82843860  0.91999220  0.83422287  1
  Ca2+  Ca36  1  0.41660436  0.17313933  0.16681272  1
  Ca2+  Ca37  1  0.41186092  0.17439785  0.49518009  1
  Ca2+  Ca38  1  0.41238162  0.17770539  0.82522417  1
  Ca2+  Ca39  1  0.41225309  0.66637357  0.16665020  1
  Ca2+  Ca40  1  0.41769559  0.67039170  0.49921017  1
  Ca2+  Ca41  1  0.42337008  0.67483648  0.82119737  1
  Ca2+  Ca42  1  0.92306682  0.16293124  0.15795893  1
  Ca2+  Ca43  1  0.92377842  0.16473686  0.49993749  1
  Ca2+  Ca44  1  0.92708316  0.16210417  0.83075026  1
  Ca2+  Ca45  1  0.92157270  0.67350211  0.16996874  1
  Ca2+  Ca46  1  0.92811001  0.66673293  0.49527968  1
  Ca2+  Ca47  1  0.92099925  0.66373489  0.82322057  1
  Al0+  Al48  1  -0.00064853  -0.00133216  -0.00100178  1
  Al0+  Al49  1  -0.00187683  -0.00026036  0.33334593  1
  Al0+  Al50  1  0.00076827  -0.00048361  0.66392466  1
  Al0+  Al51  1  -0.00105467  0.49959404  0.00601477  1
  Al0+  Al52  1  -0.00072910  0.49983230  0.32740729  1
  Al0+  Al53  1  -0.00020247  0.49955977  0.67020457  1
  Al0+  Al54  1  0.49915620  0.00010666  0.00028714  1
  Al0+  Al55  1  0.50166152  0.00091586  0.33534930  1
  Al0+  Al56  1  0.49981693  0.00180222  0.67409161  1
  Al0+  Al57  1  0.49993004  0.50131459  -0.00008389  1
  Al0+  Al58  1  0.49841030  0.49962785  0.33301931  1
  Al0+  Al59  1  0.49998459  0.50162054  0.66185239  1
  Al0+  Al60  1  0.25024768  0.24938742  -0.00215058  1
  Al0+  Al61  1  0.24881449  0.25154041  0.33163783  1
  Al0+  Al62  1  0.25066485  0.24977164  0.66359324  1
  Al0+  Al63  1  0.24950946  0.74971662  -0.00153932  1
  Al0+  Al64  1  0.25104794  0.74665002  0.33434570  1
  Al0+  Al65  1  0.25035693  0.75167241  0.66297071  1
  Al0+  Al66  1  0.75039535  0.24968124  0.00804870  1
  Al0+  Al67  1  0.74966891  0.24909052  0.33121745  1
  Al0+  Al68  1  0.75036296  0.25021560  0.67089675  1
  Al0+  Al69  1  0.75045498  0.74943958  -0.00023994  1
  Al0+  Al70  1  0.75166338  0.74967601  0.33054723  1
  Al0+  Al71  1  0.75067470  0.75020105  0.67319314  1
  Al0+  Al72  1  0.07044358  0.67713448  0.65439384  1
  Al0+  Al73  1  0.43132602  0.32015704  0.98430240  1
  Al0+  Al74  1  0.67609603  0.42779764  0.67986341  1
  Al0+  Al75  1  0.92860546  0.82076626  0.31772556  1
  Al0+  Al76  1  0.42791189  0.32214545  0.31619230  1
  Al0+  Al77  1  0.82193389  0.57138756  0.68099097  1
  Al0+  Al78  1  0.68059790  0.92856053  0.34656982  1
  Al0+  Al79  1  0.42987541  0.32055475  0.65230907  1
  Al0+  Al80  1  0.32040134  0.07224992  0.68381410  1
  Al0+  Al81  1  0.57213243  0.68049742  0.65073776  1
  Al0+  Al82  1  0.17801775  0.92762894  0.68223475  1
  Al0+  Al83  1  0.17698192  0.92852231  0.34782176  1
  Al0+  Al84  1  0.07420035  0.67761831  0.31590680  1
  Al0+  Al85  1  0.67951335  0.93001795  0.68091864  1
  Al0+  Al86  1  0.57155473  0.17725934  0.31804220  1
  Al0+  Al87  1  0.32179541  0.56925793  0.34781493  1
  Al0+  Al88  1  0.06967138  0.17926704  0.98601617  1
  Al0+  Al89  1  0.67756909  0.43063483  0.01556585  1
  Al0+  Al90  1  0.82124191  0.06869852  0.01354760  1
  Al0+  Al91  1  0.17950464  0.42762333  0.01394236  1
  Al0+  Al92  1  0.32090372  0.07297279  0.34805249  1
  Al0+  Al93  1  0.18104574  0.43029321  0.67850048  1
  Al0+  Al94  1  0.42931030  0.82416640  0.65022762  1
  Al0+  Al95  1  0.07064199  0.17861821  0.65112660  1
  Si0+  Si96  1  0.82238181  0.07409982  0.35150596  1
  Si0+  Si97  1  0.92712802  0.32143525  0.65156357  1
  Si0+  Si98  1  0.92719338  0.32177704  0.31776427  1
  Si0+  Si99  1  0.57415646  0.17671940  0.98298193  1
  Si0+  Si100  1  0.42761944  0.82244646  0.98645419  1
  Si0+  Si101  1  0.32276146  0.57364158  0.68290070  1
  Si0+  Si102  1  0.57101753  0.68052946  0.98563240  1
  Si0+  Si103  1  0.82250624  0.57372073  0.02061117  1
  Si0+  Si104  1  0.06901369  0.18011897  0.31860801  1
  Si0+  Si105  1  0.67743817  0.92735504  0.01712563  1
  Si0+  Si106  1  0.67925731  0.42850416  0.34783257  1
  Si0+  Si107  1  0.32036865  0.57352125  0.01501044  1
  Si0+  Si108  1  0.57517934  0.17810830  0.65288231  1
  Si0+  Si109  1  0.17511430  0.42844931  0.34963615  1
  Si0+  Si110  1  0.17950810  0.92697070  0.01456917  1
  Si0+  Si111  1  0.82393675  0.07340153  0.68295714  1
  Si0+  Si112  1  0.92789902  0.82258262  0.65112168  1
  Si0+  Si113  1  0.07081968  0.67823703  0.98470088  1
  Si0+  Si114  1  0.92589451  0.32361029  0.98331507  1
  Si0+  Si115  1  0.82024754  0.56945871  0.34665954  1
  Si0+  Si116  1  0.32066283  0.07061779  0.01552449  1
  Si0+  Si117  1  0.43009408  0.82097899  0.31872157  1
  Si0+  Si118  1  0.92922855  0.81981239  0.98359015  1
  Si0+  Si119  1  0.57226256  0.67899939  0.31746670  1
  O2-  O120  1  0.25085244  -0.00233587  0.05659194  1
  O2-  O121  1  0.25012463  -0.00068546  0.39688786  1
  O2-  O122  1  0.24852493  -0.00022598  0.73457514  1
  O2-  O123  1  0.25290215  0.50390230  0.05964707  1
  O2-  O124  1  0.24460788  0.49656125  0.39247645  1
  O2-  O125  1  0.25447963  0.50513758  0.72785716  1
  O2-  O126  1  0.74354720  -0.00223767  0.06160382  1
  O2-  O127  1  0.75353526  0.00492291  0.39382512  1
  O2-  O128  1  0.75414361  0.00529694  0.72645147  1
  O2-  O129  1  0.75406612  0.50386481  0.06370571  1
  O2-  O130  1  0.75034850  0.49871344  0.39000790  1
  O2-  O131  1  0.74788264  0.50057321  0.72964481  1
  O2-  O132  1  -0.00191367  0.25079137  0.27532201  1
  O2-  O133  1  -0.00532467  0.25284545  0.60524227  1
  O2-  O134  1  -0.00381613  0.25634005  0.93972246  1
  O2-  O135  1  0.00510759  0.75356426  0.26651467  1
  O2-  O136  1  -0.00197003  0.75461660  0.60881171  1
  O2-  O137  1  -0.00143742  0.74738866  0.94180119  1
  O2-  O138  1  0.49900795  0.24833497  0.26720140  1
  O2-  O139  1  0.50796017  0.24794873  0.60877077  1
  O2-  O140  1  0.50736650  0.24626715  0.93781861  1
  O2-  O141  1  0.50107809  0.74998968  0.27449709  1
  O2-  O142  1  0.50152450  0.75268745  0.59924215  1
  O2-  O143  1  0.50177914  0.75408442  0.94549147  1
  O2-  O144  1  0.06835763  0.17907534  0.09971806  1
  O2-  O145  1  0.06771431  0.18168598  0.42341983  1
  O2-  O146  1  0.06845751  0.18012275  0.76445218  1
  O2-  O147  1  0.07217592  0.68113604  0.08958844  1
  O2-  O148  1  0.06981803  0.67288374  0.42890175  1
  O2-  O149  1  0.06755303  0.67696665  0.76843718  1
  O2-  O150  1  0.57137119  0.17475215  0.08838542  1
  O2-  O151  1  0.57547182  0.18065378  0.43133859  1
  O2-  O152  1  0.57629220  0.17883208  0.75881625  1
  O2-  O153  1  0.57137962  0.68080160  0.09127273  1
  O2-  O154  1  0.57473549  0.67888970  0.42165558  1
  O2-  O155  1  0.56946894  0.68146892  0.76523104  1
  O2-  O156  1  0.17448686  0.42831804  0.24357390  1
  O2-  O157  1  0.18116856  0.43138748  0.56549498  1
  O2-  O158  1  0.17990074  0.42871687  0.90108312  1
  O2-  O159  1  0.17949886  0.93224267  0.23273939  1
  O2-  O160  1  0.17767853  0.92910136  0.56915953  1
  O2-  O161  1  0.18031246  0.92344249  0.91006823  1
  O2-  O162  1  0.68089455  0.43091036  0.24228435  1
  O2-  O163  1  0.68001528  0.42723623  0.56590001  1
  O2-  O164  1  0.67714279  0.43435125  0.90310166  1
  O2-  O165  1  0.68285219  0.92791670  0.23294831  1
  O2-  O166  1  0.68139713  0.92980364  0.56791170  1
  O2-  O167  1  0.67858437  0.92614562  0.91190284  1
  O2-  O168  1  0.43103459  0.31892261  0.09716682  1
  O2-  O169  1  0.43061309  0.32373247  0.42934754  1
  O2-  O170  1  0.42967452  0.31920357  0.76590347  1
  O2-  O171  1  0.42643659  0.82191328  0.09182404  1
  O2-  O172  1  0.43160494  0.82041829  0.42295725  1
  O2-  O173  1  0.43139875  0.82084539  0.76505765  1
  O2-  O174  1  0.92707592  0.32218984  0.08953638  1
  O2-  O175  1  0.92569442  0.32312514  0.42262666  1
  O2-  O176  1  0.92630152  0.32030432  0.75703856  1
  O2-  O177  1  0.92897672  0.81994494  0.08852023  1
  O2-  O178  1  0.92363742  0.81443025  0.43052900  1
  O2-  O179  1  0.92898358  0.82274562  0.75749883  1
  O2-  O180  1  0.31796878  0.07144761  0.23316638  1
  O2-  O181  1  0.31881010  0.07291492  0.57053336  1
  O2-  O182  1  0.32153120  0.07003946  0.91093790  1
  O2-  O183  1  0.32227450  0.56832884  0.23390385  1
  O2-  O184  1  0.32209618  0.57197365  0.57726274  1
  O2-  O185  1  0.31881116  0.57847407  0.91008374  1
  O2-  O186  1  0.82282139  0.07403556  0.24556562  1
  O2-  O187  1  0.82374978  0.07513322  0.57757440  1
  O2-  O188  1  0.82183157  0.06440423  0.90065448  1
  O2-  O189  1  0.81802518  0.56785817  0.24116558  1
  O2-  O190  1  0.82260814  0.56890720  0.56682200  1
  O2-  O191  1  0.82359500  0.57582467  0.91565592  1
  O2-  O192  1  0.04150868  0.08829813  0.27093557  1
  O2-  O193  1  0.03910039  0.08279470  0.59611689  1
  O2-  O194  1  0.03703334  0.08265614  0.93262391  1
  O2-  O195  1  0.03962927  0.58118964  0.26016686  1
  O2-  O196  1  0.03766637  0.58131444  0.60011276  1
  O2-  O197  1  0.04301257  0.58472738  0.94087100  1
  O2-  O198  1  0.54623821  0.07791621  0.26396415  1
  O2-  O199  1  0.54798175  0.08449160  0.60905658  1
  O2-  O200  1  0.54832727  0.08211738  0.93780598  1
  O2-  O201  1  0.54242457  0.58777873  0.26934861  1
  O2-  O202  1  0.54525506  0.58281428  0.59650774  1
  O2-  O203  1  0.54128761  0.59017312  0.93771115  1
  O2-  O204  1  0.16009253  0.20799528  0.26970632  1
  O2-  O205  1  0.16491559  0.21283586  0.59640320  1
  O2-  O206  1  0.16616116  0.20906863  0.93243496  1
  O2-  O207  1  0.17375792  0.70236569  0.26224999  1
  O2-  O208  1  0.16731333  0.70495710  0.60077565  1
  O2-  O209  1  0.16242362  0.70656867  0.93733300  1
  O2-  O210  1  0.67027822  0.20676142  0.26388638  1
  O2-  O211  1  0.66981408  0.19990037  0.60677228  1
  O2-  O212  1  0.66993636  0.20006905  0.94106412  1
  O2-  O213  1  0.66270133  0.70705273  0.26688193  1
  O2-  O214  1  0.67250428  0.70812823  0.60193571  1
  O2-  O215  1  0.66375821  0.70597088  0.93878272  1
  O2-  O216  1  0.08205841  0.45556159  0.06873523  1
  O2-  O217  1  0.08049169  0.45351618  0.39376626  1
  O2-  O218  1  0.08458506  0.45823251  0.73439975  1
  O2-  O219  1  0.08746184  0.95502284  0.06067571  1
  O2-  O220  1  0.07781798  0.95537912  0.39863844  1
  O2-  O221  1  0.07828072  0.95512307  0.73388811  1
  O2-  O222  1  0.58261937  0.46639169  0.07096463  1
  O2-  O223  1  0.58745346  0.45672631  0.39274991  1
  O2-  O224  1  0.57872564  0.45985394  0.73289083  1
  O2-  O225  1  0.58194593  0.94941416  0.06173371  1
  O2-  O226  1  0.58391675  0.95639498  0.40049959  1
  O2-  O227  1  0.58485627  0.95984154  0.73881125  1
  O2-  O228  1  0.21165847  0.33131283  0.06800386  1
  O2-  O229  1  0.19928724  0.33437833  0.39413908  1
  O2-  O230  1  0.21331507  0.33430920  0.73207400  1
  O2-  O231  1  0.20800206  0.83535688  0.06306197  1
  O2-  O232  1  0.20210302  0.82783734  0.39489472  1
  O2-  O233  1  0.20726280  0.82897284  0.73545371  1
  O2-  O234  1  0.70667132  0.33417405  0.07099973  1
  O2-  O235  1  0.70764338  0.33650486  0.39328456  1
  O2-  O236  1  0.70524248  0.33069659  0.73575584  1
  O2-  O237  1  0.70529336  0.83380098  0.06286512  1
  O2-  O238  1  0.71306806  0.83147078  0.39892996  1
  O2-  O239  1  0.71089134  0.83535357  0.73853276  1
  O2-  O240  1  0.46002768  0.41986816  0.26226841  1
  O2-  O241  1  0.45704580  0.41777632  0.59861206  1
  O2-  O242  1  0.45974440  0.41900382  0.93325852  1
  O2-  O243  1  0.45845567  0.91218448  0.26996790  1
  O2-  O244  1  0.45858044  0.92395286  0.60191128  1
  O2-  O245  1  0.45235989  0.91503543  0.93911048  1
  O2-  O246  1  0.95338968  0.41242953  0.26692307  1
  O2-  O247  1  0.95429949  0.41420480  0.60516256  1
  O2-  O248  1  0.94843494  0.41943332  0.94084721  1
  O2-  O249  1  0.95198045  0.92139503  0.26530621  1
  O2-  O250  1  0.94904367  0.91621214  0.60392043  1
  O2-  O251  1  0.95822059  0.91036585  0.93541605  1
  O2-  O252  1  0.32804802  0.29587095  0.26387953  1
  O2-  O253  1  0.33516653  0.28786385  0.59693307  1
  O2-  O254  1  0.33501242  0.28687130  0.93170581  1
  O2-  O255  1  0.33913146  0.79171784  0.26988222  1
  O2-  O256  1  0.33138313  0.79661277  0.59743735  1
  O2-  O257  1  0.33716385  0.79216728  0.93767786  1
  O2-  O258  1  0.83614679  0.29377308  0.26850656  1
  O2-  O259  1  0.83340947  0.29597099  0.60460182  1
  O2-  O260  1  0.83168182  0.29669582  0.93971519  1
  O2-  O261  1  0.83306529  0.78616725  0.25992088  1
  O2-  O262  1  0.83432585  0.79516879  0.60743420  1
  O2-  O263  1  0.83615532  0.79349099  0.93705713  1
  O2-  O264  1  0.41323738  0.04379327  0.06297779  1
  O2-  O265  1  0.42013554  0.04700974  0.39839482  1
  O2-  O266  1  0.41803146  0.04596521  0.73976358  1
  O2-  O267  1  0.41442871  0.54942069  0.06086953  1
  O2-  O268  1  0.41825662  0.53898757  0.40250744  1
  O2-  O269  1  0.41684196  0.54904116  0.72783503  1
  O2-  O270  1  0.91665188  0.03408077  0.06902767  1
  O2-  O271  1  0.91571863  0.04892893  0.39728177  1
  O2-  O272  1  0.91644899  0.04483922  0.72925435  1
  O2-  O273  1  0.91547734  0.54887622  0.06862106  1
  O2-  O274  1  0.91282774  0.54130290  0.39164748  1
  O2-  O275  1  0.91741074  0.53944867  0.73768647  1
  O2-  O276  1  0.29027454  0.16111634  0.06299789  1
  O2-  O277  1  0.29085490  0.17165373  0.39846168  1
  O2-  O278  1  0.28732076  0.16935141  0.73649855  1
  O2-  O279  1  0.29322241  0.66653849  0.06378338  1
  O2-  O280  1  0.29532125  0.66642754  0.40153733  1
  O2-  O281  1  0.29857822  0.66770423  0.72786326  1
  O2-  O282  1  0.79705731  0.16610294  0.06943636  1
  O2-  O283  1  0.79818637  0.16833409  0.39702108  1
  O2-  O284  1  0.80039238  0.16626568  0.73169396  1
  O2-  O285  1  0.79362484  0.66699075  0.06682115  1
  O2-  O286  1  0.79189731  0.66083823  0.39258727  1
  O2-  O287  1  0.79613897  0.66856084  0.73748032  1
