# generated using pymatgen
data_Ca2Al2SiO7
_symmetry_space_group_name_H-M   'P 1'
_cell_length_a   15.46382324
_cell_length_b   15.46273276
_cell_length_c   15.28819755
_cell_angle_alpha   89.99911535
_cell_angle_beta   90.00582946
_cell_angle_gamma   89.97908189
_symmetry_Int_Tables_number   1
_chemical_formula_structural   Ca2Al2SiO7
_chemical_formula_sum   'Ca48 Al48 Si24 O168'
_cell_volume   3655.60599953
_cell_formula_units_Z   24
loop_
 _symmetry_equiv_pos_site_id
 _symmetry_equiv_pos_as_xyz
  1  'x, y, z'
loop_
 _atom_type_symbol
 _atom_type_oxidation_number
  Ca2+  2.0
  Al0+  0.0
  Si0+  0.0
  O2-  -2.0
loop_
 _atom_site_type_symbol
 _atom_site_label
 _atom_site_symmetry_multiplicity
 _atom_site_fract_x
 _atom_site_fract_y
 _atom_site_fract_z
 _atom_site_occupancy
  Ca2+  Ca0  1  0.16427237  0.07902543  0.17215692  1
  Ca2+  Ca1  1  0.16073066  0.07557544  0.50390454  1
  Ca2+  Ca2  1  0.16380217  0.09080440  0.83915478  1
  Ca2+  Ca3  1  0.15696322  0.57442217  0.17123794  1
  Ca2+  Ca4  1  0.16166250  0.57748418  0.49637698  1
  Ca2+  Ca5  1  0.16925166  0.57534953  0.84538054  1
  Ca2+  Ca6  1  0.67538813  0.08742966  0.17058089  1
  Ca2+  Ca7  1  0.66991592  0.09017888  0.49836874  1
  Ca2+  Ca8  1  0.66609881  0.07998022  0.84456176  1
  Ca2+  Ca9  1  0.68202606  0.57407660  0.17362371  1
  Ca2+  Ca10  1  0.66903122  0.58164077  0.50159634  1
  Ca2+  Ca11  1  0.67043081  0.58245772  0.84201739  1
  Ca2+  Ca12  1  0.07551588  0.33558099  0.15864137  1
  Ca2+  Ca13  1  0.07903098  0.32820121  0.49239491  1
  Ca2+  Ca14  1  0.08011068  0.32670717  0.83768948  1
  Ca2+  Ca15  1  0.07333663  0.82483299  0.16521533  1
  Ca2+  Ca16  1  0.07982206  0.82666425  0.48499793  1
  Ca2+  Ca17  1  0.07368677  0.83135635  0.83693443  1
  Ca2+  Ca18  1  0.58704448  0.32426875  0.16229742  1
  Ca2+  Ca19  1  0.58584772  0.32565527  0.49202722  1
  Ca2+  Ca20  1  0.57771540  0.32334794  0.82697924  1
  Ca2+  Ca21  1  0.57978824  0.84023887  0.16361491  1
  Ca2+  Ca22  1  0.57795313  0.82810616  0.49455477  1
  Ca2+  Ca23  1  0.58994362  0.82904682  0.83169931  1
  Ca2+  Ca24  1  0.32096049  0.40938439  0.16836148  1
  Ca2+  Ca25  1  0.32744410  0.40909183  0.50278269  1
  Ca2+  Ca26  1  0.33108011  0.40759407  0.84108135  1
  Ca2+  Ca27  1  0.32708444  0.91689004  0.17741594  1
  Ca2+  Ca28  1  0.32946501  0.91228709  0.49688926  1
  Ca2+  Ca29  1  0.32969571  0.92149270  0.84007552  1
  Ca2+  Ca30  1  0.84042099  0.42225470  0.17567869  1
  Ca2+  Ca31  1  0.83169564  0.41754300  0.49173202  1
  Ca2+  Ca32  1  0.83531257  0.42241753  0.84299923  1
  Ca2+  Ca33  1  0.84140071  0.92798229  0.16811098  1
  Ca2+  Ca34  1  0.84139357  0.92443830  0.49855812  1
  Ca2+  Ca35  1  0.82642080  0.92339930  0.84843823  1
  Ca2+  Ca36  1  0.43032554  0.17031125  0.16031764  1
  Ca2+  Ca37  1  0.42912441  0.16944399  0.49724002  1
  Ca2+  Ca38  1  0.42590225  0.17600094  0.83224493  1
  Ca2+  Ca39  1  0.41514437  0.67267599  0.16779262  1
  Ca2+  Ca40  1  0.42300800  0.66937592  0.49490864  1
  Ca2+  Ca41  1  0.42555405  0.66747834  0.82838915  1
  Ca2+  Ca42  1  0.91506990  0.17611966  0.16021292  1
  Ca2+  Ca43  1  0.91896066  0.17014161  0.49074745  1
  Ca2+  Ca44  1  0.92201999  0.16537379  0.83692370  1
  Ca2+  Ca45  1  0.92136570  0.66632486  0.16040956  1
  Ca2+  Ca46  1  0.92084884  0.67396082  0.48491920  1
  Ca2+  Ca47  1  0.91626251  0.66683387  0.83861127  1
  Al0+  Al48  1  -0.00056291  -0.00201172  -0.00336247  1
  Al0+  Al49  1  0.00157495  -0.00131382  0.33984331  1
  Al0+  Al50  1  -0.00094341  -0.00030848  0.66664828  1
  Al0+  Al51  1  0.00206401  0.49974658  -0.00224126  1
  Al0+  Al52  1  0.00101132  0.49882998  0.33867641  1
  Al0+  Al53  1  0.00048542  0.50053217  0.66855753  1
  Al0+  Al54  1  0.49765671  0.00009818  -0.00100972  1
  Al0+  Al55  1  0.50107164  0.00070401  0.32721820  1
  Al0+  Al56  1  0.49793272  0.00045562  0.66486580  1
  Al0+  Al57  1  0.49819521  0.50281974  -0.00048599  1
  Al0+  Al58  1  0.49892678  0.49898977  0.33552055  1
  Al0+  Al59  1  0.49907409  0.50151225  0.66011962  1
  Al0+  Al60  1  0.25056721  0.24971985  -0.00002612  1
  Al0+  Al61  1  0.25312852  0.24870635  0.34022806  1
  Al0+  Al62  1  0.24818651  0.24737943  0.66000866  1
  Al0+  Al63  1  0.25041770  0.74933890  -0.00443551  1
  Al0+  Al64  1  0.25087962  0.74954069  0.33089650  1
  Al0+  Al65  1  0.24787031  0.74880947  0.67060688  1
  Al0+  Al66  1  0.75001585  0.24949228  -0.00670265  1
  Al0+  Al67  1  0.75203122  0.24966138  0.33430671  1
  Al0+  Al68  1  0.75126585  0.25223861  0.66622444  1
  Al0+  Al69  1  0.74844585  0.75010113  0.00580661  1
  Al0+  Al70  1  0.74908788  0.75239502  0.33294246  1
  Al0+  Al71  1  0.75036773  0.75145517  0.66248109  1
  Al0+  Al72  1  0.92650663  0.82423513  0.31795051  1
  Al0+  Al73  1  0.82168179  0.57333187  0.34910552  1
  Al0+  Al74  1  0.82063549  0.06966651  0.34761300  1
  Al0+  Al75  1  0.43134351  0.81920573  0.32007854  1
  Al0+  Al76  1  0.82180148  0.07234700  0.01469483  1
  Al0+  Al77  1  0.42858632  0.32110076  0.64982096  1
  Al0+  Al78  1  0.18210098  0.42903434  0.01258265  1
  Al0+  Al79  1  0.07169420  0.67787624  0.98333801  1
  Al0+  Al80  1  0.93231290  0.31843303  0.32142301  1
  Al0+  Al81  1  0.92777449  0.32288064  0.98537200  1
  Al0+  Al82  1  0.57197578  0.68073886  0.65334781  1
  Al0+  Al83  1  0.18111413  0.92962250  0.34636556  1
  Al0+  Al84  1  0.57161609  0.18133305  0.31812702  1
  Al0+  Al85  1  0.57199595  0.17816951  0.98474314  1
  Al0+  Al86  1  0.42940575  0.32237830  0.98781184  1
  Al0+  Al87  1  0.57304906  0.17817972  0.64998797  1
  Al0+  Al88  1  0.06781262  0.17877192  0.65141163  1
  Al0+  Al89  1  0.07004376  0.67797348  0.31904496  1
  Al0+  Al90  1  0.82090585  0.56888440  0.01259716  1
  Al0+  Al91  1  0.67640271  0.92894262  0.01572761  1
  Al0+  Al92  1  0.92665757  0.81992299  0.98492143  1
  Al0+  Al93  1  0.17961643  0.42770087  0.34870201  1
  Al0+  Al94  1  0.07098565  0.17740306  0.98884503  1
  Al0+  Al95  1  0.67876274  0.42851946  0.34768513  1
  Si0+  Si96  1  0.17930026  0.92661707  0.01440554  1
  Si0+  Si97  1  0.67790791  0.43053662  0.68188984  1
  Si0+  Si98  1  0.31938708  0.07038065  0.01499475  1
  Si0+  Si99  1  0.31979270  0.07011988  0.68269312  1
  Si0+  Si100  1  0.82140334  0.07186724  0.68216031  1
  Si0+  Si101  1  0.67424373  0.92944542  0.35142237  1
  Si0+  Si102  1  0.82020213  0.57309165  0.68199955  1
  Si0+  Si103  1  0.32128988  0.57164196  0.68228719  1
  Si0+  Si104  1  0.57301532  0.67504063  0.31488057  1
  Si0+  Si105  1  0.42747298  0.82205435  0.98393261  1
  Si0+  Si106  1  0.32196327  0.57248028  0.35109637  1
  Si0+  Si107  1  0.93011199  0.81966408  0.65150791  1
  Si0+  Si108  1  0.92849429  0.32575439  0.64830886  1
  Si0+  Si109  1  0.07151191  0.67840030  0.65162579  1
  Si0+  Si110  1  0.17747619  0.92794979  0.68443775  1
  Si0+  Si111  1  0.67520015  0.42809310  0.01283555  1
  Si0+  Si112  1  0.32410709  0.57504138  0.01737787  1
  Si0+  Si113  1  0.17998238  0.42787593  0.68310758  1
  Si0+  Si114  1  0.42473821  0.82162046  0.65155680  1
  Si0+  Si115  1  0.32521404  0.07095830  0.35181738  1
  Si0+  Si116  1  0.56988220  0.68064513  0.98735911  1
  Si0+  Si117  1  0.07501885  0.17686191  0.31934038  1
  Si0+  Si118  1  0.67882148  0.92943482  0.67906564  1
  Si0+  Si119  1  0.42616129  0.32327893  0.31595069  1
  O2-  O120  1  0.24791875  -0.00032008  0.05648992  1
  O2-  O121  1  0.25353408  0.00525076  0.39653587  1
  O2-  O122  1  0.24871122  -0.00108851  0.72628346  1
  O2-  O123  1  0.25563267  0.50557919  0.05909585  1
  O2-  O124  1  0.25577683  0.50153069  0.39600065  1
  O2-  O125  1  0.25328419  0.49768041  0.72455681  1
  O2-  O126  1  0.74775397  0.00186477  0.06445359  1
  O2-  O127  1  0.74763506  -0.00704815  0.39609022  1
  O2-  O128  1  0.74456191  0.00522169  0.72135143  1
  O2-  O129  1  0.75028630  0.48945560  0.05683729  1
  O2-  O130  1  0.74602400  0.50480305  0.39957344  1
  O2-  O131  1  0.74966585  0.50129447  0.72420613  1
  O2-  O132  1  0.00967159  0.24696951  0.27464337  1
  O2-  O133  1  -0.00606039  0.25350667  0.60515594  1
  O2-  O134  1  -0.00267368  0.24709187  0.93728667  1
  O2-  O135  1  -0.00685240  0.74578699  0.27096172  1
  O2-  O136  1  0.00085873  0.74883525  0.60934970  1
  O2-  O137  1  -0.00205380  0.74795940  0.93257944  1
  O2-  O138  1  0.49804442  0.25803278  0.27314105  1
  O2-  O139  1  0.50451146  0.25347003  0.59977026  1
  O2-  O140  1  0.50426336  0.25492130  0.93608368  1
  O2-  O141  1  0.50669786  0.74653505  0.27116666  1
  O2-  O142  1  0.49497330  0.75425074  0.60859992  1
  O2-  O143  1  0.50018384  0.75259238  0.94306436  1
  O2-  O144  1  0.07375164  0.17790817  0.10196962  1
  O2-  O145  1  0.07204722  0.17770426  0.42550159  1
  O2-  O146  1  0.06751527  0.17853955  0.76411243  1
  O2-  O147  1  0.07351152  0.67950014  0.09609337  1
  O2-  O148  1  0.07119610  0.68093727  0.43390495  1
  O2-  O149  1  0.07203264  0.67857073  0.75627820  1
  O2-  O150  1  0.56979878  0.17724070  0.09803516  1
  O2-  O151  1  0.56943939  0.18110934  0.43142719  1
  O2-  O152  1  0.57075618  0.17654695  0.76307658  1
  O2-  O153  1  0.56618410  0.67942097  0.09175476  1
  O2-  O154  1  0.57005316  0.67641479  0.42104857  1
  O2-  O155  1  0.57223143  0.68294147  0.76685647  1
  O2-  O156  1  0.18099601  0.42638236  0.23603633  1
  O2-  O157  1  0.17887423  0.43068382  0.57809907  1
  O2-  O158  1  0.18478090  0.42905362  0.89866930  1
  O2-  O159  1  0.18310699  0.93124600  0.23330226  1
  O2-  O160  1  0.17832956  0.92604268  0.57961007  1
  O2-  O161  1  0.18319824  0.92569073  0.90857065  1
  O2-  O162  1  0.67954282  0.42907353  0.23411556  1
  O2-  O163  1  0.67874972  0.43079202  0.57719722  1
  O2-  O164  1  0.67169203  0.43457128  0.90670237  1
  O2-  O165  1  0.66894340  0.93407162  0.24671675  1
  O2-  O166  1  0.68086821  0.92624007  0.57437777  1
  O2-  O167  1  0.67656715  0.92864154  0.90068434  1
  O2-  O168  1  0.42886739  0.31881614  0.10102359  1
  O2-  O169  1  0.42492268  0.32057282  0.42160992  1
  O2-  O170  1  0.42933616  0.31913695  0.76334022  1
  O2-  O171  1  0.42434092  0.82157500  0.08855874  1
  O2-  O172  1  0.43213492  0.81707887  0.43380710  1
  O2-  O173  1  0.42308600  0.82088585  0.75728549  1
  O2-  O174  1  0.93073412  0.32474194  0.09866626  1
  O2-  O175  1  0.93306385  0.31613112  0.43511765  1
  O2-  O176  1  0.92998266  0.32926894  0.75355239  1
  O2-  O177  1  0.93056389  0.82111449  0.09741791  1
  O2-  O178  1  0.93258513  0.82440050  0.43287409  1
  O2-  O179  1  0.92930815  0.81931978  0.75629078  1
  O2-  O180  1  0.32458588  0.06996813  0.24613551  1
  O2-  O181  1  0.32051514  0.06683945  0.57791907  1
  O2-  O182  1  0.31994037  0.06777352  0.90933057  1
  O2-  O183  1  0.32250685  0.57360162  0.24577213  1
  O2-  O184  1  0.31807625  0.57705381  0.57773370  1
  O2-  O185  1  0.32515249  0.57752015  0.91134998  1
  O2-  O186  1  0.82153820  0.07160612  0.23545287  1
  O2-  O187  1  0.82473629  0.06907701  0.57716055  1
  O2-  O188  1  0.82151931  0.06843872  0.90008918  1
  O2-  O189  1  0.82256626  0.56968896  0.23577882  1
  O2-  O190  1  0.82021368  0.57472191  0.57752825  1
  O2-  O191  1  0.81605945  0.57013166  0.89830716  1
  O2-  O192  1  0.04916009  0.08282817  0.27672988  1
  O2-  O193  1  0.03758482  0.08087943  0.59863359  1
  O2-  O194  1  0.04686471  0.07908402  0.93270334  1
  O2-  O195  1  0.04524158  0.57797337  0.27025132  1
  O2-  O196  1  0.04460117  0.58584814  0.60556518  1
  O2-  O197  1  0.04429996  0.58063511  0.92813963  1
  O2-  O198  1  0.53858074  0.08630027  0.26393527  1
  O2-  O199  1  0.54130060  0.07977337  0.59795208  1
  O2-  O200  1  0.53582301  0.08158122  0.93113479  1
  O2-  O201  1  0.54374033  0.58248906  0.26937740  1
  O2-  O202  1  0.54152421  0.58595714  0.59706533  1
  O2-  O203  1  0.54066556  0.59062637  0.93623875  1
  O2-  O204  1  0.17167723  0.19746157  0.27842911  1
  O2-  O205  1  0.16436924  0.20554189  0.59635627  1
  O2-  O206  1  0.16799481  0.20885387  0.93346414  1
  O2-  O207  1  0.16746009  0.70850853  0.26712308  1
  O2-  O208  1  0.16373737  0.70671882  0.60544077  1
  O2-  O209  1  0.16988183  0.70820512  0.92859225  1
  O2-  O210  1  0.66797307  0.21240822  0.26601734  1
  O2-  O211  1  0.67341636  0.20499563  0.60015914  1
  O2-  O212  1  0.67012397  0.20038023  0.92956036  1
  O2-  O213  1  0.66754710  0.69786355  0.27135514  1
  O2-  O214  1  0.66643562  0.71386520  0.59679663  1
  O2-  O215  1  0.66094521  0.70784701  0.93860928  1
  O2-  O216  1  0.08570796  0.46020082  0.06509990  1
  O2-  O217  1  0.08573598  0.45975323  0.40725926  1
  O2-  O218  1  0.08853601  0.45850348  0.73012926  1
  O2-  O219  1  0.08668683  0.95139625  0.05929664  1
  O2-  O220  1  0.08678531  0.95897102  0.40597954  1
  O2-  O221  1  0.08561117  0.95697668  0.73121233  1
  O2-  O222  1  0.58450783  0.46007534  0.06128068  1
  O2-  O223  1  0.57828365  0.45230433  0.40047694  1
  O2-  O224  1  0.58528983  0.45976827  0.72719619  1
  O2-  O225  1  0.57553897  0.95429779  0.06543642  1
  O2-  O226  1  0.58244941  0.95969957  0.39985995  1
  O2-  O227  1  0.58383827  0.95014363  0.72456500  1
  O2-  O228  1  0.21355135  0.33336478  0.06791701  1
  O2-  O229  1  0.21062090  0.33127371  0.40546803  1
  O2-  O230  1  0.20647042  0.33407298  0.72670055  1
  O2-  O231  1  0.21173284  0.83597954  0.06063720  1
  O2-  O232  1  0.21584075  0.83383447  0.40131242  1
  O2-  O233  1  0.20540671  0.83628891  0.73300115  1
  O2-  O234  1  0.69329324  0.33114706  0.05245695  1
  O2-  O235  1  0.71373928  0.33328576  0.40329445  1
  O2-  O236  1  0.70530361  0.33830892  0.72959318  1
  O2-  O237  1  0.70007136  0.83030842  0.06901312  1
  O2-  O238  1  0.69254778  0.83283972  0.39461803  1
  O2-  O239  1  0.71123825  0.83892629  0.72781337  1
  O2-  O240  1  0.44507899  0.41925290  0.27298483  1
  O2-  O241  1  0.44858459  0.42199396  0.59893502  1
  O2-  O242  1  0.44980419  0.42376002  0.93602957  1
  O2-  O243  1  0.45881928  0.91551969  0.26464480  1
  O2-  O244  1  0.44852260  0.91503784  0.60540074  1
  O2-  O245  1  0.45296056  0.91340804  0.93457029  1
  O2-  O246  1  0.96167995  0.41606221  0.27107945  1
  O2-  O247  1  0.95820088  0.41829577  0.60186483  1
  O2-  O248  1  0.96121766  0.41808303  0.92881502  1
  O2-  O249  1  0.96417190  0.92035039  0.26727762  1
  O2-  O250  1  0.95914673  0.91136383  0.60518251  1
  O2-  O251  1  0.95869642  0.91586622  0.92819077  1
  O2-  O252  1  0.33346948  0.29243028  0.27089345  1
  O2-  O253  1  0.33173477  0.28827625  0.59651522  1
  O2-  O254  1  0.33399176  0.28756598  0.93275350  1
  O2-  O255  1  0.33629684  0.78718299  0.26446912  1
  O2-  O256  1  0.33135942  0.79318183  0.60615132  1
  O2-  O257  1  0.33791454  0.79280108  0.93263592  1
  O2-  O258  1  0.83676753  0.28750674  0.26799387  1
  O2-  O259  1  0.83347437  0.30321890  0.60481076  1
  O2-  O260  1  0.82945470  0.29979515  0.92951289  1
  O2-  O261  1  0.82401164  0.80810548  0.27041670  1
  O2-  O262  1  0.83890890  0.79338156  0.60289080  1
  O2-  O263  1  0.82710973  0.79118322  0.93329165  1
  O2-  O264  1  0.40978039  0.04008104  0.06299681  1
  O2-  O265  1  0.41694255  0.03914952  0.39808639  1
  O2-  O266  1  0.41127381  0.04136278  0.73151239  1
  O2-  O267  1  0.41746889  0.55213242  0.06508731  1
  O2-  O268  1  0.41626360  0.54991361  0.39786073  1
  O2-  O269  1  0.41551183  0.54852660  0.72776857  1
  O2-  O270  1  0.92053805  0.04117442  0.06573013  1
  O2-  O271  1  0.91660465  0.03925696  0.40513478  1
  O2-  O272  1  0.91098796  0.03767571  0.73042980  1
  O2-  O273  1  0.91928437  0.54264194  0.06324002  1
  O2-  O274  1  0.91780809  0.54133913  0.40518337  1
  O2-  O275  1  0.91291413  0.54531323  0.72887796  1
  O2-  O276  1  0.29273198  0.16110549  0.06349575  1
  O2-  O277  1  0.30438270  0.16469308  0.39950055  1
  O2-  O278  1  0.28945283  0.16184513  0.72856099  1
  O2-  O279  1  0.29797826  0.66919606  0.06235401  1
  O2-  O280  1  0.29423517  0.66495089  0.39876358  1
  O2-  O281  1  0.29152427  0.66226419  0.73291610  1
  O2-  O282  1  0.79630920  0.17327034  0.06378891  1
  O2-  O283  1  0.78771671  0.16438810  0.40409720  1
  O2-  O284  1  0.80082821  0.16669637  0.72671890  1
  O2-  O285  1  0.78689204  0.66308403  0.06757667  1
  O2-  O286  1  0.79592871  0.67401030  0.40072341  1
  O2-  O287  1  0.79111502  0.66534918  0.72863169  1
