# generated using pymatgen
data_Ca2Al2SiO7
_symmetry_space_group_name_H-M   'P 1'
_cell_length_a   15.45823708
_cell_length_b   15.45776019
_cell_length_c   15.28345146
_cell_angle_alpha   90.00945036
_cell_angle_beta   89.99758039
_cell_angle_gamma   89.99368381
_symmetry_Int_Tables_number   1
_chemical_formula_structural   Ca2Al2SiO7
_chemical_formula_sum   'Ca48 Al48 Si24 O168'
_cell_volume   3651.97639793
_cell_formula_units_Z   24
loop_
 _symmetry_equiv_pos_site_id
 _symmetry_equiv_pos_as_xyz
  1  'x, y, z'
loop_
 _atom_type_symbol
 _atom_type_oxidation_number
  Ca2+  2.0
  Al0+  0.0
  Si0+  0.0
  O2-  -2.0
loop_
 _atom_site_type_symbol
 _atom_site_label
 _atom_site_symmetry_multiplicity
 _atom_site_fract_x
 _atom_site_fract_y
 _atom_site_fract_z
 _atom_site_occupancy
  Ca2+  Ca0  1  0.15531385  0.07150461  0.16624382  1
  Ca2+  Ca1  1  0.16635428  0.07473325  0.51209361  1
  Ca2+  Ca2  1  0.16423659  0.07907081  0.83688423  1
  Ca2+  Ca3  1  0.17393577  0.58422341  0.16888124  1
  Ca2+  Ca4  1  0.16768558  0.58567234  0.49806373  1
  Ca2+  Ca5  1  0.17127788  0.57385766  0.84401402  1
  Ca2+  Ca6  1  0.66128333  0.08195687  0.16692299  1
  Ca2+  Ca7  1  0.67270054  0.08821947  0.50507181  1
  Ca2+  Ca8  1  0.67414856  0.08232881  0.83938522  1
  Ca2+  Ca9  1  0.67698879  0.58391750  0.16654722  1
  Ca2+  Ca10  1  0.67012365  0.57317578  0.50914841  1
  Ca2+  Ca11  1  0.67190945  0.57586591  0.83811486  1
  Ca2+  Ca12  1  0.07743952  0.33147345  0.15571646  1
  Ca2+  Ca13  1  0.07327539  0.32712272  0.49693165  1
  Ca2+  Ca14  1  0.07936649  0.32652353  0.82859152  1
  Ca2+  Ca15  1  0.08570956  0.83069372  0.16077152  1
  Ca2+  Ca16  1  0.08439246  0.83589703  0.49882384  1
  Ca2+  Ca17  1  0.07667462  0.83991743  0.82943826  1
  Ca2+  Ca18  1  0.58231154  0.32065545  0.16189411  1
  Ca2+  Ca19  1  0.58029940  0.33026953  0.49907096  1
  Ca2+  Ca20  1  0.57950746  0.33145537  0.82792469  1
  Ca2+  Ca21  1  0.57443319  0.83456986  0.15287699  1
  Ca2+  Ca22  1  0.57365934  0.83695839  0.50034368  1
  Ca2+  Ca23  1  0.57189822  0.83830090  0.83193166  1
  Ca2+  Ca24  1  0.32789127  0.42591445  0.16796941  1
  Ca2+  Ca25  1  0.33897217  0.42286545  0.50706137  1
  Ca2+  Ca26  1  0.32953713  0.41908299  0.84148186  1
  Ca2+  Ca27  1  0.32220390  0.91311768  0.16755629  1
  Ca2+  Ca28  1  0.32270671  0.92208280  0.50914168  1
  Ca2+  Ca29  1  0.32476088  0.91632784  0.83662505  1
  Ca2+  Ca30  1  0.84402961  0.41872477  0.16675358  1
  Ca2+  Ca31  1  0.82984963  0.40792703  0.50783620  1
  Ca2+  Ca32  1  0.83463540  0.41583366  0.83854712  1
  Ca2+  Ca33  1  0.82834281  0.91335322  0.16439162  1
  Ca2+  Ca34  1  0.83372942  0.92455751  0.51221572  1
  Ca2+  Ca35  1  0.83507480  0.92021545  0.84003398  1
  Ca2+  Ca36  1  0.42877642  0.15917334  0.16104899  1
  Ca2+  Ca37  1  0.41715660  0.16918983  0.50057705  1
  Ca2+  Ca38  1  0.42153545  0.16606943  0.82610877  1
  Ca2+  Ca39  1  0.41103183  0.66911174  0.16030775  1
  Ca2+  Ca40  1  0.41180457  0.67208334  0.49799284  1
  Ca2+  Ca41  1  0.40783218  0.67809230  0.83192707  1
  Ca2+  Ca42  1  0.92234414  0.17947457  0.15768148  1
  Ca2+  Ca43  1  0.91706670  0.17116180  0.50302161  1
  Ca2+  Ca44  1  0.92878215  0.16892735  0.82732841  1
  Ca2+  Ca45  1  0.92449702  0.66918500  0.15776296  1
  Ca2+  Ca46  1  0.92464750  0.67499225  0.49606311  1
  Ca2+  Ca47  1  0.91001122  0.67751857  0.83242777  1
  Al0+  Al48  1  -0.00093081  0.00076030  -0.00016404  1
  Al0+  Al49  1  -0.00385226  0.00073593  0.33793860  1
  Al0+  Al50  1  -0.00134090  -0.00076229  0.66616342  1
  Al0+  Al51  1  0.00032832  0.50031768  0.00339633  1
  Al0+  Al52  1  0.00170478  0.50347817  0.32779539  1
  Al0+  Al53  1  0.00020997  0.50127162  0.66301693  1
  Al0+  Al54  1  0.50051267  -0.00140665  -0.00572676  1
  Al0+  Al55  1  0.49869546  -0.00028224  0.33149162  1
  Al0+  Al56  1  0.49918190  -0.00124227  0.66289874  1
  Al0+  Al57  1  0.50276550  0.49982088  0.00623453  1
  Al0+  Al58  1  0.50082922  0.50082201  0.33650156  1
  Al0+  Al59  1  0.50216289  0.49933762  0.66885845  1
  Al0+  Al60  1  0.25190522  0.24925196  0.00395581  1
  Al0+  Al61  1  0.24932985  0.25044557  0.33207252  1
  Al0+  Al62  1  0.25227309  0.25026018  0.65980748  1
  Al0+  Al63  1  0.25003340  0.75109163  0.00228022  1
  Al0+  Al64  1  0.24898776  0.75013939  0.33844730  1
  Al0+  Al65  1  0.25044803  0.75056251  0.66535138  1
  Al0+  Al66  1  0.74959441  0.24961044  -0.00604502  1
  Al0+  Al67  1  0.74898441  0.24997527  0.32432052  1
  Al0+  Al68  1  0.74972573  0.24927635  0.67464855  1
  Al0+  Al69  1  0.74927620  0.74880284  0.00494577  1
  Al0+  Al70  1  0.74805463  0.74977722  0.33705625  1
  Al0+  Al71  1  0.74987680  0.74850828  0.66033558  1
  Al0+  Al72  1  0.42961150  0.32227630  0.65431411  1
  Al0+  Al73  1  0.07342294  0.17811798  0.98568619  1
  Al0+  Al74  1  0.42829171  0.82091062  0.65092385  1
  Al0+  Al75  1  0.17928602  0.92886647  0.68371876  1
  Al0+  Al76  1  0.17747419  0.93129432  0.01391141  1
  Al0+  Al77  1  0.92805433  0.81926459  0.98853214  1
  Al0+  Al78  1  0.67876428  0.93047243  0.01216544  1
  Al0+  Al79  1  0.92814321  0.32176085  0.65247031  1
  Al0+  Al80  1  0.92830657  0.82079579  0.65310429  1
  Al0+  Al81  1  0.82042083  0.57028183  0.01348614  1
  Al0+  Al82  1  0.81986750  0.07015492  0.68146597  1
  Al0+  Al83  1  0.32249708  0.07323300  0.68097831  1
  Al0+  Al84  1  0.67983317  0.42886028  0.68090870  1
  Al0+  Al85  1  0.42765741  0.81864548  0.98655701  1
  Al0+  Al86  1  0.07226836  0.17822502  0.65063647  1
  Al0+  Al87  1  0.32087616  0.56895550  0.34996686  1
  Al0+  Al88  1  0.93029530  0.32008667  0.31906595  1
  Al0+  Al89  1  0.17890489  0.42618194  0.01470568  1
  Al0+  Al90  1  0.56821612  0.18027131  0.32004626  1
  Al0+  Al91  1  0.93047783  0.32389767  0.98302195  1
  Al0+  Al92  1  0.07094699  0.68335141  0.31825964  1
  Al0+  Al93  1  0.32189986  0.57182956  0.01404801  1
  Al0+  Al94  1  0.17822626  0.93123712  0.34797462  1
  Al0+  Al95  1  0.56988226  0.17790869  0.98337588  1
  Si0+  Si96  1  0.42675784  0.32544322  0.31594390  1
  Si0+  Si97  1  0.17654190  0.42742841  0.35145619  1
  Si0+  Si98  1  0.57320420  0.67650964  0.98453412  1
  Si0+  Si99  1  0.92477882  0.82396228  0.31678717  1
  Si0+  Si100  1  0.57214150  0.17776715  0.65091490  1
  Si0+  Si101  1  0.82309617  0.57248907  0.35004336  1
  Si0+  Si102  1  0.17828218  0.42921336  0.67802644  1
  Si0+  Si103  1  0.67854560  0.42541133  0.01964424  1
  Si0+  Si104  1  0.42976084  0.32359406  0.98595257  1
  Si0+  Si105  1  0.82334400  0.57299533  0.68136983  1
  Si0+  Si106  1  0.32404581  0.07140194  0.01646417  1
  Si0+  Si107  1  0.82138531  0.07268475  0.01847755  1
  Si0+  Si108  1  0.07291151  0.67911327  0.98342227  1
  Si0+  Si109  1  0.32447329  0.07237636  0.34918579  1
  Si0+  Si110  1  0.57261020  0.67714313  0.31819678  1
  Si0+  Si111  1  0.07329838  0.67734078  0.65040612  1
  Si0+  Si112  1  0.67589281  0.92780272  0.34924799  1
  Si0+  Si113  1  0.07263424  0.17586634  0.31731300  1
  Si0+  Si114  1  0.43091646  0.81838195  0.31826714  1
  Si0+  Si115  1  0.81651941  0.07153131  0.34688605  1
  Si0+  Si116  1  0.68218308  0.42912796  0.34724306  1
  Si0+  Si117  1  0.32157319  0.57045328  0.68143246  1
  Si0+  Si118  1  0.67760313  0.92515632  0.68163547  1
  Si0+  Si119  1  0.57135044  0.67730510  0.64916855  1
  O2-  O120  1  0.25081586  0.00763328  0.06126234  1
  O2-  O121  1  0.24909122  0.01089596  0.39228911  1
  O2-  O122  1  0.24980458  0.00314811  0.73245898  1
  O2-  O123  1  0.25038059  0.49967088  0.06424935  1
  O2-  O124  1  0.24987434  0.49079602  0.39741094  1
  O2-  O125  1  0.25012057  0.49943213  0.72139500  1
  O2-  O126  1  0.75169481  0.00466479  0.06335183  1
  O2-  O127  1  0.74896826  -0.00315053  0.39023108  1
  O2-  O128  1  0.74653464  -0.00735493  0.72593739  1
  O2-  O129  1  0.74996757  0.49201683  0.06294764  1
  O2-  O130  1  0.75379865  0.49917174  0.39126597  1
  O2-  O131  1  0.75783321  0.50132329  0.72506435  1
  O2-  O132  1  0.00931118  0.24952346  0.27360050  1
  O2-  O133  1  -0.00012402  0.25073733  0.60093539  1
  O2-  O134  1  0.00374713  0.25232400  0.93559369  1
  O2-  O135  1  -0.00503144  0.75744919  0.27263216  1
  O2-  O136  1  0.00459406  0.74722577  0.60759115  1
  O2-  O137  1  0.00333317  0.74651777  0.93928375  1
  O2-  O138  1  0.48981666  0.25114127  0.27259506  1
  O2-  O139  1  0.50203454  0.24526599  0.60691295  1
  O2-  O140  1  0.49598543  0.25411824  0.93952978  1
  O2-  O141  1  0.50310723  0.74883168  0.27515825  1
  O2-  O142  1  0.50373110  0.74655898  0.60371071  1
  O2-  O143  1  0.50073529  0.74107935  0.94073690  1
  O2-  O144  1  0.06826456  0.17684724  0.09998587  1
  O2-  O145  1  0.07061463  0.17489670  0.42257147  1
  O2-  O146  1  0.07245611  0.18010034  0.76375531  1
  O2-  O147  1  0.07302151  0.68188421  0.08938130  1
  O2-  O148  1  0.06848050  0.68315325  0.43159184  1
  O2-  O149  1  0.07394270  0.67374959  0.75557316  1
  O2-  O150  1  0.56815096  0.17792521  0.09720557  1
  O2-  O151  1  0.57080697  0.18291478  0.43297013  1
  O2-  O152  1  0.57118573  0.17834488  0.75614031  1
  O2-  O153  1  0.57433625  0.67924770  0.09076192  1
  O2-  O154  1  0.57365545  0.67749104  0.42315631  1
  O2-  O155  1  0.57192714  0.67685993  0.75438461  1
  O2-  O156  1  0.17722407  0.42962448  0.24632426  1
  O2-  O157  1  0.17791756  0.43296106  0.57277749  1
  O2-  O158  1  0.18107972  0.42787801  0.90035779  1
  O2-  O159  1  0.17976599  0.93032574  0.23471239  1
  O2-  O160  1  0.18163523  0.92818994  0.56953137  1
  O2-  O161  1  0.17818162  0.92947695  0.90166456  1
  O2-  O162  1  0.68183894  0.43112220  0.24247705  1
  O2-  O163  1  0.67945887  0.43016068  0.56676391  1
  O2-  O164  1  0.67464298  0.42844688  0.91433590  1
  O2-  O165  1  0.67408364  0.92621848  0.24446502  1
  O2-  O166  1  0.67856248  0.92673090  0.57512810  1
  O2-  O167  1  0.67957088  0.93117362  0.89937665  1
  O2-  O168  1  0.43330863  0.32386921  0.09186707  1
  O2-  O169  1  0.43081130  0.32796385  0.42151870  1
  O2-  O170  1  0.43224386  0.32619244  0.76700693  1
  O2-  O171  1  0.42908722  0.81832646  0.10045746  1
  O2-  O172  1  0.43395565  0.81788849  0.42336375  1
  O2-  O173  1  0.42821833  0.81853642  0.76367875  1
  O2-  O174  1  0.93107149  0.32128346  0.09737126  1
  O2-  O175  1  0.92663780  0.31644188  0.43196159  1
  O2-  O176  1  0.93158230  0.32400275  0.76495212  1
  O2-  O177  1  0.92808039  0.81688889  0.10199208  1
  O2-  O178  1  0.92284123  0.82236507  0.42241322  1
  O2-  O179  1  0.92483067  0.81796877  0.76591978  1
  O2-  O180  1  0.33085205  0.06731732  0.24394177  1
  O2-  O181  1  0.32282660  0.07022653  0.56664631  1
  O2-  O182  1  0.32625232  0.06986713  0.91128974  1
  O2-  O183  1  0.32110481  0.56930554  0.23742579  1
  O2-  O184  1  0.32203109  0.57000636  0.57600344  1
  O2-  O185  1  0.32039972  0.57082798  0.90002861  1
  O2-  O186  1  0.81511744  0.07053741  0.24205421  1
  O2-  O187  1  0.81582065  0.07093862  0.56715077  1
  O2-  O188  1  0.82104892  0.07052045  0.91318127  1
  O2-  O189  1  0.82015261  0.57509463  0.24519484  1
  O2-  O190  1  0.82068439  0.57436331  0.57529439  1
  O2-  O191  1  0.81574395  0.57221308  0.90050539  1
  O2-  O192  1  0.03941443  0.08397714  0.27159716  1
  O2-  O193  1  0.04037586  0.08077023  0.59794147  1
  O2-  O194  1  0.04121853  0.08124954  0.93259822  1
  O2-  O195  1  0.04156196  0.58737068  0.26269074  1
  O2-  O196  1  0.04660580  0.58570618  0.59991792  1
  O2-  O197  1  0.04838084  0.58472204  0.93985442  1
  O2-  O198  1  0.53977594  0.08216534  0.26605806  1
  O2-  O199  1  0.54985002  0.08399039  0.60301376  1
  O2-  O200  1  0.53926366  0.08275610  0.92821303  1
  O2-  O201  1  0.54549970  0.58518748  0.27108221  1
  O2-  O202  1  0.54343545  0.58467442  0.60197189  1
  O2-  O203  1  0.55266292  0.58056206  0.94140332  1
  O2-  O204  1  0.16913961  0.19350438  0.27326065  1
  O2-  O205  1  0.16983230  0.20578852  0.59540677  1
  O2-  O206  1  0.17488885  0.20111788  0.93705271  1
  O2-  O207  1  0.16811754  0.71476194  0.26587397  1
  O2-  O208  1  0.16616744  0.70322569  0.60269832  1
  O2-  O209  1  0.16604887  0.70454906  0.93757671  1
  O2-  O210  1  0.66154139  0.21366778  0.26158533  1
  O2-  O211  1  0.66494867  0.20711702  0.60576361  1
  O2-  O212  1  0.66649919  0.20678686  0.93006397  1
  O2-  O213  1  0.66540584  0.70412652  0.27159990  1
  O2-  O214  1  0.66434785  0.70063335  0.59979676  1
  O2-  O215  1  0.66468503  0.70571429  0.93760411  1
  O2-  O216  1  0.08147890  0.45532155  0.06851615  1
  O2-  O217  1  0.08457730  0.46045755  0.39710832  1
  O2-  O218  1  0.08707081  0.45838725  0.72600321  1
  O2-  O219  1  0.08059897  0.96009445  0.06991526  1
  O2-  O220  1  0.07901509  0.95654828  0.40064710  1
  O2-  O221  1  0.07904975  0.95381846  0.73256245  1
  O2-  O222  1  0.58715557  0.45323895  0.06969290  1
  O2-  O223  1  0.59072118  0.45775575  0.39561443  1
  O2-  O224  1  0.58571929  0.46456816  0.73734916  1
  O2-  O225  1  0.58194264  0.96165246  0.06683653  1
  O2-  O226  1  0.58493544  0.95837855  0.39735693  1
  O2-  O227  1  0.58326735  0.95027131  0.72506076  1
  O2-  O228  1  0.20762295  0.32911481  0.07159686  1
  O2-  O229  1  0.19544603  0.33065988  0.39455403  1
  O2-  O230  1  0.20646325  0.33734702  0.72301211  1
  O2-  O231  1  0.21122043  0.83564363  0.06848578  1
  O2-  O232  1  0.21347920  0.83689928  0.40284946  1
  O2-  O233  1  0.20973429  0.82973420  0.73440228  1
  O2-  O234  1  0.70205822  0.33020337  0.06329670  1
  O2-  O235  1  0.71017426  0.33643903  0.39279630  1
  O2-  O236  1  0.70531632  0.33320204  0.73732726  1
  O2-  O237  1  0.70826214  0.83456209  0.06911777  1
  O2-  O238  1  0.69995507  0.83505512  0.39769223  1
  O2-  O239  1  0.70078873  0.82982211  0.72420206  1
  O2-  O240  1  0.45944452  0.41687674  0.26949235  1
  O2-  O241  1  0.46526624  0.41755669  0.59861894  1
  O2-  O242  1  0.45761564  0.41722066  0.94059451  1
  O2-  O243  1  0.45804883  0.91033642  0.27127958  1
  O2-  O244  1  0.46036541  0.91601026  0.59372680  1
  O2-  O245  1  0.46195795  0.91243966  0.93093016  1
  O2-  O246  1  0.95707757  0.41880702  0.26780719  1
  O2-  O247  1  0.95394565  0.42116621  0.59830019  1
  O2-  O248  1  0.95557513  0.42402319  0.93265451  1
  O2-  O249  1  0.94621040  0.91946786  0.27335055  1
  O2-  O250  1  0.95690329  0.91659448  0.59726661  1
  O2-  O251  1  0.95563284  0.91675981  0.93644686  1
  O2-  O252  1  0.33027685  0.30697899  0.27308901  1
  O2-  O253  1  0.33466663  0.29684951  0.59454012  1
  O2-  O254  1  0.33484128  0.30161290  0.94252444  1
  O2-  O255  1  0.33902740  0.78835111  0.27383533  1
  O2-  O256  1  0.33337676  0.78677885  0.59535476  1
  O2-  O257  1  0.33177687  0.78792907  0.93163652  1
  O2-  O258  1  0.83583404  0.28717004  0.26225853  1
  O2-  O259  1  0.82841065  0.29047612  0.60288202  1
  O2-  O260  1  0.83059696  0.29772823  0.93343451  1
  O2-  O261  1  0.83011427  0.79630593  0.27309599  1
  O2-  O262  1  0.83275212  0.78960589  0.59502872  1
  O2-  O263  1  0.83161055  0.78617460  0.93559707  1
  O2-  O264  1  0.41539546  0.03802823  0.06323347  1
  O2-  O265  1  0.41534042  0.04079312  0.39849781  1
  O2-  O266  1  0.42193658  0.04356226  0.73136562  1
  O2-  O267  1  0.42119833  0.54639577  0.06826040  1
  O2-  O268  1  0.41939838  0.54179804  0.40414390  1
  O2-  O269  1  0.41329646  0.54361763  0.72820963  1
  O2-  O270  1  0.91363700  0.04575688  0.06599418  1
  O2-  O271  1  0.90828083  0.04778453  0.39639483  1
  O2-  O272  1  0.91581998  0.03909462  0.73450885  1
  O2-  O273  1  0.91750831  0.54446559  0.06921950  1
  O2-  O274  1  0.91649776  0.54812983  0.39495213  1
  O2-  O275  1  0.91848624  0.55278462  0.72573321  1
  O2-  O276  1  0.30750521  0.16656230  0.06316762  1
  O2-  O277  1  0.30727491  0.17033039  0.39011128  1
  O2-  O278  1  0.30087825  0.17495078  0.72987725  1
  O2-  O279  1  0.29176331  0.66888384  0.06883241  1
  O2-  O280  1  0.28682428  0.66432277  0.40463413  1
  O2-  O281  1  0.29307473  0.66219437  0.72745421  1
  O2-  O282  1  0.79382436  0.16684877  0.06267118  1
  O2-  O283  1  0.78289647  0.16222713  0.39313230  1
  O2-  O284  1  0.78823334  0.16393796  0.73893423  1
  O2-  O285  1  0.78547427  0.66349885  0.07261007  1
  O2-  O286  1  0.79204248  0.66323641  0.39913875  1
  O2-  O287  1  0.79235490  0.66530705  0.72732847  1
