# generated using pymatgen
data_Ca2Al2SiO7
_symmetry_space_group_name_H-M   'P 1'
_cell_length_a   15.45802986
_cell_length_b   15.45743761
_cell_length_c   15.28274317
_cell_angle_alpha   90.00030415
_cell_angle_beta   90.01102809
_cell_angle_gamma   90.00370161
_symmetry_Int_Tables_number   1
_chemical_formula_structural   Ca2Al2SiO7
_chemical_formula_sum   'Ca48 Al48 Si24 O168'
_cell_volume   3651.68199583
_cell_formula_units_Z   24
loop_
 _symmetry_equiv_pos_site_id
 _symmetry_equiv_pos_as_xyz
  1  'x, y, z'
loop_
 _atom_type_symbol
 _atom_type_oxidation_number
  Ca2+  2.0
  Al0+  0.0
  Si0+  0.0
  O2-  -2.0
loop_
 _atom_site_type_symbol
 _atom_site_label
 _atom_site_symmetry_multiplicity
 _atom_site_fract_x
 _atom_site_fract_y
 _atom_site_fract_z
 _atom_site_occupancy
  Ca2+  Ca0  1  0.17849600  0.07707562  0.17354802  1
  Ca2+  Ca1  1  0.17431962  0.07655577  0.51071580  1
  Ca2+  Ca2  1  0.17841476  0.08744751  0.83453348  1
  Ca2+  Ca3  1  0.15443133  0.58088978  0.16692005  1
  Ca2+  Ca4  1  0.16637016  0.57935182  0.50638300  1
  Ca2+  Ca5  1  0.16459127  0.57313241  0.83934108  1
  Ca2+  Ca6  1  0.67179248  0.08145592  0.16829629  1
  Ca2+  Ca7  1  0.66350807  0.07408864  0.50695714  1
  Ca2+  Ca8  1  0.66196699  0.08066343  0.83843577  1
  Ca2+  Ca9  1  0.67412635  0.58019954  0.17679816  1
  Ca2+  Ca10  1  0.66755313  0.57655381  0.50735151  1
  Ca2+  Ca11  1  0.65698739  0.57931809  0.83470642  1
  Ca2+  Ca12  1  0.07418786  0.33435390  0.15682388  1
  Ca2+  Ca13  1  0.09258033  0.32521876  0.50151907  1
  Ca2+  Ca14  1  0.08132801  0.33235547  0.82771504  1
  Ca2+  Ca15  1  0.08300584  0.82389693  0.16059848  1
  Ca2+  Ca16  1  0.08782840  0.83179227  0.49245606  1
  Ca2+  Ca17  1  0.07942525  0.83821110  0.82900518  1
  Ca2+  Ca18  1  0.58328337  0.32803161  0.15928757  1
  Ca2+  Ca19  1  0.58387521  0.33304191  0.50132871  1
  Ca2+  Ca20  1  0.57909328  0.32057498  0.82197817  1
  Ca2+  Ca21  1  0.58718904  0.82939812  0.16125996  1
  Ca2+  Ca22  1  0.58021750  0.84014126  0.50097247  1
  Ca2+  Ca23  1  0.58140806  0.82467551  0.82217710  1
  Ca2+  Ca24  1  0.32599376  0.41884594  0.16627833  1
  Ca2+  Ca25  1  0.33154975  0.41745996  0.51113077  1
  Ca2+  Ca26  1  0.32234172  0.40505301  0.83346411  1
  Ca2+  Ca27  1  0.33200571  0.92733701  0.17356813  1
  Ca2+  Ca28  1  0.32618652  0.92360847  0.50862327  1
  Ca2+  Ca29  1  0.33726221  0.92541332  0.83295212  1
  Ca2+  Ca30  1  0.82904970  0.42172170  0.17362847  1
  Ca2+  Ca31  1  0.82377833  0.42305226  0.50192996  1
  Ca2+  Ca32  1  0.82832498  0.41342904  0.83627505  1
  Ca2+  Ca33  1  0.83174469  0.91730684  0.16662138  1
  Ca2+  Ca34  1  0.82073464  0.91257813  0.50448392  1
  Ca2+  Ca35  1  0.83018146  0.92312715  0.83809308  1
  Ca2+  Ca36  1  0.42037153  0.16125388  0.16227277  1
  Ca2+  Ca37  1  0.41441462  0.16504456  0.50353588  1
  Ca2+  Ca38  1  0.42218761  0.16423886  0.82486221  1
  Ca2+  Ca39  1  0.42562229  0.67102493  0.15894340  1
  Ca2+  Ca40  1  0.41969405  0.67310056  0.50265585  1
  Ca2+  Ca41  1  0.42615231  0.67227536  0.82455487  1
  Ca2+  Ca42  1  0.91366704  0.17334479  0.15540385  1
  Ca2+  Ca43  1  0.92425114  0.16513897  0.50076415  1
  Ca2+  Ca44  1  0.91940507  0.16939401  0.82937621  1
  Ca2+  Ca45  1  0.92211130  0.67115816  0.16005301  1
  Ca2+  Ca46  1  0.92235818  0.66439845  0.49304343  1
  Ca2+  Ca47  1  0.92161836  0.67285995  0.83527519  1
  Al0+  Al48  1  -0.00020445  0.00068802  0.00227963  1
  Al0+  Al49  1  0.00060030  -0.00019044  0.33289256  1
  Al0+  Al50  1  -0.00067198  0.00016892  0.66343084  1
  Al0+  Al51  1  -0.00265706  0.49949138  -0.00428612  1
  Al0+  Al52  1  -0.00082208  0.49921071  0.33443516  1
  Al0+  Al53  1  -0.00134101  0.50140405  0.66994379  1
  Al0+  Al54  1  0.49995005  -0.00081886  0.00277054  1
  Al0+  Al55  1  0.50066281  0.00205610  0.33806064  1
  Al0+  Al56  1  0.50039231  -0.00144315  0.66698559  1
  Al0+  Al57  1  0.49639528  0.49874486  -0.00242179  1
  Al0+  Al58  1  0.49782999  0.49871928  0.33397037  1
  Al0+  Al59  1  0.50137468  0.50011759  0.66419924  1
  Al0+  Al60  1  0.24876418  0.25060186  0.01303179  1
  Al0+  Al61  1  0.25192362  0.25079023  0.33260252  1
  Al0+  Al62  1  0.24914612  0.24963157  0.66623331  1
  Al0+  Al63  1  0.25136296  0.74788401  -0.00376264  1
  Al0+  Al64  1  0.25094818  0.74906996  0.32863357  1
  Al0+  Al65  1  0.24976591  0.74973663  0.66743230  1
  Al0+  Al66  1  0.74891930  0.24853524  -0.00428140  1
  Al0+  Al67  1  0.74959744  0.24995171  0.33658421  1
  Al0+  Al68  1  0.75116599  0.25262635  0.66411269  1
  Al0+  Al69  1  0.75103264  0.74834185  -0.00822684  1
  Al0+  Al70  1  0.75203219  0.75017174  0.34018594  1
  Al0+  Al71  1  0.75260568  0.75004928  0.66758917  1
  Al0+  Al72  1  0.17930983  0.92696927  0.34638749  1
  Al0+  Al73  1  0.32183044  0.06968923  0.01583451  1
  Al0+  Al74  1  0.17726591  0.43133051  0.01543255  1
  Al0+  Al75  1  0.57116397  0.67753029  0.98808826  1
  Al0+  Al76  1  0.17655365  0.92685810  0.68287145  1
  Al0+  Al77  1  0.17928513  0.42964279  0.67935912  1
  Al0+  Al78  1  0.92767137  0.32043097  0.98626749  1
  Al0+  Al79  1  0.07190670  0.67843756  0.98273007  1
  Al0+  Al80  1  0.67962263  0.92972597  0.68189155  1
  Al0+  Al81  1  0.42823839  0.82114625  0.65060055  1
  Al0+  Al82  1  0.32094554  0.07239510  0.35146589  1
  Al0+  Al83  1  0.06967264  0.18000726  0.65416417  1
  Al0+  Al84  1  0.57354426  0.67901067  0.64885891  1
  Al0+  Al85  1  0.07100336  0.67862030  0.31993037  1
  Al0+  Al86  1  0.67633313  0.42794854  0.34769418  1
  Al0+  Al87  1  0.56922252  0.17908770  0.98832063  1
  Al0+  Al88  1  0.32012585  0.07024065  0.68311184  1
  Al0+  Al89  1  0.92992908  0.82355555  0.98394326  1
  Al0+  Al90  1  0.82205158  0.57049302  0.34776134  1
  Al0+  Al91  1  0.67891413  0.43003452  0.68283246  1
  Al0+  Al92  1  0.57325978  0.17773343  0.64983014  1
  Al0+  Al93  1  0.82102660  0.07177681  0.01204412  1
  Al0+  Al94  1  0.68125316  0.92981929  0.34572848  1
  Al0+  Al95  1  0.42847280  0.31937669  0.65234506  1
  Si0+  Si96  1  0.32216757  0.57135255  0.34732175  1
  Si0+  Si97  1  0.82239187  0.07271978  0.68167374  1
  Si0+  Si98  1  0.17881084  0.43060657  0.34757533  1
  Si0+  Si99  1  0.32263732  0.57299077  0.01739816  1
  Si0+  Si100  1  0.67971911  0.92632753  0.01499372  1
  Si0+  Si101  1  0.17734946  0.92572515  0.01663099  1
  Si0+  Si102  1  0.07003090  0.67840939  0.65200175  1
  Si0+  Si103  1  0.32255841  0.57232523  0.68337100  1
  Si0+  Si104  1  0.92952865  0.31836688  0.31918289  1
  Si0+  Si105  1  0.42775399  0.32293967  0.31530613  1
  Si0+  Si106  1  0.81878686  0.57083454  0.01399933  1
  Si0+  Si107  1  0.67694978  0.42843796  0.01283513  1
  Si0+  Si108  1  0.93035294  0.82197976  0.64949939  1
  Si0+  Si109  1  0.57149520  0.67844822  0.31997044  1
  Si0+  Si110  1  0.43111126  0.82209989  0.31770135  1
  Si0+  Si111  1  0.82371684  0.07448242  0.35003639  1
  Si0+  Si112  1  0.82279370  0.57252380  0.68749875  1
  Si0+  Si113  1  0.42532260  0.32110773  0.98551252  1
  Si0+  Si114  1  0.57095086  0.17932367  0.31755698  1
  Si0+  Si115  1  0.07345149  0.17925499  0.98667102  1
  Si0+  Si116  1  0.07292756  0.17860232  0.31689459  1
  Si0+  Si117  1  0.42875182  0.82257098  0.98463783  1
  Si0+  Si118  1  0.92821794  0.32532092  0.64699132  1
  Si0+  Si119  1  0.92603413  0.82282532  0.31707090  1
  O2-  O120  1  0.24725153  -0.00650645  0.06086302  1
  O2-  O121  1  0.24682509  0.00142467  0.39833479  1
  O2-  O122  1  0.24880048  -0.00241268  0.73368561  1
  O2-  O123  1  0.24966947  0.50875634  0.06264619  1
  O2-  O124  1  0.24941288  0.50186753  0.38900813  1
  O2-  O125  1  0.25551491  0.50185157  0.72727679  1
  O2-  O126  1  0.74821666  -0.00472409  0.05954780  1
  O2-  O127  1  0.75770491  0.00289979  0.39252348  1
  O2-  O128  1  0.74940692  0.00963057  0.72700406  1
  O2-  O129  1  0.74526664  0.50175464  0.05611779  1
  O2-  O130  1  0.74557745  0.50300462  0.39679387  1
  O2-  O131  1  0.75167145  0.50596349  0.73116056  1
  O2-  O132  1  -0.00117697  0.24661687  0.27464966  1
  O2-  O133  1  -0.00295865  0.25606422  0.60394207  1
  O2-  O134  1  0.00335529  0.24590076  0.94168964  1
  O2-  O135  1  -0.00194821  0.75623875  0.27474701  1
  O2-  O136  1  0.00313509  0.75215936  0.60832873  1
  O2-  O137  1  0.00604698  0.75604749  0.93283296  1
  O2-  O138  1  0.50040537  0.25184742  0.27558673  1
  O2-  O139  1  0.50122206  0.24984252  0.59923857  1
  O2-  O140  1  0.49304720  0.25193944  0.94234125  1
  O2-  O141  1  0.50371866  0.75173458  0.27566004  1
  O2-  O142  1  0.50273729  0.75197572  0.59846760  1
  O2-  O143  1  0.49687467  0.75257259  0.94246069  1
  O2-  O144  1  0.07180373  0.18239131  0.09294984  1
  O2-  O145  1  0.07305136  0.18099142  0.42185241  1
  O2-  O146  1  0.06763994  0.18163090  0.76731963  1
  O2-  O147  1  0.06654863  0.67811723  0.09676324  1
  O2-  O148  1  0.07025105  0.67647626  0.43324929  1
  O2-  O149  1  0.06677802  0.67594534  0.75655085  1
  O2-  O150  1  0.57039407  0.18128180  0.10231683  1
  O2-  O151  1  0.57187661  0.17896782  0.42192046  1
  O2-  O152  1  0.57299526  0.17914164  0.76368752  1
  O2-  O153  1  0.57172302  0.67875023  0.10234881  1
  O2-  O154  1  0.56839921  0.67724130  0.42411962  1
  O2-  O155  1  0.57036134  0.67977625  0.76273573  1
  O2-  O156  1  0.17791561  0.43119703  0.24249357  1
  O2-  O157  1  0.17920697  0.43312137  0.56547000  1
  O2-  O158  1  0.17944274  0.42898761  0.90273961  1
  O2-  O159  1  0.18265717  0.92747488  0.23245413  1
  O2-  O160  1  0.17628963  0.92758604  0.56914494  1
  O2-  O161  1  0.17729903  0.92773465  0.91151982  1
  O2-  O162  1  0.67827965  0.42797509  0.23307821  1
  O2-  O163  1  0.68203862  0.43094071  0.56969059  1
  O2-  O164  1  0.67813774  0.42920589  0.90815308  1
  O2-  O165  1  0.68150512  0.92970050  0.23213966  1
  O2-  O166  1  0.68331809  0.92941224  0.56842540  1
  O2-  O167  1  0.67933395  0.92744235  0.90989618  1
  O2-  O168  1  0.42848906  0.32367116  0.09170478  1
  O2-  O169  1  0.42441224  0.32597138  0.41952006  1
  O2-  O170  1  0.42805717  0.31689668  0.76622986  1
  O2-  O171  1  0.43052174  0.82199426  0.09110756  1
  O2-  O172  1  0.43003931  0.82022328  0.42210666  1
  O2-  O173  1  0.42926213  0.81788855  0.76454731  1
  O2-  O174  1  0.92757188  0.32066313  0.10029655  1
  O2-  O175  1  0.93112134  0.31782842  0.42393748  1
  O2-  O176  1  0.92849887  0.32515732  0.75265570  1
  O2-  O177  1  0.92706648  0.81995632  0.09789112  1
  O2-  O178  1  0.92504532  0.82183387  0.42261735  1
  O2-  O179  1  0.93009572  0.82224503  0.75438595  1
  O2-  O180  1  0.32174217  0.07059694  0.23724524  1
  O2-  O181  1  0.31645167  0.07064253  0.56975562  1
  O2-  O182  1  0.32238866  0.07134127  0.90355852  1
  O2-  O183  1  0.32625177  0.56922129  0.24240907  1
  O2-  O184  1  0.31875492  0.57291090  0.57694473  1
  O2-  O185  1  0.32562842  0.57101508  0.91250779  1
  O2-  O186  1  0.82137267  0.07830448  0.24432234  1
  O2-  O187  1  0.82466016  0.06831564  0.57567857  1
  O2-  O188  1  0.81928267  0.07268790  0.89944203  1
  O2-  O189  1  0.82110797  0.56871771  0.23349406  1
  O2-  O190  1  0.82617851  0.57010003  0.58181567  1
  O2-  O191  1  0.81902385  0.57013779  0.90919327  1
  O2-  O192  1  0.04892878  0.08523918  0.27038746  1
  O2-  O193  1  0.03644095  0.08516828  0.59673470  1
  O2-  O194  1  0.05170102  0.08467004  0.94293003  1
  O2-  O195  1  0.03719961  0.58188105  0.26647130  1
  O2-  O196  1  0.03810177  0.58774545  0.60341500  1
  O2-  O197  1  0.03663911  0.58268304  0.92945837  1
  O2-  O198  1  0.54171539  0.08785343  0.26936482  1
  O2-  O199  1  0.54563690  0.07880935  0.59891451  1
  O2-  O200  1  0.54137035  0.08091521  0.93697356  1
  O2-  O201  1  0.54103453  0.58722190  0.27165706  1
  O2-  O202  1  0.54376935  0.58115217  0.59619022  1
  O2-  O203  1  0.53818848  0.58151196  0.93407081  1
  O2-  O204  1  0.16375804  0.21007774  0.26918335  1
  O2-  O205  1  0.16425307  0.21226078  0.59753304  1
  O2-  O206  1  0.16678454  0.20915589  0.94338003  1
  O2-  O207  1  0.16841763  0.70463885  0.26362869  1
  O2-  O208  1  0.16350352  0.70041889  0.60574218  1
  O2-  O209  1  0.17410969  0.69548771  0.93372677  1
  O2-  O210  1  0.66401993  0.20661452  0.27084724  1
  O2-  O211  1  0.67233603  0.20650009  0.59725780  1
  O2-  O212  1  0.66353541  0.21039475  0.93210065  1
  O2-  O213  1  0.66546328  0.70470279  0.27544911  1
  O2-  O214  1  0.67428203  0.70467838  0.59972243  1
  O2-  O215  1  0.66641412  0.70445564  0.93132787  1
  O2-  O216  1  0.07902025  0.46187334  0.06784055  1
  O2-  O217  1  0.08758309  0.45646049  0.39591920  1
  O2-  O218  1  0.08301599  0.46154104  0.73328004  1
  O2-  O219  1  0.08419624  0.95103460  0.06398714  1
  O2-  O220  1  0.07800031  0.94965365  0.39600485  1
  O2-  O221  1  0.07710986  0.95665018  0.73263954  1
  O2-  O222  1  0.58318688  0.45232577  0.05908215  1
  O2-  O223  1  0.57684429  0.45343044  0.39880768  1
  O2-  O224  1  0.58131669  0.45900197  0.73571496  1
  O2-  O225  1  0.58655269  0.95093233  0.06275391  1
  O2-  O226  1  0.58622145  0.96243186  0.40023506  1
  O2-  O227  1  0.58199730  0.95431707  0.73523048  1
  O2-  O228  1  0.20866703  0.33757443  0.07547779  1
  O2-  O229  1  0.20841729  0.33871418  0.39312246  1
  O2-  O230  1  0.20762555  0.33323911  0.73369729  1
  O2-  O231  1  0.20218352  0.83020738  0.06000453  1
  O2-  O232  1  0.20916755  0.82802563  0.39717794  1
  O2-  O233  1  0.20111438  0.82680123  0.73402609  1
  O2-  O234  1  0.70788569  0.33769333  0.06024265  1
  O2-  O235  1  0.70784980  0.33112701  0.40133676  1
  O2-  O236  1  0.71236792  0.33311988  0.73530139  1
  O2-  O237  1  0.70720354  0.83212050  0.05978019  1
  O2-  O238  1  0.70937714  0.83424040  0.40245593  1
  O2-  O239  1  0.71491814  0.83388140  0.73465232  1
  O2-  O240  1  0.45466536  0.41465494  0.26569962  1
  O2-  O241  1  0.45435976  0.41896044  0.60008817  1
  O2-  O242  1  0.44782125  0.41436454  0.93833256  1
  O2-  O243  1  0.46005202  0.91443661  0.27129692  1
  O2-  O244  1  0.45566147  0.91909439  0.59755531  1
  O2-  O245  1  0.45565229  0.91520910  0.93886006  1
  O2-  O246  1  0.95918426  0.40977107  0.27159290  1
  O2-  O247  1  0.95512091  0.41913627  0.60214713  1
  O2-  O248  1  0.95684116  0.41565383  0.93042353  1
  O2-  O249  1  0.94689246  0.91838045  0.27165548  1
  O2-  O250  1  0.95463147  0.91330169  0.59976217  1
  O2-  O251  1  0.95393009  0.92394018  0.93257018  1
  O2-  O252  1  0.33640944  0.29423126  0.26582720  1
  O2-  O253  1  0.33006272  0.29267706  0.59789238  1
  O2-  O254  1  0.32994897  0.29515715  0.94476031  1
  O2-  O255  1  0.34132596  0.79166476  0.26756661  1
  O2-  O256  1  0.33022313  0.78869264  0.59720111  1
  O2-  O257  1  0.33523456  0.79937289  0.93852077  1
  O2-  O258  1  0.83653713  0.29245774  0.27200771  1
  O2-  O259  1  0.83564546  0.29959250  0.59952945  1
  O2-  O260  1  0.83304487  0.28842794  0.93024935  1
  O2-  O261  1  0.83338515  0.79400664  0.26981938  1
  O2-  O262  1  0.83982559  0.79065718  0.60178103  1
  O2-  O263  1  0.83420209  0.79067304  0.92828117  1
  O2-  O264  1  0.41787811  0.03721544  0.07208743  1
  O2-  O265  1  0.41916784  0.04434951  0.40246275  1
  O2-  O266  1  0.41908825  0.04221183  0.73417170  1
  O2-  O267  1  0.41407420  0.54141030  0.06715385  1
  O2-  O268  1  0.41190021  0.54190869  0.39733395  1
  O2-  O269  1  0.41720796  0.54957225  0.72696237  1
  O2-  O270  1  0.91814657  0.04547167  0.06879871  1
  O2-  O271  1  0.91892678  0.05241807  0.39389479  1
  O2-  O272  1  0.91354709  0.04158177  0.72886439  1
  O2-  O273  1  0.90944693  0.54027074  0.06159259  1
  O2-  O274  1  0.91773507  0.53602977  0.40334409  1
  O2-  O275  1  0.91461907  0.54351356  0.73545464  1
  O2-  O276  1  0.29127367  0.16477878  0.07383132  1
  O2-  O277  1  0.29389858  0.17269796  0.40041440  1
  O2-  O278  1  0.28883504  0.16811603  0.73530111  1
  O2-  O279  1  0.30342350  0.66855909  0.06309402  1
  O2-  O280  1  0.29545979  0.66344345  0.39356125  1
  O2-  O281  1  0.29493119  0.66424975  0.73068923  1
  O2-  O282  1  0.78653160  0.16740778  0.06780131  1
  O2-  O283  1  0.79672740  0.16611835  0.39871901  1
  O2-  O284  1  0.80500330  0.16962952  0.72306572  1
  O2-  O285  1  0.79237640  0.66350060  0.06092334  1
  O2-  O286  1  0.80038574  0.66925552  0.40158881  1
  O2-  O287  1  0.80111034  0.66731545  0.73181893  1
