# generated using pymatgen
data_Ca2Al2SiO7
_symmetry_space_group_name_H-M   'P 1'
_cell_length_a   15.45937136
_cell_length_b   15.45795880
_cell_length_c   15.28398964
_cell_angle_alpha   90.00669185
_cell_angle_beta   90.01229365
_cell_angle_gamma   89.98651734
_symmetry_Int_Tables_number   1
_chemical_formula_structural   Ca2Al2SiO7
_chemical_formula_sum   'Ca48 Al48 Si24 O168'
_cell_volume   3652.41976982
_cell_formula_units_Z   24
loop_
 _symmetry_equiv_pos_site_id
 _symmetry_equiv_pos_as_xyz
  1  'x, y, z'
loop_
 _atom_type_symbol
 _atom_type_oxidation_number
  Ca2+  2.0
  Al0+  0.0
  Si0+  0.0
  O2-  -2.0
loop_
 _atom_site_type_symbol
 _atom_site_label
 _atom_site_symmetry_multiplicity
 _atom_site_fract_x
 _atom_site_fract_y
 _atom_site_fract_z
 _atom_site_occupancy
  Ca2+  Ca0  1  0.17335366  0.08070510  0.16519582  1
  Ca2+  Ca1  1  0.16737603  0.07708580  0.51289128  1
  Ca2+  Ca2  1  0.17128704  0.07453088  0.84055421  1
  Ca2+  Ca3  1  0.16839057  0.58603905  0.17133944  1
  Ca2+  Ca4  1  0.16392913  0.58804284  0.50619477  1
  Ca2+  Ca5  1  0.16651683  0.58630119  0.83482010  1
  Ca2+  Ca6  1  0.65438668  0.07307975  0.16828691  1
  Ca2+  Ca7  1  0.66785047  0.08324790  0.50381918  1
  Ca2+  Ca8  1  0.66649489  0.08353168  0.83704819  1
  Ca2+  Ca9  1  0.66271434  0.57023874  0.17410758  1
  Ca2+  Ca10  1  0.66455107  0.57465522  0.50923042  1
  Ca2+  Ca11  1  0.66087494  0.57369145  0.83535364  1
  Ca2+  Ca12  1  0.06781045  0.33521049  0.16026623  1
  Ca2+  Ca13  1  0.07453039  0.32626195  0.49480467  1
  Ca2+  Ca14  1  0.07642076  0.32482915  0.82835600  1
  Ca2+  Ca15  1  0.07877890  0.83134238  0.15974725  1
  Ca2+  Ca16  1  0.08334013  0.82538963  0.50008812  1
  Ca2+  Ca17  1  0.08133155  0.83719025  0.82713562  1
  Ca2+  Ca18  1  0.58741752  0.32280683  0.15820150  1
  Ca2+  Ca19  1  0.59757201  0.32444881  0.49747809  1
  Ca2+  Ca20  1  0.58807552  0.32602955  0.83173884  1
  Ca2+  Ca21  1  0.58742027  0.83025555  0.15836780  1
  Ca2+  Ca22  1  0.58636977  0.82428570  0.49485938  1
  Ca2+  Ca23  1  0.57190262  0.83861014  0.82775271  1
  Ca2+  Ca24  1  0.33570905  0.41493791  0.16791338  1
  Ca2+  Ca25  1  0.33117055  0.42007387  0.50481101  1
  Ca2+  Ca26  1  0.33510505  0.41645573  0.84088738  1
  Ca2+  Ca27  1  0.33773317  0.92052711  0.16225478  1
  Ca2+  Ca28  1  0.32789640  0.91265436  0.50770826  1
  Ca2+  Ca29  1  0.32635395  0.91371341  0.84183389  1
  Ca2+  Ca30  1  0.82491781  0.40914504  0.17024304  1
  Ca2+  Ca31  1  0.82566920  0.42011548  0.50623623  1
  Ca2+  Ca32  1  0.82425080  0.42096571  0.83618222  1
  Ca2+  Ca33  1  0.82304235  0.91377001  0.16760235  1
  Ca2+  Ca34  1  0.82692621  0.92311726  0.50539684  1
  Ca2+  Ca35  1  0.83142288  0.92336142  0.84055022  1
  Ca2+  Ca36  1  0.42592811  0.16895616  0.15658014  1
  Ca2+  Ca37  1  0.43032675  0.16733200  0.49734935  1
  Ca2+  Ca38  1  0.42758417  0.16230891  0.83384799  1
  Ca2+  Ca39  1  0.42528739  0.67318319  0.16290326  1
  Ca2+  Ca40  1  0.42902127  0.67111954  0.50226231  1
  Ca2+  Ca41  1  0.42296188  0.67837315  0.82745133  1
  Ca2+  Ca42  1  0.91139578  0.17837942  0.16252168  1
  Ca2+  Ca43  1  0.91547643  0.16794558  0.50000285  1
  Ca2+  Ca44  1  0.91467038  0.16976640  0.82655345  1
  Ca2+  Ca45  1  0.92145424  0.67186048  0.16220426  1
  Ca2+  Ca46  1  0.92495824  0.65666152  0.49908173  1
  Ca2+  Ca47  1  0.91842065  0.67286986  0.82810110  1
  Al0+  Al48  1  0.00037569  -0.00091419  0.00360067  1
  Al0+  Al49  1  0.00151598  -0.00023181  0.33340858  1
  Al0+  Al50  1  -0.00021440  0.00058948  0.66959165  1
  Al0+  Al51  1  0.00019614  0.49983754  -0.00448124  1
  Al0+  Al52  1  0.00088300  0.49895972  0.32465697  1
  Al0+  Al53  1  -0.00150193  0.50054444  0.66805095  1
  Al0+  Al54  1  0.49963637  -0.00078618  -0.00041979  1
  Al0+  Al55  1  0.49863302  0.00014981  0.33662218  1
  Al0+  Al56  1  0.49755240  0.00338976  0.65667189  1
  Al0+  Al57  1  0.50012775  0.49868488  0.00344016  1
  Al0+  Al58  1  0.49832678  0.50136044  0.33641676  1
  Al0+  Al59  1  0.49706966  0.50106367  0.66864738  1
  Al0+  Al60  1  0.24991384  0.25090473  0.00319530  1
  Al0+  Al61  1  0.24998733  0.24955570  0.33606869  1
  Al0+  Al62  1  0.24944675  0.24967605  0.66283943  1
  Al0+  Al63  1  0.25170784  0.74813606  0.00312202  1
  Al0+  Al64  1  0.25016377  0.75005150  0.32978597  1
  Al0+  Al65  1  0.24825604  0.75009769  0.66368786  1
  Al0+  Al66  1  0.75116715  0.25156773  -0.00527382  1
  Al0+  Al67  1  0.75016336  0.24879723  0.32873882  1
  Al0+  Al68  1  0.74917567  0.25033030  0.67035081  1
  Al0+  Al69  1  0.75471192  0.74848648  -0.00161788  1
  Al0+  Al70  1  0.75103437  0.74899763  0.33402033  1
  Al0+  Al71  1  0.74946765  0.75018601  0.66675502  1
  Al0+  Al72  1  0.68007713  0.92886412  0.01023826  1
  Al0+  Al73  1  0.92871479  0.32142754  0.98250327  1
  Al0+  Al74  1  0.67845338  0.92750686  0.34749878  1
  Al0+  Al75  1  0.57261507  0.67835459  0.31928591  1
  Al0+  Al76  1  0.57048427  0.17828969  0.98391007  1
  Al0+  Al77  1  0.81961931  0.06941972  0.67972589  1
  Al0+  Al78  1  0.56989363  0.17957488  0.31853062  1
  Al0+  Al79  1  0.07105109  0.17780624  0.65446364  1
  Al0+  Al80  1  0.68008667  0.43005775  0.01582459  1
  Al0+  Al81  1  0.57235177  0.67841442  0.65316587  1
  Al0+  Al82  1  0.82323869  0.57329529  0.68251913  1
  Al0+  Al83  1  0.17793274  0.92646370  0.01753229  1
  Al0+  Al84  1  0.67899733  0.42851230  0.34688344  1
  Al0+  Al85  1  0.06797949  0.67982705  0.65444696  1
  Al0+  Al86  1  0.18119871  0.92884517  0.67974580  1
  Al0+  Al87  1  0.57166896  0.18176406  0.65114965  1
  Al0+  Al88  1  0.92948115  0.82186774  0.98616248  1
  Al0+  Al89  1  0.43087499  0.81965322  0.98779438  1
  Al0+  Al90  1  0.67732032  0.43017324  0.68320172  1
  Al0+  Al91  1  0.42771388  0.32260261  0.98640840  1
  Al0+  Al92  1  0.07112182  0.68010824  0.31859376  1
  Al0+  Al93  1  0.42819849  0.82209527  0.65125033  1
  Al0+  Al94  1  0.32124956  0.07156624  0.01506227  1
  Al0+  Al95  1  0.93041878  0.31834588  0.32021012  1
  Si0+  Si96  1  0.57412847  0.67674171  0.98533273  1
  Si0+  Si97  1  0.67491543  0.92845120  0.68103565  1
  Si0+  Si98  1  0.42608344  0.32373485  0.64929333  1
  Si0+  Si99  1  0.92886871  0.32109698  0.65000830  1
  Si0+  Si100  1  0.82262822  0.07330046  0.01685924  1
  Si0+  Si101  1  0.17920526  0.92878493  0.34955997  1
  Si0+  Si102  1  0.17825353  0.42720389  0.68101946  1
  Si0+  Si103  1  0.82305986  0.07144700  0.34836690  1
  Si0+  Si104  1  0.82473773  0.57133468  0.01853374  1
  Si0+  Si105  1  0.92649060  0.82445712  0.64994365  1
  Si0+  Si106  1  0.42533528  0.32247905  0.31854820  1
  Si0+  Si107  1  0.31824893  0.57060442  0.68223118  1
  Si0+  Si108  1  0.82398686  0.57107725  0.34784105  1
  Si0+  Si109  1  0.17770381  0.42975590  0.34809438  1
  Si0+  Si110  1  0.42879545  0.82116895  0.31580840  1
  Si0+  Si111  1  0.07291943  0.67899242  0.98302373  1
  Si0+  Si112  1  0.32258060  0.07445979  0.68261237  1
  Si0+  Si113  1  0.32037329  0.07187843  0.35130528  1
  Si0+  Si114  1  0.07215132  0.17816815  0.98505785  1
  Si0+  Si115  1  0.07491542  0.17592297  0.31584889  1
  Si0+  Si116  1  0.17758454  0.42950181  0.01513644  1
  Si0+  Si117  1  0.31931854  0.57242016  0.35039342  1
  Si0+  Si118  1  0.92833627  0.82453238  0.31714066  1
  Si0+  Si119  1  0.32124903  0.57041110  0.01665870  1
  O2-  O120  1  0.24987313  -0.00089570  0.06710619  1
  O2-  O121  1  0.24797485  0.00149946  0.39253060  1
  O2-  O122  1  0.25601783  0.00344545  0.72562968  1
  O2-  O123  1  0.25022687  0.49855852  0.05834934  1
  O2-  O124  1  0.24849130  0.50012283  0.39205569  1
  O2-  O125  1  0.24900796  0.49767264  0.72444719  1
  O2-  O126  1  0.75338515  0.00442748  0.05979726  1
  O2-  O127  1  0.75468120  0.00206291  0.39200919  1
  O2-  O128  1  0.74540637  -0.00558445  0.72621816  1
  O2-  O129  1  0.75479850  0.50461982  0.06359174  1
  O2-  O130  1  0.75158368  0.50640533  0.39201172  1
  O2-  O131  1  0.74686179  0.50567934  0.73202081  1
  O2-  O132  1  0.00520521  0.24337395  0.27234384  1
  O2-  O133  1  -0.00297718  0.25186430  0.60555531  1
  O2-  O134  1  0.00133681  0.24339521  0.93892099  1
  O2-  O135  1  -0.00336647  0.75472245  0.27349421  1
  O2-  O136  1  -0.00951997  0.75061389  0.60584733  1
  O2-  O137  1  0.00763134  0.75063699  0.93969700  1
  O2-  O138  1  0.49601415  0.25653369  0.27469712  1
  O2-  O139  1  0.49795334  0.25865454  0.60512300  1
  O2-  O140  1  0.49841022  0.25131851  0.93478913  1
  O2-  O141  1  0.50233902  0.75729022  0.27223626  1
  O2-  O142  1  0.50583984  0.75553381  0.60204826  1
  O2-  O143  1  0.50975558  0.74948179  0.94152178  1
  O2-  O144  1  0.07187684  0.18207378  0.09111907  1
  O2-  O145  1  0.07628776  0.17670410  0.42157410  1
  O2-  O146  1  0.07195002  0.18088212  0.76721220  1
  O2-  O147  1  0.07132217  0.67717361  0.08900940  1
  O2-  O148  1  0.07134356  0.68015009  0.43164038  1
  O2-  O149  1  0.07076664  0.68102787  0.76704865  1
  O2-  O150  1  0.56918272  0.17848342  0.09782989  1
  O2-  O151  1  0.57010418  0.18114311  0.43171703  1
  O2-  O152  1  0.57044722  0.17947567  0.76349827  1
  O2-  O153  1  0.57088112  0.67617000  0.09141826  1
  O2-  O154  1  0.56929169  0.67713559  0.43197165  1
  O2-  O155  1  0.56636542  0.67616624  0.76662092  1
  O2-  O156  1  0.17925848  0.43024243  0.24302927  1
  O2-  O157  1  0.17929661  0.42787831  0.57543817  1
  O2-  O158  1  0.17691244  0.43140777  0.90993537  1
  O2-  O159  1  0.17915403  0.92899653  0.24499000  1
  O2-  O160  1  0.18204368  0.92914812  0.56574560  1
  O2-  O161  1  0.17917878  0.92630736  0.90401163  1
  O2-  O162  1  0.68022455  0.42805692  0.23380364  1
  O2-  O163  1  0.68089886  0.42887868  0.56907825  1
  O2-  O164  1  0.67889313  0.43226363  0.90323677  1
  O2-  O165  1  0.67909097  0.92776311  0.23421118  1
  O2-  O166  1  0.67750768  0.93026194  0.57503443  1
  O2-  O167  1  0.68097820  0.92994792  0.89728842  1
  O2-  O168  1  0.42897559  0.32280313  0.10035989  1
  O2-  O169  1  0.41975068  0.31986333  0.42410294  1
  O2-  O170  1  0.42172814  0.32269928  0.75423910  1
  O2-  O171  1  0.43118923  0.81619234  0.10116571  1
  O2-  O172  1  0.42515134  0.81773309  0.42121471  1
  O2-  O173  1  0.42688916  0.81960303  0.76488934  1
  O2-  O174  1  0.93071246  0.32138988  0.09604603  1
  O2-  O175  1  0.93358102  0.31824641  0.43327364  1
  O2-  O176  1  0.93195075  0.32042998  0.75547619  1
  O2-  O177  1  0.92896008  0.81791888  0.09965913  1
  O2-  O178  1  0.93077607  0.82815844  0.42255929  1
  O2-  O179  1  0.93041549  0.82633338  0.75533302  1
  O2-  O180  1  0.31994812  0.07315833  0.24666591  1
  O2-  O181  1  0.31919176  0.07595367  0.57646427  1
  O2-  O182  1  0.31898211  0.07116528  0.90162990  1
  O2-  O183  1  0.31865722  0.57211830  0.24519843  1
  O2-  O184  1  0.31670997  0.56929284  0.57668232  1
  O2-  O185  1  0.31930433  0.57172036  0.91158859  1
  O2-  O186  1  0.82598405  0.07065224  0.24310482  1
  O2-  O187  1  0.81954768  0.06897210  0.56604940  1
  O2-  O188  1  0.82416344  0.07173793  0.91118154  1
  O2-  O189  1  0.82530947  0.56994710  0.24229460  1
  O2-  O190  1  0.82865183  0.56617981  0.56864242  1
  O2-  O191  1  0.82616769  0.57010149  0.91329659  1
  O2-  O192  1  0.05166549  0.08155606  0.27084379  1
  O2-  O193  1  0.03963343  0.08201775  0.59908787  1
  O2-  O194  1  0.05077727  0.08267864  0.94253925  1
  O2-  O195  1  0.04355524  0.58383788  0.26239752  1
  O2-  O196  1  0.04168957  0.58125498  0.59987830  1
  O2-  O197  1  0.04592976  0.58642607  0.93598093  1
  O2-  O198  1  0.53529922  0.08258853  0.26756729  1
  O2-  O199  1  0.53968103  0.08749515  0.59284891  1
  O2-  O200  1  0.54087010  0.08056062  0.93102903  1
  O2-  O201  1  0.53487880  0.58317419  0.26575671  1
  O2-  O202  1  0.53543836  0.58211806  0.59941901  1
  O2-  O203  1  0.54083040  0.58557632  0.94006103  1
  O2-  O204  1  0.16814056  0.20404404  0.27047055  1
  O2-  O205  1  0.16637906  0.20928160  0.59718636  1
  O2-  O206  1  0.16439946  0.20741914  0.93936841  1
  O2-  O207  1  0.16742066  0.71064745  0.26349788  1
  O2-  O208  1  0.16290344  0.71193352  0.59769517  1
  O2-  O209  1  0.16849774  0.69957962  0.94001076  1
  O2-  O210  1  0.66660818  0.20646417  0.26423706  1
  O2-  O211  1  0.66895783  0.21252885  0.59772211  1
  O2-  O212  1  0.66873490  0.20666719  0.93184718  1
  O2-  O213  1  0.67125130  0.70325061  0.26661077  1
  O2-  O214  1  0.67284465  0.69928093  0.60055353  1
  O2-  O215  1  0.66981981  0.69475732  0.94251189  1
  O2-  O216  1  0.08684774  0.46111294  0.06325547  1
  O2-  O217  1  0.08597318  0.45859789  0.39469847  1
  O2-  O218  1  0.08712811  0.45504516  0.72880467  1
  O2-  O219  1  0.07983574  0.95528582  0.07206360  1
  O2-  O220  1  0.08645338  0.95387809  0.39695817  1
  O2-  O221  1  0.08490019  0.95979198  0.73306583  1
  O2-  O222  1  0.58313263  0.45992713  0.07069836  1
  O2-  O223  1  0.58067592  0.45592334  0.39983312  1
  O2-  O224  1  0.57681178  0.45552515  0.73410060  1
  O2-  O225  1  0.58367010  0.95705766  0.06599559  1
  O2-  O226  1  0.58154536  0.95760552  0.40140245  1
  O2-  O227  1  0.58062155  0.95830323  0.72302996  1
  O2-  O228  1  0.20158994  0.33812365  0.06500139  1
  O2-  O229  1  0.20423990  0.33735261  0.39636566  1
  O2-  O230  1  0.20636251  0.33551313  0.72828650  1
  O2-  O231  1  0.20713795  0.82763626  0.07018759  1
  O2-  O232  1  0.20995474  0.83660545  0.39533026  1
  O2-  O233  1  0.21090459  0.83189584  0.73326208  1
  O2-  O234  1  0.71353002  0.33246141  0.06659579  1
  O2-  O235  1  0.71446766  0.33204634  0.39863790  1
  O2-  O236  1  0.70946345  0.33338042  0.73623367  1
  O2-  O237  1  0.71278683  0.83167437  0.06408918  1
  O2-  O238  1  0.70988900  0.83079886  0.40192997  1
  O2-  O239  1  0.69408711  0.83312174  0.72509728  1
  O2-  O240  1  0.44579813  0.41840062  0.27620487  1
  O2-  O241  1  0.44630533  0.41913153  0.60469120  1
  O2-  O242  1  0.45345737  0.42237941  0.93467166  1
  O2-  O243  1  0.44880084  0.91726951  0.27397541  1
  O2-  O244  1  0.44718973  0.92179809  0.59727223  1
  O2-  O245  1  0.45646458  0.91633072  0.93333045  1
  O2-  O246  1  0.96333533  0.41241565  0.26236617  1
  O2-  O247  1  0.95707572  0.41370891  0.60406992  1
  O2-  O248  1  0.96382133  0.41646386  0.92873284  1
  O2-  O249  1  0.95565528  0.91710151  0.26940185  1
  O2-  O250  1  0.95812362  0.91524704  0.60176098  1
  O2-  O251  1  0.95707823  0.92018560  0.93413546  1
  O2-  O252  1  0.33176825  0.29581400  0.27162584  1
  O2-  O253  1  0.33383046  0.29611974  0.59994533  1
  O2-  O254  1  0.32655648  0.29961433  0.93620223  1
  O2-  O255  1  0.33759790  0.78992475  0.26786578  1
  O2-  O256  1  0.33290095  0.78536947  0.59652605  1
  O2-  O257  1  0.33497144  0.78396323  0.93527808  1
  O2-  O258  1  0.83596144  0.28623425  0.26341805  1
  O2-  O259  1  0.83549250  0.29429544  0.60542288  1
  O2-  O260  1  0.83346203  0.29254895  0.92709237  1
  O2-  O261  1  0.83509244  0.79811175  0.27139121  1
  O2-  O262  1  0.83093392  0.80560084  0.60566018  1
  O2-  O263  1  0.83528520  0.78898842  0.92883123  1
  O2-  O264  1  0.41840502  0.04063981  0.06951076  1
  O2-  O265  1  0.41090260  0.04292757  0.40040528  1
  O2-  O266  1  0.41784360  0.05119403  0.72506617  1
  O2-  O267  1  0.41189255  0.54278178  0.06670112  1
  O2-  O268  1  0.40976354  0.54449391  0.40021956  1
  O2-  O269  1  0.40910545  0.54502322  0.73162368  1
  O2-  O270  1  0.91591345  0.04924641  0.06449319  1
  O2-  O271  1  0.91768930  0.04733378  0.39531188  1
  O2-  O272  1  0.91567908  0.04021042  0.73545520  1
  O2-  O273  1  0.91890602  0.54408038  0.06368617  1
  O2-  O274  1  0.91731693  0.53974778  0.39259061  1
  O2-  O275  1  0.92036615  0.54172692  0.73795719  1
  O2-  O276  1  0.29171920  0.16968666  0.07058770  1
  O2-  O277  1  0.29327038  0.16399061  0.39956070  1
  O2-  O278  1  0.29504311  0.16763298  0.72814320  1
  O2-  O279  1  0.29208845  0.65986319  0.06809822  1
  O2-  O280  1  0.28839462  0.66358935  0.39715266  1
  O2-  O281  1  0.28617671  0.66076241  0.72950728  1
  O2-  O282  1  0.79731850  0.16769667  0.06067012  1
  O2-  O283  1  0.79572685  0.16435390  0.39445791  1
  O2-  O284  1  0.79052803  0.16572310  0.73426159  1
  O2-  O285  1  0.80260003  0.66588263  0.06403809  1
  O2-  O286  1  0.80594863  0.66641663  0.39302199  1
  O2-  O287  1  0.80255629  0.67503391  0.73218384  1
