# generated using pymatgen
data_Ca2Al2SiO7
_symmetry_space_group_name_H-M   'P 1'
_cell_length_a   15.45769693
_cell_length_b   15.45845387
_cell_length_c   15.28399702
_cell_angle_alpha   89.99670809
_cell_angle_beta   90.00628341
_cell_angle_gamma   90.00444616
_symmetry_Int_Tables_number   1
_chemical_formula_structural   Ca2Al2SiO7
_chemical_formula_sum   'Ca48 Al48 Si24 O168'
_cell_volume   3652.14306548
_cell_formula_units_Z   24
loop_
 _symmetry_equiv_pos_site_id
 _symmetry_equiv_pos_as_xyz
  1  'x, y, z'
loop_
 _atom_type_symbol
 _atom_type_oxidation_number
  Ca2+  2.0
  Al0+  0.0
  Si0+  0.0
  O2-  -2.0
loop_
 _atom_site_type_symbol
 _atom_site_label
 _atom_site_symmetry_multiplicity
 _atom_site_fract_x
 _atom_site_fract_y
 _atom_site_fract_z
 _atom_site_occupancy
  Ca2+  Ca0  1  0.16594453  0.08079427  0.16899913  1
  Ca2+  Ca1  1  0.17872242  0.07716015  0.50743869  1
  Ca2+  Ca2  1  0.16282291  0.07279201  0.83626474  1
  Ca2+  Ca3  1  0.16562131  0.56999336  0.17202886  1
  Ca2+  Ca4  1  0.15867253  0.58194278  0.50207496  1
  Ca2+  Ca5  1  0.17399373  0.58352309  0.84377511  1
  Ca2+  Ca6  1  0.66828593  0.08101877  0.17029639  1
  Ca2+  Ca7  1  0.66553800  0.07609027  0.51237074  1
  Ca2+  Ca8  1  0.66181511  0.07914871  0.83079191  1
  Ca2+  Ca9  1  0.67534414  0.59042419  0.17014052  1
  Ca2+  Ca10  1  0.67444036  0.58679507  0.50790244  1
  Ca2+  Ca11  1  0.67636092  0.59095754  0.83622545  1
  Ca2+  Ca12  1  0.08648049  0.33099801  0.15597193  1
  Ca2+  Ca13  1  0.08471304  0.33462133  0.49426637  1
  Ca2+  Ca14  1  0.08195573  0.33612895  0.83631751  1
  Ca2+  Ca15  1  0.08005435  0.83130818  0.16358518  1
  Ca2+  Ca16  1  0.07693504  0.82450165  0.49705008  1
  Ca2+  Ca17  1  0.08122295  0.83033006  0.82143741  1
  Ca2+  Ca18  1  0.56871377  0.33702908  0.16102193  1
  Ca2+  Ca19  1  0.58011829  0.33111246  0.49820933  1
  Ca2+  Ca20  1  0.57839463  0.33295007  0.82522124  1
  Ca2+  Ca21  1  0.58087579  0.82145578  0.16376637  1
  Ca2+  Ca22  1  0.59146182  0.82328596  0.49898265  1
  Ca2+  Ca23  1  0.58395399  0.82409465  0.82647655  1
  Ca2+  Ca24  1  0.32826475  0.41333074  0.16759104  1
  Ca2+  Ca25  1  0.32910973  0.41368787  0.49768612  1
  Ca2+  Ca26  1  0.33027256  0.42189378  0.84296831  1
  Ca2+  Ca27  1  0.32596231  0.92254959  0.17105289  1
  Ca2+  Ca28  1  0.33174508  0.92699048  0.51032303  1
  Ca2+  Ca29  1  0.32232981  0.91947916  0.83654376  1
  Ca2+  Ca30  1  0.84044215  0.42924579  0.16948443  1
  Ca2+  Ca31  1  0.82722894  0.43196016  0.50861670  1
  Ca2+  Ca32  1  0.82922624  0.42718150  0.83827145  1
  Ca2+  Ca33  1  0.83469522  0.91509709  0.17128976  1
  Ca2+  Ca34  1  0.83233060  0.90988128  0.50638863  1
  Ca2+  Ca35  1  0.82803435  0.90782380  0.83217694  1
  Ca2+  Ca36  1  0.40687630  0.17694318  0.16569911  1
  Ca2+  Ca37  1  0.41653853  0.16558661  0.49608526  1
  Ca2+  Ca38  1  0.41566875  0.17325416  0.82722563  1
  Ca2+  Ca39  1  0.42976180  0.65409389  0.16031892  1
  Ca2+  Ca40  1  0.43104433  0.66425035  0.49581798  1
  Ca2+  Ca41  1  0.42695068  0.65938131  0.82964634  1
  Ca2+  Ca42  1  0.92489633  0.17812576  0.15339557  1
  Ca2+  Ca43  1  0.91798654  0.17004939  0.49684070  1
  Ca2+  Ca44  1  0.92090828  0.17327443  0.83416706  1
  Ca2+  Ca45  1  0.91824476  0.66468205  0.16824417  1
  Ca2+  Ca46  1  0.91900632  0.67185640  0.49668850  1
  Ca2+  Ca47  1  0.92165502  0.66643493  0.82389815  1
  Al0+  Al48  1  -0.00146736  0.00028851  0.00042515  1
  Al0+  Al49  1  -0.00057038  -0.00006987  0.33147312  1
  Al0+  Al50  1  0.00010556  0.00232223  0.66475705  1
  Al0+  Al51  1  -0.00074680  0.50134690  0.00318720  1
  Al0+  Al52  1  -0.00091945  0.50099843  0.34012342  1
  Al0+  Al53  1  -0.00105709  0.49927531  0.66692737  1
  Al0+  Al54  1  0.49910167  -0.00205699  0.00273789  1
  Al0+  Al55  1  0.50105699  -0.00104709  0.33573715  1
  Al0+  Al56  1  0.50091588  0.00272082  0.67304349  1
  Al0+  Al57  1  0.50282559  0.49847205  -0.00750352  1
  Al0+  Al58  1  0.49917249  0.49737177  0.32553569  1
  Al0+  Al59  1  0.49822995  0.49834677  0.66264920  1
  Al0+  Al60  1  0.25060205  0.24806138  -0.00822990  1
  Al0+  Al61  1  0.25035070  0.24923249  0.33878063  1
  Al0+  Al62  1  0.24947691  0.25107069  0.66997480  1
  Al0+  Al63  1  0.25229092  0.75202434  0.01105585  1
  Al0+  Al64  1  0.25005289  0.74824043  0.33023226  1
  Al0+  Al65  1  0.25035091  0.74946062  0.66480655  1
  Al0+  Al66  1  0.75000398  0.24958584  -0.00296441  1
  Al0+  Al67  1  0.74957317  0.24960011  0.33244306  1
  Al0+  Al68  1  0.74799968  0.25079495  0.66543286  1
  Al0+  Al69  1  0.74943951  0.74974467  0.00200331  1
  Al0+  Al70  1  0.75078230  0.75089405  0.32875565  1
  Al0+  Al71  1  0.75090074  0.75129063  0.66823994  1
  Al0+  Al72  1  0.07371357  0.67647905  0.65327392  1
  Al0+  Al73  1  0.57052209  0.68090299  0.98430555  1
  Al0+  Al74  1  0.31945879  0.06891559  0.34692275  1
  Al0+  Al75  1  0.67679535  0.42847523  0.68088141  1
  Al0+  Al76  1  0.17854826  0.92815350  0.67975614  1
  Al0+  Al77  1  0.43009423  0.31931777  0.98410037  1
  Al0+  Al78  1  0.56978139  0.67968244  0.31899462  1
  Al0+  Al79  1  0.07219341  0.67615451  0.31571635  1
  Al0+  Al80  1  0.18032027  0.43030883  0.34773506  1
  Al0+  Al81  1  0.32169722  0.07259311  0.68473367  1
  Al0+  Al82  1  0.42893043  0.31744933  0.31958827  1
  Al0+  Al83  1  0.07135853  0.17767683  0.98341631  1
  Al0+  Al84  1  0.18045607  0.42929918  0.01327216  1
  Al0+  Al85  1  0.93027459  0.82103799  0.31604828  1
  Al0+  Al86  1  0.32531825  0.57103939  0.01503311  1
  Al0+  Al87  1  0.81842356  0.57134888  0.34895320  1
  Al0+  Al88  1  0.56996638  0.17952264  0.65317456  1
  Al0+  Al89  1  0.68101622  0.92933723  0.68063340  1
  Al0+  Al90  1  0.57016376  0.67930265  0.65291814  1
  Al0+  Al91  1  0.17631233  0.92901516  0.01570725  1
  Al0+  Al92  1  0.81995222  0.57148280  0.01576653  1
  Al0+  Al93  1  0.81998625  0.57170200  0.68285021  1
  Al0+  Al94  1  0.92959235  0.82227128  0.65325604  1
  Al0+  Al95  1  0.92852268  0.32505599  0.98430792  1
  Si0+  Si96  1  0.67533167  0.42641773  0.34825858  1
  Si0+  Si97  1  0.81996246  0.07170073  0.01495962  1
  Si0+  Si98  1  0.42673689  0.82405201  0.98365328  1
  Si0+  Si99  1  0.82324900  0.07503422  0.68366491  1
  Si0+  Si100  1  0.17788636  0.42918465  0.68198464  1
  Si0+  Si101  1  0.07136136  0.18050513  0.64971306  1
  Si0+  Si102  1  0.32129293  0.57078987  0.67843663  1
  Si0+  Si103  1  0.68128918  0.93097733  0.34752678  1
  Si0+  Si104  1  0.07013585  0.18088008  0.32069198  1
  Si0+  Si105  1  0.67895790  0.42512007  0.01674680  1
  Si0+  Si106  1  0.67897994  0.92888081  0.01683515  1
  Si0+  Si107  1  0.17564517  0.92596215  0.35091013  1
  Si0+  Si108  1  0.32232924  0.07090401  0.01707326  1
  Si0+  Si109  1  0.82216710  0.07345644  0.34725170  1
  Si0+  Si110  1  0.92844686  0.32088100  0.65030224  1
  Si0+  Si111  1  0.42772416  0.82444277  0.31761329  1
  Si0+  Si112  1  0.32523550  0.57214443  0.34976506  1
  Si0+  Si113  1  0.92759424  0.32096557  0.32069501  1
  Si0+  Si114  1  0.42552028  0.32160019  0.64700435  1
  Si0+  Si115  1  0.07259391  0.68057595  0.98845113  1
  Si0+  Si116  1  0.92944525  0.82084698  0.98504343  1
  Si0+  Si117  1  0.57310925  0.17457204  0.98382257  1
  Si0+  Si118  1  0.57333476  0.17518048  0.31632931  1
  Si0+  Si119  1  0.42818603  0.82298158  0.65197517  1
  O2-  O120  1  0.25152993  0.00430280  0.06120204  1
  O2-  O121  1  0.24925955  -0.00995185  0.39379022  1
  O2-  O122  1  0.24966980  -0.00036666  0.73242068  1
  O2-  O123  1  0.25210016  0.50029174  0.06551084  1
  O2-  O124  1  0.25212228  0.50827162  0.39480809  1
  O2-  O125  1  0.24637327  0.50366065  0.72066472  1
  O2-  O126  1  0.74723546  0.00293783  0.05865935  1
  O2-  O127  1  0.75065525  0.00373441  0.38956913  1
  O2-  O128  1  0.75725373  0.00330236  0.72735448  1
  O2-  O129  1  0.74798820  0.49299195  0.06184887  1
  O2-  O130  1  0.74230263  0.49622364  0.39265782  1
  O2-  O131  1  0.74565213  0.50188785  0.73288942  1
  O2-  O132  1  -0.00203512  0.24995869  0.27783692  1
  O2-  O133  1  0.00009961  0.25080489  0.60648582  1
  O2-  O134  1  0.00209285  0.25369366  0.93476203  1
  O2-  O135  1  0.00343717  0.75119151  0.26493311  1
  O2-  O136  1  0.00185238  0.74983384  0.60494857  1
  O2-  O137  1  0.00329970  0.75258836  0.94446837  1
  O2-  O138  1  0.50537239  0.24400706  0.27228442  1
  O2-  O139  1  0.49470439  0.25235313  0.60459705  1
  O2-  O140  1  0.50548311  0.24380898  0.94015962  1
  O2-  O141  1  0.49013340  0.75015652  0.27279357  1
  O2-  O142  1  0.49687279  0.75538828  0.60556569  1
  O2-  O143  1  0.49151291  0.75201712  0.93908295  1
  O2-  O144  1  0.06831878  0.17700482  0.09798369  1
  O2-  O145  1  0.06794942  0.18171812  0.42608272  1
  O2-  O146  1  0.07011160  0.18075909  0.75437702  1
  O2-  O147  1  0.06938645  0.68085191  0.09316211  1
  O2-  O148  1  0.06917469  0.67696076  0.42907665  1
  O2-  O149  1  0.07486893  0.67594979  0.76754157  1
  O2-  O150  1  0.57397137  0.17360741  0.08980685  1
  O2-  O151  1  0.57516759  0.17400528  0.42155114  1
  O2-  O152  1  0.56921525  0.18116981  0.76621516  1
  O2-  O153  1  0.57215116  0.68434814  0.09768965  1
  O2-  O154  1  0.57102726  0.68194697  0.43212993  1
  O2-  O155  1  0.56851238  0.68073575  0.76581235  1
  O2-  O156  1  0.18121527  0.42564391  0.23526718  1
  O2-  O157  1  0.17925341  0.42593131  0.57670036  1
  O2-  O158  1  0.18059981  0.43362550  0.89933509  1
  O2-  O159  1  0.17397509  0.93090624  0.24513079  1
  O2-  O160  1  0.18073577  0.93095538  0.56604880  1
  O2-  O161  1  0.17562022  0.92849312  0.90292531  1
  O2-  O162  1  0.67700806  0.42405619  0.24272560  1
  O2-  O163  1  0.67973553  0.42839756  0.56677781  1
  O2-  O164  1  0.68033838  0.42457235  0.91140621  1
  O2-  O165  1  0.68110480  0.93337023  0.24196532  1
  O2-  O166  1  0.68153211  0.93048239  0.56708358  1
  O2-  O167  1  0.67989981  0.92830504  0.91206053  1
  O2-  O168  1  0.42916275  0.31664763  0.09758846  1
  O2-  O169  1  0.42942670  0.31574137  0.43246784  1
  O2-  O170  1  0.42451389  0.32209014  0.75239366  1
  O2-  O171  1  0.43190806  0.82994141  0.08914205  1
  O2-  O172  1  0.43232264  0.82762500  0.42307710  1
  O2-  O173  1  0.42786990  0.81947016  0.75758142  1
  O2-  O174  1  0.92825573  0.32131731  0.09870110  1
  O2-  O175  1  0.92684396  0.31680553  0.42601023  1
  O2-  O176  1  0.93021427  0.32051241  0.75507048  1
  O2-  O177  1  0.92863104  0.82184095  0.09003446  1
  O2-  O178  1  0.92933288  0.82328290  0.42895014  1
  O2-  O179  1  0.93042041  0.82099673  0.76746052  1
  O2-  O180  1  0.31559533  0.06980117  0.23370568  1
  O2-  O181  1  0.32004228  0.07240627  0.57056845  1
  O2-  O182  1  0.32585270  0.06744565  0.91211269  1
  O2-  O183  1  0.32797376  0.56746568  0.24474538  1
  O2-  O184  1  0.32417176  0.56839802  0.57336573  1
  O2-  O185  1  0.32267446  0.57077030  0.90065525  1
  O2-  O186  1  0.82080533  0.07513815  0.24209480  1
  O2-  O187  1  0.82158331  0.07707823  0.57750923  1
  O2-  O188  1  0.82025692  0.07095265  0.91020150  1
  O2-  O189  1  0.81800705  0.56978353  0.23559637  1
  O2-  O190  1  0.81945823  0.57059942  0.56913123  1
  O2-  O191  1  0.81921940  0.57490261  0.90320692  1
  O2-  O192  1  0.04401636  0.08881252  0.27308158  1
  O2-  O193  1  0.04456593  0.08952549  0.60026938  1
  O2-  O194  1  0.03444496  0.08158699  0.93024863  1
  O2-  O195  1  0.03858516  0.57750182  0.26559256  1
  O2-  O196  1  0.04423270  0.57786485  0.60036458  1
  O2-  O197  1  0.04456563  0.58918039  0.94125445  1
  O2-  O198  1  0.54825420  0.08140376  0.26996532  1
  O2-  O199  1  0.54118160  0.08160693  0.59993778  1
  O2-  O200  1  0.54697907  0.08010877  0.93956931  1
  O2-  O201  1  0.54336384  0.58222248  0.26433722  1
  O2-  O202  1  0.53757174  0.58348943  0.59793158  1
  O2-  O203  1  0.54553100  0.58358975  0.92996325  1
  O2-  O204  1  0.16120859  0.21023507  0.27423775  1
  O2-  O205  1  0.16298915  0.21119306  0.60316660  1
  O2-  O206  1  0.16965181  0.19940920  0.92894150  1
  O2-  O207  1  0.17374848  0.69687226  0.26507612  1
  O2-  O208  1  0.17220638  0.70226941  0.59809971  1
  O2-  O209  1  0.16697409  0.70687741  0.94549530  1
  O2-  O210  1  0.66769571  0.19958606  0.26979319  1
  O2-  O211  1  0.66700718  0.20813799  0.59728207  1
  O2-  O212  1  0.66731595  0.19653580  0.93786791  1
  O2-  O213  1  0.66324074  0.71690287  0.26364685  1
  O2-  O214  1  0.66644706  0.71230236  0.60063312  1
  O2-  O215  1  0.66566266  0.71910341  0.93192846  1
  O2-  O216  1  0.08200994  0.45632919  0.06689033  1
  O2-  O217  1  0.08348669  0.45724405  0.40389522  1
  O2-  O218  1  0.08478284  0.45188440  0.72808465  1
  O2-  O219  1  0.07987526  0.96165489  0.06993579  1
  O2-  O220  1  0.08359221  0.95753077  0.39675505  1
  O2-  O221  1  0.08017856  0.95935273  0.73185312  1
  O2-  O222  1  0.58527134  0.45284735  0.06056156  1
  O2-  O223  1  0.58038079  0.44940746  0.39221463  1
  O2-  O224  1  0.57548903  0.45142390  0.72968212  1
  O2-  O225  1  0.58677516  0.95436320  0.06539286  1
  O2-  O226  1  0.58953361  0.95605710  0.39594440  1
  O2-  O227  1  0.58619150  0.96114282  0.73719199  1
  O2-  O228  1  0.20738541  0.32775034  0.06094054  1
  O2-  O229  1  0.21349645  0.33531448  0.40463649  1
  O2-  O230  1  0.20774726  0.33907877  0.73090531  1
  O2-  O231  1  0.20776794  0.83528554  0.07477399  1
  O2-  O232  1  0.19586556  0.82937598  0.39215413  1
  O2-  O233  1  0.20631288  0.82907972  0.73243864  1
  O2-  O234  1  0.70059882  0.33005170  0.06271406  1
  O2-  O235  1  0.70164366  0.33212912  0.39417964  1
  O2-  O236  1  0.70643481  0.33033558  0.73352265  1
  O2-  O237  1  0.71148144  0.83982221  0.06637574  1
  O2-  O238  1  0.71155645  0.83992143  0.39373594  1
  O2-  O239  1  0.71165863  0.83461566  0.73773001  1
  O2-  O240  1  0.45726473  0.41287309  0.26226331  1
  O2-  O241  1  0.45078121  0.41417091  0.59875886  1
  O2-  O242  1  0.46163224  0.41415738  0.92751265  1
  O2-  O243  1  0.46017632  0.91519495  0.26837893  1
  O2-  O244  1  0.45395606  0.91778347  0.60932528  1
  O2-  O245  1  0.45666431  0.91582719  0.93551786  1
  O2-  O246  1  0.95541446  0.41320517  0.27650722  1
  O2-  O247  1  0.95698135  0.41188601  0.60196176  1
  O2-  O248  1  0.95648297  0.42346206  0.93143209  1
  O2-  O249  1  0.95581571  0.92174595  0.26313409  1
  O2-  O250  1  0.95346391  0.92252159  0.60019871  1
  O2-  O251  1  0.95232589  0.91396282  0.93885517  1
  O2-  O252  1  0.33267025  0.28251933  0.26687728  1
  O2-  O253  1  0.33148192  0.29460786  0.60183624  1
  O2-  O254  1  0.33509964  0.28938617  0.92725246  1
  O2-  O255  1  0.33139709  0.80743833  0.27429976  1
  O2-  O256  1  0.33555016  0.79826655  0.60365796  1
  O2-  O257  1  0.33051185  0.80290651  0.94187514  1
  O2-  O258  1  0.83612836  0.29374416  0.27169871  1
  O2-  O259  1  0.83761526  0.29145591  0.60222863  1
  O2-  O260  1  0.83105074  0.29231048  0.93145733  1
  O2-  O261  1  0.83226599  0.79312791  0.26170759  1
  O2-  O262  1  0.83129540  0.79423600  0.60031070  1
  O2-  O263  1  0.83760159  0.79084560  0.93943102  1
  O2-  O264  1  0.41512923  0.04413156  0.06587282  1
  O2-  O265  1  0.41852181  0.04212979  0.39929551  1
  O2-  O266  1  0.41977419  0.04738685  0.73823047  1
  O2-  O267  1  0.42422291  0.53841142  0.06438578  1
  O2-  O268  1  0.41737006  0.54025451  0.39648662  1
  O2-  O269  1  0.41088489  0.53862838  0.72748615  1
  O2-  O270  1  0.90999071  0.04183953  0.06452703  1
  O2-  O271  1  0.91429356  0.04685843  0.39489065  1
  O2-  O272  1  0.91816531  0.05390929  0.72796848  1
  O2-  O273  1  0.91647055  0.54218833  0.07058199  1
  O2-  O274  1  0.91329519  0.53896050  0.40448872  1
  O2-  O275  1  0.91809323  0.53919241  0.73458178  1
  O2-  O276  1  0.29632230  0.16535168  0.06014718  1
  O2-  O277  1  0.28530847  0.16250250  0.40392319  1
  O2-  O278  1  0.29083674  0.17083987  0.73617507  1
  O2-  O279  1  0.30491354  0.67068306  0.06850756  1
  O2-  O280  1  0.30723663  0.66898131  0.39256938  1
  O2-  O281  1  0.29905607  0.66353741  0.72601725  1
  O2-  O282  1  0.79383785  0.16394378  0.06352065  1
  O2-  O283  1  0.79600392  0.16542125  0.39610891  1
  O2-  O284  1  0.79364464  0.16661026  0.73081797  1
  O2-  O285  1  0.78522604  0.66697825  0.07070675  1
  O2-  O286  1  0.78674333  0.66922379  0.39936449  1
  O2-  O287  1  0.79368585  0.67012562  0.73544077  1
