# generated using pymatgen
data_Ca2Al2SiO7
_symmetry_space_group_name_H-M   'P 1'
_cell_length_a   15.46324875
_cell_length_b   15.46315540
_cell_length_c   15.28721738
_cell_angle_alpha   90.01560714
_cell_angle_beta   89.99468265
_cell_angle_gamma   89.96853910
_symmetry_Int_Tables_number   1
_chemical_formula_structural   Ca2Al2SiO7
_chemical_formula_sum   'Ca48 Al48 Si24 O168'
_cell_volume   3655.33529756
_cell_formula_units_Z   24
loop_
 _symmetry_equiv_pos_site_id
 _symmetry_equiv_pos_as_xyz
  1  'x, y, z'
loop_
 _atom_type_symbol
 _atom_type_oxidation_number
  Ca2+  2.0
  Al0+  0.0
  Si0+  0.0
  O2-  -2.0
loop_
 _atom_site_type_symbol
 _atom_site_label
 _atom_site_symmetry_multiplicity
 _atom_site_fract_x
 _atom_site_fract_y
 _atom_site_fract_z
 _atom_site_occupancy
  Ca2+  Ca0  1  0.16945066  0.07593463  0.17256550  1
  Ca2+  Ca1  1  0.17145566  0.07918122  0.49742226  1
  Ca2+  Ca2  1  0.16547563  0.07945051  0.84480151  1
  Ca2+  Ca3  1  0.16459739  0.57822014  0.17568473  1
  Ca2+  Ca4  1  0.16139932  0.58133401  0.49521363  1
  Ca2+  Ca5  1  0.17082350  0.58299725  0.83876619  1
  Ca2+  Ca6  1  0.65841605  0.08187784  0.16857976  1
  Ca2+  Ca7  1  0.66527246  0.08236034  0.49954461  1
  Ca2+  Ca8  1  0.66855961  0.07652516  0.84444306  1
  Ca2+  Ca9  1  0.66960804  0.58256126  0.16222871  1
  Ca2+  Ca10  1  0.67243550  0.58246802  0.50889855  1
  Ca2+  Ca11  1  0.67360555  0.58335036  0.84512948  1
  Ca2+  Ca12  1  0.07619455  0.33267713  0.16085633  1
  Ca2+  Ca13  1  0.07286498  0.33982510  0.49250784  1
  Ca2+  Ca14  1  0.07240986  0.33077939  0.83457450  1
  Ca2+  Ca15  1  0.07812675  0.83888812  0.16183964  1
  Ca2+  Ca16  1  0.07458512  0.82800319  0.48874027  1
  Ca2+  Ca17  1  0.07240195  0.83661743  0.83351379  1
  Ca2+  Ca18  1  0.57587339  0.32388353  0.15801086  1
  Ca2+  Ca19  1  0.57621992  0.32513472  0.48791369  1
  Ca2+  Ca20  1  0.58563988  0.33559126  0.83860479  1
  Ca2+  Ca21  1  0.57059780  0.83385827  0.15679390  1
  Ca2+  Ca22  1  0.58081749  0.82437892  0.49412215  1
  Ca2+  Ca23  1  0.59386543  0.82074990  0.83651530  1
  Ca2+  Ca24  1  0.33034414  0.41149837  0.17479562  1
  Ca2+  Ca25  1  0.32525627  0.40877873  0.49841800  1
  Ca2+  Ca26  1  0.33491454  0.41701022  0.84182173  1
  Ca2+  Ca27  1  0.32562122  0.91537225  0.17647271  1
  Ca2+  Ca28  1  0.33303268  0.91628538  0.49537514  1
  Ca2+  Ca29  1  0.32504436  0.91464563  0.84530042  1
  Ca2+  Ca30  1  0.83396679  0.41632199  0.16823191  1
  Ca2+  Ca31  1  0.83747432  0.42289461  0.50754080  1
  Ca2+  Ca32  1  0.83333792  0.42725668  0.84391783  1
  Ca2+  Ca33  1  0.82949386  0.91153922  0.16717863  1
  Ca2+  Ca34  1  0.83797206  0.91426074  0.50329345  1
  Ca2+  Ca35  1  0.83099643  0.91343755  0.84473258  1
  Ca2+  Ca36  1  0.41933385  0.17082516  0.16410495  1
  Ca2+  Ca37  1  0.42161144  0.16740025  0.48732200  1
  Ca2+  Ca38  1  0.42292754  0.16859757  0.83965502  1
  Ca2+  Ca39  1  0.41835737  0.67764122  0.15916442  1
  Ca2+  Ca40  1  0.42401567  0.66999858  0.49460758  1
  Ca2+  Ca41  1  0.43083098  0.67005334  0.83513369  1
  Ca2+  Ca42  1  0.92315083  0.17779803  0.15886367  1
  Ca2+  Ca43  1  0.91509695  0.18087326  0.49327849  1
  Ca2+  Ca44  1  0.91696886  0.17703706  0.83468717  1
  Ca2+  Ca45  1  0.92181866  0.67396527  0.16403267  1
  Ca2+  Ca46  1  0.91693741  0.67540886  0.49446324  1
  Ca2+  Ca47  1  0.90211388  0.67589485  0.83279461  1
  Al0+  Al48  1  0.00044925  -0.00015921  -0.00287008  1
  Al0+  Al49  1  -0.00264443  0.00126411  0.33637254  1
  Al0+  Al50  1  0.00078864  0.00138816  0.66324659  1
  Al0+  Al51  1  0.00176071  0.50205294  0.00047222  1
  Al0+  Al52  1  -0.00079165  0.50255409  0.33128199  1
  Al0+  Al53  1  0.00068409  0.50081898  0.67014920  1
  Al0+  Al54  1  0.49768692  0.00249749  -0.00440633  1
  Al0+  Al55  1  0.50098077  -0.00313234  0.33331224  1
  Al0+  Al56  1  0.49877579  0.00011964  0.66901358  1
  Al0+  Al57  1  0.50102918  0.50162749  -0.00194913  1
  Al0+  Al58  1  0.50159646  0.49817287  0.33247742  1
  Al0+  Al59  1  0.49883708  0.49922274  0.66151007  1
  Al0+  Al60  1  0.25001509  0.24948029  -0.00760121  1
  Al0+  Al61  1  0.24917116  0.24938318  0.34174775  1
  Al0+  Al62  1  0.25025221  0.24806276  0.66952012  1
  Al0+  Al63  1  0.24870338  0.74993728  0.00046474  1
  Al0+  Al64  1  0.25033093  0.74697742  0.33427490  1
  Al0+  Al65  1  0.25012503  0.74968945  0.66791730  1
  Al0+  Al66  1  0.74989841  0.25138367  -0.00402352  1
  Al0+  Al67  1  0.74947121  0.24930115  0.32770487  1
  Al0+  Al68  1  0.74928196  0.24903003  0.66289603  1
  Al0+  Al69  1  0.75074249  0.75092055  0.00539598  1
  Al0+  Al70  1  0.75142454  0.74926351  0.33181337  1
  Al0+  Al71  1  0.74934185  0.74933674  0.66027534  1
  Al0+  Al72  1  0.93041310  0.81923530  0.98727891  1
  Al0+  Al73  1  0.92870533  0.82384173  0.31655972  1
  Al0+  Al74  1  0.42900313  0.32222381  0.98491419  1
  Al0+  Al75  1  0.81986515  0.57082140  0.67970560  1
  Al0+  Al76  1  0.17852597  0.92917891  0.01365421  1
  Al0+  Al77  1  0.82297393  0.57207810  0.01887035  1
  Al0+  Al78  1  0.42646267  0.32080492  0.32014654  1
  Al0+  Al79  1  0.07062686  0.67967246  0.31893819  1
  Al0+  Al80  1  0.92827771  0.32464433  0.98466959  1
  Al0+  Al81  1  0.17626898  0.92619078  0.35003188  1
  Al0+  Al82  1  0.92948577  0.32253740  0.31982002  1
  Al0+  Al83  1  0.92983771  0.82078542  0.65336068  1
  Al0+  Al84  1  0.57096292  0.17734742  0.31851508  1
  Al0+  Al85  1  0.57234573  0.17831272  0.98337018  1
  Al0+  Al86  1  0.57038407  0.67908085  0.65226646  1
  Al0+  Al87  1  0.07055096  0.17877760  0.98653369  1
  Al0+  Al88  1  0.32207209  0.06883381  0.34839989  1
  Al0+  Al89  1  0.67825366  0.42804648  0.01659377  1
  Al0+  Al90  1  0.93049686  0.32097616  0.65266642  1
  Al0+  Al91  1  0.57121522  0.68134244  0.98712888  1
  Al0+  Al92  1  0.43043312  0.81800908  0.32147566  1
  Al0+  Al93  1  0.17842156  0.42973984  0.34641520  1
  Al0+  Al94  1  0.67829772  0.93082946  0.01365780  1
  Al0+  Al95  1  0.42560550  0.82304492  0.98498666  1
  Si0+  Si96  1  0.68001217  0.93007333  0.67989618  1
  Si0+  Si97  1  0.82257341  0.07263129  0.01593322  1
  Si0+  Si98  1  0.42764247  0.32013579  0.65057453  1
  Si0+  Si99  1  0.57420821  0.67567391  0.31618811  1
  Si0+  Si100  1  0.67649461  0.42649008  0.68117985  1
  Si0+  Si101  1  0.81989953  0.07322949  0.34868202  1
  Si0+  Si102  1  0.68019926  0.92770530  0.34939078  1
  Si0+  Si103  1  0.42637810  0.82239430  0.65000311  1
  Si0+  Si104  1  0.56963067  0.17724488  0.65109890  1
  Si0+  Si105  1  0.32545630  0.57125641  0.35087996  1
  Si0+  Si106  1  0.07594042  0.67825661  0.65055588  1
  Si0+  Si107  1  0.82141997  0.07274161  0.68064045  1
  Si0+  Si108  1  0.07305127  0.67721067  0.98214513  1
  Si0+  Si109  1  0.07382270  0.17845884  0.64731430  1
  Si0+  Si110  1  0.32111662  0.57108310  0.01448705  1
  Si0+  Si111  1  0.18106654  0.42839229  0.01343900  1
  Si0+  Si112  1  0.67926702  0.42688232  0.34900126  1
  Si0+  Si113  1  0.17895160  0.92940908  0.68203052  1
  Si0+  Si114  1  0.81925433  0.57030192  0.35013240  1
  Si0+  Si115  1  0.17978156  0.42858031  0.68369404  1
  Si0+  Si116  1  0.32069341  0.07383435  0.01626700  1
  Si0+  Si117  1  0.07172977  0.17808569  0.31973446  1
  Si0+  Si118  1  0.32261069  0.57084982  0.68202098  1
  Si0+  Si119  1  0.32184543  0.07096118  0.68506964  1
  O2-  O120  1  0.25581981  0.00131544  0.05914703  1
  O2-  O121  1  0.25004829  -0.00297045  0.40053037  1
  O2-  O122  1  0.25041398  -0.00038009  0.72537146  1
  O2-  O123  1  0.25276106  0.49773839  0.05641464  1
  O2-  O124  1  0.25659024  0.50145162  0.39448992  1
  O2-  O125  1  0.25174447  0.49949255  0.72490170  1
  O2-  O126  1  0.74991002  0.00851868  0.06103990  1
  O2-  O127  1  0.75163194  -0.00113611  0.39154532  1
  O2-  O128  1  0.75291310  -0.00085411  0.72226157  1
  O2-  O129  1  0.75349359  0.49645722  0.06762272  1
  O2-  O130  1  0.74851507  0.49883510  0.39303394  1
  O2-  O131  1  0.74577411  0.49448397  0.72469602  1
  O2-  O132  1  0.00604429  0.24916097  0.27553508  1
  O2-  O133  1  0.00545182  0.24756336  0.60347810  1
  O2-  O134  1  -0.00161133  0.25015813  0.93564986  1
  O2-  O135  1  0.00656813  0.75780327  0.26820440  1
  O2-  O136  1  0.00559804  0.74632105  0.60871631  1
  O2-  O137  1  0.00223860  0.74327954  0.93780331  1
  O2-  O138  1  0.49734075  0.24836507  0.27107892  1
  O2-  O139  1  0.49961882  0.24957652  0.60975536  1
  O2-  O140  1  0.50356097  0.25370948  0.93300673  1
  O2-  O141  1  0.50240981  0.74158513  0.27448676  1
  O2-  O142  1  0.49532843  0.75380479  0.60625720  1
  O2-  O143  1  0.50217572  0.75580173  0.93521835  1
  O2-  O144  1  0.07130048  0.18106487  0.10017605  1
  O2-  O145  1  0.06797033  0.17864052  0.42588734  1
  O2-  O146  1  0.07413381  0.17818028  0.75255515  1
  O2-  O147  1  0.07511507  0.67682370  0.08721825  1
  O2-  O148  1  0.06439975  0.67726004  0.43314454  1
  O2-  O149  1  0.08251814  0.68027078  0.75568800  1
  O2-  O150  1  0.56811328  0.17694730  0.09626531  1
  O2-  O151  1  0.57189034  0.17981413  0.43343309  1
  O2-  O152  1  0.56962068  0.17498925  0.75537084  1
  O2-  O153  1  0.56719563  0.68160809  0.10046353  1
  O2-  O154  1  0.57488439  0.67734480  0.42265013  1
  O2-  O155  1  0.57096720  0.68001975  0.76462331  1
  O2-  O156  1  0.17840157  0.43088136  0.23343294  1
  O2-  O157  1  0.17967257  0.42817415  0.57865683  1
  O2-  O158  1  0.18215294  0.43104220  0.90769104  1
  O2-  O159  1  0.17653684  0.93006698  0.23686872  1
  O2-  O160  1  0.17993187  0.92990152  0.57735405  1
  O2-  O161  1  0.17869319  0.93054168  0.89950066  1
  O2-  O162  1  0.67923286  0.42685273  0.24482860  1
  O2-  O163  1  0.67655938  0.42673258  0.57508847  1
  O2-  O164  1  0.67827850  0.43205555  0.90213607  1
  O2-  O165  1  0.67943877  0.92736759  0.24487156  1
  O2-  O166  1  0.67834288  0.93245078  0.57449831  1
  O2-  O167  1  0.68327396  0.92959779  0.89957491  1
  O2-  O168  1  0.42442510  0.31945123  0.09774350  1
  O2-  O169  1  0.42983983  0.32004692  0.43479289  1
  O2-  O170  1  0.42646142  0.32122457  0.75514510  1
  O2-  O171  1  0.42434334  0.81917378  0.09849546  1
  O2-  O172  1  0.43520064  0.81694895  0.43541398  1
  O2-  O173  1  0.42401358  0.82199540  0.75492997  1
  O2-  O174  1  0.93254621  0.32353794  0.09817725  1
  O2-  O175  1  0.92904273  0.32207841  0.43366693  1
  O2-  O176  1  0.93169565  0.31928104  0.76487403  1
  O2-  O177  1  0.93208599  0.82063551  0.09955096  1
  O2-  O178  1  0.92613488  0.81935902  0.43078174  1
  O2-  O179  1  0.92903156  0.82190050  0.76617869  1
  O2-  O180  1  0.32120797  0.06890301  0.23539186  1
  O2-  O181  1  0.32387858  0.07217139  0.58037371  1
  O2-  O182  1  0.31754312  0.07444054  0.90981795  1
  O2-  O183  1  0.32646396  0.57130477  0.24556785  1
  O2-  O184  1  0.32308487  0.57056569  0.57723547  1
  O2-  O185  1  0.31836782  0.57074224  0.90859180  1
  O2-  O186  1  0.81991171  0.07560091  0.24432508  1
  O2-  O187  1  0.81869393  0.07457202  0.57539304  1
  O2-  O188  1  0.82267520  0.06900146  0.90947739  1
  O2-  O189  1  0.81830512  0.57119078  0.24581190  1
  O2-  O190  1  0.81857800  0.56987715  0.56604429  1
  O2-  O191  1  0.82022243  0.57273155  0.90460964  1
  O2-  O192  1  0.04332559  0.08593962  0.27390223  1
  O2-  O193  1  0.04850965  0.08512050  0.60101073  1
  O2-  O194  1  0.04099266  0.08228685  0.93011498  1
  O2-  O195  1  0.03643063  0.58482302  0.26338598  1
  O2-  O196  1  0.05099341  0.58344699  0.60744068  1
  O2-  O197  1  0.05182092  0.58310215  0.93537323  1
  O2-  O198  1  0.54558105  0.07790443  0.26903229  1
  O2-  O199  1  0.53980685  0.08566301  0.60337704  1
  O2-  O200  1  0.54007634  0.08265144  0.92602976  1
  O2-  O201  1  0.55277381  0.58077124  0.27288087  1
  O2-  O202  1  0.53932436  0.58273184  0.59653957  1
  O2-  O203  1  0.54057704  0.58517419  0.93144951  1
  O2-  O204  1  0.16677259  0.20039167  0.27779312  1
  O2-  O205  1  0.16843340  0.20418548  0.60303537  1
  O2-  O206  1  0.16649260  0.20773490  0.92860658  1
  O2-  O207  1  0.17309856  0.69438795  0.27101538  1
  O2-  O208  1  0.16868978  0.70402553  0.60179566  1
  O2-  O209  1  0.16518947  0.70515455  0.93417671  1
  O2-  O210  1  0.66776363  0.20576208  0.26479269  1
  O2-  O211  1  0.66167457  0.20273676  0.60267241  1
  O2-  O212  1  0.67159069  0.20167843  0.92966239  1
  O2-  O213  1  0.66636315  0.70415517  0.27121377  1
  O2-  O214  1  0.66408447  0.71202119  0.59406572  1
  O2-  O215  1  0.66964165  0.71082109  0.93503063  1
  O2-  O216  1  0.09001807  0.45677725  0.06101830  1
  O2-  O217  1  0.08313662  0.46634403  0.40206327  1
  O2-  O218  1  0.08927577  0.45712696  0.73270704  1
  O2-  O219  1  0.08259984  0.96246214  0.06660377  1
  O2-  O220  1  0.07782684  0.95712955  0.40374944  1
  O2-  O221  1  0.08658007  0.95853523  0.72819785  1
  O2-  O222  1  0.57972712  0.45935902  0.06830970  1
  O2-  O223  1  0.58684747  0.45317635  0.39786275  1
  O2-  O224  1  0.58152497  0.45147969  0.72471225  1
  O2-  O225  1  0.57915052  0.95969091  0.06380706  1
  O2-  O226  1  0.58979445  0.95548022  0.39995328  1
  O2-  O227  1  0.58831979  0.95841336  0.72743601  1
  O2-  O228  1  0.20774902  0.33560331  0.05824297  1
  O2-  O229  1  0.20484036  0.33418686  0.40609557  1
  O2-  O230  1  0.20821542  0.33639057  0.73035800  1
  O2-  O231  1  0.20623990  0.83134849  0.06633105  1
  O2-  O232  1  0.20446381  0.82674383  0.40236627  1
  O2-  O233  1  0.20558737  0.83676003  0.72883339  1
  O2-  O234  1  0.70226817  0.32702662  0.06617613  1
  O2-  O235  1  0.70782991  0.33476406  0.39635185  1
  O2-  O236  1  0.70036216  0.33150282  0.72519924  1
  O2-  O237  1  0.71009796  0.83661374  0.07015397  1
  O2-  O238  1  0.70885394  0.83561440  0.39761607  1
  O2-  O239  1  0.70760843  0.83741710  0.72442840  1
  O2-  O240  1  0.45377926  0.41959731  0.26888537  1
  O2-  O241  1  0.45212144  0.41196444  0.60189292  1
  O2-  O242  1  0.45464694  0.42127693  0.93139027  1
  O2-  O243  1  0.46281727  0.91286027  0.26760893  1
  O2-  O244  1  0.45336778  0.91659994  0.60553413  1
  O2-  O245  1  0.44559726  0.92310889  0.93374612  1
  O2-  O246  1  0.95918514  0.41837728  0.26691719  1
  O2-  O247  1  0.96252531  0.41864367  0.60077177  1
  O2-  O248  1  0.96208873  0.42148594  0.93149707  1
  O2-  O249  1  0.94842076  0.92561828  0.26851091  1
  O2-  O250  1  0.95833378  0.91854655  0.59961791  1
  O2-  O251  1  0.96142937  0.91477002  0.93128020  1
  O2-  O252  1  0.32592867  0.29507714  0.27203165  1
  O2-  O253  1  0.33547401  0.28997822  0.60483510  1
  O2-  O254  1  0.33300787  0.29136469  0.92729841  1
  O2-  O255  1  0.33277700  0.79075700  0.26982235  1
  O2-  O256  1  0.33323439  0.79525316  0.60348061  1
  O2-  O257  1  0.32963168  0.78773037  0.93057141  1
  O2-  O258  1  0.83476531  0.28950876  0.26602450  1
  O2-  O259  1  0.83330197  0.28968540  0.59861827  1
  O2-  O260  1  0.83017628  0.29914372  0.93103080  1
  O2-  O261  1  0.83161233  0.78986119  0.26521184  1
  O2-  O262  1  0.83438093  0.79052038  0.59703393  1
  O2-  O263  1  0.83312349  0.78944560  0.93450682  1
  O2-  O264  1  0.41614796  0.05428750  0.05888517  1
  O2-  O265  1  0.42025556  0.03754785  0.40350552  1
  O2-  O266  1  0.41365669  0.04347635  0.73317148  1
  O2-  O267  1  0.41362244  0.54777353  0.06074388  1
  O2-  O268  1  0.41960572  0.54641565  0.39824584  1
  O2-  O269  1  0.41422306  0.54128067  0.72914500  1
  O2-  O270  1  0.91432963  0.04261426  0.06218401  1
  O2-  O271  1  0.91122827  0.04934047  0.39968726  1
  O2-  O272  1  0.91537552  0.04901356  0.72542549  1
  O2-  O273  1  0.92376225  0.54681597  0.06868012  1
  O2-  O274  1  0.91071819  0.54193464  0.39762504  1
  O2-  O275  1  0.91777702  0.54454109  0.73353890  1
  O2-  O276  1  0.29061274  0.16656757  0.06129307  1
  O2-  O277  1  0.29392729  0.16625460  0.40600374  1
  O2-  O278  1  0.29377795  0.16271764  0.73294563  1
  O2-  O279  1  0.28989167  0.66112382  0.06277417  1
  O2-  O280  1  0.29913610  0.66324599  0.40036804  1
  O2-  O281  1  0.29458389  0.66262525  0.73003214  1
  O2-  O282  1  0.80300141  0.16869353  0.05825796  1
  O2-  O283  1  0.78760028  0.16354840  0.39866363  1
  O2-  O284  1  0.79017864  0.16319848  0.72903018  1
  O2-  O285  1  0.79121891  0.66853118  0.07317011  1
  O2-  O286  1  0.79021235  0.66228337  0.39821080  1
  O2-  O287  1  0.78602938  0.66805905  0.73093860  1
