# generated using pymatgen
data_Ca2Al2SiO7
_symmetry_space_group_name_H-M   'P 1'
_cell_length_a   15.46386271
_cell_length_b   15.46685502
_cell_length_c   15.28777063
_cell_angle_alpha   90.01254885
_cell_angle_beta   89.99639994
_cell_angle_gamma   90.00295520
_symmetry_Int_Tables_number   1
_chemical_formula_structural   Ca2Al2SiO7
_chemical_formula_sum   'Ca48 Al48 Si24 O168'
_cell_volume   3656.48794854
_cell_formula_units_Z   24
loop_
 _symmetry_equiv_pos_site_id
 _symmetry_equiv_pos_as_xyz
  1  'x, y, z'
loop_
 _atom_type_symbol
 _atom_type_oxidation_number
  Ca2+  2.0
  Al0+  0.0
  Si0+  0.0
  O2-  -2.0
loop_
 _atom_site_type_symbol
 _atom_site_label
 _atom_site_symmetry_multiplicity
 _atom_site_fract_x
 _atom_site_fract_y
 _atom_site_fract_z
 _atom_site_occupancy
  Ca2+  Ca0  1  0.17894546  0.09422988  0.16841495  1
  Ca2+  Ca1  1  0.17847248  0.08952525  0.50654611  1
  Ca2+  Ca2  1  0.17452137  0.09275562  0.83716543  1
  Ca2+  Ca3  1  0.16825603  0.57649924  0.17386981  1
  Ca2+  Ca4  1  0.16546422  0.58048697  0.50661285  1
  Ca2+  Ca5  1  0.16900296  0.59052320  0.83073329  1
  Ca2+  Ca6  1  0.66803671  0.07504916  0.16932317  1
  Ca2+  Ca7  1  0.66192634  0.07671428  0.50588330  1
  Ca2+  Ca8  1  0.67120649  0.07655082  0.83463689  1
  Ca2+  Ca9  1  0.67007300  0.57250842  0.16831711  1
  Ca2+  Ca10  1  0.66619921  0.56787909  0.50587917  1
  Ca2+  Ca11  1  0.67301510  0.57043591  0.83934233  1
  Ca2+  Ca12  1  0.07945807  0.33136453  0.16364779  1
  Ca2+  Ca13  1  0.07516178  0.33363604  0.49655532  1
  Ca2+  Ca14  1  0.07466427  0.32108610  0.82490600  1
  Ca2+  Ca15  1  0.07601778  0.83532430  0.16505010  1
  Ca2+  Ca16  1  0.07197804  0.82985722  0.49936920  1
  Ca2+  Ca17  1  0.07301623  0.82765491  0.82070781  1
  Ca2+  Ca18  1  0.59000970  0.32912498  0.16608083  1
  Ca2+  Ca19  1  0.59055888  0.32040832  0.49506793  1
  Ca2+  Ca20  1  0.58865363  0.32831397  0.82430132  1
  Ca2+  Ca21  1  0.58204872  0.84058582  0.16124429  1
  Ca2+  Ca22  1  0.57974280  0.84216882  0.49772165  1
  Ca2+  Ca23  1  0.57587285  0.84515240  0.82918745  1
  Ca2+  Ca24  1  0.32420338  0.41510806  0.17490711  1
  Ca2+  Ca25  1  0.32615269  0.42234786  0.50614010  1
  Ca2+  Ca26  1  0.33436393  0.42549638  0.83337177  1
  Ca2+  Ca27  1  0.33572879  0.92620125  0.16795933  1
  Ca2+  Ca28  1  0.33564332  0.92689516  0.50828666  1
  Ca2+  Ca29  1  0.33790464  0.92530988  0.83645887  1
  Ca2+  Ca30  1  0.82781166  0.41794184  0.17152488  1
  Ca2+  Ca31  1  0.82732135  0.40474931  0.50449823  1
  Ca2+  Ca32  1  0.82610865  0.41402485  0.83675478  1
  Ca2+  Ca33  1  0.82642676  0.92118221  0.17296586  1
  Ca2+  Ca34  1  0.82434920  0.90979994  0.50540661  1
  Ca2+  Ca35  1  0.82440972  0.91721106  0.84064160  1
  Ca2+  Ca36  1  0.42120562  0.15930248  0.16553782  1
  Ca2+  Ca37  1  0.42658239  0.15664331  0.49753059  1
  Ca2+  Ca38  1  0.42134129  0.16301089  0.82667856  1
  Ca2+  Ca39  1  0.42203821  0.67574473  0.15676191  1
  Ca2+  Ca40  1  0.41350606  0.67132876  0.50156700  1
  Ca2+  Ca41  1  0.41637854  0.67999530  0.82356045  1
  Ca2+  Ca42  1  0.91815150  0.17137411  0.15922213  1
  Ca2+  Ca43  1  0.91833259  0.17699279  0.49808256  1
  Ca2+  Ca44  1  0.92466898  0.16380647  0.82598529  1
  Ca2+  Ca45  1  0.91055192  0.66935550  0.16537937  1
  Ca2+  Ca46  1  0.91364163  0.67626253  0.50002646  1
  Ca2+  Ca47  1  0.91754777  0.66899044  0.82613849  1
  Al0+  Al48  1  0.00172167  -0.00082758  -0.00171160  1
  Al0+  Al49  1  0.00211534  0.00001553  0.32834296  1
  Al0+  Al50  1  0.00100061  -0.00001922  0.65590222  1
  Al0+  Al51  1  0.00040071  0.50026766  0.00191452  1
  Al0+  Al52  1  0.00041560  0.50093778  0.33346468  1
  Al0+  Al53  1  -0.00104394  0.49945556  0.66082007  1
  Al0+  Al54  1  0.49847604  0.00201037  0.00255472  1
  Al0+  Al55  1  0.50095016  0.00075109  0.33463989  1
  Al0+  Al56  1  0.49929618  0.00041379  0.66734034  1
  Al0+  Al57  1  0.49928070  0.50107631  0.00330100  1
  Al0+  Al58  1  0.50106575  0.50043906  0.33617947  1
  Al0+  Al59  1  0.49825730  0.50050953  0.67552362  1
  Al0+  Al60  1  0.25116921  0.25112151  -0.00057319  1
  Al0+  Al61  1  0.25185107  0.25282402  0.34410391  1
  Al0+  Al62  1  0.25083721  0.25231391  0.66903681  1
  Al0+  Al63  1  0.25046745  0.75240988  -0.00270461  1
  Al0+  Al64  1  0.24990174  0.75235762  0.33091033  1
  Al0+  Al65  1  0.24979204  0.75116566  0.66148188  1
  Al0+  Al66  1  0.74962268  0.24873910  0.00485951  1
  Al0+  Al67  1  0.75134265  0.24831681  0.32591253  1
  Al0+  Al68  1  0.74905059  0.24593379  0.66438142  1
  Al0+  Al69  1  0.74817209  0.74644198  0.00596755  1
  Al0+  Al70  1  0.74849374  0.74980581  0.33231089  1
  Al0+  Al71  1  0.74572175  0.74650356  0.66874493  1
  Al0+  Al72  1  0.67942045  0.92742785  0.68005321  1
  Al0+  Al73  1  0.67690819  0.42694008  0.01617768  1
  Al0+  Al74  1  0.17824695  0.43126566  0.34835631  1
  Al0+  Al75  1  0.92789928  0.31869021  0.65311674  1
  Al0+  Al76  1  0.82550738  0.06994859  0.01397553  1
  Al0+  Al77  1  0.31975662  0.06919928  0.34828485  1
  Al0+  Al78  1  0.31876203  0.07171315  0.01387002  1
  Al0+  Al79  1  0.68066453  0.42708455  0.34873301  1
  Al0+  Al80  1  0.93009856  0.32080811  0.31686148  1
  Al0+  Al81  1  0.68040218  0.42552218  0.67921046  1
  Al0+  Al82  1  0.43142943  0.82165049  0.98557110  1
  Al0+  Al83  1  0.68158440  0.93010166  0.34828500  1
  Al0+  Al84  1  0.82317375  0.56946913  0.01549276  1
  Al0+  Al85  1  0.07097072  0.67888130  0.65122644  1
  Al0+  Al86  1  0.07500081  0.17804623  0.64962240  1
  Al0+  Al87  1  0.56815652  0.17997646  0.65479494  1
  Al0+  Al88  1  0.92740231  0.82083330  0.31724264  1
  Al0+  Al89  1  0.92351191  0.82115722  0.65334243  1
  Al0+  Al90  1  0.07231504  0.17913005  0.98732275  1
  Al0+  Al91  1  0.43145793  0.82105217  0.65175757  1
  Al0+  Al92  1  0.56959393  0.17834745  0.31729611  1
  Al0+  Al93  1  0.67877437  0.93017344  0.01456930  1
  Al0+  Al94  1  0.31891434  0.57287848  0.68082587  1
  Al0+  Al95  1  0.31949673  0.07127485  0.68196644  1
  Si0+  Si96  1  0.57227590  0.67563380  0.98185542  1
  Si0+  Si97  1  0.18161585  0.43053652  0.01335532  1
  Si0+  Si98  1  0.42836791  0.32372814  0.31855294  1
  Si0+  Si99  1  0.56985643  0.67665213  0.31782708  1
  Si0+  Si100  1  0.07153372  0.67815871  0.98609203  1
  Si0+  Si101  1  0.82113819  0.57185742  0.35184483  1
  Si0+  Si102  1  0.17543359  0.42943249  0.68583859  1
  Si0+  Si103  1  0.17642870  0.92588726  0.35111785  1
  Si0+  Si104  1  0.57026257  0.18076271  0.98509158  1
  Si0+  Si105  1  0.17667232  0.92864858  0.68157203  1
  Si0+  Si106  1  0.17798351  0.92554367  0.01609960  1
  Si0+  Si107  1  0.07618860  0.18028597  0.31687137  1
  Si0+  Si108  1  0.42820494  0.32597324  0.65136272  1
  Si0+  Si109  1  0.82207046  0.57112568  0.68189731  1
  Si0+  Si110  1  0.32261765  0.57488330  0.34846490  1
  Si0+  Si111  1  0.07245193  0.67958418  0.31487577  1
  Si0+  Si112  1  0.42989942  0.82128230  0.31773458  1
  Si0+  Si113  1  0.82553917  0.07194208  0.34966170  1
  Si0+  Si114  1  0.56988914  0.67402256  0.65007773  1
  Si0+  Si115  1  0.82339570  0.06998755  0.67978028  1
  Si0+  Si116  1  0.42792693  0.32331077  0.98593717  1
  Si0+  Si117  1  0.31982131  0.57471076  0.01490895  1
  Si0+  Si118  1  0.92818902  0.32197739  0.98406557  1
  Si0+  Si119  1  0.92738205  0.81921409  0.98664597  1
  O2-  O120  1  0.24279338  -0.00188789  0.06024825  1
  O2-  O121  1  0.24304011  -0.00348524  0.39446685  1
  O2-  O122  1  0.24077462  0.00032777  0.72831518  1
  O2-  O123  1  0.25117387  0.50233543  0.05782566  1
  O2-  O124  1  0.25270875  0.50775993  0.39213102  1
  O2-  O125  1  0.24330322  0.49963716  0.72973092  1
  O2-  O126  1  0.75409958  -0.00200847  0.06530949  1
  O2-  O127  1  0.75899367  0.00173202  0.39474490  1
  O2-  O128  1  0.76096708  -0.00442706  0.72432711  1
  O2-  O129  1  0.75144175  0.49699772  0.06514393  1
  O2-  O130  1  0.75718605  0.49931076  0.39649544  1
  O2-  O131  1  0.75638772  0.49914116  0.72517134  1
  O2-  O132  1  0.00495231  0.24530285  0.27094098  1
  O2-  O133  1  0.00259982  0.25022967  0.60156739  1
  O2-  O134  1  -0.00767234  0.24855109  0.94104941  1
  O2-  O135  1  0.00364923  0.74731900  0.26953619  1
  O2-  O136  1  -0.00337043  0.74948809  0.60351668  1
  O2-  O137  1  -0.00136664  0.74766602  0.94510753  1
  O2-  O138  1  0.49593681  0.25564060  0.27165742  1
  O2-  O139  1  0.49534111  0.25648095  0.60715087  1
  O2-  O140  1  0.50398443  0.25744183  0.94474023  1
  O2-  O141  1  0.49830319  0.74778283  0.27581346  1
  O2-  O142  1  0.50592692  0.74642800  0.60416295  1
  O2-  O143  1  0.50706572  0.74788511  0.93830722  1
  O2-  O144  1  0.07627883  0.18607063  0.10034717  1
  O2-  O145  1  0.07642112  0.18271448  0.42196186  1
  O2-  O146  1  0.07385070  0.17998398  0.76374196  1
  O2-  O147  1  0.07458782  0.67827716  0.09113937  1
  O2-  O148  1  0.07463628  0.68104683  0.41974112  1
  O2-  O149  1  0.07012633  0.68105304  0.76574368  1
  O2-  O150  1  0.56729695  0.17916832  0.09026893  1
  O2-  O151  1  0.56754931  0.17715019  0.43025284  1
  O2-  O152  1  0.56841604  0.18070332  0.76837102  1
  O2-  O153  1  0.56745255  0.67270580  0.08781597  1
  O2-  O154  1  0.56820041  0.67408105  0.42261577  1
  O2-  O155  1  0.56699082  0.67185364  0.75546497  1
  O2-  O156  1  0.18092260  0.43185009  0.23415167  1
  O2-  O157  1  0.17754703  0.43005099  0.58030702  1
  O2-  O158  1  0.18308985  0.43188763  0.90873774  1
  O2-  O159  1  0.17880083  0.92217474  0.24529175  1
  O2-  O160  1  0.18036144  0.92794241  0.57598926  1
  O2-  O161  1  0.17923620  0.92058782  0.91108031  1
  O2-  O162  1  0.67954324  0.43112640  0.23591460  1
  O2-  O163  1  0.68044963  0.42651203  0.56613885  1
  O2-  O164  1  0.67732633  0.42750456  0.90238773  1
  O2-  O165  1  0.68023485  0.93107526  0.23524663  1
  O2-  O166  1  0.67816120  0.93064972  0.56689388  1
  O2-  O167  1  0.67881861  0.93319892  0.90098505  1
  O2-  O168  1  0.42334061  0.32293582  0.09095963  1
  O2-  O169  1  0.42912767  0.32583545  0.42367749  1
  O2-  O170  1  0.42942950  0.32636942  0.75757376  1
  O2-  O171  1  0.43031827  0.81866283  0.09928211  1
  O2-  O172  1  0.42983653  0.82047381  0.42261326  1
  O2-  O173  1  0.43237745  0.82161902  0.76493323  1
  O2-  O174  1  0.93236372  0.32435076  0.08965814  1
  O2-  O175  1  0.93040389  0.31916623  0.42957842  1
  O2-  O176  1  0.92816262  0.31700644  0.76719699  1
  O2-  O177  1  0.93002143  0.81834492  0.09179854  1
  O2-  O178  1  0.92675292  0.81722955  0.42982784  1
  O2-  O179  1  0.92511224  0.81901206  0.76765735  1
  O2-  O180  1  0.31933953  0.06781982  0.23471029  1
  O2-  O181  1  0.32143979  0.06756435  0.56892978  1
  O2-  O182  1  0.31946966  0.07162901  0.90122885  1
  O2-  O183  1  0.32153115  0.57491264  0.24223962  1
  O2-  O184  1  0.31906046  0.56999190  0.56759969  1
  O2-  O185  1  0.31794481  0.57517707  0.91020900  1
  O2-  O186  1  0.82483645  0.06982442  0.24387825  1
  O2-  O187  1  0.81954751  0.07308837  0.57435886  1
  O2-  O188  1  0.82615036  0.06789773  0.90016763  1
  O2-  O189  1  0.81875314  0.57172240  0.24608962  1
  O2-  O190  1  0.81917509  0.57398524  0.57651567  1
  O2-  O191  1  0.82482699  0.56828871  0.90188079  1
  O2-  O192  1  0.05761330  0.08433387  0.27238749  1
  O2-  O193  1  0.05184649  0.07993807  0.59459403  1
  O2-  O194  1  0.04972198  0.07987228  0.93419151  1
  O2-  O195  1  0.04736409  0.58584011  0.26879924  1
  O2-  O196  1  0.04599693  0.58035847  0.59775661  1
  O2-  O197  1  0.04606268  0.58582264  0.93840957  1
  O2-  O198  1  0.53423978  0.08307101  0.26256906  1
  O2-  O199  1  0.53409324  0.08545723  0.59949748  1
  O2-  O200  1  0.53618927  0.09130880  0.93777573  1
  O2-  O201  1  0.54097526  0.58578646  0.26796606  1
  O2-  O202  1  0.53815810  0.58219175  0.60334990  1
  O2-  O203  1  0.54279361  0.58295079  0.93549147  1
  O2-  O204  1  0.16957599  0.21190836  0.27286722  1
  O2-  O205  1  0.17362264  0.20952352  0.59900013  1
  O2-  O206  1  0.16681651  0.21641497  0.93234315  1
  O2-  O207  1  0.16639319  0.70528755  0.26720381  1
  O2-  O208  1  0.16771533  0.70799790  0.59604159  1
  O2-  O209  1  0.16241873  0.70769813  0.93776031  1
  O2-  O210  1  0.66600315  0.20657359  0.26220312  1
  O2-  O211  1  0.66405473  0.20783294  0.59882466  1
  O2-  O212  1  0.66430392  0.20315229  0.93939279  1
  O2-  O213  1  0.66079128  0.70519871  0.26988881  1
  O2-  O214  1  0.66479758  0.69377336  0.60540360  1
  O2-  O215  1  0.66824855  0.69585920  0.93919194  1
  O2-  O216  1  0.09004274  0.45751563  0.06156053  1
  O2-  O217  1  0.08233198  0.46275138  0.40244331  1
  O2-  O218  1  0.08115771  0.45441550  0.73060249  1
  O2-  O219  1  0.08347356  0.94728998  0.06136202  1
  O2-  O220  1  0.08132824  0.94871801  0.39456449  1
  O2-  O221  1  0.08014004  0.94901041  0.72429753  1
  O2-  O222  1  0.57840163  0.45707976  0.06968676  1
  O2-  O223  1  0.58376802  0.45978749  0.40146440  1
  O2-  O224  1  0.58464288  0.45688930  0.73452156  1
  O2-  O225  1  0.58221837  0.96353046  0.06833167  1
  O2-  O226  1  0.58523282  0.96303898  0.40087256  1
  O2-  O227  1  0.58574419  0.96621435  0.73411139  1
  O2-  O228  1  0.21281407  0.34092779  0.06256971  1
  O2-  O229  1  0.21041887  0.33796324  0.40641624  1
  O2-  O230  1  0.20384102  0.33721266  0.73300672  1
  O2-  O231  1  0.20799853  0.83424863  0.06590769  1
  O2-  O232  1  0.20408709  0.83278080  0.39728046  1
  O2-  O233  1  0.20479610  0.83577768  0.72742721  1
  O2-  O234  1  0.70207544  0.32835462  0.06878274  1
  O2-  O235  1  0.71102926  0.32823402  0.39752218  1
  O2-  O236  1  0.71132862  0.32909123  0.73354206  1
  O2-  O237  1  0.69933305  0.82904968  0.06490031  1
  O2-  O238  1  0.70739341  0.83111048  0.40009061  1
  O2-  O239  1  0.70018260  0.82795986  0.73338978  1
  O2-  O240  1  0.45168928  0.41822521  0.27163752  1
  O2-  O241  1  0.45263184  0.41995667  0.60631982  1
  O2-  O242  1  0.45003671  0.41778894  0.94024582  1
  O2-  O243  1  0.46155801  0.91137839  0.27006638  1
  O2-  O244  1  0.46382943  0.91636029  0.59725552  1
  O2-  O245  1  0.46112111  0.91932953  0.93317425  1
  O2-  O246  1  0.96127161  0.41879795  0.26486720  1
  O2-  O247  1  0.95115061  0.41788135  0.59986599  1
  O2-  O248  1  0.95916472  0.41409545  0.93773082  1
  O2-  O249  1  0.95876512  0.91755041  0.26251872  1
  O2-  O250  1  0.95016601  0.91802724  0.59705401  1
  O2-  O251  1  0.95486818  0.91045266  0.93876202  1
  O2-  O252  1  0.33360963  0.29743452  0.27425228  1
  O2-  O253  1  0.33342106  0.30329748  0.60750199  1
  O2-  O254  1  0.33898627  0.29193738  0.93541046  1
  O2-  O255  1  0.33693252  0.79697972  0.26976369  1
  O2-  O256  1  0.33568710  0.79022208  0.59681734  1
  O2-  O257  1  0.33454541  0.78987761  0.93225287  1
  O2-  O258  1  0.83501633  0.29019629  0.26018250  1
  O2-  O259  1  0.83219714  0.28510145  0.59807319  1
  O2-  O260  1  0.83198503  0.30078249  0.94218527  1
  O2-  O261  1  0.83131937  0.78752960  0.26318649  1
  O2-  O262  1  0.82572266  0.78888912  0.60065034  1
  O2-  O263  1  0.83473973  0.79079202  0.94161229  1
  O2-  O264  1  0.41346122  0.03856736  0.06942495  1
  O2-  O265  1  0.41492249  0.03393004  0.40116945  1
  O2-  O266  1  0.41434925  0.03570543  0.73606264  1
  O2-  O267  1  0.41208151  0.54950878  0.06223014  1
  O2-  O268  1  0.41522397  0.54900042  0.39524161  1
  O2-  O269  1  0.41298423  0.54122049  0.73973634  1
  O2-  O270  1  0.92464613  0.04431264  0.06755561  1
  O2-  O271  1  0.92136898  0.05028760  0.39268418  1
  O2-  O272  1  0.92048953  0.05113748  0.72130249  1
  O2-  O273  1  0.92221543  0.54373801  0.07028495  1
  O2-  O274  1  0.91735172  0.55297042  0.39393729  1
  O2-  O275  1  0.91750419  0.54934086  0.72581828  1
  O2-  O276  1  0.28896089  0.16888467  0.06844116  1
  O2-  O277  1  0.29461661  0.16647675  0.40304568  1
  O2-  O278  1  0.29501433  0.17057639  0.73473716  1
  O2-  O279  1  0.28997825  0.66527691  0.06376462  1
  O2-  O280  1  0.29809081  0.66949446  0.39281450  1
  O2-  O281  1  0.28785705  0.67009239  0.73410279  1
  O2-  O282  1  0.79721296  0.16800832  0.06697546  1
  O2-  O283  1  0.79731418  0.16545887  0.39279732  1
  O2-  O284  1  0.79072106  0.15961269  0.72952577  1
  O2-  O285  1  0.79343856  0.66622614  0.07141632  1
  O2-  O286  1  0.78971892  0.66363037  0.39739782  1
  O2-  O287  1  0.79302110  0.66204137  0.73182798  1
