# generated using pymatgen
data_Ca2Al2SiO7
_symmetry_space_group_name_H-M   'P 1'
_cell_length_a   15.45362657
_cell_length_b   15.45329313
_cell_length_c   15.28055696
_cell_angle_alpha   89.99756336
_cell_angle_beta   89.99646737
_cell_angle_gamma   90.00897840
_symmetry_Int_Tables_number   1
_chemical_formula_structural   Ca2Al2SiO7
_chemical_formula_sum   'Ca48 Al48 Si24 O168'
_cell_volume   3649.14091036
_cell_formula_units_Z   24
loop_
 _symmetry_equiv_pos_site_id
 _symmetry_equiv_pos_as_xyz
  1  'x, y, z'
loop_
 _atom_type_symbol
 _atom_type_oxidation_number
  Ca2+  2.0
  Al0+  0.0
  Si0+  0.0
  O2-  -2.0
loop_
 _atom_site_type_symbol
 _atom_site_label
 _atom_site_symmetry_multiplicity
 _atom_site_fract_x
 _atom_site_fract_y
 _atom_site_fract_z
 _atom_site_occupancy
  Ca2+  Ca0  1  0.17566414  0.09086382  0.17179950  1
  Ca2+  Ca1  1  0.17598228  0.08347367  0.50585097  1
  Ca2+  Ca2  1  0.17148653  0.08120700  0.83723358  1
  Ca2+  Ca3  1  0.17454502  0.58180837  0.17635837  1
  Ca2+  Ca4  1  0.16571043  0.58488370  0.49515235  1
  Ca2+  Ca5  1  0.17262839  0.58219909  0.84053851  1
  Ca2+  Ca6  1  0.66210647  0.07838951  0.17026417  1
  Ca2+  Ca7  1  0.67010002  0.07839754  0.50761564  1
  Ca2+  Ca8  1  0.67155897  0.07185794  0.83450732  1
  Ca2+  Ca9  1  0.66548106  0.57421893  0.16601668  1
  Ca2+  Ca10  1  0.67108850  0.57597763  0.50452381  1
  Ca2+  Ca11  1  0.67799846  0.58128090  0.84542583  1
  Ca2+  Ca12  1  0.08750990  0.32605552  0.16060442  1
  Ca2+  Ca13  1  0.07809449  0.33039218  0.49243198  1
  Ca2+  Ca14  1  0.07250056  0.32903263  0.83128540  1
  Ca2+  Ca15  1  0.08411871  0.82587920  0.16556041  1
  Ca2+  Ca16  1  0.08082812  0.83335247  0.49758451  1
  Ca2+  Ca17  1  0.07863406  0.83261107  0.82539574  1
  Ca2+  Ca18  1  0.59028736  0.33078385  0.16387089  1
  Ca2+  Ca19  1  0.58366419  0.32511577  0.49084306  1
  Ca2+  Ca20  1  0.58357323  0.33586680  0.83211897  1
  Ca2+  Ca21  1  0.57116270  0.82918424  0.15630909  1
  Ca2+  Ca22  1  0.57865605  0.83499760  0.49420187  1
  Ca2+  Ca23  1  0.58564296  0.83467538  0.83451366  1
  Ca2+  Ca24  1  0.33128962  0.43165092  0.17463810  1
  Ca2+  Ca25  1  0.32506272  0.41840261  0.49693243  1
  Ca2+  Ca26  1  0.33136594  0.42320891  0.84209061  1
  Ca2+  Ca27  1  0.34089572  0.92300665  0.17025836  1
  Ca2+  Ca28  1  0.32957290  0.92409308  0.50377612  1
  Ca2+  Ca29  1  0.33061838  0.92491689  0.83804262  1
  Ca2+  Ca30  1  0.82754595  0.41427719  0.16534536  1
  Ca2+  Ca31  1  0.83200842  0.41895350  0.50499909  1
  Ca2+  Ca32  1  0.83585803  0.42318168  0.84074701  1
  Ca2+  Ca33  1  0.82472529  0.91443842  0.16640491  1
  Ca2+  Ca34  1  0.82995693  0.92382334  0.51425911  1
  Ca2+  Ca35  1  0.82590786  0.91390345  0.83541765  1
  Ca2+  Ca36  1  0.41881764  0.16248435  0.16369145  1
  Ca2+  Ca37  1  0.42123094  0.15887780  0.49178977  1
  Ca2+  Ca38  1  0.41365212  0.16064352  0.83250433  1
  Ca2+  Ca39  1  0.41376633  0.67491307  0.15702599  1
  Ca2+  Ca40  1  0.41435537  0.67614061  0.48985832  1
  Ca2+  Ca41  1  0.42284547  0.66811025  0.83518647  1
  Ca2+  Ca42  1  0.93176058  0.17405846  0.15697280  1
  Ca2+  Ca43  1  0.91953501  0.16841448  0.49449582  1
  Ca2+  Ca44  1  0.91297868  0.17703000  0.82748187  1
  Ca2+  Ca45  1  0.92237132  0.65897648  0.16380103  1
  Ca2+  Ca46  1  0.91779772  0.67205780  0.49964100  1
  Ca2+  Ca47  1  0.91023067  0.66855783  0.82535073  1
  Al0+  Al48  1  0.00168984  -0.00191716  -0.00311376  1
  Al0+  Al49  1  -0.00096322  0.00132868  0.32656095  1
  Al0+  Al50  1  0.00094957  0.00064952  0.66940411  1
  Al0+  Al51  1  0.00042542  0.49842342  -0.00037598  1
  Al0+  Al52  1  -0.00140531  0.50191144  0.33311366  1
  Al0+  Al53  1  0.00056081  0.49844500  0.66482158  1
  Al0+  Al54  1  0.49895691  -0.00020985  0.00220802  1
  Al0+  Al55  1  0.50014477  -0.00046367  0.32930801  1
  Al0+  Al56  1  0.49956994  -0.00077468  0.67300836  1
  Al0+  Al57  1  0.50065536  0.50055356  0.00336015  1
  Al0+  Al58  1  0.50138244  0.50024399  0.34431331  1
  Al0+  Al59  1  0.49903716  0.49941878  0.66268047  1
  Al0+  Al60  1  0.25131179  0.24798075  -0.00214198  1
  Al0+  Al61  1  0.25130754  0.25184914  0.33846726  1
  Al0+  Al62  1  0.25026460  0.25254992  0.67002279  1
  Al0+  Al63  1  0.24958430  0.75275108  -0.00293700  1
  Al0+  Al64  1  0.24818645  0.75252102  0.32891200  1
  Al0+  Al65  1  0.25146658  0.74972219  0.66938073  1
  Al0+  Al66  1  0.75130075  0.24927853  -0.00204661  1
  Al0+  Al67  1  0.74936689  0.24919591  0.33225787  1
  Al0+  Al68  1  0.74790193  0.24980701  0.66448952  1
  Al0+  Al69  1  0.75001624  0.74890369  0.00811649  1
  Al0+  Al70  1  0.74813452  0.75000764  0.33344883  1
  Al0+  Al71  1  0.75013601  0.74745258  0.66618312  1
  Al0+  Al72  1  0.07284820  0.18027472  0.32090627  1
  Al0+  Al73  1  0.82232958  0.07375599  0.68072386  1
  Al0+  Al74  1  0.82066247  0.56780993  0.67837798  1
  Al0+  Al75  1  0.32108915  0.06972117  0.34635861  1
  Al0+  Al76  1  0.67876662  0.42698094  0.01419602  1
  Al0+  Al77  1  0.17756706  0.42929432  0.34795978  1
  Al0+  Al78  1  0.31875604  0.06990263  0.01624849  1
  Al0+  Al79  1  0.43001262  0.81981734  0.32036456  1
  Al0+  Al80  1  0.68054786  0.42750206  0.34929007  1
  Al0+  Al81  1  0.32060689  0.07221578  0.68225629  1
  Al0+  Al82  1  0.68003678  0.93011755  0.01605498  1
  Al0+  Al83  1  0.92880215  0.82117931  0.65452883  1
  Al0+  Al84  1  0.06813860  0.68056974  0.31991642  1
  Al0+  Al85  1  0.32027874  0.57238612  0.01199749  1
  Al0+  Al86  1  0.92899664  0.32033204  0.98393858  1
  Al0+  Al87  1  0.42844612  0.82282254  0.98076715  1
  Al0+  Al88  1  0.32072245  0.57524602  0.34920767  1
  Al0+  Al89  1  0.82360222  0.57154829  0.01691746  1
  Al0+  Al90  1  0.17846729  0.92700201  0.68119020  1
  Al0+  Al91  1  0.92816162  0.32061414  0.65033766  1
  Al0+  Al92  1  0.57049624  0.17983892  0.31945215  1
  Al0+  Al93  1  0.07440307  0.17724005  0.98203274  1
  Al0+  Al94  1  0.57114874  0.67798073  0.98558908  1
  Al0+  Al95  1  0.67920860  0.92729688  0.68078651  1
  Si0+  Si96  1  0.32234853  0.57101847  0.68185210  1
  Si0+  Si97  1  0.92737057  0.32225596  0.31642752  1
  Si0+  Si98  1  0.07467579  0.67756831  0.65033487  1
  Si0+  Si99  1  0.07342384  0.17915357  0.64939919  1
  Si0+  Si100  1  0.17907079  0.43002615  0.68300427  1
  Si0+  Si101  1  0.82176808  0.06948251  0.34574861  1
  Si0+  Si102  1  0.57108422  0.67737263  0.65005100  1
  Si0+  Si103  1  0.07106668  0.67868410  0.98488549  1
  Si0+  Si104  1  0.82199515  0.57354449  0.35238371  1
  Si0+  Si105  1  0.17490164  0.92898311  0.34819889  1
  Si0+  Si106  1  0.67911499  0.92968346  0.34749695  1
  Si0+  Si107  1  0.92802650  0.81936143  0.98589114  1
  Si0+  Si108  1  0.43021223  0.32123845  0.98679375  1
  Si0+  Si109  1  0.42966898  0.82041619  0.65149498  1
  Si0+  Si110  1  0.17531871  0.92743881  0.01894873  1
  Si0+  Si111  1  0.57304047  0.67565934  0.31769099  1
  Si0+  Si112  1  0.56736929  0.17865868  0.65305099  1
  Si0+  Si113  1  0.57135535  0.17795547  0.98400728  1
  Si0+  Si114  1  0.67612123  0.42780976  0.68233746  1
  Si0+  Si115  1  0.42719418  0.32362441  0.65018006  1
  Si0+  Si116  1  0.17938230  0.42842427  0.01468193  1
  Si0+  Si117  1  0.82374833  0.07205946  0.01715144  1
  Si0+  Si118  1  0.42871955  0.32379215  0.31789765  1
  Si0+  Si119  1  0.92480963  0.82363893  0.31559095  1
  O2-  O120  1  0.24289643  -0.00317189  0.06312223  1
  O2-  O121  1  0.24233442  -0.00099082  0.39222815  1
  O2-  O122  1  0.24763483  0.00127593  0.73162395  1
  O2-  O123  1  0.24528517  0.49898122  0.05924226  1
  O2-  O124  1  0.24855068  0.50271390  0.39911295  1
  O2-  O125  1  0.25055457  0.50120376  0.72442356  1
  O2-  O126  1  0.75418580  0.00535767  0.06357792  1
  O2-  O127  1  0.75306778  -0.00297661  0.38974766  1
  O2-  O128  1  0.75461671  -0.00311166  0.72968742  1
  O2-  O129  1  0.75111638  0.49865057  0.06441855  1
  O2-  O130  1  0.75406801  0.50353273  0.39573821  1
  O2-  O131  1  0.74660361  0.49350084  0.72625220  1
  O2-  O132  1  0.00110111  0.25805375  0.27398725  1
  O2-  O133  1  0.00072557  0.24338593  0.60412016  1
  O2-  O134  1  -0.00134251  0.24603126  0.93337966  1
  O2-  O135  1  -0.00794868  0.75339869  0.27189043  1
  O2-  O136  1  0.00654958  0.74859244  0.60852897  1
  O2-  O137  1  -0.00252064  0.74685917  0.94303248  1
  O2-  O138  1  0.49732971  0.25596533  0.27214643  1
  O2-  O139  1  0.49577777  0.24922626  0.61012869  1
  O2-  O140  1  0.50208531  0.25147642  0.94285368  1
  O2-  O141  1  0.50039017  0.74021542  0.27490674  1
  O2-  O142  1  0.50082561  0.74971905  0.60831828  1
  O2-  O143  1  0.50137564  0.75054598  0.93187614  1
  O2-  O144  1  0.07567481  0.18139976  0.09607288  1
  O2-  O145  1  0.06886348  0.17809183  0.43409061  1
  O2-  O146  1  0.07588410  0.18426257  0.75456768  1
  O2-  O147  1  0.07175806  0.68010526  0.08993188  1
  O2-  O148  1  0.06664265  0.68319385  0.43323589  1
  O2-  O149  1  0.07611292  0.67602867  0.75610026  1
  O2-  O150  1  0.57033970  0.17768042  0.08926172  1
  O2-  O151  1  0.57007784  0.17807166  0.43307685  1
  O2-  O152  1  0.56718021  0.18041638  0.75823139  1
  O2-  O153  1  0.56786708  0.67831473  0.09924867  1
  O2-  O154  1  0.57608261  0.68030387  0.42388381  1
  O2-  O155  1  0.56931280  0.67317078  0.75455450  1
  O2-  O156  1  0.18067699  0.43016822  0.23435968  1
  O2-  O157  1  0.17976497  0.42917699  0.57814938  1
  O2-  O158  1  0.18129317  0.43094006  0.90837795  1
  O2-  O159  1  0.17412904  0.92881254  0.24283658  1
  O2-  O160  1  0.18210425  0.92535298  0.56721775  1
  O2-  O161  1  0.17512499  0.92607739  0.91344555  1
  O2-  O162  1  0.68232978  0.42631385  0.23676657  1
  O2-  O163  1  0.67486752  0.42932775  0.57662364  1
  O2-  O164  1  0.67793104  0.42823604  0.90029944  1
  O2-  O165  1  0.67988084  0.93061780  0.24256565  1
  O2-  O166  1  0.67688363  0.93084225  0.56643991  1
  O2-  O167  1  0.68285628  0.93091368  0.90307953  1
  O2-  O168  1  0.42880220  0.32057614  0.09160031  1
  O2-  O169  1  0.43029522  0.32141952  0.42400839  1
  O2-  O170  1  0.42884539  0.32931132  0.75530663  1
  O2-  O171  1  0.42918249  0.82205741  0.09451834  1
  O2-  O172  1  0.43335117  0.82158610  0.43438726  1
  O2-  O173  1  0.42918964  0.81825574  0.75599639  1
  O2-  O174  1  0.93064175  0.31910143  0.09777644  1
  O2-  O175  1  0.92618806  0.31908525  0.42241265  1
  O2-  O176  1  0.93076499  0.32298801  0.76289511  1
  O2-  O177  1  0.93071679  0.82076519  0.09118791  1
  O2-  O178  1  0.92385557  0.82518335  0.42114589  1
  O2-  O179  1  0.92737376  0.81578903  0.76767155  1
  O2-  O180  1  0.32209399  0.06830561  0.23364165  1
  O2-  O181  1  0.32262317  0.07020746  0.56845021  1
  O2-  O182  1  0.31808434  0.06983970  0.90325860  1
  O2-  O183  1  0.31949231  0.57445888  0.23569409  1
  O2-  O184  1  0.32250488  0.57138363  0.57706730  1
  O2-  O185  1  0.31877240  0.56862260  0.89802029  1
  O2-  O186  1  0.82101220  0.06774320  0.24082122  1
  O2-  O187  1  0.81838640  0.07332812  0.56618999  1
  O2-  O188  1  0.82147560  0.07091491  0.91168642  1
  O2-  O189  1  0.82196026  0.57461354  0.24729911  1
  O2-  O190  1  0.81822134  0.56769584  0.56510359  1
  O2-  O191  1  0.82364279  0.57151576  0.90303612  1
  O2-  O192  1  0.04081701  0.08528743  0.26377664  1
  O2-  O193  1  0.05440424  0.08302846  0.60638199  1
  O2-  O194  1  0.05000674  0.07643163  0.93260784  1
  O2-  O195  1  0.03919699  0.58362570  0.26473768  1
  O2-  O196  1  0.04709998  0.58503884  0.60351060  1
  O2-  O197  1  0.04829802  0.58532659  0.93822970  1
  O2-  O198  1  0.53843764  0.08474902  0.26376352  1
  O2-  O199  1  0.53977773  0.08616782  0.60607411  1
  O2-  O200  1  0.53965093  0.08800229  0.93619134  1
  O2-  O201  1  0.55223280  0.57898004  0.27731518  1
  O2-  O202  1  0.54100211  0.58639999  0.60038602  1
  O2-  O203  1  0.54134999  0.57968623  0.93178787  1
  O2-  O204  1  0.17063178  0.21071709  0.26902654  1
  O2-  O205  1  0.16628934  0.21075657  0.60359470  1
  O2-  O206  1  0.17144407  0.20911126  0.92786150  1
  O2-  O207  1  0.16312221  0.71245444  0.26351715  1
  O2-  O208  1  0.16878390  0.70278075  0.60407232  1
  O2-  O209  1  0.16097223  0.70891020  0.93482092  1
  O2-  O210  1  0.66735919  0.20859062  0.26448113  1
  O2-  O211  1  0.65851572  0.20601026  0.60358433  1
  O2-  O212  1  0.66367571  0.20274276  0.93638928  1
  O2-  O213  1  0.66558150  0.70365293  0.27056805  1
  O2-  O214  1  0.66230319  0.70405514  0.60133988  1
  O2-  O215  1  0.67172780  0.70666754  0.93671647  1
  O2-  O216  1  0.08559579  0.45074636  0.06015463  1
  O2-  O217  1  0.07842911  0.45754181  0.40046793  1
  O2-  O218  1  0.08809204  0.45870976  0.73068158  1
  O2-  O219  1  0.08068102  0.94934632  0.06519314  1
  O2-  O220  1  0.07967209  0.95289854  0.39265419  1
  O2-  O221  1  0.07943185  0.95072776  0.73425232  1
  O2-  O222  1  0.58108455  0.45469158  0.06898652  1
  O2-  O223  1  0.58475930  0.45504659  0.40732121  1
  O2-  O224  1  0.58190113  0.45497202  0.72693718  1
  O2-  O225  1  0.58399060  0.96281235  0.06915695  1
  O2-  O226  1  0.58913195  0.96152554  0.39507651  1
  O2-  O227  1  0.58348131  0.95896629  0.73629871  1
  O2-  O228  1  0.20786121  0.33533488  0.05862888  1
  O2-  O229  1  0.20854679  0.33357711  0.40572288  1
  O2-  O230  1  0.20818252  0.33993770  0.73256553  1
  O2-  O231  1  0.20204897  0.83365586  0.06401171  1
  O2-  O232  1  0.20190437  0.83638424  0.39467585  1
  O2-  O233  1  0.20812853  0.82901862  0.73574505  1
  O2-  O234  1  0.70673776  0.32753812  0.06639050  1
  O2-  O235  1  0.71175409  0.33021936  0.40321460  1
  O2-  O236  1  0.69688594  0.33267144  0.72590477  1
  O2-  O237  1  0.71101693  0.83520674  0.07263120  1
  O2-  O238  1  0.70204619  0.83602160  0.39432878  1
  O2-  O239  1  0.70500477  0.82806513  0.73182607  1
  O2-  O240  1  0.45443178  0.41928365  0.27592734  1
  O2-  O241  1  0.45692458  0.41338179  0.59886770  1
  O2-  O242  1  0.45712837  0.41265369  0.93757351  1
  O2-  O243  1  0.46674143  0.91295545  0.26414978  1
  O2-  O244  1  0.45792937  0.91319712  0.60595536  1
  O2-  O245  1  0.45969877  0.92135291  0.92973253  1
  O2-  O246  1  0.94629688  0.41834805  0.27385682  1
  O2-  O247  1  0.96281672  0.41609031  0.59539470  1
  O2-  O248  1  0.96020256  0.41842994  0.93057450  1
  O2-  O249  1  0.95075739  0.91560665  0.26632250  1
  O2-  O250  1  0.95604370  0.91947388  0.60073990  1
  O2-  O251  1  0.95545772  0.91068286  0.93723530  1
  O2-  O252  1  0.33478249  0.29997389  0.27311755  1
  O2-  O253  1  0.33388631  0.29885872  0.60438736  1
  O2-  O254  1  0.33985567  0.29263865  0.93626705  1
  O2-  O255  1  0.33216096  0.79612712  0.26623319  1
  O2-  O256  1  0.33810132  0.79071116  0.60382886  1
  O2-  O257  1  0.32932232  0.79485303  0.92863911  1
  O2-  O258  1  0.83638263  0.29054308  0.26945877  1
  O2-  O259  1  0.82938359  0.29324800  0.59766134  1
  O2-  O260  1  0.83005984  0.29343853  0.92997582  1
  O2-  O261  1  0.83042578  0.79813912  0.27027660  1
  O2-  O262  1  0.83343395  0.78756377  0.59781362  1
  O2-  O263  1  0.83546268  0.79248882  0.94081793  1
  O2-  O264  1  0.41591334  0.03981323  0.06909365  1
  O2-  O265  1  0.41718899  0.03437635  0.39963199  1
  O2-  O266  1  0.41747907  0.04238124  0.73668369  1
  O2-  O267  1  0.41510222  0.54064748  0.06690780  1
  O2-  O268  1  0.41869741  0.54901657  0.40445584  1
  O2-  O269  1  0.41384092  0.53984905  0.72818535  1
  O2-  O270  1  0.91763536  0.04388176  0.06160662  1
  O2-  O271  1  0.91403601  0.04297682  0.39333817  1
  O2-  O272  1  0.92238395  0.05349354  0.73153338  1
  O2-  O273  1  0.92240871  0.54164093  0.06899462  1
  O2-  O274  1  0.91559169  0.54954413  0.39859729  1
  O2-  O275  1  0.91876548  0.54036462  0.73098382  1
  O2-  O276  1  0.29123321  0.16852754  0.06856616  1
  O2-  O277  1  0.29650316  0.16753678  0.40068141  1
  O2-  O278  1  0.29625320  0.17257790  0.73386016  1
  O2-  O279  1  0.28919517  0.66964495  0.06314018  1
  O2-  O280  1  0.28839749  0.67338059  0.40131574  1
  O2-  O281  1  0.29662565  0.66241465  0.73018310  1
  O2-  O282  1  0.79949355  0.16595604  0.06223755  1
  O2-  O283  1  0.79287435  0.16061570  0.39324138  1
  O2-  O284  1  0.78688343  0.16995854  0.73421803  1
  O2-  O285  1  0.79763456  0.66871773  0.07281136  1
  O2-  O286  1  0.79458957  0.66769065  0.39811271  1
  O2-  O287  1  0.78912224  0.66360731  0.73225580  1
