# generated using pymatgen
data_Ca2Al2SiO7
_symmetry_space_group_name_H-M   'P 1'
_cell_length_a   15.46532014
_cell_length_b   15.46767367
_cell_length_c   15.28998004
_cell_angle_alpha   90.01486486
_cell_angle_beta   90.01277832
_cell_angle_gamma   89.98599057
_symmetry_Int_Tables_number   1
_chemical_formula_structural   Ca2Al2SiO7
_chemical_formula_sum   'Ca48 Al48 Si24 O168'
_cell_volume   3657.55441181
_cell_formula_units_Z   24
loop_
 _symmetry_equiv_pos_site_id
 _symmetry_equiv_pos_as_xyz
  1  'x, y, z'
loop_
 _atom_type_symbol
 _atom_type_oxidation_number
  Ca2+  2.0
  Al0+  0.0
  Si0+  0.0
  O2-  -2.0
loop_
 _atom_site_type_symbol
 _atom_site_label
 _atom_site_symmetry_multiplicity
 _atom_site_fract_x
 _atom_site_fract_y
 _atom_site_fract_z
 _atom_site_occupancy
  Ca2+  Ca0  1  0.16189831  0.08905292  0.17036957  1
  Ca2+  Ca1  1  0.16586414  0.09191783  0.50360272  1
  Ca2+  Ca2  1  0.16047290  0.08836306  0.83857864  1
  Ca2+  Ca3  1  0.16775899  0.57012888  0.16981015  1
  Ca2+  Ca4  1  0.16285732  0.57059363  0.50149274  1
  Ca2+  Ca5  1  0.17241746  0.56914184  0.84308654  1
  Ca2+  Ca6  1  0.66776911  0.07981759  0.16714692  1
  Ca2+  Ca7  1  0.66385654  0.08009753  0.50415826  1
  Ca2+  Ca8  1  0.66947860  0.08231947  0.84468707  1
  Ca2+  Ca9  1  0.67627848  0.57701590  0.16973158  1
  Ca2+  Ca10  1  0.66260160  0.57004260  0.50426191  1
  Ca2+  Ca11  1  0.66801372  0.57699435  0.83614050  1
  Ca2+  Ca12  1  0.07840423  0.32986284  0.16045869  1
  Ca2+  Ca13  1  0.07680555  0.33435938  0.49146126  1
  Ca2+  Ca14  1  0.07505773  0.33456304  0.83000349  1
  Ca2+  Ca15  1  0.07757673  0.82360627  0.16145516  1
  Ca2+  Ca16  1  0.08331588  0.82257513  0.49136385  1
  Ca2+  Ca17  1  0.07326531  0.83371070  0.83408509  1
  Ca2+  Ca18  1  0.57391828  0.33773933  0.15993796  1
  Ca2+  Ca19  1  0.58459652  0.33224396  0.49301321  1
  Ca2+  Ca20  1  0.58653700  0.32458638  0.82731613  1
  Ca2+  Ca21  1  0.58409118  0.84019818  0.16360039  1
  Ca2+  Ca22  1  0.58071939  0.82699492  0.49290947  1
  Ca2+  Ca23  1  0.58754900  0.82594250  0.82994744  1
  Ca2+  Ca24  1  0.32477220  0.40775419  0.16922139  1
  Ca2+  Ca25  1  0.32052926  0.40534679  0.50210028  1
  Ca2+  Ca26  1  0.32251260  0.41293309  0.84235276  1
  Ca2+  Ca27  1  0.33488561  0.92045798  0.17397858  1
  Ca2+  Ca28  1  0.33476172  0.91707428  0.50030269  1
  Ca2+  Ca29  1  0.32995261  0.92077035  0.83854611  1
  Ca2+  Ca30  1  0.83565516  0.41500685  0.17075320  1
  Ca2+  Ca31  1  0.82706401  0.40693498  0.50249613  1
  Ca2+  Ca32  1  0.83214596  0.41468766  0.83830359  1
  Ca2+  Ca33  1  0.82798458  0.92214455  0.16575630  1
  Ca2+  Ca34  1  0.82916756  0.91966338  0.50125641  1
  Ca2+  Ca35  1  0.82853915  0.92614920  0.84969879  1
  Ca2+  Ca36  1  0.42226275  0.18032963  0.16135894  1
  Ca2+  Ca37  1  0.42385092  0.17362725  0.49629628  1
  Ca2+  Ca38  1  0.42790183  0.17202985  0.83642472  1
  Ca2+  Ca39  1  0.41395341  0.67096924  0.16287691  1
  Ca2+  Ca40  1  0.42175727  0.66979231  0.49503453  1
  Ca2+  Ca41  1  0.42019250  0.66262225  0.83124472  1
  Ca2+  Ca42  1  0.92158043  0.17685341  0.15891229  1
  Ca2+  Ca43  1  0.92690936  0.17987271  0.49665539  1
  Ca2+  Ca44  1  0.92130668  0.17576798  0.83115784  1
  Ca2+  Ca45  1  0.91945846  0.66565255  0.15967340  1
  Ca2+  Ca46  1  0.92355547  0.66577321  0.49357158  1
  Ca2+  Ca47  1  0.90317118  0.67345679  0.83604454  1
  Al0+  Al48  1  -0.00187330  -0.00222963  -0.00135308  1
  Al0+  Al49  1  0.00046909  -0.00176183  0.33438284  1
  Al0+  Al50  1  -0.00074226  0.00035383  0.66251122  1
  Al0+  Al51  1  0.00168459  0.49965643  0.00311029  1
  Al0+  Al52  1  0.00220860  0.50102453  0.32982900  1
  Al0+  Al53  1  -0.00139770  0.50339761  0.66870907  1
  Al0+  Al54  1  0.49691603  -0.00094982  -0.00085656  1
  Al0+  Al55  1  0.49967644  -0.00113304  0.33612350  1
  Al0+  Al56  1  0.49783217  0.00033406  0.66445999  1
  Al0+  Al57  1  0.49751014  0.50374039  -0.00090067  1
  Al0+  Al58  1  0.50146812  0.50208388  0.33240460  1
  Al0+  Al59  1  0.50012500  0.50100534  0.66609981  1
  Al0+  Al60  1  0.25185956  0.24771060  -0.00296270  1
  Al0+  Al61  1  0.25316225  0.24887161  0.33275397  1
  Al0+  Al62  1  0.25191662  0.24785945  0.67233849  1
  Al0+  Al63  1  0.25004693  0.74980632  0.00113249  1
  Al0+  Al64  1  0.25144754  0.75049750  0.32616660  1
  Al0+  Al65  1  0.24841372  0.75268645  0.66851397  1
  Al0+  Al66  1  0.75062176  0.24850114  -0.00101725  1
  Al0+  Al67  1  0.75287410  0.24789922  0.33463203  1
  Al0+  Al68  1  0.75074259  0.24793590  0.66262590  1
  Al0+  Al69  1  0.74874476  0.74868179  0.00474645  1
  Al0+  Al70  1  0.74997362  0.75091610  0.33937678  1
  Al0+  Al71  1  0.74706914  0.74991717  0.65883769  1
  Al0+  Al72  1  0.67977285  0.42759064  0.67973853  1
  Al0+  Al73  1  0.93001072  0.32461568  0.65096455  1
  Al0+  Al74  1  0.18118814  0.42604226  0.01683822  1
  Al0+  Al75  1  0.17826912  0.42877689  0.68075387  1
  Al0+  Al76  1  0.57076891  0.17873015  0.98740766  1
  Al0+  Al77  1  0.07066642  0.17791700  0.98518436  1
  Al0+  Al78  1  0.92845449  0.32111912  0.31703492  1
  Al0+  Al79  1  0.43175781  0.32224750  0.32148849  1
  Al0+  Al80  1  0.67710930  0.92883693  0.01369874  1
  Al0+  Al81  1  0.07238995  0.17920881  0.65140386  1
  Al0+  Al82  1  0.07098741  0.67900243  0.31872141  1
  Al0+  Al83  1  0.67946579  0.42877775  0.34511158  1
  Al0+  Al84  1  0.42968221  0.32438467  0.98380940  1
  Al0+  Al85  1  0.43174190  0.82061054  0.31909332  1
  Al0+  Al86  1  0.81991115  0.56951994  0.01226726  1
  Al0+  Al87  1  0.07275352  0.17842644  0.31922643  1
  Al0+  Al88  1  0.57020591  0.67808061  0.65166876  1
  Al0+  Al89  1  0.57134695  0.17852803  0.65218305  1
  Al0+  Al90  1  0.92782626  0.81755638  0.98809157  1
  Al0+  Al91  1  0.18168605  0.42883543  0.34768035  1
  Al0+  Al92  1  0.92868693  0.32431609  0.98432079  1
  Al0+  Al93  1  0.67860589  0.93065805  0.35023220  1
  Al0+  Al94  1  0.82247140  0.07320865  0.01572842  1
  Al0+  Al95  1  0.32259114  0.57290840  0.01620555  1
  Si0+  Si96  1  0.67698173  0.42671936  0.01375589  1
  Si0+  Si97  1  0.32200575  0.06947991  0.68387373  1
  Si0+  Si98  1  0.42907131  0.32203173  0.65105589  1
  Si0+  Si99  1  0.82091252  0.57530811  0.68187545  1
  Si0+  Si100  1  0.17748537  0.92856753  0.68202383  1
  Si0+  Si101  1  0.42632957  0.82184289  0.65065046  1
  Si0+  Si102  1  0.32207834  0.57483605  0.35063783  1
  Si0+  Si103  1  0.92614817  0.82169587  0.31698592  1
  Si0+  Si104  1  0.82071034  0.06789821  0.68128497  1
  Si0+  Si105  1  0.67761692  0.92863932  0.68084826  1
  Si0+  Si106  1  0.32087000  0.57481190  0.68141190  1
  Si0+  Si107  1  0.57121701  0.68051073  0.98588466  1
  Si0+  Si108  1  0.17745631  0.92830748  0.01550152  1
  Si0+  Si109  1  0.82476196  0.07113319  0.35381513  1
  Si0+  Si110  1  0.07300935  0.67854136  0.98148404  1
  Si0+  Si111  1  0.82343639  0.57203093  0.35050772  1
  Si0+  Si112  1  0.92768977  0.82161521  0.65081765  1
  Si0+  Si113  1  0.57290207  0.17706529  0.31853765  1
  Si0+  Si114  1  0.42690225  0.82140039  0.98375065  1
  Si0+  Si115  1  0.07205766  0.68180750  0.65330975  1
  Si0+  Si116  1  0.32016953  0.06845913  0.01594858  1
  Si0+  Si117  1  0.57383775  0.67846435  0.31442791  1
  Si0+  Si118  1  0.32050657  0.06982499  0.34987209  1
  Si0+  Si119  1  0.17943483  0.92702113  0.34779521  1
  O2-  O120  1  0.24522065  0.00160401  0.05821410  1
  O2-  O121  1  0.24603695  0.00131772  0.39176284  1
  O2-  O122  1  0.24600306  0.00185616  0.72409272  1
  O2-  O123  1  0.25509576  0.49739611  0.06599211  1
  O2-  O124  1  0.25714212  0.50334182  0.39593222  1
  O2-  O125  1  0.25483517  0.50371277  0.72482548  1
  O2-  O126  1  0.74651705  0.00322751  0.06334388  1
  O2-  O127  1  0.75297876  0.00471573  0.39848758  1
  O2-  O128  1  0.74780267  -0.00141622  0.72427315  1
  O2-  O129  1  0.75055503  0.48999124  0.05843180  1
  O2-  O130  1  0.75590155  0.50183380  0.39363285  1
  O2-  O131  1  0.75590228  0.50234926  0.72441369  1
  O2-  O132  1  0.00136438  0.24941981  0.26878209  1
  O2-  O133  1  0.00777154  0.25761423  0.60212152  1
  O2-  O134  1  0.00088015  0.25167249  0.93523895  1
  O2-  O135  1  -0.00698530  0.75125543  0.27383262  1
  O2-  O136  1  -0.00137442  0.75016484  0.60992952  1
  O2-  O137  1  0.00041172  0.74302767  0.93635626  1
  O2-  O138  1  0.51198510  0.25283743  0.27562683  1
  O2-  O139  1  0.50136508  0.25761083  0.60577072  1
  O2-  O140  1  0.50681322  0.25700757  0.93499732  1
  O2-  O141  1  0.50701152  0.74866444  0.26978491  1
  O2-  O142  1  0.49346501  0.75200516  0.60702210  1
  O2-  O143  1  0.49806933  0.75029728  0.94335877  1
  O2-  O144  1  0.06976770  0.17734082  0.09850562  1
  O2-  O145  1  0.07222687  0.18022079  0.43292353  1
  O2-  O146  1  0.06712846  0.17398921  0.76392277  1
  O2-  O147  1  0.07385484  0.68319651  0.08695540  1
  O2-  O148  1  0.07029743  0.68161773  0.43297518  1
  O2-  O149  1  0.07518373  0.68620021  0.75776166  1
  O2-  O150  1  0.56560311  0.17570649  0.10089786  1
  O2-  O151  1  0.56826754  0.17564548  0.42460915  1
  O2-  O152  1  0.56902837  0.17431684  0.76463819  1
  O2-  O153  1  0.57213707  0.68201337  0.09071339  1
  O2-  O154  1  0.57098291  0.67938287  0.42028589  1
  O2-  O155  1  0.57184435  0.68168248  0.76490794  1
  O2-  O156  1  0.18256612  0.42803013  0.23560569  1
  O2-  O157  1  0.17925676  0.43024528  0.56728695  1
  O2-  O158  1  0.18123549  0.42896004  0.90271257  1
  O2-  O159  1  0.18145242  0.92619487  0.24289274  1
  O2-  O160  1  0.17967436  0.92351037  0.57709419  1
  O2-  O161  1  0.18024222  0.92609631  0.90982971  1
  O2-  O162  1  0.67728669  0.43279890  0.23224057  1
  O2-  O163  1  0.67884567  0.42955012  0.56651989  1
  O2-  O164  1  0.67584080  0.43011163  0.90793326  1
  O2-  O165  1  0.67786352  0.93253435  0.23773553  1
  O2-  O166  1  0.67901247  0.92939949  0.57571521  1
  O2-  O167  1  0.67844167  0.92719472  0.89930372  1
  O2-  O168  1  0.43032960  0.32101495  0.09764509  1
  O2-  O169  1  0.42973052  0.31752218  0.43488887  1
  O2-  O170  1  0.42941095  0.31938905  0.75626637  1
  O2-  O171  1  0.42559297  0.82301666  0.08853748  1
  O2-  O172  1  0.43102448  0.81910394  0.43260798  1
  O2-  O173  1  0.42512430  0.82306355  0.75621299  1
  O2-  O174  1  0.92973902  0.32409147  0.09751946  1
  O2-  O175  1  0.92878356  0.32079292  0.43080364  1
  O2-  O176  1  0.92853727  0.32298515  0.76402289  1
  O2-  O177  1  0.93051396  0.81592377  0.10085312  1
  O2-  O178  1  0.92869275  0.82126911  0.42351146  1
  O2-  O179  1  0.92653106  0.82216885  0.75572449  1
  O2-  O180  1  0.32275175  0.06726922  0.24494716  1
  O2-  O181  1  0.32460157  0.06684335  0.57870115  1
  O2-  O182  1  0.32272484  0.06343096  0.91065077  1
  O2-  O183  1  0.31908470  0.57738579  0.24565874  1
  O2-  O184  1  0.31785396  0.58007646  0.57603844  1
  O2-  O185  1  0.31873235  0.57723690  0.90214005  1
  O2-  O186  1  0.82620954  0.06888773  0.24881807  1
  O2-  O187  1  0.82086108  0.06308517  0.57619615  1
  O2-  O188  1  0.82307063  0.06893528  0.90136648  1
  O2-  O189  1  0.82084936  0.57509476  0.24502753  1
  O2-  O190  1  0.82057188  0.58019313  0.57655415  1
  O2-  O191  1  0.81285083  0.57460821  0.89921966  1
  O2-  O192  1  0.04863137  0.07652058  0.27109488  1
  O2-  O193  1  0.04141596  0.08094971  0.59689685  1
  O2-  O194  1  0.04351866  0.07813079  0.93346574  1
  O2-  O195  1  0.04264028  0.58396563  0.26271166  1
  O2-  O196  1  0.04537545  0.59027867  0.60566998  1
  O2-  O197  1  0.05145936  0.58371386  0.93868880  1
  O2-  O198  1  0.53836616  0.08647156  0.27331561  1
  O2-  O199  1  0.53467119  0.08329269  0.59724556  1
  O2-  O200  1  0.53371989  0.08252350  0.93288755  1
  O2-  O201  1  0.54769532  0.58624560  0.26740506  1
  O2-  O202  1  0.53948466  0.58227943  0.59598154  1
  O2-  O203  1  0.54435532  0.58981301  0.93584693  1
  O2-  O204  1  0.17283734  0.20229112  0.26888282  1
  O2-  O205  1  0.17599155  0.19803746  0.60555970  1
  O2-  O206  1  0.17131756  0.19975020  0.93410691  1
  O2-  O207  1  0.16456911  0.71469728  0.26365906  1
  O2-  O208  1  0.16184880  0.71403604  0.60372560  1
  O2-  O209  1  0.16448342  0.71093789  0.93459278  1
  O2-  O210  1  0.66977520  0.19216978  0.27772015  1
  O2-  O211  1  0.66830705  0.20301822  0.59700654  1
  O2-  O212  1  0.67093129  0.19833155  0.93529832  1
  O2-  O213  1  0.66911719  0.70385917  0.27273987  1
  O2-  O214  1  0.66391622  0.71117606  0.59310336  1
  O2-  O215  1  0.66088827  0.71131198  0.93665881  1
  O2-  O216  1  0.08369498  0.45739558  0.06905109  1
  O2-  O217  1  0.08511375  0.46393588  0.40021051  1
  O2-  O218  1  0.08242837  0.46331227  0.73397999  1
  O2-  O219  1  0.08508902  0.95133093  0.06258185  1
  O2-  O220  1  0.08594303  0.94733893  0.39584842  1
  O2-  O221  1  0.08402351  0.95405475  0.72755280  1
  O2-  O222  1  0.58521606  0.45943254  0.05923024  1
  O2-  O223  1  0.58360064  0.46238356  0.40092508  1
  O2-  O224  1  0.58292997  0.46041859  0.73300308  1
  O2-  O225  1  0.57686521  0.95429251  0.06453913  1
  O2-  O226  1  0.58169660  0.96055834  0.40541325  1
  O2-  O227  1  0.58384007  0.95340719  0.72551930  1
  O2-  O228  1  0.21109019  0.32692668  0.06732215  1
  O2-  O229  1  0.21508578  0.33227252  0.40156380  1
  O2-  O230  1  0.20947961  0.33235905  0.73459003  1
  O2-  O231  1  0.20892627  0.83808878  0.06327743  1
  O2-  O232  1  0.21320285  0.83710900  0.39637648  1
  O2-  O233  1  0.20768854  0.83913971  0.73360638  1
  O2-  O234  1  0.69442272  0.33136177  0.05793645  1
  O2-  O235  1  0.70647979  0.33021003  0.39840517  1
  O2-  O236  1  0.70877885  0.32943430  0.73148611  1
  O2-  O237  1  0.70763617  0.83255793  0.06875907  1
  O2-  O238  1  0.70859521  0.83345793  0.40548817  1
  O2-  O239  1  0.70556638  0.83536249  0.72482094  1
  O2-  O240  1  0.45636907  0.42046977  0.26847447  1
  O2-  O241  1  0.44709932  0.41758344  0.60693458  1
  O2-  O242  1  0.44875176  0.42584782  0.93340910  1
  O2-  O243  1  0.46088597  0.91808600  0.26614292  1
  O2-  O244  1  0.45343603  0.91399535  0.60291695  1
  O2-  O245  1  0.45404815  0.91190990  0.93374620  1
  O2-  O246  1  0.95421432  0.42074460  0.26732089  1
  O2-  O247  1  0.95073985  0.42661769  0.60106553  1
  O2-  O248  1  0.95658608  0.42352306  0.93173920  1
  O2-  O249  1  0.95419763  0.91412850  0.27176439  1
  O2-  O250  1  0.95759358  0.91128352  0.60100885  1
  O2-  O251  1  0.96097235  0.91190557  0.93121407  1
  O2-  O252  1  0.33891874  0.28367312  0.26648839  1
  O2-  O253  1  0.33727943  0.28871566  0.60570051  1
  O2-  O254  1  0.33506449  0.28687270  0.92982072  1
  O2-  O255  1  0.33595257  0.79229290  0.26303049  1
  O2-  O256  1  0.33171975  0.79846179  0.60464640  1
  O2-  O257  1  0.33522135  0.79386343  0.93499244  1
  O2-  O258  1  0.82965193  0.29204390  0.26503522  1
  O2-  O259  1  0.83423137  0.28834681  0.59734531  1
  O2-  O260  1  0.82910057  0.29735065  0.93320266  1
  O2-  O261  1  0.83118866  0.79854713  0.27406706  1
  O2-  O262  1  0.83672810  0.79459690  0.60120537  1
  O2-  O263  1  0.83104328  0.78655803  0.93358692  1
  O2-  O264  1  0.40852313  0.03445754  0.06570418  1
  O2-  O265  1  0.40976799  0.03728850  0.40011494  1
  O2-  O266  1  0.41103159  0.03453679  0.73305293  1
  O2-  O267  1  0.42364475  0.55423390  0.06775423  1
  O2-  O268  1  0.41794871  0.55390936  0.39387057  1
  O2-  O269  1  0.41587955  0.55257842  0.72564291  1
  O2-  O270  1  0.91814085  0.03647413  0.06910768  1
  O2-  O271  1  0.91654776  0.03978867  0.40202952  1
  O2-  O272  1  0.91194272  0.03659601  0.72785723  1
  O2-  O273  1  0.91881073  0.54780856  0.06506757  1
  O2-  O274  1  0.91824644  0.54941805  0.39497110  1
  O2-  O275  1  0.91600987  0.55847327  0.72809044  1
  O2-  O276  1  0.29725307  0.16114803  0.06244494  1
  O2-  O277  1  0.29528973  0.16091675  0.39961435  1
  O2-  O278  1  0.29979530  0.16091263  0.73366362  1
  O2-  O279  1  0.29172858  0.67138500  0.06911961  1
  O2-  O280  1  0.29336441  0.66832528  0.39657568  1
  O2-  O281  1  0.29412862  0.66820061  0.72919607  1
  O2-  O282  1  0.79654599  0.17161416  0.06926936  1
  O2-  O283  1  0.80118561  0.16493556  0.40008020  1
  O2-  O284  1  0.79431452  0.16034861  0.72627439  1
  O2-  O285  1  0.78457149  0.66269435  0.07036273  1
  O2-  O286  1  0.79838577  0.66540727  0.39853255  1
  O2-  O287  1  0.78859044  0.66809790  0.72768029  1
