# generated using pymatgen
data_Ca2Al2SiO7
_symmetry_space_group_name_H-M   'P 1'
_cell_length_a   15.46419419
_cell_length_b   15.46535794
_cell_length_c   15.28823661
_cell_angle_alpha   90.01440496
_cell_angle_beta   90.00515095
_cell_angle_gamma   90.02657006
_symmetry_Int_Tables_number   1
_chemical_formula_structural   Ca2Al2SiO7
_chemical_formula_sum   'Ca48 Al48 Si24 O168'
_cell_volume   3656.32341834
_cell_formula_units_Z   24
loop_
 _symmetry_equiv_pos_site_id
 _symmetry_equiv_pos_as_xyz
  1  'x, y, z'
loop_
 _atom_type_symbol
 _atom_type_oxidation_number
  Ca2+  2.0
  Al0+  0.0
  Si0+  0.0
  O2-  -2.0
loop_
 _atom_site_type_symbol
 _atom_site_label
 _atom_site_symmetry_multiplicity
 _atom_site_fract_x
 _atom_site_fract_y
 _atom_site_fract_z
 _atom_site_occupancy
  Ca2+  Ca0  1  0.17470045  0.07396206  0.16919961  1
  Ca2+  Ca1  1  0.17057840  0.07305543  0.51103946  1
  Ca2+  Ca2  1  0.17783086  0.08219936  0.83814300  1
  Ca2+  Ca3  1  0.16985372  0.58130208  0.16596506  1
  Ca2+  Ca4  1  0.16516233  0.58417336  0.49942324  1
  Ca2+  Ca5  1  0.17613920  0.57350601  0.84351845  1
  Ca2+  Ca6  1  0.67128873  0.09126717  0.17433649  1
  Ca2+  Ca7  1  0.66652626  0.07997096  0.49623615  1
  Ca2+  Ca8  1  0.66789149  0.08173590  0.83796661  1
  Ca2+  Ca9  1  0.66793247  0.57022005  0.16739294  1
  Ca2+  Ca10  1  0.66210082  0.56966182  0.50393044  1
  Ca2+  Ca11  1  0.66726672  0.57108136  0.84097118  1
  Ca2+  Ca12  1  0.07466396  0.33709422  0.16129078  1
  Ca2+  Ca13  1  0.07715420  0.32086612  0.49439696  1
  Ca2+  Ca14  1  0.08615221  0.32615181  0.82667690  1
  Ca2+  Ca15  1  0.09092433  0.83221404  0.16422197  1
  Ca2+  Ca16  1  0.09175475  0.82965096  0.49119683  1
  Ca2+  Ca17  1  0.08776449  0.83824857  0.83022797  1
  Ca2+  Ca18  1  0.58521462  0.32560570  0.15871703  1
  Ca2+  Ca19  1  0.58304106  0.33041119  0.49463251  1
  Ca2+  Ca20  1  0.57732428  0.33226218  0.83237871  1
  Ca2+  Ca21  1  0.57765222  0.83984652  0.16538374  1
  Ca2+  Ca22  1  0.57360766  0.84803285  0.49560065  1
  Ca2+  Ca23  1  0.57768535  0.83245424  0.82286040  1
  Ca2+  Ca24  1  0.33484460  0.41729099  0.16273117  1
  Ca2+  Ca25  1  0.33809797  0.41952182  0.50738009  1
  Ca2+  Ca26  1  0.33369580  0.41613504  0.84582352  1
  Ca2+  Ca27  1  0.32953368  0.91880005  0.17088504  1
  Ca2+  Ca28  1  0.33031816  0.92000738  0.50680436  1
  Ca2+  Ca29  1  0.32773010  0.92699592  0.83553757  1
  Ca2+  Ca30  1  0.82215005  0.41148317  0.17215725  1
  Ca2+  Ca31  1  0.82293138  0.40847918  0.49985819  1
  Ca2+  Ca32  1  0.82035360  0.41905052  0.84148639  1
  Ca2+  Ca33  1  0.82438729  0.93161048  0.17385980  1
  Ca2+  Ca34  1  0.82281216  0.92013698  0.50248457  1
  Ca2+  Ca35  1  0.82700846  0.92202651  0.83893310  1
  Ca2+  Ca36  1  0.43061059  0.16709517  0.15644077  1
  Ca2+  Ca37  1  0.42069442  0.16824747  0.49804218  1
  Ca2+  Ca38  1  0.41108144  0.17475078  0.83038707  1
  Ca2+  Ca39  1  0.41362611  0.67193115  0.16400602  1
  Ca2+  Ca40  1  0.41766567  0.68222110  0.49538801  1
  Ca2+  Ca41  1  0.41327970  0.67175722  0.82948320  1
  Ca2+  Ca42  1  0.90897486  0.16799428  0.16428925  1
  Ca2+  Ca43  1  0.91878531  0.16627603  0.49414899  1
  Ca2+  Ca44  1  0.92405910  0.16175805  0.83151491  1
  Ca2+  Ca45  1  0.92039121  0.66527122  0.16106554  1
  Ca2+  Ca46  1  0.92486104  0.67070016  0.49074852  1
  Ca2+  Ca47  1  0.91574792  0.66553537  0.83170672  1
  Al0+  Al48  1  -0.00286010  -0.00152431  0.00692921  1
  Al0+  Al49  1  0.00111899  -0.00122994  0.34009844  1
  Al0+  Al50  1  -0.00095011  -0.00225052  0.66401722  1
  Al0+  Al51  1  0.00046503  0.50153059  0.00121481  1
  Al0+  Al52  1  0.00092989  0.49978869  0.32568498  1
  Al0+  Al53  1  0.00002900  0.50084125  0.66442020  1
  Al0+  Al54  1  0.49894906  -0.00117462  -0.00428789  1
  Al0+  Al55  1  0.49921406  0.00259908  0.32662513  1
  Al0+  Al56  1  0.50025991  0.00183511  0.67080663  1
  Al0+  Al57  1  0.50013330  0.50147842  0.00523508  1
  Al0+  Al58  1  0.49884840  0.50283408  0.33799130  1
  Al0+  Al59  1  0.50068025  0.50056761  0.66723807  1
  Al0+  Al60  1  0.24919035  0.24836713  0.00737720  1
  Al0+  Al61  1  0.24900797  0.25127988  0.33296832  1
  Al0+  Al62  1  0.24921968  0.25009898  0.65820393  1
  Al0+  Al63  1  0.24882612  0.74733493  0.00311786  1
  Al0+  Al64  1  0.25140322  0.74931302  0.32795700  1
  Al0+  Al65  1  0.25062631  0.74954514  0.66574424  1
  Al0+  Al66  1  0.75026881  0.24896437  -0.00097865  1
  Al0+  Al67  1  0.75021548  0.25083470  0.33605769  1
  Al0+  Al68  1  0.74955475  0.25086871  0.67243682  1
  Al0+  Al69  1  0.75057740  0.74997199  0.00149825  1
  Al0+  Al70  1  0.74949947  0.74871289  0.33569633  1
  Al0+  Al71  1  0.75128143  0.74850155  0.66794595  1
  Al0+  Al72  1  0.81903775  0.06981748  0.01232780  1
  Al0+  Al73  1  0.67983607  0.42880156  0.01582076  1
  Al0+  Al74  1  0.82104742  0.07227600  0.35019237  1
  Al0+  Al75  1  0.67901517  0.43050806  0.34816619  1
  Al0+  Al76  1  0.07047917  0.17734726  0.65382438  1
  Al0+  Al77  1  0.82144118  0.57319150  0.01484055  1
  Al0+  Al78  1  0.32202198  0.57083985  0.01565022  1
  Al0+  Al79  1  0.67835940  0.42886153  0.68234814  1
  Al0+  Al80  1  0.17861970  0.92670181  0.68112316  1
  Al0+  Al81  1  0.57342760  0.17733975  0.98196001  1
  Al0+  Al82  1  0.07027225  0.68066668  0.31681560  1
  Al0+  Al83  1  0.18256112  0.92843620  0.34760892  1
  Al0+  Al84  1  0.93077150  0.31751514  0.31979167  1
  Al0+  Al85  1  0.32359077  0.07176006  0.01667681  1
  Al0+  Al86  1  0.43195401  0.82085885  0.31860930  1
  Al0+  Al87  1  0.67636148  0.92819929  0.34664282  1
  Al0+  Al88  1  0.17805740  0.42591922  0.01439649  1
  Al0+  Al89  1  0.17897772  0.92939619  0.01507322  1
  Al0+  Al90  1  0.42962187  0.32208923  0.65315524  1
  Al0+  Al91  1  0.67901349  0.92883209  0.68053703  1
  Al0+  Al92  1  0.42901294  0.32047468  0.98705195  1
  Al0+  Al93  1  0.32091709  0.07417230  0.68068428  1
  Al0+  Al94  1  0.56817356  0.18286440  0.32138812  1
  Al0+  Al95  1  0.43047749  0.82143283  0.65402429  1
  Si0+  Si96  1  0.42566621  0.32661160  0.31701255  1
  Si0+  Si97  1  0.17664527  0.42927042  0.34974746  1
  Si0+  Si98  1  0.31929755  0.57034255  0.35086235  1
  Si0+  Si99  1  0.82259490  0.07146985  0.68397648  1
  Si0+  Si100  1  0.57183106  0.68082658  0.98549604  1
  Si0+  Si101  1  0.92958986  0.82041849  0.98470406  1
  Si0+  Si102  1  0.92817441  0.32266118  0.65168583  1
  Si0+  Si103  1  0.07068371  0.67924155  0.65223033  1
  Si0+  Si104  1  0.67674575  0.92676934  0.01408655  1
  Si0+  Si105  1  0.57443537  0.17888428  0.64952948  1
  Si0+  Si106  1  0.32004073  0.57053028  0.67951675  1
  Si0+  Si107  1  0.57285933  0.67490374  0.31651830  1
  Si0+  Si108  1  0.06867975  0.17721497  0.98811644  1
  Si0+  Si109  1  0.92917986  0.32258805  0.98383009  1
  Si0+  Si110  1  0.07363913  0.17473517  0.31510187  1
  Si0+  Si111  1  0.32228546  0.07383587  0.35000017  1
  Si0+  Si112  1  0.82488701  0.57119242  0.35017322  1
  Si0+  Si113  1  0.07155847  0.67851370  0.98157707  1
  Si0+  Si114  1  0.57370036  0.67834397  0.65005197  1
  Si0+  Si115  1  0.17814058  0.42964152  0.67751468  1
  Si0+  Si116  1  0.42639728  0.81958987  0.98297079  1
  Si0+  Si117  1  0.92671710  0.82019720  0.65096839  1
  Si0+  Si118  1  0.92571391  0.82321142  0.31606894  1
  Si0+  Si119  1  0.82432818  0.57128616  0.68197554  1
  O2-  O120  1  0.25362127  -0.00261103  0.06585274  1
  O2-  O121  1  0.25172938  0.00745605  0.39482215  1
  O2-  O122  1  0.24782465  0.00176629  0.72925560  1
  O2-  O123  1  0.25187032  0.49630175  0.06438800  1
  O2-  O124  1  0.25135416  0.49605638  0.39340440  1
  O2-  O125  1  0.25265896  0.49591381  0.72082392  1
  O2-  O126  1  0.73773649  0.00205494  0.05746618  1
  O2-  O127  1  0.75110657  -0.00316090  0.39769944  1
  O2-  O128  1  0.75308663  0.00355753  0.72781065  1
  O2-  O129  1  0.75454003  0.49823213  0.06590135  1
  O2-  O130  1  0.75355662  0.50615076  0.39556592  1
  O2-  O131  1  0.75490815  0.50363764  0.72550920  1
  O2-  O132  1  0.00378875  0.24208498  0.27083451  1
  O2-  O133  1  -0.00605973  0.25120800  0.60793762  1
  O2-  O134  1  0.00215306  0.25236871  0.94339825  1
  O2-  O135  1  -0.00505667  0.75532518  0.27083795  1
  O2-  O136  1  0.00140586  0.75187642  0.61016094  1
  O2-  O137  1  0.00049531  0.74981692  0.93981881  1
  O2-  O138  1  0.49326563  0.25719633  0.27455298  1
  O2-  O139  1  0.50493824  0.24800021  0.60671145  1
  O2-  O140  1  0.49868417  0.24805180  0.93371111  1
  O2-  O141  1  0.51084531  0.74963976  0.27254889  1
  O2-  O142  1  0.50953504  0.75119266  0.60598676  1
  O2-  O143  1  0.50059909  0.75098079  0.94173275  1
  O2-  O144  1  0.06471329  0.17668126  0.09296982  1
  O2-  O145  1  0.07461115  0.17838685  0.42090845  1
  O2-  O146  1  0.06997806  0.18019061  0.76755984  1
  O2-  O147  1  0.07199257  0.67883223  0.08632879  1
  O2-  O148  1  0.06991601  0.68042701  0.43097700  1
  O2-  O149  1  0.06938853  0.67554449  0.75694888  1
  O2-  O150  1  0.57481640  0.18005756  0.09564906  1
  O2-  O151  1  0.56646377  0.18296139  0.43494182  1
  O2-  O152  1  0.57685171  0.18047657  0.75466322  1
  O2-  O153  1  0.57300237  0.68379982  0.09042131  1
  O2-  O154  1  0.56748263  0.66903861  0.42193225  1
  O2-  O155  1  0.57195967  0.67763129  0.75588818  1
  O2-  O156  1  0.17613016  0.43081380  0.24515418  1
  O2-  O157  1  0.17584085  0.43398332  0.57235316  1
  O2-  O158  1  0.17646169  0.42870600  0.89976127  1
  O2-  O159  1  0.18517235  0.92815969  0.23487064  1
  O2-  O160  1  0.18207589  0.92434884  0.56761869  1
  O2-  O161  1  0.17862342  0.93154993  0.90146277  1
  O2-  O162  1  0.67935177  0.43120040  0.23577325  1
  O2-  O163  1  0.67959569  0.42946577  0.56900457  1
  O2-  O164  1  0.68016811  0.43160237  0.90197925  1
  O2-  O165  1  0.67746462  0.92966270  0.23309968  1
  O2-  O166  1  0.68080040  0.92935783  0.56787987  1
  O2-  O167  1  0.68202374  0.92256436  0.90832410  1
  O2-  O168  1  0.43164753  0.32055445  0.10059276  1
  O2-  O169  1  0.42630121  0.32721869  0.42299214  1
  O2-  O170  1  0.42789761  0.32522146  0.76558437  1
  O2-  O171  1  0.42700039  0.81850759  0.08816291  1
  O2-  O172  1  0.43079649  0.81917896  0.43195213  1
  O2-  O173  1  0.42936643  0.81586456  0.76711622  1
  O2-  O174  1  0.92866673  0.32220017  0.08888509  1
  O2-  O175  1  0.93331760  0.31774970  0.43344819  1
  O2-  O176  1  0.93175273  0.32598699  0.75721642  1
  O2-  O177  1  0.92953182  0.81886963  0.08926530  1
  O2-  O178  1  0.92598030  0.81947704  0.42209507  1
  O2-  O179  1  0.92458884  0.81837042  0.75617171  1
  O2-  O180  1  0.32142944  0.07255937  0.24463487  1
  O2-  O181  1  0.32005199  0.07297942  0.56682030  1
  O2-  O182  1  0.32023993  0.07281189  0.90303501  1
  O2-  O183  1  0.31932374  0.57038415  0.24618558  1
  O2-  O184  1  0.31743171  0.57175471  0.57423473  1
  O2-  O185  1  0.31851347  0.57350980  0.90136094  1
  O2-  O186  1  0.81842595  0.07263769  0.23661772  1
  O2-  O187  1  0.82315090  0.07128432  0.57873094  1
  O2-  O188  1  0.82430047  0.06492421  0.89910187  1
  O2-  O189  1  0.82542039  0.56934431  0.24498354  1
  O2-  O190  1  0.82778557  0.57114354  0.57660143  1
  O2-  O191  1  0.81864330  0.57269383  0.90063968  1
  O2-  O192  1  0.05034846  0.07936840  0.27268902  1
  O2-  O193  1  0.04075304  0.08067238  0.59887837  1
  O2-  O194  1  0.03467356  0.08709920  0.94051248  1
  O2-  O195  1  0.04098679  0.58458743  0.26173138  1
  O2-  O196  1  0.04173544  0.58839587  0.60173302  1
  O2-  O197  1  0.04376447  0.58686346  0.93269240  1
  O2-  O198  1  0.53961857  0.08785841  0.26365514  1
  O2-  O199  1  0.54834204  0.08503084  0.60485022  1
  O2-  O200  1  0.54933348  0.07644244  0.93107949  1
  O2-  O201  1  0.53847429  0.58501534  0.26774360  1
  O2-  O202  1  0.54212156  0.58709871  0.60261309  1
  O2-  O203  1  0.54353670  0.58885025  0.93883293  1
  O2-  O204  1  0.16721389  0.20232180  0.26974671  1
  O2-  O205  1  0.16328079  0.21051653  0.59425303  1
  O2-  O206  1  0.16201572  0.20192592  0.94278497  1
  O2-  O207  1  0.16630648  0.71092372  0.26249202  1
  O2-  O208  1  0.16246803  0.70517352  0.60362921  1
  O2-  O209  1  0.16357806  0.70600892  0.93388522  1
  O2-  O210  1  0.66510881  0.21429988  0.26957272  1
  O2-  O211  1  0.66849297  0.20593017  0.60420562  1
  O2-  O212  1  0.67190065  0.20665551  0.92853062  1
  O2-  O213  1  0.66981122  0.69182928  0.27453886  1
  O2-  O214  1  0.66966512  0.69668735  0.60585830  1
  O2-  O215  1  0.66341521  0.70841208  0.93638713  1
  O2-  O216  1  0.08115690  0.45904013  0.06719308  1
  O2-  O217  1  0.08661444  0.46248053  0.39716559  1
  O2-  O218  1  0.08772755  0.46046383  0.72627809  1
  O2-  O219  1  0.08153822  0.95776284  0.06924766  1
  O2-  O220  1  0.08380000  0.95116188  0.40099647  1
  O2-  O221  1  0.07691812  0.94938954  0.72951150  1
  O2-  O222  1  0.58390883  0.46076260  0.06966628  1
  O2-  O223  1  0.58231180  0.46222736  0.40291309  1
  O2-  O224  1  0.58290306  0.46360992  0.73587110  1
  O2-  O225  1  0.57990699  0.94299548  0.05490362  1
  O2-  O226  1  0.57888600  0.96298744  0.39805749  1
  O2-  O227  1  0.58311418  0.95722067  0.73595611  1
  O2-  O228  1  0.19961842  0.32856380  0.07084370  1
  O2-  O229  1  0.19960089  0.33531580  0.39596343  1
  O2-  O230  1  0.20136402  0.33613531  0.72151898  1
  O2-  O231  1  0.20440428  0.82947656  0.06493232  1
  O2-  O232  1  0.21624059  0.83117012  0.39900107  1
  O2-  O233  1  0.20815701  0.82835493  0.73412101  1
  O2-  O234  1  0.70952352  0.33050884  0.06621516  1
  O2-  O235  1  0.71281729  0.33621994  0.40381860  1
  O2-  O236  1  0.70900624  0.33344392  0.73801411  1
  O2-  O237  1  0.70855099  0.83671175  0.06269074  1
  O2-  O238  1  0.69860100  0.82719786  0.39878058  1
  O2-  O239  1  0.70973482  0.83091513  0.73319528  1
  O2-  O240  1  0.45093784  0.42119714  0.27371693  1
  O2-  O241  1  0.46007590  0.41960028  0.59879052  1
  O2-  O242  1  0.45599144  0.42169547  0.93708546  1
  O2-  O243  1  0.45880568  0.91693580  0.26217413  1
  O2-  O244  1  0.45852509  0.91971285  0.60201581  1
  O2-  O245  1  0.45049202  0.91174209  0.93516041  1
  O2-  O246  1  0.96277298  0.41281083  0.26408799  1
  O2-  O247  1  0.95588889  0.41499843  0.60334489  1
  O2-  O248  1  0.95535439  0.41526248  0.93680634  1
  O2-  O249  1  0.95120227  0.91803364  0.27325376  1
  O2-  O250  1  0.94931433  0.91256240  0.60308393  1
  O2-  O251  1  0.95809976  0.91217684  0.93697691  1
  O2-  O252  1  0.33009333  0.30465583  0.27338376  1
  O2-  O253  1  0.33336034  0.29508367  0.59562574  1
  O2-  O254  1  0.32711445  0.29460013  0.93773421  1
  O2-  O255  1  0.33870536  0.78308199  0.26316978  1
  O2-  O256  1  0.33568307  0.78450902  0.59903776  1
  O2-  O257  1  0.33579239  0.78632347  0.93650600  1
  O2-  O258  1  0.83385624  0.28825438  0.26662048  1
  O2-  O259  1  0.83317132  0.29798051  0.60827860  1
  O2-  O260  1  0.83899128  0.29265364  0.93497146  1
  O2-  O261  1  0.83158768  0.79803724  0.27057079  1
  O2-  O262  1  0.83704524  0.78841044  0.60089844  1
  O2-  O263  1  0.83794215  0.79168659  0.93585365  1
  O2-  O264  1  0.42290343  0.04221696  0.06675164  1
  O2-  O265  1  0.41505267  0.04531080  0.39461970  1
  O2-  O266  1  0.41879074  0.04793588  0.73415469  1
  O2-  O267  1  0.42006388  0.54860138  0.07080053  1
  O2-  O268  1  0.41100900  0.54640763  0.40062035  1
  O2-  O269  1  0.41309367  0.54816788  0.72596470  1
  O2-  O270  1  0.91095470  0.03396073  0.07109142  1
  O2-  O271  1  0.92022222  0.04638657  0.40295554  1
  O2-  O272  1  0.91552580  0.04298582  0.72970523  1
  O2-  O273  1  0.92218856  0.55176573  0.06372463  1
  O2-  O274  1  0.91839699  0.54264748  0.39540786  1
  O2-  O275  1  0.91781248  0.54540787  0.72950829  1
  O2-  O276  1  0.29438699  0.16757885  0.07250403  1
  O2-  O277  1  0.30000361  0.16955520  0.39429366  1
  O2-  O278  1  0.28868784  0.17299990  0.73129130  1
  O2-  O279  1  0.28828956  0.66621045  0.07097764  1
  O2-  O280  1  0.28657314  0.66074307  0.39764649  1
  O2-  O281  1  0.28794524  0.65970741  0.72870007  1
  O2-  O282  1  0.79524664  0.16808359  0.06469008  1
  O2-  O283  1  0.78996952  0.16861121  0.40507757  1
  O2-  O284  1  0.79993320  0.16555576  0.73039074  1
  O2-  O285  1  0.79163581  0.67037083  0.06913685  1
  O2-  O286  1  0.80410241  0.66629967  0.39553115  1
  O2-  O287  1  0.80084207  0.66491305  0.72863482  1
