# generated using pymatgen
data_Ca2Al2SiO7
_symmetry_space_group_name_H-M   'P 1'
_cell_length_a   15.46057687
_cell_length_b   15.46130642
_cell_length_c   15.28567310
_cell_angle_alpha   90.01053091
_cell_angle_beta   90.00797716
_cell_angle_gamma   90.02422712
_symmetry_Int_Tables_number   1
_chemical_formula_structural   Ca2Al2SiO7
_chemical_formula_sum   'Ca48 Al48 Si24 O168'
_cell_volume   3653.89782422
_cell_formula_units_Z   24
loop_
 _symmetry_equiv_pos_site_id
 _symmetry_equiv_pos_as_xyz
  1  'x, y, z'
loop_
 _atom_type_symbol
 _atom_type_oxidation_number
  Ca2+  2.0
  Al0+  0.0
  Si0+  0.0
  O2-  -2.0
loop_
 _atom_site_type_symbol
 _atom_site_label
 _atom_site_symmetry_multiplicity
 _atom_site_fract_x
 _atom_site_fract_y
 _atom_site_fract_z
 _atom_site_occupancy
  Ca2+  Ca0  1  0.17465915  0.07567516  0.16953211  1
  Ca2+  Ca1  1  0.16718891  0.07260852  0.50132986  1
  Ca2+  Ca2  1  0.17013240  0.07071760  0.84092822  1
  Ca2+  Ca3  1  0.17509581  0.59099093  0.16877714  1
  Ca2+  Ca4  1  0.17677557  0.58638692  0.50541983  1
  Ca2+  Ca5  1  0.17603987  0.57680185  0.83993274  1
  Ca2+  Ca6  1  0.66540025  0.06800011  0.16984995  1
  Ca2+  Ca7  1  0.67148208  0.07643684  0.50178058  1
  Ca2+  Ca8  1  0.67345489  0.07789465  0.83784885  1
  Ca2+  Ca9  1  0.66347152  0.57268712  0.17375018  1
  Ca2+  Ca10  1  0.66129728  0.58239233  0.50003380  1
  Ca2+  Ca11  1  0.66628835  0.58204567  0.83913821  1
  Ca2+  Ca12  1  0.08060077  0.33626233  0.15969892  1
  Ca2+  Ca13  1  0.07186800  0.34188585  0.49606576  1
  Ca2+  Ca14  1  0.08353240  0.33652294  0.82579979  1
  Ca2+  Ca15  1  0.08831027  0.82796155  0.15978072  1
  Ca2+  Ca16  1  0.08889470  0.83170726  0.49272163  1
  Ca2+  Ca17  1  0.09096791  0.83103718  0.83283925  1
  Ca2+  Ca18  1  0.57831776  0.33612345  0.15957257  1
  Ca2+  Ca19  1  0.58329055  0.33144912  0.49255083  1
  Ca2+  Ca20  1  0.57681736  0.33761363  0.83508254  1
  Ca2+  Ca21  1  0.58763211  0.82940167  0.16176911  1
  Ca2+  Ca22  1  0.57788369  0.82313746  0.49384836  1
  Ca2+  Ca23  1  0.57471116  0.82898913  0.82361741  1
  Ca2+  Ca24  1  0.33049949  0.42538458  0.16575758  1
  Ca2+  Ca25  1  0.32777799  0.43078688  0.50658459  1
  Ca2+  Ca26  1  0.32887850  0.42609946  0.84274464  1
  Ca2+  Ca27  1  0.32539956  0.92526376  0.17239392  1
  Ca2+  Ca28  1  0.32373991  0.91267432  0.50290459  1
  Ca2+  Ca29  1  0.32615117  0.91547758  0.83876585  1
  Ca2+  Ca30  1  0.82292098  0.41330848  0.17271466  1
  Ca2+  Ca31  1  0.83122045  0.41099608  0.50187539  1
  Ca2+  Ca32  1  0.82789501  0.41637588  0.83704773  1
  Ca2+  Ca33  1  0.82450125  0.90522401  0.16746473  1
  Ca2+  Ca34  1  0.82666805  0.91842287  0.50549991  1
  Ca2+  Ca35  1  0.83038610  0.91848682  0.84081519  1
  Ca2+  Ca36  1  0.40933568  0.17042142  0.15799304  1
  Ca2+  Ca37  1  0.41358037  0.16830154  0.49359842  1
  Ca2+  Ca38  1  0.40912361  0.17254057  0.83502488  1
  Ca2+  Ca39  1  0.41819035  0.66000301  0.16576739  1
  Ca2+  Ca40  1  0.41898768  0.66576960  0.49793670  1
  Ca2+  Ca41  1  0.41735826  0.66729977  0.82571062  1
  Ca2+  Ca42  1  0.91565794  0.17294222  0.16594215  1
  Ca2+  Ca43  1  0.91350017  0.17455675  0.49792714  1
  Ca2+  Ca44  1  0.91710732  0.17144165  0.82381423  1
  Ca2+  Ca45  1  0.93317889  0.67141228  0.15851921  1
  Ca2+  Ca46  1  0.92827822  0.66773762  0.49093935  1
  Ca2+  Ca47  1  0.92361301  0.67259517  0.83614690  1
  Al0+  Al48  1  -0.00131536  0.00252241  0.00075270  1
  Al0+  Al49  1  -0.00094421  0.00258808  0.33452065  1
  Al0+  Al50  1  -0.00053555  0.00133792  0.67378277  1
  Al0+  Al51  1  -0.00017952  0.50115540  -0.00363634  1
  Al0+  Al52  1  -0.00225169  0.50155668  0.32142881  1
  Al0+  Al53  1  -0.00287649  0.50071363  0.66572096  1
  Al0+  Al54  1  0.50361733  0.00022960  0.00473993  1
  Al0+  Al55  1  0.50154314  0.00023511  0.34122058  1
  Al0+  Al56  1  0.49940554  -0.00012658  0.66130394  1
  Al0+  Al57  1  0.50009078  0.49799680  0.00170329  1
  Al0+  Al58  1  0.49980254  0.49880095  0.33825941  1
  Al0+  Al59  1  0.50093988  0.49833540  0.66589519  1
  Al0+  Al60  1  0.24939987  0.25243548  -0.00018445  1
  Al0+  Al61  1  0.24785383  0.25085411  0.33660513  1
  Al0+  Al62  1  0.24808768  0.24785682  0.66496143  1
  Al0+  Al63  1  0.25247424  0.74914185  0.00211149  1
  Al0+  Al64  1  0.25254625  0.75069376  0.33601257  1
  Al0+  Al65  1  0.25121421  0.75015797  0.67059442  1
  Al0+  Al66  1  0.74865831  0.24874701  0.00256473  1
  Al0+  Al67  1  0.74788769  0.24976590  0.33130747  1
  Al0+  Al68  1  0.75034599  0.24951969  0.66700756  1
  Al0+  Al69  1  0.75275069  0.74912432  -0.00116081  1
  Al0+  Al70  1  0.74922407  0.74687651  0.33465691  1
  Al0+  Al71  1  0.74997950  0.74812636  0.66309535  1
  Al0+  Al72  1  0.81892817  0.07072641  0.67998520  1
  Al0+  Al73  1  0.68048331  0.42954112  0.01262748  1
  Al0+  Al74  1  0.18003650  0.92970223  0.68170134  1
  Al0+  Al75  1  0.32262384  0.56929714  0.68299129  1
  Al0+  Al76  1  0.17651314  0.42921672  0.01487629  1
  Al0+  Al77  1  0.92820060  0.32026266  0.31706248  1
  Al0+  Al78  1  0.32213952  0.57136702  0.01607798  1
  Al0+  Al79  1  0.68135737  0.92767688  0.01126206  1
  Al0+  Al80  1  0.42926150  0.32028894  0.98659397  1
  Al0+  Al81  1  0.17780857  0.92833437  0.01546999  1
  Al0+  Al82  1  0.57214470  0.67676584  0.65119227  1
  Al0+  Al83  1  0.92916387  0.82256374  0.98465639  1
  Al0+  Al84  1  0.32143173  0.07427287  0.34964209  1
  Al0+  Al85  1  0.32043365  0.56940720  0.34837986  1
  Al0+  Al86  1  0.68005662  0.42874044  0.34853137  1
  Al0+  Al87  1  0.68008213  0.92496188  0.34899708  1
  Al0+  Al88  1  0.07502479  0.67969696  0.98166848  1
  Al0+  Al89  1  0.42703451  0.82154695  0.65056521  1
  Al0+  Al90  1  0.17610037  0.42907936  0.67906585  1
  Al0+  Al91  1  0.07364061  0.68177691  0.32021101  1
  Al0+  Al92  1  0.32185522  0.07151248  0.01247518  1
  Al0+  Al93  1  0.17903991  0.92960865  0.34802061  1
  Al0+  Al94  1  0.56995561  0.67797134  0.31745650  1
  Al0+  Al95  1  0.92945326  0.32090806  0.65317367  1
  Si0+  Si96  1  0.57106114  0.67799064  0.98705215  1
  Si0+  Si97  1  0.17399032  0.42897249  0.34826990  1
  Si0+  Si98  1  0.92867247  0.82325214  0.65198496  1
  Si0+  Si99  1  0.92729681  0.82403123  0.31961216  1
  Si0+  Si100  1  0.42759157  0.31987809  0.65074303  1
  Si0+  Si101  1  0.82020414  0.07271326  0.34931510  1
  Si0+  Si102  1  0.57158347  0.18007687  0.65141092  1
  Si0+  Si103  1  0.82223705  0.57232124  0.01701625  1
  Si0+  Si104  1  0.07156967  0.17590487  0.64920959  1
  Si0+  Si105  1  0.42834650  0.31975545  0.31991960  1
  Si0+  Si106  1  0.67827389  0.92667144  0.68237264  1
  Si0+  Si107  1  0.68019785  0.42810686  0.68141638  1
  Si0+  Si108  1  0.06915774  0.68081017  0.65246484  1
  Si0+  Si109  1  0.43028777  0.82316992  0.31503777  1
  Si0+  Si110  1  0.32491752  0.07310941  0.68348475  1
  Si0+  Si111  1  0.57034491  0.17773363  0.31802512  1
  Si0+  Si112  1  0.43197756  0.82319233  0.98782384  1
  Si0+  Si113  1  0.07207097  0.17780737  0.31519662  1
  Si0+  Si114  1  0.92615509  0.32025461  0.98387401  1
  Si0+  Si115  1  0.82136565  0.57298159  0.68153334  1
  Si0+  Si116  1  0.07080150  0.18094972  0.98434903  1
  Si0+  Si117  1  0.57295905  0.17644880  0.98263962  1
  Si0+  Si118  1  0.82299128  0.56974272  0.34977890  1
  Si0+  Si119  1  0.82235874  0.07352426  0.01824237  1
  O2-  O120  1  0.25132331  -0.00048903  0.06358762  1
  O2-  O121  1  0.25095838  0.00113351  0.39941565  1
  O2-  O122  1  0.25713067  0.00343155  0.72618905  1
  O2-  O123  1  0.24530181  0.50363767  0.06506094  1
  O2-  O124  1  0.24152210  0.49778042  0.39325153  1
  O2-  O125  1  0.25148630  0.49555242  0.73098099  1
  O2-  O126  1  0.75808794  -0.00022610  0.05994034  1
  O2-  O127  1  0.75752699  -0.00157451  0.39343935  1
  O2-  O128  1  0.74693527  -0.00570510  0.72781346  1
  O2-  O129  1  0.75548839  0.50200955  0.06140783  1
  O2-  O130  1  0.75536064  0.50153464  0.39688978  1
  O2-  O131  1  0.74735441  0.50351117  0.72197551  1
  O2-  O132  1  0.00518679  0.24826312  0.27015092  1
  O2-  O133  1  0.00734494  0.24972598  0.60575710  1
  O2-  O134  1  -0.00057100  0.25213250  0.94153969  1
  O2-  O135  1  0.00066548  0.76032085  0.27656417  1
  O2-  O136  1  0.00094685  0.75443904  0.60878986  1
  O2-  O137  1  0.00532126  0.75578101  0.93279258  1
  O2-  O138  1  0.49420881  0.24367589  0.27744345  1
  O2-  O139  1  0.49701166  0.24704116  0.60828583  1
  O2-  O140  1  0.50272607  0.24377048  0.93865305  1
  O2-  O141  1  0.49935494  0.75544720  0.26907094  1
  O2-  O142  1  0.49953231  0.74863490  0.60215177  1
  O2-  O143  1  0.50142293  0.75008533  0.94555888  1
  O2-  O144  1  0.06889905  0.18170631  0.08951514  1
  O2-  O145  1  0.07013468  0.17662935  0.42069655  1
  O2-  O146  1  0.06917736  0.17487236  0.75487123  1
  O2-  O147  1  0.07268961  0.67997730  0.09536081  1
  O2-  O148  1  0.07069714  0.68054208  0.43415744  1
  O2-  O149  1  0.06619185  0.68062298  0.75706462  1
  O2-  O150  1  0.57522302  0.17699103  0.08808384  1
  O2-  O151  1  0.57359460  0.18103071  0.42359097  1
  O2-  O152  1  0.57354372  0.18154991  0.75633234  1
  O2-  O153  1  0.57124747  0.67780904  0.09214379  1
  O2-  O154  1  0.56829291  0.67818645  0.43015910  1
  O2-  O155  1  0.57481064  0.67859174  0.76546540  1
  O2-  O156  1  0.17645317  0.42702425  0.24300796  1
  O2-  O157  1  0.17536335  0.43391467  0.56515072  1
  O2-  O158  1  0.17867952  0.42790176  0.90132652  1
  O2-  O159  1  0.17947343  0.93111497  0.23497714  1
  O2-  O160  1  0.17711152  0.93116913  0.56882551  1
  O2-  O161  1  0.18019907  0.93059250  0.90164913  1
  O2-  O162  1  0.68002471  0.42860716  0.23559118  1
  O2-  O163  1  0.68161225  0.42474935  0.57647192  1
  O2-  O164  1  0.68166867  0.43082932  0.89891355  1
  O2-  O165  1  0.68085596  0.92640029  0.23566728  1
  O2-  O166  1  0.68140983  0.92793769  0.57677426  1
  O2-  O167  1  0.68054217  0.93036937  0.89805852  1
  O2-  O168  1  0.43213924  0.32042151  0.09986233  1
  O2-  O169  1  0.43150271  0.31908636  0.42550372  1
  O2-  O170  1  0.42952049  0.32006855  0.75576226  1
  O2-  O171  1  0.43521872  0.82568590  0.09267266  1
  O2-  O172  1  0.43098113  0.82150896  0.42059667  1
  O2-  O173  1  0.43047645  0.82353671  0.76489978  1
  O2-  O174  1  0.92363979  0.31674196  0.08892356  1
  O2-  O175  1  0.92776601  0.31826265  0.43039141  1
  O2-  O176  1  0.92646193  0.31864295  0.76630921  1
  O2-  O177  1  0.92557168  0.81680723  0.09811813  1
  O2-  O178  1  0.92644976  0.82217499  0.42581242  1
  O2-  O179  1  0.92621673  0.82111591  0.75659657  1
  O2-  O180  1  0.32008068  0.07484755  0.23625301  1
  O2-  O181  1  0.32399462  0.07505602  0.57816870  1
  O2-  O182  1  0.32029316  0.06978287  0.89862504  1
  O2-  O183  1  0.32219794  0.56660724  0.23579896  1
  O2-  O184  1  0.32130273  0.56853023  0.56918915  1
  O2-  O185  1  0.32555108  0.56895723  0.90273421  1
  O2-  O186  1  0.81726155  0.07529625  0.24387234  1
  O2-  O187  1  0.81566495  0.07066089  0.56682494  1
  O2-  O188  1  0.81917304  0.07803405  0.91265762  1
  O2-  O189  1  0.82128191  0.56813722  0.24442078  1
  O2-  O190  1  0.82482531  0.57295115  0.57670069  1
  O2-  O191  1  0.81923609  0.57213266  0.91076456  1
  O2-  O192  1  0.04357743  0.08544726  0.26726851  1
  O2-  O193  1  0.03833496  0.08459111  0.60252783  1
  O2-  O194  1  0.04249161  0.08939459  0.93635373  1
  O2-  O195  1  0.04017083  0.58800325  0.26237854  1
  O2-  O196  1  0.03689373  0.59082659  0.60404415  1
  O2-  O197  1  0.04067259  0.58228097  0.92818617  1
  O2-  O198  1  0.54836420  0.08325039  0.27332678  1
  O2-  O199  1  0.54932661  0.08722021  0.60312195  1
  O2-  O200  1  0.55015283  0.08228543  0.93610585  1
  O2-  O201  1  0.53687962  0.58020795  0.26633777  1
  O2-  O202  1  0.54653875  0.57679049  0.59923647  1
  O2-  O203  1  0.54292833  0.58672861  0.93903873  1
  O2-  O204  1  0.16646284  0.20274955  0.27047015  1
  O2-  O205  1  0.16689233  0.19426212  0.60327620  1
  O2-  O206  1  0.16171446  0.20832819  0.93559132  1
  O2-  O207  1  0.17075452  0.71106855  0.26707988  1
  O2-  O208  1  0.16228361  0.70666825  0.60770756  1
  O2-  O209  1  0.17500730  0.70524325  0.93020783  1
  O2-  O210  1  0.65927755  0.20992269  0.26826426  1
  O2-  O211  1  0.66090487  0.21322393  0.60213229  1
  O2-  O212  1  0.66564945  0.20571581  0.93520577  1
  O2-  O213  1  0.66916145  0.70431589  0.26564713  1
  O2-  O214  1  0.67105174  0.70391573  0.59678954  1
  O2-  O215  1  0.66368416  0.70355893  0.94007635  1
  O2-  O216  1  0.07501961  0.45159753  0.06400618  1
  O2-  O217  1  0.07843275  0.45476817  0.38968549  1
  O2-  O218  1  0.07783085  0.45864579  0.73175361  1
  O2-  O219  1  0.07871966  0.95761712  0.06612979  1
  O2-  O220  1  0.07898346  0.95736062  0.39997815  1
  O2-  O221  1  0.08427597  0.96120094  0.73687557  1
  O2-  O222  1  0.58540926  0.46061228  0.06757865  1
  O2-  O223  1  0.58472029  0.45902006  0.40428229  1
  O2-  O224  1  0.58738451  0.45183614  0.72814651  1
  O2-  O225  1  0.58796324  0.96034528  0.06974018  1
  O2-  O226  1  0.58620940  0.95917359  0.40520580  1
  O2-  O227  1  0.58415404  0.95446627  0.72556777  1
  O2-  O228  1  0.20668418  0.33206285  0.06851054  1
  O2-  O229  1  0.19734721  0.33533291  0.39534021  1
  O2-  O230  1  0.19773134  0.32656375  0.72644432  1
  O2-  O231  1  0.20629678  0.83017156  0.06625714  1
  O2-  O232  1  0.20926712  0.83247291  0.40221876  1
  O2-  O233  1  0.20999251  0.83361502  0.73606402  1
  O2-  O234  1  0.70878641  0.33227914  0.06657521  1
  O2-  O235  1  0.71070000  0.33138767  0.40162301  1
  O2-  O236  1  0.71238900  0.33880701  0.73069369  1
  O2-  O237  1  0.71135789  0.83095899  0.06583071  1
  O2-  O238  1  0.70953566  0.82853130  0.40370805  1
  O2-  O239  1  0.70364534  0.83234328  0.72650645  1
  O2-  O240  1  0.46257808  0.40910779  0.27305568  1
  O2-  O241  1  0.45876176  0.41010539  0.60267405  1
  O2-  O242  1  0.46601164  0.41461302  0.93059186  1
  O2-  O243  1  0.45623357  0.91858873  0.27284876  1
  O2-  O244  1  0.45416136  0.92027689  0.59625135  1
  O2-  O245  1  0.46257819  0.91375927  0.93880393  1
  O2-  O246  1  0.95311520  0.41658969  0.26037458  1
  O2-  O247  1  0.95531236  0.41878578  0.59801139  1
  O2-  O248  1  0.94803138  0.41390424  0.93794684  1
  O2-  O249  1  0.94448108  0.92034416  0.27564305  1
  O2-  O250  1  0.95399209  0.91670296  0.60701673  1
  O2-  O251  1  0.94752758  0.92524524  0.93568091  1
  O2-  O252  1  0.33410285  0.29744469  0.27469652  1
  O2-  O253  1  0.33522714  0.29409570  0.60284056  1
  O2-  O254  1  0.33302569  0.29087079  0.93056952  1
  O2-  O255  1  0.33689004  0.79660502  0.27014945  1
  O2-  O256  1  0.32850136  0.79191869  0.59822721  1
  O2-  O257  1  0.33995295  0.79683740  0.94085470  1
  O2-  O258  1  0.83217429  0.28490539  0.26339673  1
  O2-  O259  1  0.83376084  0.28558372  0.59872940  1
  O2-  O260  1  0.83486132  0.28889589  0.93643199  1
  O2-  O261  1  0.83539640  0.79283034  0.27347237  1
  O2-  O262  1  0.83766320  0.79400901  0.60323800  1
  O2-  O263  1  0.83252928  0.78835928  0.92837540  1
  O2-  O264  1  0.42133776  0.04748461  0.06500468  1
  O2-  O265  1  0.42127451  0.05090518  0.40168900  1
  O2-  O266  1  0.42040028  0.05104450  0.72750122  1
  O2-  O267  1  0.41839858  0.53665092  0.06955022  1
  O2-  O268  1  0.41409117  0.53341894  0.40440480  1
  O2-  O269  1  0.42217885  0.54079525  0.73389007  1
  O2-  O270  1  0.91707510  0.05503519  0.06371198  1
  O2-  O271  1  0.91578341  0.05542720  0.39422415  1
  O2-  O272  1  0.91472612  0.04389530  0.73632796  1
  O2-  O273  1  0.91636674  0.54784249  0.06076604  1
  O2-  O274  1  0.91725319  0.54343095  0.39449100  1
  O2-  O275  1  0.91041409  0.54189722  0.73182245  1
  O2-  O276  1  0.29193619  0.16949242  0.06417092  1
  O2-  O277  1  0.29193660  0.17239604  0.40433421  1
  O2-  O278  1  0.29821841  0.16686572  0.72895406  1
  O2-  O279  1  0.29986591  0.67066928  0.06901474  1
  O2-  O280  1  0.29334234  0.66687780  0.40159975  1
  O2-  O281  1  0.29430769  0.66742346  0.73466840  1
  O2-  O282  1  0.79078440  0.16409104  0.06723030  1
  O2-  O283  1  0.78637799  0.16302537  0.39708072  1
  O2-  O284  1  0.78492268  0.16591026  0.73549219  1
  O2-  O285  1  0.79592420  0.66461981  0.06368954  1
  O2-  O286  1  0.79828052  0.66287514  0.39705112  1
  O2-  O287  1  0.79462723  0.66477446  0.73005131  1
