# generated using pymatgen
data_Ca2Al2SiO7
_symmetry_space_group_name_H-M   'P 1'
_cell_length_a   15.45545929
_cell_length_b   15.45472149
_cell_length_c   15.28151190
_cell_angle_alpha   90.00192173
_cell_angle_beta   90.00422439
_cell_angle_gamma   90.01250011
_symmetry_Int_Tables_number   1
_chemical_formula_structural   Ca2Al2SiO7
_chemical_formula_sum   'Ca48 Al48 Si24 O168'
_cell_volume   3650.13906361
_cell_formula_units_Z   24
loop_
 _symmetry_equiv_pos_site_id
 _symmetry_equiv_pos_as_xyz
  1  'x, y, z'
loop_
 _atom_type_symbol
 _atom_type_oxidation_number
  Ca2+  2.0
  Al0+  0.0
  Si0+  0.0
  O2-  -2.0
loop_
 _atom_site_type_symbol
 _atom_site_label
 _atom_site_symmetry_multiplicity
 _atom_site_fract_x
 _atom_site_fract_y
 _atom_site_fract_z
 _atom_site_occupancy
  Ca2+  Ca0  1  0.17263188  0.07061891  0.17488327  1
  Ca2+  Ca1  1  0.17967368  0.08861810  0.50374615  1
  Ca2+  Ca2  1  0.16819441  0.08112883  0.83422391  1
  Ca2+  Ca3  1  0.17494734  0.58064210  0.17438874  1
  Ca2+  Ca4  1  0.16576270  0.57214017  0.50449452  1
  Ca2+  Ca5  1  0.17800484  0.58234176  0.83666030  1
  Ca2+  Ca6  1  0.66571237  0.07494288  0.17741697  1
  Ca2+  Ca7  1  0.66753038  0.08287647  0.49587922  1
  Ca2+  Ca8  1  0.66914516  0.07491520  0.84120301  1
  Ca2+  Ca9  1  0.65648792  0.57531063  0.16920725  1
  Ca2+  Ca10  1  0.66447271  0.57900671  0.50112705  1
  Ca2+  Ca11  1  0.67182643  0.58180287  0.84057585  1
  Ca2+  Ca12  1  0.07610213  0.33504929  0.16232483  1
  Ca2+  Ca13  1  0.09118411  0.33214797  0.49619611  1
  Ca2+  Ca14  1  0.08262873  0.33035788  0.82730033  1
  Ca2+  Ca15  1  0.09249412  0.83091549  0.16456988  1
  Ca2+  Ca16  1  0.07961746  0.82826446  0.49185480  1
  Ca2+  Ca17  1  0.07838260  0.83544134  0.82738730  1
  Ca2+  Ca18  1  0.57529799  0.33488735  0.16245773  1
  Ca2+  Ca19  1  0.57395403  0.32931335  0.48475323  1
  Ca2+  Ca20  1  0.57844313  0.33998469  0.83748724  1
  Ca2+  Ca21  1  0.58443148  0.82658600  0.15916790  1
  Ca2+  Ca22  1  0.58282553  0.82617452  0.48969379  1
  Ca2+  Ca23  1  0.58110709  0.83101415  0.83468313  1
  Ca2+  Ca24  1  0.33769617  0.41894531  0.17107911  1
  Ca2+  Ca25  1  0.32589598  0.41857734  0.50461404  1
  Ca2+  Ca26  1  0.33243837  0.42572296  0.83675630  1
  Ca2+  Ca27  1  0.32767753  0.91534455  0.17236343  1
  Ca2+  Ca28  1  0.33190527  0.92834077  0.50064435  1
  Ca2+  Ca29  1  0.33075005  0.92170643  0.84309634  1
  Ca2+  Ca30  1  0.81935509  0.40956893  0.17028796  1
  Ca2+  Ca31  1  0.82471367  0.42351675  0.50282738  1
  Ca2+  Ca32  1  0.83117272  0.42120672  0.84031242  1
  Ca2+  Ca33  1  0.82108762  0.92255943  0.17392275  1
  Ca2+  Ca34  1  0.83060666  0.91570760  0.49775460  1
  Ca2+  Ca35  1  0.83011818  0.91511477  0.83928610  1
  Ca2+  Ca36  1  0.41453936  0.17517839  0.16822267  1
  Ca2+  Ca37  1  0.41687745  0.16960496  0.48943521  1
  Ca2+  Ca38  1  0.41243985  0.17209875  0.82980480  1
  Ca2+  Ca39  1  0.42722020  0.66922005  0.15660704  1
  Ca2+  Ca40  1  0.41977835  0.66520723  0.49265280  1
  Ca2+  Ca41  1  0.41625281  0.66533306  0.83650604  1
  Ca2+  Ca42  1  0.91312027  0.16946550  0.16292057  1
  Ca2+  Ca43  1  0.92401014  0.16362061  0.49502131  1
  Ca2+  Ca44  1  0.92314975  0.17400268  0.82824981  1
  Ca2+  Ca45  1  0.92675924  0.66372263  0.16681936  1
  Ca2+  Ca46  1  0.91817867  0.66885677  0.49615012  1
  Ca2+  Ca47  1  0.91447814  0.67307048  0.82403122  1
  Al0+  Al48  1  0.00235141  -0.00045152  0.00379867  1
  Al0+  Al49  1  -0.00159641  -0.00098240  0.33786801  1
  Al0+  Al50  1  -0.00159970  0.00158546  0.65639683  1
  Al0+  Al51  1  0.00074097  0.50015840  -0.00666354  1
  Al0+  Al52  1  0.00070492  0.50091631  0.33205221  1
  Al0+  Al53  1  -0.00302094  0.50026005  0.67488009  1
  Al0+  Al54  1  0.50039390  0.00039472  0.00088047  1
  Al0+  Al55  1  0.49962322  0.00006895  0.33771922  1
  Al0+  Al56  1  0.49943823  -0.00035363  0.67094659  1
  Al0+  Al57  1  0.50169908  0.49991009  -0.00225690  1
  Al0+  Al58  1  0.49987965  0.50086190  0.33118434  1
  Al0+  Al59  1  0.49937148  0.49951762  0.66867885  1
  Al0+  Al60  1  0.24962361  0.24996324  -0.00512962  1
  Al0+  Al61  1  0.24808193  0.25039047  0.33295590  1
  Al0+  Al62  1  0.24998854  0.24944676  0.67179989  1
  Al0+  Al63  1  0.25180158  0.74904887  0.00299923  1
  Al0+  Al64  1  0.24935143  0.74915106  0.33459982  1
  Al0+  Al65  1  0.24983683  0.75056853  0.66734549  1
  Al0+  Al66  1  0.75150957  0.25176869  -0.00402753  1
  Al0+  Al67  1  0.74932342  0.24980226  0.34042283  1
  Al0+  Al68  1  0.74965874  0.24778750  0.66740032  1
  Al0+  Al69  1  0.75273632  0.74966716  0.00158828  1
  Al0+  Al70  1  0.75154047  0.75030698  0.33032709  1
  Al0+  Al71  1  0.74891384  0.74924078  0.66508515  1
  Al0+  Al72  1  0.42670630  0.32071244  0.31887958  1
  Al0+  Al73  1  0.68163254  0.43052812  0.01339562  1
  Al0+  Al74  1  0.67890705  0.92854469  0.01293210  1
  Al0+  Al75  1  0.32173671  0.06960725  0.68286253  1
  Al0+  Al76  1  0.17736428  0.43021954  0.34408080  1
  Al0+  Al77  1  0.82055527  0.07275657  0.34946466  1
  Al0+  Al78  1  0.81786628  0.57134894  0.67939702  1
  Al0+  Al79  1  0.32061947  0.56867523  0.01560280  1
  Al0+  Al80  1  0.57200269  0.67992412  0.31987128  1
  Al0+  Al81  1  0.92825448  0.32094924  0.98584670  1
  Al0+  Al82  1  0.92742505  0.82053173  0.65181388  1
  Al0+  Al83  1  0.07081474  0.67888801  0.32018824  1
  Al0+  Al84  1  0.17845445  0.92522605  0.35081932  1
  Al0+  Al85  1  0.42806828  0.82194656  0.98509851  1
  Al0+  Al86  1  0.57308904  0.67930249  0.98273654  1
  Al0+  Al87  1  0.32281683  0.57321468  0.68186223  1
  Al0+  Al88  1  0.42869181  0.32068990  0.98392864  1
  Al0+  Al89  1  0.31944872  0.07132358  0.34707483  1
  Al0+  Al90  1  0.67817587  0.92676383  0.34929472  1
  Al0+  Al91  1  0.17975763  0.92953231  0.01238901  1
  Al0+  Al92  1  0.17845396  0.42826868  0.68339307  1
  Al0+  Al93  1  0.67693317  0.43036981  0.34657243  1
  Al0+  Al94  1  0.57250128  0.17798563  0.31894451  1
  Al0+  Al95  1  0.07064641  0.18256819  0.65136332  1
  Si0+  Si96  1  0.57295939  0.17783678  0.98253994  1
  Si0+  Si97  1  0.07058653  0.17767499  0.31772609  1
  Si0+  Si98  1  0.07097822  0.17631143  0.98378851  1
  Si0+  Si99  1  0.93161196  0.82120956  0.98702731  1
  Si0+  Si100  1  0.92875745  0.82318682  0.31324786  1
  Si0+  Si101  1  0.68008190  0.92908801  0.68205636  1
  Si0+  Si102  1  0.82325154  0.57074638  0.34765757  1
  Si0+  Si103  1  0.43139845  0.32002733  0.65246239  1
  Si0+  Si104  1  0.92557316  0.32400402  0.64826149  1
  Si0+  Si105  1  0.07263056  0.67880455  0.98349809  1
  Si0+  Si106  1  0.17700817  0.42709288  0.01629333  1
  Si0+  Si107  1  0.82226835  0.07172419  0.01367757  1
  Si0+  Si108  1  0.92924234  0.32135728  0.32087190  1
  Si0+  Si109  1  0.57169217  0.17597971  0.65250518  1
  Si0+  Si110  1  0.07241921  0.67741266  0.65134883  1
  Si0+  Si111  1  0.82542281  0.57344606  0.01809810  1
  Si0+  Si112  1  0.17625444  0.92932003  0.68116715  1
  Si0+  Si113  1  0.82269010  0.07080235  0.68274389  1
  Si0+  Si114  1  0.56947855  0.67988818  0.65183170  1
  Si0+  Si115  1  0.32246671  0.57098587  0.34867387  1
  Si0+  Si116  1  0.42773832  0.82243061  0.31890205  1
  Si0+  Si117  1  0.42820758  0.82322601  0.65163116  1
  Si0+  Si118  1  0.67767264  0.42560094  0.68367550  1
  Si0+  Si119  1  0.32255010  0.07471146  0.01697095  1
  O2-  O120  1  0.25654180  0.00230916  0.05859221  1
  O2-  O121  1  0.24776965  -0.00005928  0.39963236  1
  O2-  O122  1  0.24679558  -0.00570843  0.72809551  1
  O2-  O123  1  0.24733611  0.49235614  0.06216498  1
  O2-  O124  1  0.25327896  0.50265205  0.39205286  1
  O2-  O125  1  0.24875633  0.50283312  0.73159369  1
  O2-  O126  1  0.75106772  0.00632439  0.05762010  1
  O2-  O127  1  0.74873613  0.00017300  0.39996813  1
  O2-  O128  1  0.75170003  -0.00020236  0.72476242  1
  O2-  O129  1  0.75639242  0.50499726  0.06129632  1
  O2-  O130  1  0.75004994  0.50709761  0.39231228  1
  O2-  O131  1  0.74763642  0.49321902  0.72704832  1
  O2-  O132  1  -0.00237508  0.24785552  0.27719213  1
  O2-  O133  1  -0.00227649  0.25948666  0.60353759  1
  O2-  O134  1  0.00445168  0.24747249  0.93995596  1
  O2-  O135  1  0.00072785  0.75695679  0.27022220  1
  O2-  O136  1  0.00398030  0.74651185  0.60717727  1
  O2-  O137  1  0.00096964  0.74992708  0.94236752  1
  O2-  O138  1  0.50093397  0.25026402  0.26904081  1
  O2-  O139  1  0.50364850  0.25005205  0.61097076  1
  O2-  O140  1  0.50211638  0.24394909  0.93697343  1
  O2-  O141  1  0.49888442  0.75649792  0.27473608  1
  O2-  O142  1  0.49489458  0.74750979  0.61008761  1
  O2-  O143  1  0.50145527  0.75207793  0.93263409  1
  O2-  O144  1  0.06949827  0.17483113  0.08933076  1
  O2-  O145  1  0.07187497  0.18039294  0.42285849  1
  O2-  O146  1  0.06632416  0.18037592  0.76480455  1
  O2-  O147  1  0.07109417  0.67717070  0.08861364  1
  O2-  O148  1  0.06614465  0.67647420  0.43330616  1
  O2-  O149  1  0.07221270  0.68088788  0.75727417  1
  O2-  O150  1  0.57523506  0.17861220  0.08747152  1
  O2-  O151  1  0.57101854  0.18154388  0.43342187  1
  O2-  O152  1  0.57221863  0.17419732  0.75768307  1
  O2-  O153  1  0.57187472  0.68022005  0.09618113  1
  O2-  O154  1  0.56938275  0.67921490  0.43405603  1
  O2-  O155  1  0.57271368  0.68201987  0.75644508  1
  O2-  O156  1  0.17364259  0.43250536  0.23117506  1
  O2-  O157  1  0.18090505  0.42895739  0.56946278  1
  O2-  O158  1  0.17672293  0.42969681  0.91077723  1
  O2-  O159  1  0.18139483  0.92675498  0.23688568  1
  O2-  O160  1  0.17884252  0.93007423  0.57613894  1
  O2-  O161  1  0.17474457  0.93292745  0.89899567  1
  O2-  O162  1  0.67851077  0.42944741  0.23364874  1
  O2-  O163  1  0.67644009  0.42649445  0.57804706  1
  O2-  O164  1  0.68469375  0.43138474  0.89981778  1
  O2-  O165  1  0.68125362  0.92657483  0.23574809  1
  O2-  O166  1  0.67934440  0.92904397  0.57747096  1
  O2-  O167  1  0.68324983  0.92963016  0.89887684  1
  O2-  O168  1  0.42838195  0.31954675  0.09649435  1
  O2-  O169  1  0.42707417  0.32112316  0.43320497  1
  O2-  O170  1  0.43385115  0.32008001  0.75771597  1
  O2-  O171  1  0.42763961  0.81972710  0.09848240  1
  O2-  O172  1  0.42808583  0.81928538  0.42526229  1
  O2-  O173  1  0.43097438  0.82673393  0.75631443  1
  O2-  O174  1  0.92779340  0.31888689  0.09940293  1
  O2-  O175  1  0.93140985  0.32339174  0.42591378  1
  O2-  O176  1  0.92343404  0.31947034  0.75391645  1
  O2-  O177  1  0.93279945  0.82170454  0.09157479  1
  O2-  O178  1  0.92697676  0.81953729  0.41905158  1
  O2-  O179  1  0.92762319  0.82053035  0.76584447  1
  O2-  O180  1  0.31642130  0.07198281  0.23346513  1
  O2-  O181  1  0.32398608  0.06983912  0.57028989  1
  O2-  O182  1  0.31969618  0.07473773  0.91088962  1
  O2-  O183  1  0.32158083  0.57070892  0.24312927  1
  O2-  O184  1  0.32560990  0.57069370  0.56828925  1
  O2-  O185  1  0.31729357  0.56883476  0.90249836  1
  O2-  O186  1  0.82130615  0.07168636  0.23533847  1
  O2-  O187  1  0.82123379  0.07270177  0.57841730  1
  O2-  O188  1  0.82388988  0.06882970  0.90749808  1
  O2-  O189  1  0.82739782  0.56654801  0.24233650  1
  O2-  O190  1  0.81446657  0.57145256  0.56619872  1
  O2-  O191  1  0.82462057  0.57421929  0.91213405  1
  O2-  O192  1  0.04256900  0.08497775  0.27203630  1
  O2-  O193  1  0.03837123  0.08792765  0.59471512  1
  O2-  O194  1  0.04194147  0.08395758  0.93595477  1
  O2-  O195  1  0.03595593  0.58469563  0.26275063  1
  O2-  O196  1  0.04420684  0.58287971  0.60872100  1
  O2-  O197  1  0.04561179  0.58804319  0.93348551  1
  O2-  O198  1  0.54506571  0.07821520  0.26863259  1
  O2-  O199  1  0.54152514  0.08478614  0.60541408  1
  O2-  O200  1  0.54974786  0.08341458  0.93636038  1
  O2-  O201  1  0.53908844  0.58477531  0.26528627  1
  O2-  O202  1  0.54478121  0.58595941  0.60610694  1
  O2-  O203  1  0.54416715  0.58160375  0.92924793  1
  O2-  O204  1  0.16030991  0.20679800  0.26805385  1
  O2-  O205  1  0.16898616  0.21234888  0.59968436  1
  O2-  O206  1  0.16429513  0.19991075  0.93612569  1
  O2-  O207  1  0.16860697  0.70642638  0.26622330  1
  O2-  O208  1  0.16643147  0.70090534  0.60470050  1
  O2-  O209  1  0.16358642  0.70843616  0.93664297  1
  O2-  O210  1  0.67294968  0.20444588  0.26945137  1
  O2-  O211  1  0.66533328  0.19999800  0.60650530  1
  O2-  O212  1  0.66553596  0.20544724  0.93390716  1
  O2-  O213  1  0.66981456  0.70576889  0.26606117  1
  O2-  O214  1  0.65901907  0.71123509  0.60233473  1
  O2-  O215  1  0.67351771  0.70764259  0.93202422  1
  O2-  O216  1  0.08277818  0.45499666  0.05988045  1
  O2-  O217  1  0.08261414  0.46312861  0.40102955  1
  O2-  O218  1  0.07831286  0.45143358  0.73547481  1
  O2-  O219  1  0.08476721  0.96094433  0.07012946  1
  O2-  O220  1  0.07779426  0.94858035  0.39946110  1
  O2-  O221  1  0.08199100  0.95843082  0.72445734  1
  O2-  O222  1  0.58497085  0.46036868  0.06610124  1
  O2-  O223  1  0.58131685  0.46237595  0.40217187  1
  O2-  O224  1  0.58503587  0.45356977  0.72973675  1
  O2-  O225  1  0.58156914  0.95579565  0.06613710  1
  O2-  O226  1  0.57963999  0.95142847  0.40318153  1
  O2-  O227  1  0.58947510  0.95847320  0.73095155  1
  O2-  O228  1  0.19792875  0.33075168  0.05827430  1
  O2-  O229  1  0.20552531  0.33351424  0.39800665  1
  O2-  O230  1  0.20883307  0.33165296  0.73807116  1
  O2-  O231  1  0.20823554  0.83284298  0.06636056  1
  O2-  O232  1  0.20671741  0.82714225  0.40464031  1
  O2-  O233  1  0.19714934  0.83417922  0.72618565  1
  O2-  O234  1  0.71364497  0.33311875  0.06535053  1
  O2-  O235  1  0.70897562  0.33623576  0.40365494  1
  O2-  O236  1  0.70144766  0.33107660  0.72926187  1
  O2-  O237  1  0.71347411  0.83343746  0.06672403  1
  O2-  O238  1  0.71103267  0.82871517  0.40221131  1
  O2-  O239  1  0.70880539  0.83762360  0.72902121  1
  O2-  O240  1  0.45594510  0.41898202  0.26670230  1
  O2-  O241  1  0.45782627  0.41237961  0.60491475  1
  O2-  O242  1  0.46396626  0.41517191  0.92884187  1
  O2-  O243  1  0.44872412  0.91734634  0.27491496  1
  O2-  O244  1  0.46170642  0.91321582  0.60353060  1
  O2-  O245  1  0.45448159  0.92202008  0.93273731  1
  O2-  O246  1  0.95929191  0.41099928  0.27081584  1
  O2-  O247  1  0.94556362  0.42078439  0.60700463  1
  O2-  O248  1  0.95729512  0.41749464  0.92970551  1
  O2-  O249  1  0.95054368  0.91852191  0.26937153  1
  O2-  O250  1  0.95457146  0.91650398  0.59561061  1
  O2-  O251  1  0.95982063  0.91319682  0.93885803  1
  O2-  O252  1  0.32884047  0.29157367  0.26439979  1
  O2-  O253  1  0.33887345  0.29119871  0.60848166  1
  O2-  O254  1  0.33151813  0.29194194  0.92845974  1
  O2-  O255  1  0.33456040  0.79537861  0.27314178  1
  O2-  O256  1  0.33451870  0.80042122  0.60542872  1
  O2-  O257  1  0.32989691  0.79147604  0.93145981  1
  O2-  O258  1  0.83660832  0.29383599  0.27536342  1
  O2-  O259  1  0.83220692  0.29446497  0.60288405  1
  O2-  O260  1  0.83410312  0.28949549  0.92686304  1
  O2-  O261  1  0.83688945  0.79435179  0.26552944  1
  O2-  O262  1  0.83200919  0.78637042  0.59713539  1
  O2-  O263  1  0.84018177  0.79405609  0.93822549  1
  O2-  O264  1  0.41787025  0.05433188  0.06017379  1
  O2-  O265  1  0.41736243  0.04506540  0.40209335  1
  O2-  O266  1  0.41783347  0.03906843  0.73870174  1
  O2-  O267  1  0.41841229  0.53908654  0.06622098  1
  O2-  O268  1  0.41509389  0.54520112  0.39595790  1
  O2-  O269  1  0.42025585  0.54192565  0.73604268  1
  O2-  O270  1  0.91434946  0.04448464  0.06156538  1
  O2-  O271  1  0.91825694  0.04356476  0.40370933  1
  O2-  O272  1  0.91467175  0.04198612  0.72881766  1
  O2-  O273  1  0.92018167  0.54666375  0.06095103  1
  O2-  O274  1  0.91349412  0.53968677  0.39733532  1
  O2-  O275  1  0.91435956  0.54716407  0.73694796  1
  O2-  O276  1  0.29269904  0.16741312  0.06209282  1
  O2-  O277  1  0.28804533  0.16872349  0.40109569  1
  O2-  O278  1  0.28950926  0.16488454  0.73767826  1
  O2-  O279  1  0.28878896  0.66432178  0.06978580  1
  O2-  O280  1  0.29799634  0.66436738  0.39495392  1
  O2-  O281  1  0.29648310  0.67292604  0.73435561  1
  O2-  O282  1  0.79973299  0.16673529  0.05680509  1
  O2-  O283  1  0.79486299  0.16972152  0.40708938  1
  O2-  O284  1  0.79454085  0.16251301  0.73151023  1
  O2-  O285  1  0.80335145  0.66725898  0.06449737  1
  O2-  O286  1  0.80261045  0.66634879  0.39068966  1
  O2-  O287  1  0.78419068  0.66677382  0.73508949  1
