# generated using pymatgen
data_Ca2Al2SiO7
_symmetry_space_group_name_H-M   'P 1'
_cell_length_a   15.45893491
_cell_length_b   15.45992762
_cell_length_c   15.28426222
_cell_angle_alpha   90.00176309
_cell_angle_beta   90.01335235
_cell_angle_gamma   89.99967585
_symmetry_Int_Tables_number   1
_chemical_formula_structural   Ca2Al2SiO7
_chemical_formula_sum   'Ca48 Al48 Si24 O168'
_cell_volume   3652.84709160
_cell_formula_units_Z   24
loop_
 _symmetry_equiv_pos_site_id
 _symmetry_equiv_pos_as_xyz
  1  'x, y, z'
loop_
 _atom_type_symbol
 _atom_type_oxidation_number
  Ca2+  2.0
  Al0+  0.0
  Si0+  0.0
  O2-  -2.0
loop_
 _atom_site_type_symbol
 _atom_site_label
 _atom_site_symmetry_multiplicity
 _atom_site_fract_x
 _atom_site_fract_y
 _atom_site_fract_z
 _atom_site_occupancy
  Ca2+  Ca0  1  0.16515460  0.07201930  0.16787903  1
  Ca2+  Ca1  1  0.17084365  0.06905769  0.50574094  1
  Ca2+  Ca2  1  0.16333830  0.07248532  0.84060346  1
  Ca2+  Ca3  1  0.16322851  0.58100442  0.16481932  1
  Ca2+  Ca4  1  0.17617887  0.58564769  0.51189110  1
  Ca2+  Ca5  1  0.16906072  0.58313573  0.83749983  1
  Ca2+  Ca6  1  0.67790044  0.08689016  0.17246866  1
  Ca2+  Ca7  1  0.66977151  0.08459439  0.50906723  1
  Ca2+  Ca8  1  0.67478085  0.08645693  0.83423037  1
  Ca2+  Ca9  1  0.65832195  0.57795192  0.16807189  1
  Ca2+  Ca10  1  0.66636396  0.58307950  0.51460891  1
  Ca2+  Ca11  1  0.65890035  0.57443312  0.83407272  1
  Ca2+  Ca12  1  0.08216180  0.32506084  0.15365800  1
  Ca2+  Ca13  1  0.07802752  0.33113280  0.49731261  1
  Ca2+  Ca14  1  0.08919027  0.32646445  0.83162207  1
  Ca2+  Ca15  1  0.08115911  0.83403934  0.15401669  1
  Ca2+  Ca16  1  0.08849560  0.83252251  0.50117698  1
  Ca2+  Ca17  1  0.08055533  0.83061122  0.83150771  1
  Ca2+  Ca18  1  0.58056533  0.32835888  0.16029760  1
  Ca2+  Ca19  1  0.58569822  0.32716452  0.50275489  1
  Ca2+  Ca20  1  0.57896191  0.33535856  0.82537906  1
  Ca2+  Ca21  1  0.57165365  0.83199446  0.16129812  1
  Ca2+  Ca22  1  0.58536153  0.82469990  0.49402664  1
  Ca2+  Ca23  1  0.57804211  0.83290499  0.82451597  1
  Ca2+  Ca24  1  0.32886159  0.41094928  0.16298974  1
  Ca2+  Ca25  1  0.33747498  0.42405312  0.50927624  1
  Ca2+  Ca26  1  0.33837412  0.42196876  0.83937765  1
  Ca2+  Ca27  1  0.32399947  0.90303481  0.16867737  1
  Ca2+  Ca28  1  0.32512645  0.90485854  0.50243557  1
  Ca2+  Ca29  1  0.32313419  0.91086292  0.83878563  1
  Ca2+  Ca30  1  0.82671874  0.41712012  0.16652949  1
  Ca2+  Ca31  1  0.82400786  0.42544817  0.51176584  1
  Ca2+  Ca32  1  0.82115876  0.42191749  0.83444410  1
  Ca2+  Ca33  1  0.84086983  0.92660645  0.16784618  1
  Ca2+  Ca34  1  0.82412446  0.92846373  0.50944555  1
  Ca2+  Ca35  1  0.82973819  0.92223449  0.83574532  1
  Ca2+  Ca36  1  0.42448236  0.16838900  0.15921338  1
  Ca2+  Ca37  1  0.43059120  0.16804173  0.49942010  1
  Ca2+  Ca38  1  0.41992914  0.18206338  0.82468374  1
  Ca2+  Ca39  1  0.41864951  0.67626428  0.16667823  1
  Ca2+  Ca40  1  0.42810088  0.66734080  0.49944161  1
  Ca2+  Ca41  1  0.41799337  0.66990641  0.82798192  1
  Ca2+  Ca42  1  0.92063087  0.15985046  0.15843467  1
  Ca2+  Ca43  1  0.90942643  0.16332688  0.49860377  1
  Ca2+  Ca44  1  0.91709665  0.15936777  0.83351323  1
  Ca2+  Ca45  1  0.92496711  0.67808764  0.15355972  1
  Ca2+  Ca46  1  0.92013434  0.66474512  0.50085468  1
  Ca2+  Ca47  1  0.92762424  0.66425828  0.82740134  1
  Al0+  Al48  1  0.00044053  -0.00023800  -0.00073950  1
  Al0+  Al49  1  0.00102161  0.00004226  0.34368888  1
  Al0+  Al50  1  0.00059897  -0.00101916  0.67137250  1
  Al0+  Al51  1  -0.00068371  0.49902820  0.00123570  1
  Al0+  Al52  1  -0.00164225  0.49819175  0.33274298  1
  Al0+  Al53  1  0.00099215  0.49912561  0.66403975  1
  Al0+  Al54  1  0.50113253  -0.00016031  -0.00581389  1
  Al0+  Al55  1  0.49921986  0.00075322  0.32358468  1
  Al0+  Al56  1  0.49696576  0.00263482  0.66527178  1
  Al0+  Al57  1  0.49942627  0.49942018  0.00553629  1
  Al0+  Al58  1  0.49779427  0.49847133  0.32978247  1
  Al0+  Al59  1  0.49777622  0.50313980  0.66716507  1
  Al0+  Al60  1  0.25120786  0.25022514  -0.00403049  1
  Al0+  Al61  1  0.24808918  0.24762546  0.33602146  1
  Al0+  Al62  1  0.24874626  0.24938023  0.65755835  1
  Al0+  Al63  1  0.25161522  0.74859073  -0.00214691  1
  Al0+  Al64  1  0.24985091  0.74596635  0.33492772  1
  Al0+  Al65  1  0.24811542  0.74781178  0.67169113  1
  Al0+  Al66  1  0.75150680  0.25046983  0.00929624  1
  Al0+  Al67  1  0.74980131  0.25299725  0.33326694  1
  Al0+  Al68  1  0.75110378  0.25186342  0.67099091  1
  Al0+  Al69  1  0.74951081  0.75069753  -0.00258955  1
  Al0+  Al70  1  0.75304331  0.74928060  0.32703302  1
  Al0+  Al71  1  0.75285485  0.75307567  0.67013132  1
  Al0+  Al72  1  0.81902103  0.06759092  0.01512144  1
  Al0+  Al73  1  0.17869537  0.42780411  0.01216791  1
  Al0+  Al74  1  0.18166674  0.92790548  0.34750678  1
  Al0+  Al75  1  0.81914624  0.07120089  0.34805252  1
  Al0+  Al76  1  0.07079188  0.67698285  0.98457293  1
  Al0+  Al77  1  0.57413344  0.67693155  0.31794831  1
  Al0+  Al78  1  0.42772054  0.81984672  0.31947689  1
  Al0+  Al79  1  0.32016909  0.56934023  0.68078315  1
  Al0+  Al80  1  0.67830387  0.43233794  0.68077258  1
  Al0+  Al81  1  0.67877544  0.43100330  0.01653250  1
  Al0+  Al82  1  0.57265430  0.17988655  0.65323314  1
  Al0+  Al83  1  0.67467729  0.92844932  0.67994426  1
  Al0+  Al84  1  0.42973296  0.82132403  0.98406068  1
  Al0+  Al85  1  0.07036565  0.17978756  0.98701602  1
  Al0+  Al86  1  0.07013394  0.67903813  0.65149777  1
  Al0+  Al87  1  0.81988330  0.07228556  0.68320920  1
  Al0+  Al88  1  0.43050553  0.31985908  0.98717336  1
  Al0+  Al89  1  0.57231837  0.68291014  0.65655954  1
  Al0+  Al90  1  0.18214557  0.92952052  0.01336511  1
  Al0+  Al91  1  0.92807520  0.82335420  0.98359714  1
  Al0+  Al92  1  0.42781304  0.32402094  0.65036119  1
  Al0+  Al93  1  0.18195350  0.92940570  0.68289291  1
  Al0+  Al94  1  0.57231757  0.18028084  0.31810021  1
  Al0+  Al95  1  0.82472417  0.57389464  0.68120250  1
  Si0+  Si96  1  0.82265662  0.57168051  0.34705896  1
  Si0+  Si97  1  0.32137686  0.07573239  0.68302800  1
  Si0+  Si98  1  0.06944080  0.17817146  0.31959820  1
  Si0+  Si99  1  0.17638452  0.42627356  0.34854183  1
  Si0+  Si100  1  0.32364573  0.07288211  0.01462163  1
  Si0+  Si101  1  0.31869351  0.56756048  0.34880438  1
  Si0+  Si102  1  0.67845363  0.43195318  0.34880744  1
  Si0+  Si103  1  0.07057761  0.17594744  0.64891217  1
  Si0+  Si104  1  0.92948261  0.82441693  0.64745774  1
  Si0+  Si105  1  0.67642244  0.92706684  0.34571716  1
  Si0+  Si106  1  0.57111241  0.67744396  0.98360385  1
  Si0+  Si107  1  0.57565007  0.17914034  0.98350875  1
  Si0+  Si108  1  0.93029605  0.32033012  0.65179566  1
  Si0+  Si109  1  0.67471270  0.92568634  0.01785501  1
  Si0+  Si110  1  0.92985118  0.32179895  0.31731736  1
  Si0+  Si111  1  0.32179496  0.57144012  0.02044275  1
  Si0+  Si112  1  0.82259780  0.57361991  0.01777370  1
  Si0+  Si113  1  0.42549845  0.32111769  0.31558563  1
  Si0+  Si114  1  0.32425806  0.07422223  0.34990787  1
  Si0+  Si115  1  0.93189027  0.82244097  0.32019916  1
  Si0+  Si116  1  0.07029807  0.67709805  0.31906614  1
  Si0+  Si117  1  0.42612139  0.82269109  0.65168014  1
  Si0+  Si118  1  0.17745028  0.42563765  0.68077009  1
  Si0+  Si119  1  0.92616746  0.32198551  0.98333294  1
  O2-  O120  1  0.25893336  0.00158933  0.06164800  1
  O2-  O121  1  0.26063707  -0.00041169  0.39281808  1
  O2-  O122  1  0.25616855  0.00480342  0.72836229  1
  O2-  O123  1  0.25042933  0.50353816  0.06290058  1
  O2-  O124  1  0.24865910  0.49497748  0.39092034  1
  O2-  O125  1  0.24846417  0.49072705  0.72501634  1
  O2-  O126  1  0.74450859  -0.00687153  0.06303762  1
  O2-  O127  1  0.74102552  -0.00110390  0.39166011  1
  O2-  O128  1  0.74547383  0.00165872  0.73058594  1
  O2-  O129  1  0.75201264  0.50753621  0.06412245  1
  O2-  O130  1  0.74470454  0.50832312  0.38931208  1
  O2-  O131  1  0.74729583  0.50776744  0.73059133  1
  O2-  O132  1  -0.00048974  0.24936805  0.27574352  1
  O2-  O133  1  -0.00094920  0.24727863  0.60768924  1
  O2-  O134  1  -0.00241903  0.25622101  0.93928995  1
  O2-  O135  1  0.00192365  0.75035527  0.27764710  1
  O2-  O136  1  -0.00479004  0.75245959  0.60239814  1
  O2-  O137  1  -0.00298912  0.74737067  0.93523747  1
  O2-  O138  1  0.49327279  0.25135953  0.27209767  1
  O2-  O139  1  0.50052949  0.25183909  0.60197491  1
  O2-  O140  1  0.50529958  0.24617371  0.94047070  1
  O2-  O141  1  0.50495646  0.75274403  0.26966123  1
  O2-  O142  1  0.50210966  0.76164117  0.60816742  1
  O2-  O143  1  0.50755408  0.74986904  0.93879922  1
  O2-  O144  1  0.06874826  0.17970412  0.10101553  1
  O2-  O145  1  0.06891703  0.18060981  0.42473966  1
  O2-  O146  1  0.07290271  0.17723376  0.75375528  1
  O2-  O147  1  0.06938522  0.67812672  0.09953448  1
  O2-  O148  1  0.06946633  0.67490367  0.42400716  1
  O2-  O149  1  0.07050289  0.67838668  0.76367370  1
  O2-  O150  1  0.57478670  0.18082219  0.08976139  1
  O2-  O151  1  0.57455007  0.18368989  0.43073188  1
  O2-  O152  1  0.57181090  0.18272898  0.76659399  1
  O2-  O153  1  0.56823233  0.67763008  0.08962125  1
  O2-  O154  1  0.57384031  0.67543503  0.43150467  1
  O2-  O155  1  0.56693304  0.68057427  0.76927326  1
  O2-  O156  1  0.17479993  0.42607186  0.24365344  1
  O2-  O157  1  0.17587268  0.42809195  0.57432819  1
  O2-  O158  1  0.18140742  0.42685191  0.89957669  1
  O2-  O159  1  0.17851950  0.92940316  0.23459982  1
  O2-  O160  1  0.18333607  0.92969388  0.56903176  1
  O2-  O161  1  0.18185913  0.93083812  0.90078954  1
  O2-  O162  1  0.68116820  0.43087623  0.24359243  1
  O2-  O163  1  0.68139405  0.43164677  0.56641491  1
  O2-  O164  1  0.67829863  0.43125515  0.90409485  1
  O2-  O165  1  0.68031335  0.92716794  0.24024435  1
  O2-  O166  1  0.67745115  0.92760139  0.56543768  1
  O2-  O167  1  0.67314116  0.92764360  0.91273669  1
  O2-  O168  1  0.43083352  0.31670610  0.10095562  1
  O2-  O169  1  0.42610925  0.32360230  0.42070645  1
  O2-  O170  1  0.42669417  0.32255395  0.76386874  1
  O2-  O171  1  0.42877543  0.81826112  0.09736785  1
  O2-  O172  1  0.42560030  0.81472607  0.43288355  1
  O2-  O173  1  0.42488048  0.81905070  0.75716080  1
  O2-  O174  1  0.92724158  0.32043817  0.08978233  1
  O2-  O175  1  0.93202062  0.32500180  0.42242106  1
  O2-  O176  1  0.93279064  0.32188196  0.75639720  1
  O2-  O177  1  0.93273128  0.82344103  0.09868610  1
  O2-  O178  1  0.93088581  0.82071843  0.42494668  1
  O2-  O179  1  0.93303510  0.82727551  0.75241501  1
  O2-  O180  1  0.31891305  0.08219030  0.24485819  1
  O2-  O181  1  0.31849724  0.07651342  0.57706495  1
  O2-  O182  1  0.32024186  0.07332721  0.90935247  1
  O2-  O183  1  0.31648370  0.56817443  0.24388392  1
  O2-  O184  1  0.31885900  0.56989911  0.56680745  1
  O2-  O185  1  0.32443849  0.57022561  0.91515947  1
  O2-  O186  1  0.82343677  0.06908459  0.23517168  1
  O2-  O187  1  0.81945513  0.07097887  0.56899698  1
  O2-  O188  1  0.81735830  0.06930267  0.90284084  1
  O2-  O189  1  0.82842461  0.56700950  0.24246190  1
  O2-  O190  1  0.82495887  0.56858999  0.56650249  1
  O2-  O191  1  0.82359951  0.57055936  0.91282521  1
  O2-  O192  1  0.04024126  0.08568026  0.27472056  1
  O2-  O193  1  0.04150132  0.08440191  0.60179584  1
  O2-  O194  1  0.03733100  0.08530202  0.93223950  1
  O2-  O195  1  0.04018120  0.58546102  0.27155212  1
  O2-  O196  1  0.04189824  0.58149906  0.59586730  1
  O2-  O197  1  0.04425285  0.57710033  0.93358780  1
  O2-  O198  1  0.54739893  0.08340900  0.26157587  1
  O2-  O199  1  0.54257186  0.08207965  0.59757344  1
  O2-  O200  1  0.55444662  0.08464561  0.93884729  1
  O2-  O201  1  0.53899452  0.58019299  0.26426575  1
  O2-  O202  1  0.53685355  0.58845598  0.60067426  1
  O2-  O203  1  0.53976987  0.58479723  0.94004287  1
  O2-  O204  1  0.16189433  0.20472792  0.27280998  1
  O2-  O205  1  0.16050543  0.20356169  0.59706409  1
  O2-  O206  1  0.16601842  0.20977938  0.93165519  1
  O2-  O207  1  0.16299801  0.70088458  0.27281606  1
  O2-  O208  1  0.16670311  0.71273440  0.59778875  1
  O2-  O209  1  0.16977761  0.70362448  0.93447070  1
  O2-  O210  1  0.66743700  0.21713629  0.26369229  1
  O2-  O211  1  0.67157710  0.21007722  0.60088534  1
  O2-  O212  1  0.66913968  0.20853713  0.94101338  1
  O2-  O213  1  0.67441266  0.69795859  0.26447734  1
  O2-  O214  1  0.67159591  0.70693466  0.60325554  1
  O2-  O215  1  0.66725429  0.69456615  0.94074305  1
  O2-  O216  1  0.08078172  0.45410423  0.06803504  1
  O2-  O217  1  0.08443499  0.45537294  0.39586647  1
  O2-  O218  1  0.08507806  0.45237652  0.72691569  1
  O2-  O219  1  0.08644636  0.96357431  0.06735625  1
  O2-  O220  1  0.08834862  0.96256194  0.40567791  1
  O2-  O221  1  0.08588951  0.96147706  0.73528704  1
  O2-  O222  1  0.58291398  0.46120916  0.07372648  1
  O2-  O223  1  0.58355943  0.45290564  0.39246448  1
  O2-  O224  1  0.57996907  0.45952233  0.73284428  1
  O2-  O225  1  0.58090844  0.95309311  0.06368795  1
  O2-  O226  1  0.57994255  0.94722778  0.38747698  1
  O2-  O227  1  0.57424811  0.95302210  0.73064002  1
  O2-  O228  1  0.21258508  0.33194505  0.06795743  1
  O2-  O229  1  0.19995309  0.33347142  0.39651916  1
  O2-  O230  1  0.19837421  0.32931192  0.72226640  1
  O2-  O231  1  0.21167418  0.83156477  0.06649260  1
  O2-  O232  1  0.20947505  0.82944457  0.40076477  1
  O2-  O233  1  0.21170163  0.83350881  0.73675168  1
  O2-  O234  1  0.71278622  0.33653034  0.07369664  1
  O2-  O235  1  0.71277785  0.34278120  0.39677826  1
  O2-  O236  1  0.71121959  0.33651795  0.73486324  1
  O2-  O237  1  0.69702561  0.83042200  0.06265628  1
  O2-  O238  1  0.70629478  0.83332154  0.39031359  1
  O2-  O239  1  0.70447465  0.83200692  0.73551441  1
  O2-  O240  1  0.45109608  0.41378042  0.26771673  1
  O2-  O241  1  0.45661794  0.42206672  0.59747291  1
  O2-  O242  1  0.46045972  0.41813552  0.93733458  1
  O2-  O243  1  0.44535705  0.92007169  0.26534198  1
  O2-  O244  1  0.43955652  0.91951634  0.60814839  1
  O2-  O245  1  0.45511187  0.91914085  0.92971029  1
  O2-  O246  1  0.95953040  0.41220898  0.26724919  1
  O2-  O247  1  0.96074041  0.40965085  0.59971717  1
  O2-  O248  1  0.94741023  0.41669416  0.93953765  1
  O2-  O249  1  0.96308320  0.91447039  0.27507852  1
  O2-  O250  1  0.96057187  0.91654234  0.60007941  1
  O2-  O251  1  0.96086678  0.91899919  0.93007405  1
  O2-  O252  1  0.32972080  0.29630066  0.27246085  1
  O2-  O253  1  0.32940419  0.29638732  0.59463612  1
  O2-  O254  1  0.33511086  0.29098833  0.93117906  1
  O2-  O255  1  0.33137304  0.78197403  0.26566344  1
  O2-  O256  1  0.33558191  0.78706589  0.60562773  1
  O2-  O257  1  0.33494947  0.78678471  0.93027027  1
  O2-  O258  1  0.83744226  0.29684325  0.27059866  1
  O2-  O259  1  0.83844145  0.29400682  0.60353642  1
  O2-  O260  1  0.83346666  0.29205146  0.93911159  1
  O2-  O261  1  0.84092177  0.79754023  0.26955671  1
  O2-  O262  1  0.83480383  0.80265601  0.60209588  1
  O2-  O263  1  0.82694354  0.80147782  0.93409678  1
  O2-  O264  1  0.41970669  0.05106093  0.05793737  1
  O2-  O265  1  0.42085243  0.05369710  0.39139662  1
  O2-  O266  1  0.41622888  0.05666577  0.72777483  1
  O2-  O267  1  0.41304303  0.54273408  0.06974024  1
  O2-  O268  1  0.41132988  0.53953378  0.39499670  1
  O2-  O269  1  0.41554587  0.54175300  0.73704123  1
  O2-  O270  1  0.91606814  0.03621883  0.06903267  1
  O2-  O271  1  0.91427244  0.03973450  0.40463673  1
  O2-  O272  1  0.91831267  0.04251305  0.73438672  1
  O2-  O273  1  0.91491354  0.54546821  0.06625866  1
  O2-  O274  1  0.91174143  0.53679195  0.39709052  1
  O2-  O275  1  0.92060280  0.53673553  0.73338932  1
  O2-  O276  1  0.29536691  0.16508310  0.06220728  1
  O2-  O277  1  0.29247531  0.16450429  0.40067203  1
  O2-  O278  1  0.29136705  0.16905486  0.72723157  1
  O2-  O279  1  0.29510575  0.66452143  0.06668676  1
  O2-  O280  1  0.28872043  0.65724675  0.39842690  1
  O2-  O281  1  0.28556859  0.66270597  0.73713602  1
  O2-  O282  1  0.79139746  0.16438866  0.07200422  1
  O2-  O283  1  0.79207920  0.17069039  0.39871717  1
  O2-  O284  1  0.79651969  0.17120336  0.73635182  1
  O2-  O285  1  0.79997952  0.66896174  0.06253261  1
  O2-  O286  1  0.80402333  0.66694812  0.39121998  1
  O2-  O287  1  0.80840029  0.67499548  0.73031266  1
