# generated using pymatgen
data_Ca2Al2SiO7
_symmetry_space_group_name_H-M   'P 1'
_cell_length_a   15.46360211
_cell_length_b   15.46156510
_cell_length_c   15.28676892
_cell_angle_alpha   89.99715210
_cell_angle_beta   89.98725684
_cell_angle_gamma   89.99632461
_symmetry_Int_Tables_number   1
_chemical_formula_structural   Ca2Al2SiO7
_chemical_formula_sum   'Ca48 Al48 Si24 O168'
_cell_volume   3654.93626717
_cell_formula_units_Z   24
loop_
 _symmetry_equiv_pos_site_id
 _symmetry_equiv_pos_as_xyz
  1  'x, y, z'
loop_
 _atom_type_symbol
 _atom_type_oxidation_number
  Ca2+  2.0
  Al0+  0.0
  Si0+  0.0
  O2-  -2.0
loop_
 _atom_site_type_symbol
 _atom_site_label
 _atom_site_symmetry_multiplicity
 _atom_site_fract_x
 _atom_site_fract_y
 _atom_site_fract_z
 _atom_site_occupancy
  Ca2+  Ca0  1  0.17375023  0.07785325  0.17236016  1
  Ca2+  Ca1  1  0.17852140  0.08595871  0.50616966  1
  Ca2+  Ca2  1  0.17120700  0.08747601  0.83117003  1
  Ca2+  Ca3  1  0.17923934  0.58358533  0.17113843  1
  Ca2+  Ca4  1  0.17296891  0.58215602  0.50426271  1
  Ca2+  Ca5  1  0.17344709  0.57054162  0.84158027  1
  Ca2+  Ca6  1  0.67526454  0.07582231  0.16911022  1
  Ca2+  Ca7  1  0.67420999  0.08806272  0.50857612  1
  Ca2+  Ca8  1  0.67511492  0.08337332  0.84058174  1
  Ca2+  Ca9  1  0.65211987  0.58062222  0.16625266  1
  Ca2+  Ca10  1  0.65988675  0.58547653  0.50197478  1
  Ca2+  Ca11  1  0.65952794  0.58098069  0.84091704  1
  Ca2+  Ca12  1  0.08478256  0.33108085  0.16072176  1
  Ca2+  Ca13  1  0.08368050  0.33202690  0.50404594  1
  Ca2+  Ca14  1  0.08085699  0.33195397  0.82326491  1
  Ca2+  Ca15  1  0.08136524  0.82714124  0.16285024  1
  Ca2+  Ca16  1  0.08343842  0.82784899  0.49393905  1
  Ca2+  Ca17  1  0.07596601  0.83585219  0.83368568  1
  Ca2+  Ca18  1  0.57214035  0.33487396  0.16068241  1
  Ca2+  Ca19  1  0.57786261  0.32405308  0.49656439  1
  Ca2+  Ca20  1  0.57938392  0.33152812  0.83232801  1
  Ca2+  Ca21  1  0.57568389  0.82612046  0.15794269  1
  Ca2+  Ca22  1  0.57405892  0.82484759  0.49619523  1
  Ca2+  Ca23  1  0.57910224  0.82769941  0.82973409  1
  Ca2+  Ca24  1  0.34220991  0.42854490  0.16808878  1
  Ca2+  Ca25  1  0.33237665  0.42145536  0.50258353  1
  Ca2+  Ca26  1  0.32462040  0.41776016  0.84426380  1
  Ca2+  Ca27  1  0.34139752  0.91889038  0.17311894  1
  Ca2+  Ca28  1  0.34172800  0.92191793  0.50381056  1
  Ca2+  Ca29  1  0.34488333  0.92042805  0.83340153  1
  Ca2+  Ca30  1  0.82237573  0.41689564  0.16725437  1
  Ca2+  Ca31  1  0.83327924  0.41761495  0.50697413  1
  Ca2+  Ca32  1  0.82694303  0.41522030  0.83816898  1
  Ca2+  Ca33  1  0.83051407  0.91901131  0.16694926  1
  Ca2+  Ca34  1  0.83127769  0.92838448  0.50607611  1
  Ca2+  Ca35  1  0.82689985  0.92596825  0.84515639  1
  Ca2+  Ca36  1  0.40738153  0.17896200  0.16372811  1
  Ca2+  Ca37  1  0.41522012  0.16735308  0.49589942  1
  Ca2+  Ca38  1  0.42086594  0.17162576  0.82486499  1
  Ca2+  Ca39  1  0.41863145  0.67249351  0.15971211  1
  Ca2+  Ca40  1  0.42058731  0.67512754  0.49006705  1
  Ca2+  Ca41  1  0.42277979  0.67293741  0.83160688  1
  Ca2+  Ca42  1  0.91485839  0.15999886  0.16253243  1
  Ca2+  Ca43  1  0.91679885  0.16694648  0.50104717  1
  Ca2+  Ca44  1  0.91923885  0.16949333  0.82294873  1
  Ca2+  Ca45  1  0.92491652  0.67058307  0.16119058  1
  Ca2+  Ca46  1  0.92616353  0.66717021  0.49282763  1
  Ca2+  Ca47  1  0.91056383  0.67637361  0.83233134  1
  Al0+  Al48  1  0.00279762  -0.00020751  -0.00046983  1
  Al0+  Al49  1  -0.00060927  0.00099015  0.33829981  1
  Al0+  Al50  1  0.00170700  0.00192779  0.66563200  1
  Al0+  Al51  1  0.00012087  0.49719953  0.00313374  1
  Al0+  Al52  1  -0.00149883  0.49841460  0.32795866  1
  Al0+  Al53  1  -0.00154933  0.50084831  0.66829819  1
  Al0+  Al54  1  0.50309498  0.00072819  0.00296126  1
  Al0+  Al55  1  0.50317814  -0.00026055  0.33491593  1
  Al0+  Al56  1  0.50153144  0.00023181  0.66379781  1
  Al0+  Al57  1  0.49819807  0.49864900  -0.00153376  1
  Al0+  Al58  1  0.49826015  0.49736150  0.33502735  1
  Al0+  Al59  1  0.50029078  0.50066821  0.66489955  1
  Al0+  Al60  1  0.24849568  0.24891745  -0.00129071  1
  Al0+  Al61  1  0.24738562  0.24883705  0.33275629  1
  Al0+  Al62  1  0.24815062  0.24958544  0.67042202  1
  Al0+  Al63  1  0.24991019  0.75013799  -0.00296749  1
  Al0+  Al64  1  0.24924301  0.74852686  0.33004057  1
  Al0+  Al65  1  0.24855064  0.75146417  0.66591958  1
  Al0+  Al66  1  0.75159569  0.25192846  0.00922636  1
  Al0+  Al67  1  0.75011643  0.25053323  0.33656911  1
  Al0+  Al68  1  0.74989668  0.25281453  0.66353850  1
  Al0+  Al69  1  0.75161538  0.75066814  -0.00338402  1
  Al0+  Al70  1  0.75056171  0.74878497  0.33163657  1
  Al0+  Al71  1  0.74994342  0.75095775  0.66142434  1
  Al0+  Al72  1  0.93074368  0.82078831  0.98702799  1
  Al0+  Al73  1  0.57115843  0.18043026  0.65556231  1
  Al0+  Al74  1  0.32146087  0.07112382  0.34586758  1
  Al0+  Al75  1  0.42742527  0.82462619  0.98340668  1
  Al0+  Al76  1  0.17769308  0.42581602  0.01701552  1
  Al0+  Al77  1  0.57138568  0.67765649  0.31673549  1
  Al0+  Al78  1  0.31985107  0.57096341  0.01443295  1
  Al0+  Al79  1  0.07125929  0.67712635  0.31947551  1
  Al0+  Al80  1  0.57172057  0.67749741  0.64996758  1
  Al0+  Al81  1  0.42765525  0.31711889  0.32085084  1
  Al0+  Al82  1  0.92879937  0.32237892  0.65191450  1
  Al0+  Al83  1  0.42824404  0.31910425  0.98537998  1
  Al0+  Al84  1  0.82343610  0.07080986  0.01487552  1
  Al0+  Al85  1  0.82067590  0.07248700  0.68119955  1
  Al0+  Al86  1  0.07218036  0.17854022  0.64967511  1
  Al0+  Al87  1  0.82033506  0.07070372  0.35075061  1
  Al0+  Al88  1  0.57039062  0.67849078  0.98455618  1
  Al0+  Al89  1  0.32048133  0.57022680  0.34871721  1
  Al0+  Al90  1  0.42753093  0.82098730  0.65031718  1
  Al0+  Al91  1  0.42937399  0.82269208  0.31730839  1
  Al0+  Al92  1  0.67874483  0.43061049  0.01341427  1
  Al0+  Al93  1  0.17925779  0.43116190  0.67951562  1
  Al0+  Al94  1  0.32233805  0.06919260  0.68067291  1
  Al0+  Al95  1  0.67835938  0.92690866  0.01562245  1
  Si0+  Si96  1  0.82104082  0.57296704  0.68037327  1
  Si0+  Si97  1  0.17715052  0.92585161  0.68439948  1
  Si0+  Si98  1  0.17800531  0.92779762  0.34914630  1
  Si0+  Si99  1  0.68010507  0.92745367  0.68308750  1
  Si0+  Si100  1  0.17892976  0.92945436  0.01355689  1
  Si0+  Si101  1  0.67856104  0.43042065  0.68062789  1
  Si0+  Si102  1  0.06890739  0.17900970  0.31738395  1
  Si0+  Si103  1  0.32217083  0.07027834  0.01338812  1
  Si0+  Si104  1  0.82289795  0.57015523  0.34758790  1
  Si0+  Si105  1  0.92796924  0.32062540  0.98644145  1
  Si0+  Si106  1  0.82317620  0.57318513  0.01648366  1
  Si0+  Si107  1  0.57527930  0.17830389  0.31596689  1
  Si0+  Si108  1  0.67888153  0.43013245  0.35040029  1
  Si0+  Si109  1  0.92952125  0.82292789  0.31786613  1
  Si0+  Si110  1  0.57446620  0.17985641  0.98642094  1
  Si0+  Si111  1  0.32257323  0.57376118  0.68336928  1
  Si0+  Si112  1  0.42604364  0.32146328  0.65116555  1
  Si0+  Si113  1  0.92696158  0.32058907  0.31584734  1
  Si0+  Si114  1  0.07172064  0.67585707  0.98157355  1
  Si0+  Si115  1  0.67941363  0.92536695  0.35266426  1
  Si0+  Si116  1  0.06854723  0.67935954  0.65391123  1
  Si0+  Si117  1  0.17475465  0.42763896  0.35071105  1
  Si0+  Si118  1  0.92896988  0.82287732  0.65098659  1
  Si0+  Si119  1  0.07049632  0.17847944  0.98506079  1
  O2-  O120  1  0.25616211  -0.00600583  0.05497134  1
  O2-  O121  1  0.25094392  -0.00786463  0.39255577  1
  O2-  O122  1  0.24856345  -0.00724240  0.72717158  1
  O2-  O123  1  0.24834155  0.49857050  0.06633282  1
  O2-  O124  1  0.24352922  0.49633303  0.39438859  1
  O2-  O125  1  0.25663447  0.50216628  0.72693741  1
  O2-  O126  1  0.75204765  -0.00157257  0.06482077  1
  O2-  O127  1  0.74542671  -0.00320971  0.39760152  1
  O2-  O128  1  0.74727874  -0.00250848  0.72798329  1
  O2-  O129  1  0.75029062  0.50888476  0.06068031  1
  O2-  O130  1  0.74875413  0.50336985  0.39151354  1
  O2-  O131  1  0.74636449  0.50553620  0.72150057  1
  O2-  O132  1  -0.00274137  0.24876699  0.27397170  1
  O2-  O133  1  -0.00094170  0.24982253  0.59983382  1
  O2-  O134  1  -0.00039425  0.25050914  0.94493818  1
  O2-  O135  1  -0.00232727  0.75370171  0.27397492  1
  O2-  O136  1  0.00056641  0.75230238  0.60928647  1
  O2-  O137  1  0.00155550  0.74326287  0.93730180  1
  O2-  O138  1  0.50031696  0.24041327  0.27272262  1
  O2-  O139  1  0.49354987  0.25158710  0.60732655  1
  O2-  O140  1  0.50321304  0.24437706  0.93989558  1
  O2-  O141  1  0.50013445  0.74995247  0.26728900  1
  O2-  O142  1  0.49625467  0.74570543  0.60105393  1
  O2-  O143  1  0.50039450  0.75263642  0.93517884  1
  O2-  O144  1  0.07091938  0.17731004  0.09064130  1
  O2-  O145  1  0.06979561  0.18008650  0.42180435  1
  O2-  O146  1  0.07094582  0.17956360  0.76358941  1
  O2-  O147  1  0.07048224  0.67800664  0.08731580  1
  O2-  O148  1  0.06786112  0.67746586  0.43334628  1
  O2-  O149  1  0.06484570  0.67969754  0.75865521  1
  O2-  O150  1  0.57378521  0.18216328  0.09210110  1
  O2-  O151  1  0.57831077  0.18324584  0.42173436  1
  O2-  O152  1  0.57186697  0.18412449  0.76873058  1
  O2-  O153  1  0.56770308  0.67876533  0.09782176  1
  O2-  O154  1  0.57088058  0.67955857  0.43029907  1
  O2-  O155  1  0.57447002  0.67722552  0.76287976  1
  O2-  O156  1  0.17281558  0.42755014  0.24562087  1
  O2-  O157  1  0.17871880  0.43493662  0.56614180  1
  O2-  O158  1  0.17696916  0.42644591  0.90320671  1
  O2-  O159  1  0.17275812  0.93193602  0.24343237  1
  O2-  O160  1  0.17443408  0.92379405  0.57885786  1
  O2-  O161  1  0.17285620  0.93387652  0.90897528  1
  O2-  O162  1  0.68103703  0.42835252  0.24544890  1
  O2-  O163  1  0.67981018  0.42970720  0.57527241  1
  O2-  O164  1  0.68288307  0.42756097  0.90009539  1
  O2-  O165  1  0.68252763  0.92510516  0.24732814  1
  O2-  O166  1  0.68447919  0.92643634  0.57734865  1
  O2-  O167  1  0.68020823  0.92977831  0.90176284  1
  O2-  O168  1  0.42853059  0.31749802  0.09865362  1
  O2-  O169  1  0.42981327  0.31692636  0.43426388  1
  O2-  O170  1  0.42797834  0.32157028  0.75678978  1
  O2-  O171  1  0.42684824  0.82498754  0.09662254  1
  O2-  O172  1  0.42998782  0.82174833  0.43076546  1
  O2-  O173  1  0.42943624  0.82010979  0.76361288  1
  O2-  O174  1  0.92746665  0.32014255  0.09180014  1
  O2-  O175  1  0.92677164  0.32287494  0.42053460  1
  O2-  O176  1  0.92865486  0.32308423  0.76568472  1
  O2-  O177  1  0.93600386  0.82070194  0.10021751  1
  O2-  O178  1  0.93126185  0.82164089  0.42399885  1
  O2-  O179  1  0.92845581  0.82162937  0.75590661  1
  O2-  O180  1  0.31511402  0.07345308  0.23243105  1
  O2-  O181  1  0.31998630  0.06960167  0.56749017  1
  O2-  O182  1  0.32002316  0.07254713  0.90851735  1
  O2-  O183  1  0.32065844  0.56975703  0.23616319  1
  O2-  O184  1  0.32007988  0.57334269  0.57749829  1
  O2-  O185  1  0.31701462  0.56929358  0.90050163  1
  O2-  O186  1  0.82140596  0.06917778  0.23793402  1
  O2-  O187  1  0.81890498  0.07018885  0.56785315  1
  O2-  O188  1  0.82295142  0.07260560  0.90129490  1
  O2-  O189  1  0.82692594  0.56686460  0.24306094  1
  O2-  O190  1  0.82437876  0.57177843  0.57506131  1
  O2-  O191  1  0.82639476  0.56968084  0.91057739  1
  O2-  O192  1  0.04113521  0.08623069  0.27112776  1
  O2-  O193  1  0.04645340  0.07950077  0.59651031  1
  O2-  O194  1  0.04357430  0.08762312  0.93632379  1
  O2-  O195  1  0.03733248  0.58253127  0.26369587  1
  O2-  O196  1  0.03681213  0.59006944  0.60447355  1
  O2-  O197  1  0.04597948  0.58086743  0.93850214  1
  O2-  O198  1  0.55835987  0.08159491  0.27488790  1
  O2-  O199  1  0.54637394  0.08360723  0.59999914  1
  O2-  O200  1  0.55347204  0.08503290  0.94223502  1
  O2-  O201  1  0.54334785  0.57732161  0.26916161  1
  O2-  O202  1  0.54802220  0.57694288  0.59817614  1
  O2-  O203  1  0.54092042  0.58028817  0.93168016  1
  O2-  O204  1  0.15939038  0.20728522  0.26758339  1
  O2-  O205  1  0.17001889  0.21017224  0.59702310  1
  O2-  O206  1  0.16150630  0.20571391  0.93611639  1
  O2-  O207  1  0.16567445  0.70799533  0.26301224  1
  O2-  O208  1  0.16081073  0.70458180  0.60623289  1
  O2-  O209  1  0.16343359  0.70382164  0.93416555  1
  O2-  O210  1  0.66623955  0.21146146  0.26878041  1
  O2-  O211  1  0.66424748  0.21634094  0.59777010  1
  O2-  O212  1  0.66762815  0.21051098  0.94194139  1
  O2-  O213  1  0.67285648  0.70059203  0.26680276  1
  O2-  O214  1  0.67027328  0.70696164  0.59584350  1
  O2-  O215  1  0.67156645  0.70093721  0.93397303  1
  O2-  O216  1  0.07780461  0.45066115  0.06925455  1
  O2-  O217  1  0.08015097  0.45346647  0.39537276  1
  O2-  O218  1  0.08303389  0.46443079  0.73391955  1
  O2-  O219  1  0.09158364  0.96373808  0.06595387  1
  O2-  O220  1  0.08657576  0.95702004  0.39849215  1
  O2-  O221  1  0.08471447  0.95526764  0.73137529  1
  O2-  O222  1  0.58160937  0.45766469  0.06731861  1
  O2-  O223  1  0.58753529  0.45491937  0.39948210  1
  O2-  O224  1  0.58544498  0.45385912  0.72810761  1
  O2-  O225  1  0.58183926  0.95748375  0.07191172  1
  O2-  O226  1  0.58538222  0.94902160  0.39822332  1
  O2-  O227  1  0.58577285  0.95140676  0.72643604  1
  O2-  O228  1  0.20465795  0.32615103  0.06822949  1
  O2-  O229  1  0.20079342  0.33369207  0.39563918  1
  O2-  O230  1  0.20512492  0.33368549  0.73349415  1
  O2-  O231  1  0.19848644  0.83497431  0.05860990  1
  O2-  O232  1  0.19758832  0.83219567  0.39280319  1
  O2-  O233  1  0.19790144  0.83150001  0.73185592  1
  O2-  O234  1  0.71368854  0.33805731  0.07307574  1
  O2-  O235  1  0.71060527  0.33974643  0.39867932  1
  O2-  O236  1  0.71046884  0.34104487  0.72945599  1
  O2-  O237  1  0.70936254  0.82878203  0.06745402  1
  O2-  O238  1  0.70858764  0.83241182  0.39908541  1
  O2-  O239  1  0.70909704  0.83418766  0.72843777  1
  O2-  O240  1  0.46259939  0.41227204  0.26779670  1
  O2-  O241  1  0.45303662  0.41478815  0.60530690  1
  O2-  O242  1  0.45885674  0.41439666  0.93057452  1
  O2-  O243  1  0.45769998  0.92255360  0.26647050  1
  O2-  O244  1  0.45864255  0.91860695  0.59785800  1
  O2-  O245  1  0.45710801  0.92450754  0.93319325  1
  O2-  O246  1  0.95397729  0.41135398  0.26628348  1
  O2-  O247  1  0.95810333  0.42117269  0.59845715  1
  O2-  O248  1  0.95328568  0.41320070  0.93898869  1
  O2-  O249  1  0.95680540  0.91650009  0.27298660  1
  O2-  O250  1  0.95778551  0.91379809  0.60311495  1
  O2-  O251  1  0.96656867  0.91563582  0.93192528  1
  O2-  O252  1  0.33057586  0.28795581  0.26653715  1
  O2-  O253  1  0.33250693  0.29665598  0.60616352  1
  O2-  O254  1  0.33185016  0.28658916  0.93173446  1
  O2-  O255  1  0.32889692  0.79828394  0.26730764  1
  O2-  O256  1  0.32623578  0.79793412  0.59958771  1
  O2-  O257  1  0.32762453  0.79885658  0.93107849  1
  O2-  O258  1  0.83481357  0.29226427  0.26931943  1
  O2-  O259  1  0.83113279  0.29618494  0.59682597  1
  O2-  O260  1  0.83596652  0.29264287  0.93976256  1
  O2-  O261  1  0.83653365  0.79685553  0.27221601  1
  O2-  O262  1  0.83895466  0.79424691  0.60108609  1
  O2-  O263  1  0.83536646  0.79272976  0.92967645  1
  O2-  O264  1  0.41515630  0.05061759  0.06135393  1
  O2-  O265  1  0.42126027  0.04832457  0.39746136  1
  O2-  O266  1  0.42019470  0.04148104  0.73424542  1
  O2-  O267  1  0.41710161  0.53990869  0.06702018  1
  O2-  O268  1  0.41532396  0.53540667  0.40429197  1
  O2-  O269  1  0.41765137  0.55030106  0.72674476  1
  O2-  O270  1  0.92214125  0.04066493  0.06721532  1
  O2-  O271  1  0.91728528  0.04032725  0.40510378  1
  O2-  O272  1  0.91924147  0.04326328  0.73145876  1
  O2-  O273  1  0.91451812  0.54255570  0.06486105  1
  O2-  O274  1  0.91298326  0.53764253  0.39704829  1
  O2-  O275  1  0.91025481  0.54334536  0.73128928  1
  O2-  O276  1  0.28620181  0.15902368  0.06185539  1
  O2-  O277  1  0.28426000  0.16555209  0.40082840  1
  O2-  O278  1  0.28938215  0.16495294  0.73564536  1
  O2-  O279  1  0.28991110  0.67010387  0.06608012  1
  O2-  O280  1  0.28747154  0.66718600  0.40144829  1
  O2-  O281  1  0.29310789  0.66637233  0.72871280  1
  O2-  O282  1  0.79593698  0.16818352  0.07036611  1
  O2-  O283  1  0.79057615  0.16878284  0.40293292  1
  O2-  O284  1  0.79000590  0.17065137  0.73172514  1
  O2-  O285  1  0.80526931  0.66873597  0.06014246  1
  O2-  O286  1  0.80139771  0.66410434  0.39423679  1
  O2-  O287  1  0.79675045  0.66672744  0.72597485  1
