# generated using pymatgen
data_Ca2Al2SiO7
_symmetry_space_group_name_H-M   'P 1'
_cell_length_a   15.46002350
_cell_length_b   15.46175192
_cell_length_c   15.28610617
_cell_angle_alpha   90.00248399
_cell_angle_beta   90.00752119
_cell_angle_gamma   90.00584388
_symmetry_Int_Tables_number   1
_chemical_formula_structural   Ca2Al2SiO7
_chemical_formula_sum   'Ca48 Al48 Si24 O168'
_cell_volume   3653.97621559
_cell_formula_units_Z   24
loop_
 _symmetry_equiv_pos_site_id
 _symmetry_equiv_pos_as_xyz
  1  'x, y, z'
loop_
 _atom_type_symbol
 _atom_type_oxidation_number
  Ca2+  2.0
  Al0+  0.0
  Si0+  0.0
  O2-  -2.0
loop_
 _atom_site_type_symbol
 _atom_site_label
 _atom_site_symmetry_multiplicity
 _atom_site_fract_x
 _atom_site_fract_y
 _atom_site_fract_z
 _atom_site_occupancy
  Ca2+  Ca0  1  0.17257951  0.08466030  0.17319510  1
  Ca2+  Ca1  1  0.17235250  0.08044922  0.50726871  1
  Ca2+  Ca2  1  0.15713977  0.08152414  0.83553912  1
  Ca2+  Ca3  1  0.17267376  0.58450431  0.16946338  1
  Ca2+  Ca4  1  0.16601489  0.58155015  0.50787391  1
  Ca2+  Ca5  1  0.16917798  0.57646851  0.83404588  1
  Ca2+  Ca6  1  0.66713475  0.08480589  0.16975355  1
  Ca2+  Ca7  1  0.66053661  0.06972403  0.50311447  1
  Ca2+  Ca8  1  0.66878102  0.08229710  0.83856491  1
  Ca2+  Ca9  1  0.67270701  0.57562407  0.17411827  1
  Ca2+  Ca10  1  0.67116308  0.57762862  0.50498701  1
  Ca2+  Ca11  1  0.67788386  0.57094217  0.83772710  1
  Ca2+  Ca12  1  0.07903290  0.32515946  0.15996310  1
  Ca2+  Ca13  1  0.07583398  0.33885242  0.50331865  1
  Ca2+  Ca14  1  0.07930970  0.32374104  0.82053219  1
  Ca2+  Ca15  1  0.08296924  0.82518031  0.16551235  1
  Ca2+  Ca16  1  0.08684732  0.82167989  0.49753478  1
  Ca2+  Ca17  1  0.08029689  0.82684948  0.82273140  1
  Ca2+  Ca18  1  0.57695324  0.33837645  0.15951848  1
  Ca2+  Ca19  1  0.57468516  0.34305717  0.49532894  1
  Ca2+  Ca20  1  0.57825657  0.34275208  0.83080505  1
  Ca2+  Ca21  1  0.58580339  0.83131231  0.17050927  1
  Ca2+  Ca22  1  0.58535061  0.82983514  0.48831172  1
  Ca2+  Ca23  1  0.58325855  0.83240076  0.82701038  1
  Ca2+  Ca24  1  0.33903028  0.41633828  0.16784411  1
  Ca2+  Ca25  1  0.32938195  0.41234133  0.50686458  1
  Ca2+  Ca26  1  0.33059336  0.41239001  0.83618977  1
  Ca2+  Ca27  1  0.33767895  0.92598245  0.17658697  1
  Ca2+  Ca28  1  0.33520067  0.92342948  0.50386656  1
  Ca2+  Ca29  1  0.32346051  0.91755283  0.83449634  1
  Ca2+  Ca30  1  0.81912038  0.42034646  0.17353155  1
  Ca2+  Ca31  1  0.82364944  0.42387915  0.50813568  1
  Ca2+  Ca32  1  0.83162407  0.42074303  0.83799488  1
  Ca2+  Ca33  1  0.82853118  0.92565199  0.17027826  1
  Ca2+  Ca34  1  0.82141210  0.91250832  0.50345415  1
  Ca2+  Ca35  1  0.82857635  0.92211483  0.83627618  1
  Ca2+  Ca36  1  0.42185615  0.17642119  0.16152992  1
  Ca2+  Ca37  1  0.41388266  0.17713255  0.49507204  1
  Ca2+  Ca38  1  0.42452442  0.17963762  0.83065189  1
  Ca2+  Ca39  1  0.42376085  0.66707614  0.16549569  1
  Ca2+  Ca40  1  0.42661987  0.67557898  0.48858598  1
  Ca2+  Ca41  1  0.41644314  0.66271329  0.83130989  1
  Ca2+  Ca42  1  0.92190025  0.16277495  0.15586788  1
  Ca2+  Ca43  1  0.92021963  0.17126672  0.50255464  1
  Ca2+  Ca44  1  0.92186413  0.16985569  0.82692482  1
  Ca2+  Ca45  1  0.91506667  0.65991903  0.16766110  1
  Ca2+  Ca46  1  0.92525085  0.65258778  0.49702717  1
  Ca2+  Ca47  1  0.91829026  0.66013791  0.82516028  1
  Al0+  Al48  1  -0.00205013  -0.00396373  0.00099572  1
  Al0+  Al49  1  0.00137938  -0.00127682  0.33439547  1
  Al0+  Al50  1  0.00012718  -0.00174681  0.66397505  1
  Al0+  Al51  1  0.00211522  0.49962253  0.00345435  1
  Al0+  Al52  1  0.00113831  0.49793335  0.32814415  1
  Al0+  Al53  1  0.00276248  0.49855808  0.66684590  1
  Al0+  Al54  1  0.49670425  -0.00047143  -0.00516081  1
  Al0+  Al55  1  0.49949610  0.00295037  0.33848446  1
  Al0+  Al56  1  0.49877101  0.00175268  0.67314927  1
  Al0+  Al57  1  0.49815522  0.50315801  0.00195698  1
  Al0+  Al58  1  0.49857054  0.50243903  0.32845627  1
  Al0+  Al59  1  0.50129389  0.50273835  0.66448856  1
  Al0+  Al60  1  0.25005930  0.24739804  -0.00738407  1
  Al0+  Al61  1  0.25056588  0.24947868  0.33328371  1
  Al0+  Al62  1  0.25240840  0.24985544  0.66419189  1
  Al0+  Al63  1  0.24842462  0.74882484  0.00327497  1
  Al0+  Al64  1  0.24870709  0.75040457  0.32445401  1
  Al0+  Al65  1  0.25011226  0.75303269  0.66663851  1
  Al0+  Al66  1  0.75036823  0.24764427  0.00532890  1
  Al0+  Al67  1  0.75021658  0.25118448  0.33906964  1
  Al0+  Al68  1  0.74793339  0.24799674  0.66390212  1
  Al0+  Al69  1  0.74931707  0.75046870  0.00203476  1
  Al0+  Al70  1  0.75388175  0.75131682  0.33453888  1
  Al0+  Al71  1  0.74990798  0.75011751  0.67545256  1
  Al0+  Al72  1  0.67549315  0.42956989  0.35022793  1
  Al0+  Al73  1  0.07004557  0.17661025  0.98697339  1
  Al0+  Al74  1  0.67883077  0.42843201  0.01542573  1
  Al0+  Al75  1  0.82336815  0.57011755  0.34917863  1
  Al0+  Al76  1  0.07172329  0.17652069  0.64954404  1
  Al0+  Al77  1  0.43224247  0.32239309  0.65180590  1
  Al0+  Al78  1  0.68128242  0.93212553  0.34507123  1
  Al0+  Al79  1  0.82347658  0.57241627  0.01690473  1
  Al0+  Al80  1  0.07016290  0.67724546  0.31737089  1
  Al0+  Al81  1  0.82012831  0.06926445  0.01191255  1
  Al0+  Al82  1  0.07100278  0.67951573  0.65473330  1
  Al0+  Al83  1  0.82261537  0.56870960  0.68176907  1
  Al0+  Al84  1  0.92679078  0.32145732  0.65166464  1
  Al0+  Al85  1  0.42963599  0.82423434  0.31869274  1
  Al0+  Al86  1  0.57296010  0.17712306  0.98541768  1
  Al0+  Al87  1  0.67765667  0.92891786  0.68168977  1
  Al0+  Al88  1  0.31893238  0.57132477  0.01450650  1
  Al0+  Al89  1  0.32013313  0.07178958  0.34709606  1
  Al0+  Al90  1  0.57404618  0.68023820  0.31769201  1
  Al0+  Al91  1  0.67623904  0.42711380  0.68167942  1
  Al0+  Al92  1  0.17931835  0.92945670  0.67947247  1
  Al0+  Al93  1  0.18118093  0.42822163  0.67904758  1
  Al0+  Al94  1  0.43100955  0.32359616  0.98339820  1
  Al0+  Al95  1  0.42837401  0.32107950  0.31911630  1
  Si0+  Si96  1  0.17772897  0.92683410  0.34958864  1
  Si0+  Si97  1  0.06983350  0.17841207  0.31915323  1
  Si0+  Si98  1  0.67431329  0.92839083  0.01673288  1
  Si0+  Si99  1  0.57147719  0.68227131  0.65351950  1
  Si0+  Si100  1  0.32211131  0.57407887  0.67981777  1
  Si0+  Si101  1  0.17973215  0.42462813  0.01654867  1
  Si0+  Si102  1  0.31940886  0.06970820  0.01413542  1
  Si0+  Si103  1  0.42619987  0.82100879  0.98322879  1
  Si0+  Si104  1  0.07152038  0.67884584  0.98402204  1
  Si0+  Si105  1  0.92894736  0.82459241  0.31506141  1
  Si0+  Si106  1  0.18063834  0.42873258  0.34673884  1
  Si0+  Si107  1  0.92840545  0.31972241  0.31736135  1
  Si0+  Si108  1  0.82209051  0.07118082  0.68191133  1
  Si0+  Si109  1  0.31957298  0.57353127  0.34736216  1
  Si0+  Si110  1  0.82651698  0.07372453  0.35208042  1
  Si0+  Si111  1  0.92886563  0.32164646  0.98590100  1
  Si0+  Si112  1  0.42893372  0.82290675  0.65343666  1
  Si0+  Si113  1  0.92601100  0.82102145  0.65033265  1
  Si0+  Si114  1  0.57154728  0.17517600  0.64845613  1
  Si0+  Si115  1  0.17788433  0.92807125  0.01658548  1
  Si0+  Si116  1  0.57294735  0.17883575  0.31935344  1
  Si0+  Si117  1  0.57095958  0.68137347  0.98343271  1
  Si0+  Si118  1  0.92844890  0.81918397  0.98498020  1
  Si0+  Si119  1  0.32117013  0.07326747  0.68735379  1
  O2-  O120  1  0.24752695  0.00016097  0.05826887  1
  O2-  O121  1  0.24818520  -0.00633326  0.39289438  1
  O2-  O122  1  0.24863924  0.00712755  0.73019835  1
  O2-  O123  1  0.24848230  0.49262927  0.06183561  1
  O2-  O124  1  0.25023239  0.50128041  0.38942478  1
  O2-  O125  1  0.25626658  0.50313729  0.72474156  1
  O2-  O126  1  0.74028926  0.00017791  0.05947610  1
  O2-  O127  1  0.75571284  0.00632114  0.39408017  1
  O2-  O128  1  0.75184172  0.00422426  0.72683193  1
  O2-  O129  1  0.75237423  0.49927784  0.06526567  1
  O2-  O130  1  0.74746309  0.50253787  0.39874082  1
  O2-  O131  1  0.75401444  0.49324389  0.73094792  1
  O2-  O132  1  -0.00532068  0.24359499  0.27528490  1
  O2-  O133  1  0.00016763  0.24971224  0.60077643  1
  O2-  O134  1  -0.00269614  0.25290657  0.94113553  1
  O2-  O135  1  -0.00472799  0.75277231  0.27159695  1
  O2-  O136  1  -0.00638995  0.75110994  0.60674277  1
  O2-  O137  1  -0.00558926  0.74340688  0.94286393  1
  O2-  O138  1  0.50911942  0.25166232  0.27481176  1
  O2-  O139  1  0.50850839  0.24914364  0.60483951  1
  O2-  O140  1  0.50760442  0.25512854  0.93484206  1
  O2-  O141  1  0.50134816  0.75279715  0.26739353  1
  O2-  O142  1  0.50221038  0.75519636  0.61116184  1
  O2-  O143  1  0.49903238  0.75228458  0.94059309  1
  O2-  O144  1  0.07022872  0.17721094  0.10092794  1
  O2-  O145  1  0.07024112  0.17890057  0.42363512  1
  O2-  O146  1  0.06759731  0.17622788  0.76338733  1
  O2-  O147  1  0.07448640  0.68255305  0.08904458  1
  O2-  O148  1  0.07242350  0.67802792  0.43036123  1
  O2-  O149  1  0.07292619  0.68247536  0.76815859  1
  O2-  O150  1  0.56630064  0.17132136  0.09889520  1
  O2-  O151  1  0.56995865  0.17599829  0.42485431  1
  O2-  O152  1  0.56824310  0.17000303  0.75364032  1
  O2-  O153  1  0.57114377  0.68420278  0.08820568  1
  O2-  O154  1  0.57120342  0.68222750  0.43192050  1
  O2-  O155  1  0.56842484  0.68318739  0.75888124  1
  O2-  O156  1  0.18111090  0.42730876  0.24142514  1
  O2-  O157  1  0.18190895  0.43079675  0.56544436  1
  O2-  O158  1  0.17873982  0.42660483  0.91115691  1
  O2-  O159  1  0.17499839  0.93025118  0.24359349  1
  O2-  O160  1  0.18547085  0.92627243  0.56676339  1
  O2-  O161  1  0.17871487  0.92607714  0.91147714  1
  O2-  O162  1  0.67738518  0.42753195  0.23672787  1
  O2-  O163  1  0.67284259  0.43413546  0.56862016  1
  O2-  O164  1  0.68025764  0.43138754  0.90195016  1
  O2-  O165  1  0.68241990  0.93547187  0.23181060  1
  O2-  O166  1  0.67723617  0.92819108  0.56862057  1
  O2-  O167  1  0.67656895  0.92683869  0.91105339  1
  O2-  O168  1  0.42842534  0.31954432  0.09707883  1
  O2-  O169  1  0.42467237  0.31860042  0.43204872  1
  O2-  O170  1  0.43173351  0.32195603  0.76453560  1
  O2-  O171  1  0.42565526  0.82283187  0.08789114  1
  O2-  O172  1  0.42958078  0.82196108  0.43280832  1
  O2-  O173  1  0.42761643  0.82073194  0.75892264  1
  O2-  O174  1  0.93263306  0.31960219  0.09195978  1
  O2-  O175  1  0.93138910  0.32078508  0.42206512  1
  O2-  O176  1  0.92883421  0.31946999  0.76564306  1
  O2-  O177  1  0.93189681  0.82266885  0.08987347  1
  O2-  O178  1  0.93148077  0.83081200  0.42009113  1
  O2-  O179  1  0.92802489  0.82214387  0.75638865  1
  O2-  O180  1  0.31655898  0.07236544  0.23341664  1
  O2-  O181  1  0.32301963  0.07018134  0.58156827  1
  O2-  O182  1  0.31854011  0.06631831  0.90941440  1
  O2-  O183  1  0.31741879  0.57343288  0.24219859  1
  O2-  O184  1  0.32066557  0.57627448  0.57419241  1
  O2-  O185  1  0.31447537  0.57655891  0.90145759  1
  O2-  O186  1  0.82971674  0.07193469  0.24635819  1
  O2-  O187  1  0.82217321  0.06831454  0.57623329  1
  O2-  O188  1  0.82482381  0.06351940  0.89931177  1
  O2-  O189  1  0.82306859  0.56488485  0.23564950  1
  O2-  O190  1  0.81985292  0.57115465  0.56858263  1
  O2-  O191  1  0.82341950  0.57265800  0.90351011  1
  O2-  O192  1  0.04732998  0.08443592  0.27227806  1
  O2-  O193  1  0.04361934  0.07780930  0.59591276  1
  O2-  O194  1  0.03821322  0.07896300  0.93545662  1
  O2-  O195  1  0.04174179  0.58083742  0.26102671  1
  O2-  O196  1  0.04547063  0.58236048  0.60037804  1
  O2-  O197  1  0.05114206  0.58378271  0.93994290  1
  O2-  O198  1  0.54274383  0.08739860  0.27199955  1
  O2-  O199  1  0.53777092  0.08313744  0.60196890  1
  O2-  O200  1  0.53877735  0.08058412  0.92951764  1
  O2-  O201  1  0.54146498  0.58444610  0.26236034  1
  O2-  O202  1  0.54246439  0.59256394  0.60367558  1
  O2-  O203  1  0.54083619  0.59077411  0.93616143  1
  O2-  O204  1  0.15960873  0.21121796  0.27069135  1
  O2-  O205  1  0.17140529  0.20306526  0.59967802  1
  O2-  O206  1  0.16618967  0.20292912  0.93111827  1
  O2-  O207  1  0.16456559  0.71011033  0.25925103  1
  O2-  O208  1  0.16665462  0.71472821  0.60002983  1
  O2-  O209  1  0.16087997  0.71368221  0.93626251  1
  O2-  O210  1  0.66993888  0.19758558  0.27655486  1
  O2-  O211  1  0.66737994  0.19005750  0.60376415  1
  O2-  O212  1  0.67563741  0.19524985  0.93735724  1
  O2-  O213  1  0.67269179  0.70988894  0.26579918  1
  O2-  O214  1  0.66391612  0.71050092  0.60857025  1
  O2-  O215  1  0.66251013  0.71062465  0.93573135  1
  O2-  O216  1  0.08697303  0.45097854  0.06441091  1
  O2-  O217  1  0.08832564  0.45609589  0.39233999  1
  O2-  O218  1  0.08621695  0.45846322  0.73520402  1
  O2-  O219  1  0.08619599  0.95398818  0.06446344  1
  O2-  O220  1  0.08525763  0.95365048  0.39712781  1
  O2-  O221  1  0.08046030  0.95436969  0.73251526  1
  O2-  O222  1  0.58049000  0.46013829  0.06606856  1
  O2-  O223  1  0.57562068  0.45943360  0.39935267  1
  O2-  O224  1  0.58063753  0.46499720  0.73532932  1
  O2-  O225  1  0.57832852  0.94982757  0.05925721  1
  O2-  O226  1  0.58544631  0.96182888  0.40134393  1
  O2-  O227  1  0.58114539  0.95811286  0.73711710  1
  O2-  O228  1  0.20432276  0.32973269  0.06092784  1
  O2-  O229  1  0.20948306  0.33811760  0.39496768  1
  O2-  O230  1  0.21177184  0.33157566  0.73295294  1
  O2-  O231  1  0.20760185  0.83750767  0.06494712  1
  O2-  O232  1  0.20142551  0.83139271  0.39178903  1
  O2-  O233  1  0.21468939  0.83547205  0.73740264  1
  O2-  O234  1  0.70295908  0.32893982  0.06843860  1
  O2-  O235  1  0.70298390  0.33044420  0.40289090  1
  O2-  O236  1  0.69441093  0.32396580  0.72809704  1
  O2-  O237  1  0.70392813  0.83653537  0.06341362  1
  O2-  O238  1  0.71245595  0.83597119  0.39975410  1
  O2-  O239  1  0.70869813  0.83467145  0.73986340  1
  O2-  O240  1  0.45201981  0.41949945  0.26597050  1
  O2-  O241  1  0.45845730  0.42094592  0.59813967  1
  O2-  O242  1  0.45239070  0.42497470  0.93290958  1
  O2-  O243  1  0.45855569  0.92354022  0.26741596  1
  O2-  O244  1  0.45369146  0.91677855  0.60927537  1
  O2-  O245  1  0.45061316  0.91232449  0.93311445  1
  O2-  O246  1  0.96241326  0.40737024  0.26640649  1
  O2-  O247  1  0.96015924  0.41793472  0.59768632  1
  O2-  O248  1  0.95518107  0.41576793  0.94117853  1
  O2-  O249  1  0.95887861  0.91688761  0.26601295  1
  O2-  O250  1  0.95118257  0.91356132  0.60269511  1
  O2-  O251  1  0.96198984  0.90768484  0.93464721  1
  O2-  O252  1  0.33322102  0.28507194  0.26414313  1
  O2-  O253  1  0.33630781  0.28926231  0.59778934  1
  O2-  O254  1  0.33383196  0.28974154  0.93034658  1
  O2-  O255  1  0.33126065  0.79821184  0.26428697  1
  O2-  O256  1  0.33877500  0.79398561  0.60433323  1
  O2-  O257  1  0.33431941  0.78984106  0.93686476  1
  O2-  O258  1  0.83439884  0.29573243  0.27245006  1
  O2-  O259  1  0.82863359  0.29273614  0.59731697  1
  O2-  O260  1  0.83487305  0.29658809  0.94233581  1
  O2-  O261  1  0.83550324  0.80234867  0.26790629  1
  O2-  O262  1  0.83088374  0.79654169  0.60715831  1
  O2-  O263  1  0.83417090  0.79830686  0.93897532  1
  O2-  O264  1  0.41039807  0.03872882  0.06144164  1
  O2-  O265  1  0.41552809  0.04405028  0.40423667  1
  O2-  O266  1  0.41207265  0.04276566  0.73600265  1
  O2-  O267  1  0.41638085  0.54697223  0.06878633  1
  O2-  O268  1  0.41249633  0.54962488  0.39311543  1
  O2-  O269  1  0.41614738  0.55120108  0.72550257  1
  O2-  O270  1  0.91403256  0.03104998  0.06933253  1
  O2-  O271  1  0.91947589  0.04572825  0.39851648  1
  O2-  O272  1  0.91508411  0.04306760  0.72771267  1
  O2-  O273  1  0.92444513  0.54866841  0.06741388  1
  O2-  O274  1  0.92196191  0.53582716  0.39876285  1
  O2-  O275  1  0.92235989  0.54380955  0.73317778  1
  O2-  O276  1  0.29207748  0.16206391  0.06030273  1
  O2-  O277  1  0.28407273  0.16586901  0.40267461  1
  O2-  O278  1  0.29895398  0.16747765  0.73164107  1
  O2-  O279  1  0.28363750  0.66592995  0.07092031  1
  O2-  O280  1  0.29002255  0.66582950  0.39303161  1
  O2-  O281  1  0.29474677  0.66642170  0.72793333  1
  O2-  O282  1  0.79836449  0.16572247  0.06993846  1
  O2-  O283  1  0.80366618  0.16758591  0.39759214  1
  O2-  O284  1  0.79841689  0.16499124  0.72748977  1
  O2-  O285  1  0.79414790  0.67175783  0.06806230  1
  O2-  O286  1  0.80648409  0.67284283  0.39677887  1
  O2-  O287  1  0.79277046  0.66623255  0.73676466  1
