# generated using pymatgen
data_Ca2Al2SiO7
_symmetry_space_group_name_H-M   'P 1'
_cell_length_a   15.45996673
_cell_length_b   15.46079404
_cell_length_c   15.28574265
_cell_angle_alpha   90.00566543
_cell_angle_beta   90.01060123
_cell_angle_gamma   90.02266022
_symmetry_Int_Tables_number   1
_chemical_formula_structural   Ca2Al2SiO7
_chemical_formula_sum   'Ca48 Al48 Si24 O168'
_cell_volume   3653.64922570
_cell_formula_units_Z   24
loop_
 _symmetry_equiv_pos_site_id
 _symmetry_equiv_pos_as_xyz
  1  'x, y, z'
loop_
 _atom_type_symbol
 _atom_type_oxidation_number
  Ca2+  2.0
  Al0+  0.0
  Si0+  0.0
  O2-  -2.0
loop_
 _atom_site_type_symbol
 _atom_site_label
 _atom_site_symmetry_multiplicity
 _atom_site_fract_x
 _atom_site_fract_y
 _atom_site_fract_z
 _atom_site_occupancy
  Ca2+  Ca0  1  0.16046192  0.07407251  0.17091768  1
  Ca2+  Ca1  1  0.16862806  0.07161977  0.49889900  1
  Ca2+  Ca2  1  0.16035333  0.07193312  0.83915155  1
  Ca2+  Ca3  1  0.16967772  0.58316374  0.16940981  1
  Ca2+  Ca4  1  0.16868200  0.57345195  0.51085624  1
  Ca2+  Ca5  1  0.17269186  0.59231237  0.83829842  1
  Ca2+  Ca6  1  0.67309581  0.07173470  0.16793225  1
  Ca2+  Ca7  1  0.66549201  0.07560263  0.49992895  1
  Ca2+  Ca8  1  0.67458078  0.07504630  0.84507978  1
  Ca2+  Ca9  1  0.68125850  0.58418388  0.17558638  1
  Ca2+  Ca10  1  0.66650922  0.58174199  0.50039013  1
  Ca2+  Ca11  1  0.67060909  0.58102572  0.83688485  1
  Ca2+  Ca12  1  0.08142611  0.32727791  0.15698540  1
  Ca2+  Ca13  1  0.09165471  0.33436781  0.49315569  1
  Ca2+  Ca14  1  0.07870719  0.33286484  0.83294234  1
  Ca2+  Ca15  1  0.07440063  0.83453923  0.15767576  1
  Ca2+  Ca16  1  0.08298840  0.83043298  0.49582170  1
  Ca2+  Ca17  1  0.08489366  0.82664713  0.83100959  1
  Ca2+  Ca18  1  0.57743361  0.34084252  0.16679394  1
  Ca2+  Ca19  1  0.57821405  0.34016917  0.49028633  1
  Ca2+  Ca20  1  0.58445744  0.33517395  0.82678058  1
  Ca2+  Ca21  1  0.58838769  0.83205254  0.16479491  1
  Ca2+  Ca22  1  0.58439507  0.82083424  0.48999416  1
  Ca2+  Ca23  1  0.58299777  0.82742343  0.82802757  1
  Ca2+  Ca24  1  0.32777850  0.41942240  0.17241851  1
  Ca2+  Ca25  1  0.32564217  0.41814990  0.50282126  1
  Ca2+  Ca26  1  0.32694860  0.43032256  0.83375180  1
  Ca2+  Ca27  1  0.31772548  0.92245218  0.17326953  1
  Ca2+  Ca28  1  0.32454756  0.91727250  0.50145195  1
  Ca2+  Ca29  1  0.31897800  0.90969174  0.83786788  1
  Ca2+  Ca30  1  0.83816292  0.42910638  0.17151134  1
  Ca2+  Ca31  1  0.82252376  0.42400005  0.50214779  1
  Ca2+  Ca32  1  0.83054332  0.42091242  0.84071242  1
  Ca2+  Ca33  1  0.83028511  0.91065706  0.17008326  1
  Ca2+  Ca34  1  0.83151093  0.90899066  0.49460336  1
  Ca2+  Ca35  1  0.82908315  0.91767650  0.84610090  1
  Ca2+  Ca36  1  0.41106865  0.16999275  0.16739007  1
  Ca2+  Ca37  1  0.41328139  0.17358440  0.48826766  1
  Ca2+  Ca38  1  0.41932021  0.16855190  0.82974455  1
  Ca2+  Ca39  1  0.42520574  0.66092459  0.16326484  1
  Ca2+  Ca40  1  0.42770232  0.65471726  0.49906343  1
  Ca2+  Ca41  1  0.41870454  0.66189547  0.82640580  1
  Ca2+  Ca42  1  0.91927199  0.17432033  0.15427707  1
  Ca2+  Ca43  1  0.91891344  0.17164237  0.49589223  1
  Ca2+  Ca44  1  0.91862667  0.16594194  0.83836477  1
  Ca2+  Ca45  1  0.91788709  0.67282402  0.15924408  1
  Ca2+  Ca46  1  0.92193735  0.66931474  0.49283553  1
  Ca2+  Ca47  1  0.92639002  0.66638844  0.83541278  1
  Al0+  Al48  1  -0.00201422  0.00176437  -0.00038355  1
  Al0+  Al49  1  -0.00045019  -0.00006424  0.33483842  1
  Al0+  Al50  1  -0.00031161  0.00244295  0.66755767  1
  Al0+  Al51  1  0.00016645  0.49931404  -0.00477741  1
  Al0+  Al52  1  0.00063407  0.50049421  0.34156531  1
  Al0+  Al53  1  -0.00243676  0.49922690  0.66512429  1
  Al0+  Al54  1  0.49886249  -0.00023873  0.00164940  1
  Al0+  Al55  1  0.50109688  0.00059272  0.33980647  1
  Al0+  Al56  1  0.50073370  0.00018124  0.66584577  1
  Al0+  Al57  1  0.49782907  0.50010553  0.00123427  1
  Al0+  Al58  1  0.50043489  0.49883642  0.32431825  1
  Al0+  Al59  1  0.49987462  0.49858420  0.66975090  1
  Al0+  Al60  1  0.25125616  0.25067671  -0.00868233  1
  Al0+  Al61  1  0.25131311  0.25016824  0.33384529  1
  Al0+  Al62  1  0.24971010  0.24995488  0.67010008  1
  Al0+  Al63  1  0.25283183  0.75100670  0.00858009  1
  Al0+  Al64  1  0.25256434  0.74954622  0.33740415  1
  Al0+  Al65  1  0.24961144  0.75124864  0.66762574  1
  Al0+  Al66  1  0.74681077  0.24850155  0.00001732  1
  Al0+  Al67  1  0.74969955  0.24975137  0.33467833  1
  Al0+  Al68  1  0.74995189  0.24979733  0.66879942  1
  Al0+  Al69  1  0.74916962  0.74643842  0.00135452  1
  Al0+  Al70  1  0.75213189  0.75054601  0.33392129  1
  Al0+  Al71  1  0.74987333  0.75034687  0.66288948  1
  Al0+  Al72  1  0.32016982  0.07120182  0.34698335  1
  Al0+  Al73  1  0.92648169  0.32230849  0.98518063  1
  Al0+  Al74  1  0.92661453  0.82042272  0.98524100  1
  Al0+  Al75  1  0.67972344  0.42983108  0.68044708  1
  Al0+  Al76  1  0.56981371  0.67990424  0.31743520  1
  Al0+  Al77  1  0.42929007  0.31930036  0.31828097  1
  Al0+  Al78  1  0.17846488  0.93033620  0.01355682  1
  Al0+  Al79  1  0.17541898  0.42676616  0.68410326  1
  Al0+  Al80  1  0.07217025  0.17831927  0.98405176  1
  Al0+  Al81  1  0.82229726  0.56822937  0.01214302  1
  Al0+  Al82  1  0.17626321  0.92703332  0.34927976  1
  Al0+  Al83  1  0.93245299  0.81983444  0.31949454  1
  Al0+  Al84  1  0.67843520  0.42941840  0.34594292  1
  Al0+  Al85  1  0.82225201  0.57303371  0.35029443  1
  Al0+  Al86  1  0.31940817  0.57019256  0.68033643  1
  Al0+  Al87  1  0.57019124  0.67876568  0.65328153  1
  Al0+  Al88  1  0.07427849  0.68032920  0.98730622  1
  Al0+  Al89  1  0.68007988  0.92908809  0.34844095  1
  Al0+  Al90  1  0.17995596  0.43041675  0.34389149  1
  Al0+  Al91  1  0.82103976  0.07174021  0.01549010  1
  Al0+  Al92  1  0.17916581  0.93058858  0.68148982  1
  Al0+  Al93  1  0.67800217  0.92662454  0.01422500  1
  Al0+  Al94  1  0.32115938  0.57159098  0.01612159  1
  Al0+  Al95  1  0.07150444  0.67898875  0.65238010  1
  Si0+  Si96  1  0.82152932  0.57429822  0.68444820  1
  Si0+  Si97  1  0.43042688  0.31829260  0.65185351  1
  Si0+  Si98  1  0.32379618  0.07210810  0.68416457  1
  Si0+  Si99  1  0.57265649  0.17782216  0.65114049  1
  Si0+  Si100  1  0.92877724  0.82454314  0.64972264  1
  Si0+  Si101  1  0.07026171  0.17979441  0.64954142  1
  Si0+  Si102  1  0.32232034  0.07436526  0.01451210  1
  Si0+  Si103  1  0.42767639  0.82499954  0.31629037  1
  Si0+  Si104  1  0.07478073  0.67548818  0.31894738  1
  Si0+  Si105  1  0.43028844  0.82200661  0.98645022  1
  Si0+  Si106  1  0.92774751  0.32217888  0.32086355  1
  Si0+  Si107  1  0.56827428  0.17776519  0.98465862  1
  Si0+  Si108  1  0.17923559  0.42732561  0.01442543  1
  Si0+  Si109  1  0.56997235  0.67792951  0.98446690  1
  Si0+  Si110  1  0.06995517  0.18102337  0.32027321  1
  Si0+  Si111  1  0.67932690  0.92820393  0.68064923  1
  Si0+  Si112  1  0.81974768  0.07181169  0.68171454  1
  Si0+  Si113  1  0.42789672  0.82384801  0.64936826  1
  Si0+  Si114  1  0.67636164  0.42709073  0.01616375  1
  Si0+  Si115  1  0.42942591  0.32297159  0.98084069  1
  Si0+  Si116  1  0.92642470  0.32048713  0.64990783  1
  Si0+  Si117  1  0.57404556  0.17555811  0.31549175  1
  Si0+  Si118  1  0.32413922  0.57158384  0.34894644  1
  Si0+  Si119  1  0.82254080  0.07340214  0.35122217  1
  O2-  O120  1  0.24896182  0.01091056  0.05751635  1
  O2-  O121  1  0.25211296  -0.00358965  0.39787276  1
  O2-  O122  1  0.25664873  0.00293026  0.72859576  1
  O2-  O123  1  0.24418593  0.49834946  0.06045586  1
  O2-  O124  1  0.25037529  0.50829213  0.39203319  1
  O2-  O125  1  0.24164809  0.50506227  0.73228771  1
  O2-  O126  1  0.75418859  -0.00562429  0.06408181  1
  O2-  O127  1  0.75380886  0.00491310  0.39599327  1
  O2-  O128  1  0.75031584  -0.00136572  0.72269114  1
  O2-  O129  1  0.74974955  0.49077885  0.05851935  1
  O2-  O130  1  0.74824960  0.50150231  0.39841327  1
  O2-  O131  1  0.75286257  0.50484221  0.72794231  1
  O2-  O132  1  -0.00114794  0.25176136  0.27843491  1
  O2-  O133  1  0.00316518  0.25496320  0.60699078  1
  O2-  O134  1  -0.00098937  0.25034369  0.93471783  1
  O2-  O135  1  0.00980158  0.74717790  0.27456769  1
  O2-  O136  1  -0.00321293  0.75459921  0.60674272  1
  O2-  O137  1  0.00238856  0.75223841  0.93551324  1
  O2-  O138  1  0.50561052  0.24507909  0.27167416  1
  O2-  O139  1  0.49988097  0.24611785  0.60856313  1
  O2-  O140  1  0.50034335  0.25086456  0.93996563  1
  O2-  O141  1  0.49497274  0.75533037  0.27089608  1
  O2-  O142  1  0.49576066  0.75396208  0.60601683  1
  O2-  O143  1  0.50104711  0.75123880  0.94283586  1
  O2-  O144  1  0.07496289  0.18214363  0.09815995  1
  O2-  O145  1  0.06866672  0.18198890  0.42598190  1
  O2-  O146  1  0.06753118  0.17680663  0.75387097  1
  O2-  O147  1  0.07440908  0.68039327  0.10091668  1
  O2-  O148  1  0.07244207  0.67481314  0.42472334  1
  O2-  O149  1  0.07135669  0.68173473  0.76522780  1
  O2-  O150  1  0.56591407  0.17645831  0.08920537  1
  O2-  O151  1  0.57395779  0.17640320  0.42160801  1
  O2-  O152  1  0.57171721  0.17736393  0.75645239  1
  O2-  O153  1  0.56860500  0.67640606  0.08925377  1
  O2-  O154  1  0.56721542  0.67886094  0.43095499  1
  O2-  O155  1  0.57085595  0.68166223  0.76674986  1
  O2-  O156  1  0.18040687  0.42849326  0.23082142  1
  O2-  O157  1  0.18182565  0.42374387  0.57035929  1
  O2-  O158  1  0.18281170  0.42651704  0.90918194  1
  O2-  O159  1  0.17435647  0.93070055  0.23594657  1
  O2-  O160  1  0.17869855  0.93338088  0.56865793  1
  O2-  O161  1  0.18254537  0.92896670  0.90022119  1
  O2-  O162  1  0.68086153  0.42973111  0.23250677  1
  O2-  O163  1  0.67987291  0.42797390  0.56791588  1
  O2-  O164  1  0.67403640  0.42977411  0.91005726  1
  O2-  O165  1  0.68068539  0.93028966  0.23591021  1
  O2-  O166  1  0.67908310  0.92952201  0.57584796  1
  O2-  O167  1  0.67497806  0.93006673  0.89970274  1
  O2-  O168  1  0.42864781  0.32311387  0.08568647  1
  O2-  O169  1  0.42913406  0.31851973  0.43179363  1
  O2-  O170  1  0.43299727  0.31602786  0.75721342  1
  O2-  O171  1  0.43173766  0.82307401  0.09119707  1
  O2-  O172  1  0.42935492  0.82508706  0.42202731  1
  O2-  O173  1  0.43114693  0.82715491  0.75530312  1
  O2-  O174  1  0.92919552  0.32215988  0.09940545  1
  O2-  O175  1  0.92725461  0.31857042  0.42623989  1
  O2-  O176  1  0.92285447  0.31606414  0.75437428  1
  O2-  O177  1  0.92671843  0.81736480  0.09876246  1
  O2-  O178  1  0.93358165  0.81958387  0.43321550  1
  O2-  O179  1  0.92673223  0.82672145  0.75484562  1
  O2-  O180  1  0.31628701  0.07214939  0.23331642  1
  O2-  O181  1  0.32398435  0.07327223  0.57892966  1
  O2-  O182  1  0.32645297  0.07155252  0.90870874  1
  O2-  O183  1  0.32389527  0.56937983  0.24315157  1
  O2-  O184  1  0.32283693  0.56446161  0.56683033  1
  O2-  O185  1  0.32545281  0.56969388  0.90329766  1
  O2-  O186  1  0.82253467  0.07556944  0.24643948  1
  O2-  O187  1  0.81839814  0.07458273  0.57652864  1
  O2-  O188  1  0.81510358  0.07264479  0.90113081  1
  O2-  O189  1  0.82436372  0.57046614  0.23663849  1
  O2-  O190  1  0.82033751  0.57383837  0.57905339  1
  O2-  O191  1  0.81789939  0.56876020  0.89877215  1
  O2-  O192  1  0.04168652  0.08927640  0.27400310  1
  O2-  O193  1  0.03718447  0.09015841  0.59988721  1
  O2-  O194  1  0.04165119  0.08136900  0.92932987  1
  O2-  O195  1  0.04679623  0.58183670  0.27389002  1
  O2-  O196  1  0.04145583  0.58102677  0.59933264  1
  O2-  O197  1  0.04757503  0.58184650  0.93348511  1
  O2-  O198  1  0.54747498  0.08189455  0.27056023  1
  O2-  O199  1  0.54749503  0.08488481  0.60367372  1
  O2-  O200  1  0.53760763  0.08724591  0.93456917  1
  O2-  O201  1  0.53930068  0.58495145  0.26037777  1
  O2-  O202  1  0.53798413  0.58145534  0.60078300  1
  O2-  O203  1  0.53869158  0.58678498  0.93682051  1
  O2-  O204  1  0.16101795  0.20909419  0.27306804  1
  O2-  O205  1  0.16449539  0.20430220  0.60470052  1
  O2-  O206  1  0.17047416  0.20475064  0.92791240  1
  O2-  O207  1  0.17156172  0.69531408  0.27687828  1
  O2-  O208  1  0.16883570  0.70880037  0.59885073  1
  O2-  O209  1  0.17417495  0.71061982  0.93709598  1
  O2-  O210  1  0.66824947  0.20006783  0.27012334  1
  O2-  O211  1  0.66432671  0.20594982  0.60413307  1
  O2-  O212  1  0.66002923  0.20298650  0.93571331  1
  O2-  O213  1  0.66708153  0.71189986  0.26649938  1
  O2-  O214  1  0.66633504  0.71002837  0.59819781  1
  O2-  O215  1  0.66159178  0.70311888  0.93622595  1
  O2-  O216  1  0.08360819  0.44694267  0.05728475  1
  O2-  O217  1  0.08423989  0.45460455  0.40253423  1
  O2-  O218  1  0.07283510  0.44631107  0.73045899  1
  O2-  O219  1  0.08110711  0.95880591  0.06541517  1
  O2-  O220  1  0.08076396  0.96202000  0.40446283  1
  O2-  O221  1  0.08310001  0.96540053  0.73389275  1
  O2-  O222  1  0.58419243  0.45714177  0.06199074  1
  O2-  O223  1  0.57843408  0.45730819  0.39566843  1
  O2-  O224  1  0.58359232  0.45809392  0.73607975  1
  O2-  O225  1  0.58106773  0.96052656  0.06734379  1
  O2-  O226  1  0.58466805  0.95899897  0.40536291  1
  O2-  O227  1  0.58699028  0.95605288  0.72767101  1
  O2-  O228  1  0.21018154  0.33412434  0.05906910  1
  O2-  O229  1  0.21424470  0.33557464  0.39924368  1
  O2-  O230  1  0.20894214  0.32993971  0.73754863  1
  O2-  O231  1  0.21515496  0.83822694  0.07108561  1
  O2-  O232  1  0.20392237  0.82812132  0.40199519  1
  O2-  O233  1  0.20966462  0.83436287  0.73540937  1
  O2-  O234  1  0.69273266  0.33092303  0.05895107  1
  O2-  O235  1  0.70454269  0.33001078  0.39921785  1
  O2-  O236  1  0.71027027  0.33256707  0.73459801  1
  O2-  O237  1  0.70083563  0.82686382  0.06494669  1
  O2-  O238  1  0.71358489  0.83439207  0.40356801  1
  O2-  O239  1  0.70616687  0.83615192  0.72770855  1
  O2-  O240  1  0.45917922  0.41373132  0.25964925  1
  O2-  O241  1  0.46002307  0.40933328  0.60532668  1
  O2-  O242  1  0.46042208  0.41383253  0.93298166  1
  O2-  O243  1  0.45439511  0.91903388  0.27200258  1
  O2-  O244  1  0.45475009  0.91748968  0.60261171  1
  O2-  O245  1  0.45642104  0.91359706  0.93657869  1
  O2-  O246  1  0.95590038  0.41495337  0.27650678  1
  O2-  O247  1  0.94566986  0.41442688  0.60364647  1
  O2-  O248  1  0.95481906  0.41863935  0.92826090  1
  O2-  O249  1  0.95874467  0.91895889  0.26743645  1
  O2-  O250  1  0.95462859  0.91843750  0.60317521  1
  O2-  O251  1  0.94830552  0.92151973  0.93573664  1
  O2-  O252  1  0.33390985  0.28550399  0.26242111  1
  O2-  O253  1  0.33744715  0.29115021  0.60594632  1
  O2-  O254  1  0.33922595  0.29593339  0.93021026  1
  O2-  O255  1  0.33262047  0.80091940  0.27182019  1
  O2-  O256  1  0.33378144  0.80087471  0.60460855  1
  O2-  O257  1  0.33918572  0.79185740  0.93956746  1
  O2-  O258  1  0.83636198  0.29452736  0.27284323  1
  O2-  O259  1  0.83717486  0.28478737  0.60091556  1
  O2-  O260  1  0.82663028  0.29362925  0.93344748  1
  O2-  O261  1  0.83571722  0.78954279  0.26669582  1
  O2-  O262  1  0.83488562  0.79884015  0.60320215  1
  O2-  O263  1  0.82850029  0.78895838  0.93162739  1
  O2-  O264  1  0.41334691  0.04495645  0.06307837  1
  O2-  O265  1  0.41979448  0.04979855  0.40077719  1
  O2-  O266  1  0.41910773  0.04877408  0.72938951  1
  O2-  O267  1  0.41625379  0.53563548  0.07041580  1
  O2-  O268  1  0.41575498  0.53820683  0.39317508  1
  O2-  O269  1  0.41522734  0.53547878  0.73567168  1
  O2-  O270  1  0.92150996  0.05369794  0.06617016  1
  O2-  O271  1  0.91506355  0.04699812  0.39929169  1
  O2-  O272  1  0.91213505  0.04643072  0.72801235  1
  O2-  O273  1  0.91971955  0.53972734  0.06575896  1
  O2-  O274  1  0.91835433  0.54234659  0.40641070  1
  O2-  O275  1  0.91471722  0.54731276  0.72932831  1
  O2-  O276  1  0.30254385  0.17104554  0.05624587  1
  O2-  O277  1  0.28815632  0.16740732  0.40244721  1
  O2-  O278  1  0.29816668  0.16519688  0.73081400  1
  O2-  O279  1  0.29642903  0.66755405  0.07311067  1
  O2-  O280  1  0.30878852  0.66718453  0.39420234  1
  O2-  O281  1  0.29931651  0.67133626  0.73118275  1
  O2-  O282  1  0.78643837  0.16838983  0.06927380  1
  O2-  O283  1  0.79642772  0.16627677  0.39955372  1
  O2-  O284  1  0.78915162  0.16143544  0.73113215  1
  O2-  O285  1  0.78781022  0.66241562  0.06744941  1
  O2-  O286  1  0.79335856  0.67021083  0.40367774  1
  O2-  O287  1  0.79476251  0.66823823  0.72914599  1
