# generated using pymatgen
data_Ca2Al2SiO7
_symmetry_space_group_name_H-M   'P 1'
_cell_length_a   15.45861077
_cell_length_b   15.45884966
_cell_length_c   15.28385805
_cell_angle_alpha   89.98943701
_cell_angle_beta   90.00026362
_cell_angle_gamma   90.01243201
_symmetry_Int_Tables_number   1
_chemical_formula_structural   Ca2Al2SiO7
_chemical_formula_sum   'Ca48 Al48 Si24 O168'
_cell_volume   3652.41917231
_cell_formula_units_Z   24
loop_
 _symmetry_equiv_pos_site_id
 _symmetry_equiv_pos_as_xyz
  1  'x, y, z'
loop_
 _atom_type_symbol
 _atom_type_oxidation_number
  Ca2+  2.0
  Al0+  0.0
  Si0+  0.0
  O2-  -2.0
loop_
 _atom_site_type_symbol
 _atom_site_label
 _atom_site_symmetry_multiplicity
 _atom_site_fract_x
 _atom_site_fract_y
 _atom_site_fract_z
 _atom_site_occupancy
  Ca2+  Ca0  1  0.17345992  0.08829754  0.16981286  1
  Ca2+  Ca1  1  0.17744933  0.08438272  0.50562829  1
  Ca2+  Ca2  1  0.17209580  0.07508201  0.84272705  1
  Ca2+  Ca3  1  0.16949354  0.57587545  0.16456257  1
  Ca2+  Ca4  1  0.17100121  0.58227466  0.50914284  1
  Ca2+  Ca5  1  0.17475031  0.58517056  0.84047315  1
  Ca2+  Ca6  1  0.66402063  0.08529427  0.17279653  1
  Ca2+  Ca7  1  0.67214306  0.09113829  0.49641371  1
  Ca2+  Ca8  1  0.66701901  0.07606754  0.84301852  1
  Ca2+  Ca9  1  0.66520113  0.57444539  0.16518053  1
  Ca2+  Ca10  1  0.67061311  0.57413761  0.50411170  1
  Ca2+  Ca11  1  0.67695650  0.58293339  0.84577341  1
  Ca2+  Ca12  1  0.08414059  0.32256892  0.16145554  1
  Ca2+  Ca13  1  0.07570841  0.32641682  0.48823891  1
  Ca2+  Ca14  1  0.09279512  0.33016789  0.83687521  1
  Ca2+  Ca15  1  0.08212540  0.83572353  0.16039880  1
  Ca2+  Ca16  1  0.08722850  0.83040002  0.50370975  1
  Ca2+  Ca17  1  0.08156438  0.83206527  0.82430358  1
  Ca2+  Ca18  1  0.58434134  0.32750995  0.16353971  1
  Ca2+  Ca19  1  0.57606267  0.32896941  0.48664979  1
  Ca2+  Ca20  1  0.58729442  0.32992638  0.83614443  1
  Ca2+  Ca21  1  0.57721538  0.83342196  0.15802646  1
  Ca2+  Ca22  1  0.57333588  0.82881645  0.49207453  1
  Ca2+  Ca23  1  0.58558160  0.82779760  0.83463024  1
  Ca2+  Ca24  1  0.33559837  0.41705895  0.16702878  1
  Ca2+  Ca25  1  0.33441190  0.41912457  0.50391233  1
  Ca2+  Ca26  1  0.32787398  0.42824918  0.84116304  1
  Ca2+  Ca27  1  0.33258744  0.92698718  0.16952346  1
  Ca2+  Ca28  1  0.33161537  0.92717197  0.50469082  1
  Ca2+  Ca29  1  0.32119697  0.92379325  0.83912897  1
  Ca2+  Ca30  1  0.82290645  0.41155974  0.17060779  1
  Ca2+  Ca31  1  0.82774775  0.41345065  0.50086386  1
  Ca2+  Ca32  1  0.83148416  0.43098037  0.84208905  1
  Ca2+  Ca33  1  0.82386247  0.92320488  0.16863347  1
  Ca2+  Ca34  1  0.83617386  0.92107273  0.50143457  1
  Ca2+  Ca35  1  0.82913810  0.91193744  0.83932912  1
  Ca2+  Ca36  1  0.42222491  0.16468834  0.16153421  1
  Ca2+  Ca37  1  0.41854690  0.16872411  0.48844595  1
  Ca2+  Ca38  1  0.41714951  0.15911759  0.83485138  1
  Ca2+  Ca39  1  0.42017302  0.67250527  0.15881172  1
  Ca2+  Ca40  1  0.41020234  0.67401175  0.49363433  1
  Ca2+  Ca41  1  0.41958608  0.65838402  0.83164513  1
  Ca2+  Ca42  1  0.92357775  0.16659313  0.16508804  1
  Ca2+  Ca43  1  0.92322328  0.16993327  0.48553765  1
  Ca2+  Ca44  1  0.92538367  0.16666044  0.83271688  1
  Ca2+  Ca45  1  0.91413561  0.66715998  0.16001608  1
  Ca2+  Ca46  1  0.91804153  0.66880429  0.50414868  1
  Ca2+  Ca47  1  0.91948157  0.66921097  0.82340316  1
  Al0+  Al48  1  -0.00052463  0.00045491  -0.00272377  1
  Al0+  Al49  1  -0.00080301  -0.00342025  0.33395964  1
  Al0+  Al50  1  -0.00062295  0.00056812  0.66455953  1
  Al0+  Al51  1  0.00151603  0.50208396  0.00623147  1
  Al0+  Al52  1  -0.00040810  0.50110600  0.33073462  1
  Al0+  Al53  1  -0.00164980  0.49856719  0.66535677  1
  Al0+  Al54  1  0.49916374  -0.00035703  0.00008513  1
  Al0+  Al55  1  0.49746420  -0.00237483  0.33146503  1
  Al0+  Al56  1  0.50234585  -0.00070190  0.66802192  1
  Al0+  Al57  1  0.50182363  0.50119098  0.00111995  1
  Al0+  Al58  1  0.50113257  0.50079597  0.33570760  1
  Al0+  Al59  1  0.49995771  0.49655801  0.66941930  1
  Al0+  Al60  1  0.25037488  0.25053821  -0.00044753  1
  Al0+  Al61  1  0.24984468  0.25132165  0.33211994  1
  Al0+  Al62  1  0.25314067  0.25096665  0.66911759  1
  Al0+  Al63  1  0.24877827  0.75205364  0.00674241  1
  Al0+  Al64  1  0.24958213  0.75024191  0.32787764  1
  Al0+  Al65  1  0.25073613  0.75024009  0.66948709  1
  Al0+  Al66  1  0.75130298  0.25186687  -0.00506402  1
  Al0+  Al67  1  0.74960613  0.25023280  0.33612437  1
  Al0+  Al68  1  0.74968166  0.24755905  0.66746528  1
  Al0+  Al69  1  0.74818444  0.75191023  0.00498108  1
  Al0+  Al70  1  0.75137593  0.74865045  0.33511470  1
  Al0+  Al71  1  0.75021925  0.74911699  0.66242656  1
  Al0+  Al72  1  0.67904541  0.93061979  0.01250652  1
  Al0+  Al73  1  0.32376409  0.07283924  0.68243211  1
  Al0+  Al74  1  0.56950328  0.17908481  0.31935916  1
  Al0+  Al75  1  0.82005275  0.06925366  0.34585395  1
  Al0+  Al76  1  0.17569910  0.92968150  0.01637209  1
  Al0+  Al77  1  0.82146939  0.57327614  0.01577556  1
  Al0+  Al78  1  0.32288681  0.57230035  0.01672066  1
  Al0+  Al79  1  0.92735712  0.82231333  0.65010589  1
  Al0+  Al80  1  0.07140063  0.17675855  0.31924391  1
  Al0+  Al81  1  0.56976700  0.67995377  0.98643733  1
  Al0+  Al82  1  0.68017468  0.42732189  0.01502565  1
  Al0+  Al83  1  0.32091393  0.57108425  0.67861319  1
  Al0+  Al84  1  0.07147699  0.17943445  0.98413756  1
  Al0+  Al85  1  0.81950141  0.56991911  0.67925905  1
  Al0+  Al86  1  0.17948680  0.42883120  0.01612608  1
  Al0+  Al87  1  0.42778490  0.32422103  0.31819305  1
  Al0+  Al88  1  0.17808201  0.93064527  0.68066224  1
  Al0+  Al89  1  0.67952743  0.42994281  0.34848528  1
  Al0+  Al90  1  0.42812430  0.82009119  0.31896222  1
  Al0+  Al91  1  0.32053821  0.07085336  0.01635836  1
  Al0+  Al92  1  0.92782934  0.32197639  0.31792381  1
  Al0+  Al93  1  0.31985955  0.07144333  0.34736343  1
  Al0+  Al94  1  0.07284597  0.67789217  0.65282651  1
  Al0+  Al95  1  0.57172983  0.17851939  0.98463621  1
  Si0+  Si96  1  0.57333556  0.67848555  0.31774087  1
  Si0+  Si97  1  0.82445437  0.57381635  0.35328858  1
  Si0+  Si98  1  0.42852643  0.32276865  0.98082984  1
  Si0+  Si99  1  0.17665714  0.42762977  0.68107419  1
  Si0+  Si100  1  0.31953302  0.57161757  0.34790325  1
  Si0+  Si101  1  0.43063816  0.82041108  0.65321836  1
  Si0+  Si102  1  0.92707528  0.31965098  0.65193183  1
  Si0+  Si103  1  0.57159805  0.17721428  0.65097684  1
  Si0+  Si104  1  0.68001466  0.92844400  0.67974627  1
  Si0+  Si105  1  0.42621475  0.82175955  0.98071218  1
  Si0+  Si106  1  0.07137977  0.67938722  0.98617371  1
  Si0+  Si107  1  0.67824045  0.42586230  0.68448970  1
  Si0+  Si108  1  0.43054359  0.32099910  0.65222244  1
  Si0+  Si109  1  0.82211026  0.07306574  0.01370497  1
  Si0+  Si110  1  0.92861681  0.82033446  0.98642137  1
  Si0+  Si111  1  0.17747841  0.92547601  0.35127448  1
  Si0+  Si112  1  0.17786638  0.42994986  0.34892330  1
  Si0+  Si113  1  0.07126287  0.67930751  0.31658388  1
  Si0+  Si114  1  0.82114185  0.07173100  0.68174904  1
  Si0+  Si115  1  0.92937369  0.32434051  0.98143223  1
  Si0+  Si116  1  0.92762128  0.81998876  0.31652476  1
  Si0+  Si117  1  0.67705729  0.92575286  0.35106899  1
  Si0+  Si118  1  0.57119480  0.67647999  0.65157420  1
  Si0+  Si119  1  0.07188418  0.18043280  0.65239009  1
  O2-  O120  1  0.24620674  0.00182436  0.06690006  1
  O2-  O121  1  0.24282516  -0.00185957  0.39396276  1
  O2-  O122  1  0.24819399  0.00405118  0.73061600  1
  O2-  O123  1  0.25352953  0.49820372  0.06718333  1
  O2-  O124  1  0.25065549  0.49927550  0.39177131  1
  O2-  O125  1  0.24134585  0.50092290  0.72350376  1
  O2-  O126  1  0.74810813  0.01059723  0.05804560  1
  O2-  O127  1  0.74418255  -0.00395051  0.39541354  1
  O2-  O128  1  0.75313432  -0.00264370  0.72228209  1
  O2-  O129  1  0.75301955  0.49825701  0.06524994  1
  O2-  O130  1  0.75594876  0.50369545  0.39541186  1
  O2-  O131  1  0.74534363  0.49606294  0.72747002  1
  O2-  O132  1  -0.00052092  0.24924112  0.26924631  1
  O2-  O133  1  0.00052912  0.25100785  0.61006203  1
  O2-  O134  1  -0.00163086  0.25603480  0.93600942  1
  O2-  O135  1  -0.00150567  0.74893552  0.27494010  1
  O2-  O136  1  0.00154381  0.75082756  0.60150224  1
  O2-  O137  1  -0.00014485  0.74984370  0.94428552  1
  O2-  O138  1  0.49684901  0.24958845  0.26859035  1
  O2-  O139  1  0.49950399  0.24763073  0.61058269  1
  O2-  O140  1  0.49706143  0.25311219  0.93624790  1
  O2-  O141  1  0.50652111  0.74866455  0.27407062  1
  O2-  O142  1  0.49767948  0.74521585  0.60954347  1
  O2-  O143  1  0.49245866  0.75038815  0.93593786  1
  O2-  O144  1  0.06768780  0.17786674  0.09663475  1
  O2-  O145  1  0.07076589  0.17982974  0.43401189  1
  O2-  O146  1  0.07018230  0.18151661  0.75739902  1
  O2-  O147  1  0.06995323  0.68046171  0.09165041  1
  O2-  O148  1  0.07366176  0.67931809  0.42164090  1
  O2-  O149  1  0.07131418  0.67788355  0.76627412  1
  O2-  O150  1  0.57198328  0.17846675  0.09694269  1
  O2-  O151  1  0.56865214  0.18105247  0.43406583  1
  O2-  O152  1  0.57454620  0.17704018  0.75580939  1
  O2-  O153  1  0.57020766  0.68387086  0.09942060  1
  O2-  O154  1  0.57169631  0.67944413  0.42430136  1
  O2-  O155  1  0.57281325  0.67842785  0.75635805  1
  O2-  O156  1  0.17611637  0.43283866  0.24457364  1
  O2-  O157  1  0.17916210  0.42523349  0.57514881  1
  O2-  O158  1  0.17985280  0.43257503  0.90172393  1
  O2-  O159  1  0.17819581  0.92269807  0.24616480  1
  O2-  O160  1  0.18101304  0.93197018  0.56674471  1
  O2-  O161  1  0.17499766  0.92900945  0.90270297  1
  O2-  O162  1  0.67891216  0.43168508  0.23622248  1
  O2-  O163  1  0.67834640  0.42545633  0.57879130  1
  O2-  O164  1  0.68332202  0.42867927  0.90071793  1
  O2-  O165  1  0.68008965  0.92294878  0.24578726  1
  O2-  O166  1  0.67728845  0.93037728  0.57478473  1
  O2-  O167  1  0.68319891  0.92849085  0.89858917  1
  O2-  O168  1  0.42924802  0.32274002  0.08608388  1
  O2-  O169  1  0.42964977  0.32491786  0.43288069  1
  O2-  O170  1  0.43166350  0.32468694  0.75666764  1
  O2-  O171  1  0.42909222  0.82111346  0.08639186  1
  O2-  O172  1  0.42774056  0.81741921  0.43323459  1
  O2-  O173  1  0.43446025  0.82170690  0.75772581  1
  O2-  O174  1  0.92805951  0.32189206  0.08653147  1
  O2-  O175  1  0.93113834  0.32135474  0.43278331  1
  O2-  O176  1  0.92408109  0.31777751  0.75667218  1
  O2-  O177  1  0.92886819  0.82015708  0.09180967  1
  O2-  O178  1  0.92619633  0.81942363  0.42138401  1
  O2-  O179  1  0.92389355  0.82016019  0.76371163  1
  O2-  O180  1  0.32084241  0.06970655  0.23518076  1
  O2-  O181  1  0.32443997  0.07276886  0.56854593  1
  O2-  O182  1  0.31968160  0.06721888  0.90248984  1
  O2-  O183  1  0.31765805  0.57255899  0.24354675  1
  O2-  O184  1  0.32197627  0.56849367  0.56488819  1
  O2-  O185  1  0.32005847  0.57143608  0.90261089  1
  O2-  O186  1  0.82052139  0.06558387  0.23305162  1
  O2-  O187  1  0.81919795  0.07514487  0.57684584  1
  O2-  O188  1  0.82285603  0.06898562  0.90732173  1
  O2-  O189  1  0.82387097  0.57798677  0.24837081  1
  O2-  O190  1  0.81668351  0.56799626  0.56617882  1
  O2-  O191  1  0.82117408  0.57426871  0.90163228  1
  O2-  O192  1  0.04365714  0.07717255  0.26911093  1
  O2-  O193  1  0.04440419  0.08912307  0.60474562  1
  O2-  O194  1  0.03604693  0.08413311  0.92839773  1
  O2-  O195  1  0.04437645  0.58772602  0.26888962  1
  O2-  O196  1  0.04376325  0.57894503  0.59890427  1
  O2-  O197  1  0.04590364  0.58687568  0.93918090  1
  O2-  O198  1  0.54540640  0.07880360  0.26957244  1
  O2-  O199  1  0.54663161  0.08471000  0.60353255  1
  O2-  O200  1  0.54086315  0.08115666  0.93010021  1
  O2-  O201  1  0.54536668  0.58609938  0.27268124  1
  O2-  O202  1  0.54538537  0.58271371  0.60644880  1
  O2-  O203  1  0.54420067  0.58230539  0.93094402  1
  O2-  O204  1  0.16827306  0.20795847  0.26677393  1
  O2-  O205  1  0.16476141  0.20884270  0.60689915  1
  O2-  O206  1  0.16801153  0.21026569  0.92922194  1
  O2-  O207  1  0.16126841  0.70830135  0.26698185  1
  O2-  O208  1  0.17193932  0.70614475  0.59885532  1
  O2-  O209  1  0.16371978  0.70792852  0.94020226  1
  O2-  O210  1  0.66855636  0.20682256  0.26940211  1
  O2-  O211  1  0.66370113  0.20632265  0.60348184  1
  O2-  O212  1  0.66895163  0.20810371  0.92828433  1
  O2-  O213  1  0.66829031  0.70133891  0.27387635  1
  O2-  O214  1  0.66046957  0.70679949  0.60095782  1
  O2-  O215  1  0.66573804  0.71674890  0.93276181  1
  O2-  O216  1  0.08332839  0.45966113  0.07137553  1
  O2-  O217  1  0.08654796  0.46056767  0.39702953  1
  O2-  O218  1  0.08127780  0.44597945  0.72543717  1
  O2-  O219  1  0.07580919  0.95606353  0.06727185  1
  O2-  O220  1  0.08184509  0.94454092  0.39558584  1
  O2-  O221  1  0.07780412  0.95608195  0.73157478  1
  O2-  O222  1  0.58236266  0.45597533  0.06653820  1
  O2-  O223  1  0.58404738  0.46376678  0.40562843  1
  O2-  O224  1  0.58438204  0.44915316  0.72995599  1
  O2-  O225  1  0.58163427  0.95583540  0.06523480  1
  O2-  O226  1  0.58242122  0.94836083  0.39580323  1
  O2-  O227  1  0.59036885  0.95790158  0.72996455  1
  O2-  O228  1  0.20474566  0.32972839  0.06686339  1
  O2-  O229  1  0.20319493  0.33816018  0.39749017  1
  O2-  O230  1  0.20822882  0.33705188  0.72975075  1
  O2-  O231  1  0.20249048  0.83208692  0.07086066  1
  O2-  O232  1  0.20864396  0.83264756  0.39712652  1
  O2-  O233  1  0.20673561  0.83245668  0.73318283  1
  O2-  O234  1  0.70893163  0.32828772  0.06630012  1
  O2-  O235  1  0.70967743  0.33418519  0.40506756  1
  O2-  O236  1  0.70546678  0.33202704  0.72937114  1
  O2-  O237  1  0.71404011  0.83848344  0.07085831  1
  O2-  O238  1  0.70569593  0.83287556  0.39867779  1
  O2-  O239  1  0.70594043  0.83564499  0.72579544  1
  O2-  O240  1  0.45803326  0.42271409  0.26705625  1
  O2-  O241  1  0.46010132  0.41168045  0.60192521  1
  O2-  O242  1  0.45577266  0.41642704  0.93494129  1
  O2-  O243  1  0.45741614  0.91543385  0.26378579  1
  O2-  O244  1  0.46404344  0.91037387  0.60405370  1
  O2-  O245  1  0.45564803  0.91365140  0.93390980  1
  O2-  O246  1  0.95365027  0.42152723  0.26680622  1
  O2-  O247  1  0.95137419  0.41169743  0.60364123  1
  O2-  O248  1  0.95739192  0.41891105  0.93762843  1
  O2-  O249  1  0.95470717  0.91097697  0.26807514  1
  O2-  O250  1  0.95353410  0.92192296  0.59693355  1
  O2-  O251  1  0.95384470  0.91189156  0.93702939  1
  O2-  O252  1  0.32770406  0.30226773  0.26812907  1
  O2-  O253  1  0.33755048  0.29666140  0.60439339  1
  O2-  O254  1  0.33483810  0.29826188  0.93412231  1
  O2-  O255  1  0.33386052  0.78665185  0.26293118  1
  O2-  O256  1  0.33839484  0.79555974  0.60578298  1
  O2-  O257  1  0.33061044  0.79783204  0.93817657  1
  O2-  O258  1  0.82978755  0.29260813  0.26742674  1
  O2-  O259  1  0.83586499  0.28845939  0.60384999  1
  O2-  O260  1  0.83695812  0.29924374  0.93205802  1
  O2-  O261  1  0.83544026  0.79192620  0.26924551  1
  O2-  O262  1  0.82999424  0.79183395  0.59409191  1
  O2-  O263  1  0.83673160  0.79202838  0.93969057  1
  O2-  O264  1  0.41827699  0.03981309  0.06771472  1
  O2-  O265  1  0.41604125  0.03707361  0.40179036  1
  O2-  O266  1  0.42194440  0.04103137  0.73376180  1
  O2-  O267  1  0.42219296  0.54753118  0.06769891  1
  O2-  O268  1  0.41241514  0.54834034  0.39560421  1
  O2-  O269  1  0.41618341  0.53628827  0.73334621  1
  O2-  O270  1  0.91240062  0.04096137  0.06096287  1
  O2-  O271  1  0.91567577  0.03540121  0.40195841  1
  O2-  O272  1  0.91410509  0.04804071  0.72800174  1
  O2-  O273  1  0.92081188  0.55060142  0.06780519  1
  O2-  O274  1  0.91904134  0.54918698  0.39817077  1
  O2-  O275  1  0.91665511  0.53976751  0.73262936  1
  O2-  O276  1  0.29660315  0.17102013  0.06516777  1
  O2-  O277  1  0.29119039  0.16957017  0.40123475  1
  O2-  O278  1  0.29993528  0.17278940  0.73400247  1
  O2-  O279  1  0.29254174  0.66938798  0.06997100  1
  O2-  O280  1  0.28748355  0.66288413  0.39504087  1
  O2-  O281  1  0.29696150  0.66819126  0.73334925  1
  O2-  O282  1  0.80368144  0.16909984  0.05513743  1
  O2-  O283  1  0.79098136  0.16508960  0.40298810  1
  O2-  O284  1  0.79011216  0.16145871  0.73182275  1
  O2-  O285  1  0.78952878  0.66941634  0.07038872  1
  O2-  O286  1  0.79699516  0.66682727  0.40103710  1
  O2-  O287  1  0.78905048  0.66765351  0.73080551  1
