# generated using pymatgen
data_Ca2Al2SiO7
_symmetry_space_group_name_H-M   'P 1'
_cell_length_a   15.46649826
_cell_length_b   15.46476696
_cell_length_c   15.28949887
_cell_angle_alpha   90.02480863
_cell_angle_beta   89.99881106
_cell_angle_gamma   90.02492781
_symmetry_Int_Tables_number   1
_chemical_formula_structural   Ca2Al2SiO7
_chemical_formula_sum   'Ca48 Al48 Si24 O168'
_cell_volume   3657.03019520
_cell_formula_units_Z   24
loop_
 _symmetry_equiv_pos_site_id
 _symmetry_equiv_pos_as_xyz
  1  'x, y, z'
loop_
 _atom_type_symbol
 _atom_type_oxidation_number
  Ca2+  2.0
  Al0+  0.0
  Si0+  0.0
  O2-  -2.0
loop_
 _atom_site_type_symbol
 _atom_site_label
 _atom_site_symmetry_multiplicity
 _atom_site_fract_x
 _atom_site_fract_y
 _atom_site_fract_z
 _atom_site_occupancy
  Ca2+  Ca0  1  0.16680952  0.08150804  0.16252678  1
  Ca2+  Ca1  1  0.16771269  0.07767225  0.50871295  1
  Ca2+  Ca2  1  0.15968208  0.07562336  0.83745903  1
  Ca2+  Ca3  1  0.17862846  0.57129558  0.17010153  1
  Ca2+  Ca4  1  0.17724194  0.56916799  0.50384283  1
  Ca2+  Ca5  1  0.17857603  0.57029770  0.83651651  1
  Ca2+  Ca6  1  0.65795983  0.07597661  0.17133896  1
  Ca2+  Ca7  1  0.66437343  0.08213989  0.50348151  1
  Ca2+  Ca8  1  0.67836722  0.08249970  0.84137966  1
  Ca2+  Ca9  1  0.66677952  0.57778895  0.17141289  1
  Ca2+  Ca10  1  0.66674994  0.57142483  0.50519217  1
  Ca2+  Ca11  1  0.66670637  0.58059199  0.82886870  1
  Ca2+  Ca12  1  0.08775970  0.33092391  0.15779166  1
  Ca2+  Ca13  1  0.08985473  0.33198452  0.49826740  1
  Ca2+  Ca14  1  0.09146651  0.32306044  0.82735044  1
  Ca2+  Ca15  1  0.08417276  0.83202987  0.15858915  1
  Ca2+  Ca16  1  0.08385064  0.83166812  0.49864499  1
  Ca2+  Ca17  1  0.08714571  0.83557002  0.82681135  1
  Ca2+  Ca18  1  0.57420636  0.33767603  0.16499779  1
  Ca2+  Ca19  1  0.57811587  0.33533660  0.49298562  1
  Ca2+  Ca20  1  0.57258626  0.33870596  0.82749193  1
  Ca2+  Ca21  1  0.57484694  0.83716668  0.16093305  1
  Ca2+  Ca22  1  0.57230896  0.83244429  0.49154289  1
  Ca2+  Ca23  1  0.57284141  0.83540600  0.82961095  1
  Ca2+  Ca24  1  0.33359821  0.42130102  0.17374176  1
  Ca2+  Ca25  1  0.33525629  0.42231627  0.50874532  1
  Ca2+  Ca26  1  0.33191656  0.41959113  0.84135970  1
  Ca2+  Ca27  1  0.33310818  0.91075718  0.16950258  1
  Ca2+  Ca28  1  0.33272398  0.91579037  0.50673967  1
  Ca2+  Ca29  1  0.32558426  0.91125106  0.83835776  1
  Ca2+  Ca30  1  0.82713565  0.41565436  0.17339754  1
  Ca2+  Ca31  1  0.81969388  0.41707084  0.50754398  1
  Ca2+  Ca32  1  0.82872685  0.41792284  0.83065224  1
  Ca2+  Ca33  1  0.81940033  0.92395323  0.16723570  1
  Ca2+  Ca34  1  0.82301864  0.92238037  0.50538593  1
  Ca2+  Ca35  1  0.82842257  0.92853931  0.84035524  1
  Ca2+  Ca36  1  0.42069702  0.17938088  0.16557973  1
  Ca2+  Ca37  1  0.42036214  0.18299763  0.49343242  1
  Ca2+  Ca38  1  0.41198644  0.18120566  0.82914179  1
  Ca2+  Ca39  1  0.40780458  0.67244148  0.16355610  1
  Ca2+  Ca40  1  0.40266449  0.67458176  0.49897450  1
  Ca2+  Ca41  1  0.40432262  0.67422210  0.83061141  1
  Ca2+  Ca42  1  0.92289190  0.16501790  0.15923200  1
  Ca2+  Ca43  1  0.92157152  0.16162695  0.50310011  1
  Ca2+  Ca44  1  0.92458800  0.15758906  0.82928842  1
  Ca2+  Ca45  1  0.92036622  0.66836753  0.16046727  1
  Ca2+  Ca46  1  0.91662685  0.66179765  0.49793501  1
  Ca2+  Ca47  1  0.91790623  0.66744131  0.82461744  1
  Al0+  Al48  1  -0.00099721  -0.00044267  0.00561157  1
  Al0+  Al49  1  -0.00146931  -0.00055534  0.33167878  1
  Al0+  Al50  1  -0.00130471  -0.00114166  0.66690307  1
  Al0+  Al51  1  0.00042570  0.49989178  0.00121177  1
  Al0+  Al52  1  0.00287580  0.49988563  0.33385877  1
  Al0+  Al53  1  -0.00001523  0.49884828  0.67150800  1
  Al0+  Al54  1  0.49919572  0.00064813  -0.00325690  1
  Al0+  Al55  1  0.49828985  -0.00022941  0.33124185  1
  Al0+  Al56  1  0.49806407  0.00042894  0.66322821  1
  Al0+  Al57  1  0.50178830  0.50328177  -0.00067063  1
  Al0+  Al58  1  0.50136620  0.50447355  0.33804885  1
  Al0+  Al59  1  0.50083708  0.50390570  0.67077417  1
  Al0+  Al60  1  0.24852410  0.24700214  -0.00546023  1
  Al0+  Al61  1  0.24971261  0.24692120  0.33095107  1
  Al0+  Al62  1  0.25059086  0.24720059  0.65802652  1
  Al0+  Al63  1  0.24885083  0.74828750  0.00337193  1
  Al0+  Al64  1  0.24679350  0.74825191  0.33205932  1
  Al0+  Al65  1  0.24659379  0.74866390  0.66764044  1
  Al0+  Al66  1  0.75258239  0.25207545  0.00388364  1
  Al0+  Al67  1  0.75393562  0.24845466  0.33347815  1
  Al0+  Al68  1  0.75178809  0.24916335  0.67552910  1
  Al0+  Al69  1  0.74985747  0.75116899  0.00199837  1
  Al0+  Al70  1  0.75001903  0.75396257  0.33591162  1
  Al0+  Al71  1  0.74859514  0.75040133  0.66754350  1
  Al0+  Al72  1  0.81983213  0.06903796  0.68002174  1
  Al0+  Al73  1  0.67774867  0.42822356  0.68316914  1
  Al0+  Al74  1  0.82159453  0.57237891  0.68047275  1
  Al0+  Al75  1  0.42827679  0.82032822  0.98566967  1
  Al0+  Al76  1  0.18022558  0.93021047  0.67814821  1
  Al0+  Al77  1  0.18074872  0.92900559  0.01414456  1
  Al0+  Al78  1  0.32131531  0.57178854  0.34988282  1
  Al0+  Al79  1  0.42779977  0.81891701  0.31919432  1
  Al0+  Al80  1  0.67659236  0.93006999  0.01445420  1
  Al0+  Al81  1  0.68052592  0.42872996  0.34515997  1
  Al0+  Al82  1  0.06959500  0.17776267  0.65130627  1
  Al0+  Al83  1  0.42713236  0.81961337  0.65271600  1
  Al0+  Al84  1  0.32081876  0.57116576  0.68280724  1
  Al0+  Al85  1  0.43076096  0.32270793  0.65348925  1
  Al0+  Al86  1  0.82105536  0.07270545  0.01784191  1
  Al0+  Al87  1  0.06824290  0.17883307  0.98577417  1
  Al0+  Al88  1  0.57343256  0.17956710  0.31969361  1
  Al0+  Al89  1  0.67658942  0.93116773  0.34880178  1
  Al0+  Al90  1  0.17969795  0.42512483  0.34854730  1
  Al0+  Al91  1  0.43089617  0.32148432  0.98668007  1
  Al0+  Al92  1  0.32266188  0.56984147  0.01674400  1
  Al0+  Al93  1  0.42987546  0.32477134  0.31897787  1
  Al0+  Al94  1  0.18006040  0.42548879  0.01434280  1
  Al0+  Al95  1  0.18062230  0.42423564  0.68174046  1
  Si0+  Si96  1  0.57425445  0.17877455  0.98343042  1
  Si0+  Si97  1  0.92755695  0.82068666  0.65102670  1
  Si0+  Si98  1  0.82239572  0.57225723  0.01495624  1
  Si0+  Si99  1  0.07099104  0.17610298  0.31696516  1
  Si0+  Si100  1  0.17725186  0.92924662  0.34749184  1
  Si0+  Si101  1  0.32327491  0.07157221  0.68209573  1
  Si0+  Si102  1  0.93136217  0.32139325  0.31968593  1
  Si0+  Si103  1  0.57488693  0.17890416  0.65315992  1
  Si0+  Si104  1  0.67980662  0.43079769  0.01556565  1
  Si0+  Si105  1  0.06982813  0.67835092  0.98348222  1
  Si0+  Si106  1  0.57591313  0.68018445  0.31681610  1
  Si0+  Si107  1  0.06833822  0.67943268  0.31652276  1
  Si0+  Si108  1  0.82441759  0.07086132  0.35208933  1
  Si0+  Si109  1  0.82371772  0.57319999  0.34697920  1
  Si0+  Si110  1  0.67451070  0.92831814  0.68274507  1
  Si0+  Si111  1  0.06865934  0.67746826  0.65072524  1
  Si0+  Si112  1  0.92761397  0.32243128  0.65000571  1
  Si0+  Si113  1  0.92797674  0.82245207  0.31646734  1
  Si0+  Si114  1  0.57434496  0.68041864  0.64798128  1
  Si0+  Si115  1  0.32274033  0.07292787  0.01622279  1
  Si0+  Si116  1  0.92661101  0.32517035  0.98207610  1
  Si0+  Si117  1  0.32039641  0.06972040  0.34780126  1
  Si0+  Si118  1  0.92912606  0.81937816  0.98474630  1
  Si0+  Si119  1  0.57560030  0.67897661  0.98180206  1
  O2-  O120  1  0.25816763  0.00010949  0.06159832  1
  O2-  O121  1  0.24858596  -0.00135134  0.38987862  1
  O2-  O122  1  0.25568977  0.00217913  0.72672967  1
  O2-  O123  1  0.25560496  0.49257269  0.06540240  1
  O2-  O124  1  0.25740094  0.49120914  0.39769581  1
  O2-  O125  1  0.25678957  0.49151482  0.73175699  1
  O2-  O126  1  0.74303008  0.00667574  0.06640619  1
  O2-  O127  1  0.75010437  0.00762436  0.39489898  1
  O2-  O128  1  0.74140344  -0.00148469  0.72632666  1
  O2-  O129  1  0.75277827  0.50067331  0.05729589  1
  O2-  O130  1  0.75481838  0.50521510  0.39030020  1
  O2-  O131  1  0.75087914  0.50066326  0.73199313  1
  O2-  O132  1  0.00430695  0.25230608  0.27731906  1
  O2-  O133  1  -0.00185880  0.25605018  0.60439314  1
  O2-  O134  1  -0.00483748  0.25569719  0.93965120  1
  O2-  O135  1  -0.00411737  0.74902533  0.27338723  1
  O2-  O136  1  -0.00534430  0.74623697  0.60773445  1
  O2-  O137  1  -0.00046263  0.74963251  0.93991316  1
  O2-  O138  1  0.50569561  0.25567769  0.26946901  1
  O2-  O139  1  0.50867252  0.24965940  0.60892441  1
  O2-  O140  1  0.50603558  0.24715502  0.93868696  1
  O2-  O141  1  0.50413995  0.74568191  0.27287205  1
  O2-  O142  1  0.50310054  0.74693159  0.60460329  1
  O2-  O143  1  0.50509182  0.74710205  0.93974409  1
  O2-  O144  1  0.06636310  0.17830567  0.09955411  1
  O2-  O145  1  0.06807671  0.16986772  0.42168245  1
  O2-  O146  1  0.06579771  0.17351232  0.76385249  1
  O2-  O147  1  0.06555477  0.67943404  0.08894882  1
  O2-  O148  1  0.06630833  0.68122753  0.42164920  1
  O2-  O149  1  0.06779929  0.68072535  0.75584556  1
  O2-  O150  1  0.57304443  0.18051466  0.08895530  1
  O2-  O151  1  0.57090881  0.18011539  0.43354585  1
  O2-  O152  1  0.57344098  0.17774405  0.75873078  1
  O2-  O153  1  0.58051269  0.67853657  0.08722201  1
  O2-  O154  1  0.58218551  0.68363898  0.42183081  1
  O2-  O155  1  0.57979149  0.68472217  0.75338292  1
  O2-  O156  1  0.17539580  0.42838474  0.23534112  1
  O2-  O157  1  0.17996580  0.42760808  0.56816219  1
  O2-  O158  1  0.17934453  0.42733146  0.90122312  1
  O2-  O159  1  0.17533997  0.93031148  0.24251474  1
  O2-  O160  1  0.17907710  0.93051745  0.56441873  1
  O2-  O161  1  0.17867463  0.92917893  0.90128100  1
  O2-  O162  1  0.68392765  0.43127484  0.23159172  1
  O2-  O163  1  0.68020663  0.42775902  0.56939988  1
  O2-  O164  1  0.68052586  0.43146215  0.91090344  1
  O2-  O165  1  0.67894260  0.93001449  0.23614418  1
  O2-  O166  1  0.67596125  0.92857840  0.57690587  1
  O2-  O167  1  0.68052143  0.92893990  0.90077114  1
  O2-  O168  1  0.43300093  0.32198996  0.09967002  1
  O2-  O169  1  0.43032068  0.32220184  0.43248104  1
  O2-  O170  1  0.43026930  0.31995574  0.76686205  1
  O2-  O171  1  0.42829275  0.81790159  0.09885817  1
  O2-  O172  1  0.42662454  0.81883491  0.43231619  1
  O2-  O173  1  0.42739176  0.81929765  0.76566068  1
  O2-  O174  1  0.92624494  0.32739622  0.08814014  1
  O2-  O175  1  0.93024184  0.32139157  0.42443893  1
  O2-  O176  1  0.92685564  0.32165810  0.75536697  1
  O2-  O177  1  0.92964126  0.81571686  0.09018412  1
  O2-  O178  1  0.92975775  0.82397011  0.42163223  1
  O2-  O179  1  0.92900368  0.82103197  0.75617588  1
  O2-  O180  1  0.31817988  0.07030561  0.24272819  1
  O2-  O181  1  0.32230180  0.06943824  0.57608689  1
  O2-  O182  1  0.32053620  0.07338297  0.91068988  1
  O2-  O183  1  0.31623859  0.57494662  0.23670054  1
  O2-  O184  1  0.31585727  0.57326508  0.56946526  1
  O2-  O185  1  0.31919993  0.57084836  0.90359625  1
  O2-  O186  1  0.83080074  0.06691645  0.24723808  1
  O2-  O187  1  0.82015711  0.06584041  0.56671165  1
  O2-  O188  1  0.82204350  0.06805145  0.90426737  1
  O2-  O189  1  0.82487350  0.57227046  0.24091298  1
  O2-  O190  1  0.82007346  0.57154751  0.56659774  1
  O2-  O191  1  0.82303715  0.57377237  0.91043280  1
  O2-  O192  1  0.03758572  0.08625172  0.26770109  1
  O2-  O193  1  0.03297002  0.08227854  0.59613811  1
  O2-  O194  1  0.03402634  0.08130256  0.93441729  1
  O2-  O195  1  0.04124449  0.58778059  0.26791028  1
  O2-  O196  1  0.04139025  0.58533814  0.60339298  1
  O2-  O197  1  0.04015078  0.58711938  0.93630273  1
  O2-  O198  1  0.53793068  0.08366281  0.26581721  1
  O2-  O199  1  0.54836875  0.08573041  0.60574086  1
  O2-  O200  1  0.55138874  0.08486431  0.93704240  1
  O2-  O201  1  0.55370123  0.58537009  0.27227793  1
  O2-  O202  1  0.55180794  0.58520532  0.60501403  1
  O2-  O203  1  0.55166073  0.58544199  0.93527661  1
  O2-  O204  1  0.16379565  0.19744390  0.26925408  1
  O2-  O205  1  0.16645295  0.20197720  0.59440973  1
  O2-  O206  1  0.16535010  0.20278895  0.92988148  1
  O2-  O207  1  0.15755811  0.71118942  0.26750826  1
  O2-  O208  1  0.15732396  0.71071751  0.60131612  1
  O2-  O209  1  0.16108527  0.70739231  0.93765369  1
  O2-  O210  1  0.67537927  0.19902434  0.26931484  1
  O2-  O211  1  0.67031074  0.20096451  0.60902300  1
  O2-  O212  1  0.66933670  0.20516461  0.94032716  1
  O2-  O213  1  0.66906880  0.70755393  0.26865054  1
  O2-  O214  1  0.66709704  0.70702851  0.59924982  1
  O2-  O215  1  0.66891768  0.70584047  0.93437615  1
  O2-  O216  1  0.08148461  0.45814198  0.06644130  1
  O2-  O217  1  0.08273617  0.46047668  0.40192062  1
  O2-  O218  1  0.08250268  0.45449034  0.73347815  1
  O2-  O219  1  0.08505322  0.96049337  0.06991466  1
  O2-  O220  1  0.08530836  0.95805937  0.39463575  1
  O2-  O221  1  0.08361506  0.96038613  0.73173364  1
  O2-  O222  1  0.59004729  0.46215784  0.06398921  1
  O2-  O223  1  0.58568866  0.45976698  0.40100899  1
  O2-  O224  1  0.58232566  0.46120810  0.73843269  1
  O2-  O225  1  0.57650953  0.95471599  0.06583357  1
  O2-  O226  1  0.57944388  0.96011016  0.40207122  1
  O2-  O227  1  0.58012981  0.95206989  0.72738810  1
  O2-  O228  1  0.20192253  0.32421730  0.06323675  1
  O2-  O229  1  0.19758925  0.32236529  0.39604352  1
  O2-  O230  1  0.20368785  0.32228245  0.72841709  1
  O2-  O231  1  0.20729155  0.83207668  0.06933816  1
  O2-  O232  1  0.20216935  0.83653421  0.39357432  1
  O2-  O233  1  0.20692941  0.83344696  0.73238792  1
  O2-  O234  1  0.70645990  0.33940561  0.06389112  1
  O2-  O235  1  0.71430660  0.33284048  0.39859868  1
  O2-  O236  1  0.70676076  0.33156759  0.73869004  1
  O2-  O237  1  0.71081555  0.83317501  0.06822111  1
  O2-  O238  1  0.71167291  0.83606834  0.40380515  1
  O2-  O239  1  0.70241694  0.83570486  0.72800436  1
  O2-  O240  1  0.45670579  0.42519900  0.26923604  1
  O2-  O241  1  0.45954132  0.42155752  0.60349035  1
  O2-  O242  1  0.46347370  0.41848445  0.93423139  1
  O2-  O243  1  0.45641464  0.91604579  0.26593830  1
  O2-  O244  1  0.45478855  0.91782888  0.59884267  1
  O2-  O245  1  0.45431248  0.91861524  0.93176505  1
  O2-  O246  1  0.95574811  0.41433585  0.27153811  1
  O2-  O247  1  0.94935047  0.41768963  0.60510884  1
  O2-  O248  1  0.95069981  0.41942348  0.93628629  1
  O2-  O249  1  0.95991008  0.91223474  0.26755221  1
  O2-  O250  1  0.96008407  0.90942398  0.60102436  1
  O2-  O251  1  0.95765021  0.91158640  0.93996034  1
  O2-  O252  1  0.33237467  0.28967447  0.26655173  1
  O2-  O253  1  0.33698600  0.28816389  0.59608134  1
  O2-  O254  1  0.33524263  0.28799670  0.93266981  1
  O2-  O255  1  0.32982340  0.78876431  0.26635813  1
  O2-  O256  1  0.32973255  0.78789894  0.59948886  1
  O2-  O257  1  0.33063105  0.78735198  0.93389441  1
  O2-  O258  1  0.84126542  0.29234091  0.26917048  1
  O2-  O259  1  0.83422340  0.29245546  0.60485786  1
  O2-  O260  1  0.83226856  0.30087884  0.93669335  1
  O2-  O261  1  0.83558602  0.79672089  0.26927469  1
  O2-  O262  1  0.83463701  0.79601771  0.60352181  1
  O2-  O263  1  0.83751118  0.79133966  0.93724730  1
  O2-  O264  1  0.41796707  0.05269031  0.06025980  1
  O2-  O265  1  0.41064677  0.04106557  0.39625568  1
  O2-  O266  1  0.41724083  0.04894498  0.72840704  1
  O2-  O267  1  0.42415550  0.54951538  0.06692181  1
  O2-  O268  1  0.42319673  0.55775300  0.40021253  1
  O2-  O269  1  0.42258215  0.55705808  0.73247726  1
  O2-  O270  1  0.91541253  0.03602258  0.07316856  1
  O2-  O271  1  0.91526309  0.03687894  0.40033092  1
  O2-  O272  1  0.91330445  0.03093435  0.73449938  1
  O2-  O273  1  0.91375124  0.54561853  0.06407122  1
  O2-  O274  1  0.91690785  0.54749946  0.39303012  1
  O2-  O275  1  0.91920822  0.54610075  0.73548497  1
  O2-  O276  1  0.29060572  0.16338348  0.06442760  1
  O2-  O277  1  0.29169712  0.16057805  0.39639104  1
  O2-  O278  1  0.29575551  0.16473643  0.72614971  1
  O2-  O279  1  0.28628574  0.66535378  0.07023827  1
  O2-  O280  1  0.28034815  0.66721129  0.40254838  1
  O2-  O281  1  0.28143054  0.66584216  0.73598921  1
  O2-  O282  1  0.80224600  0.17435297  0.06819591  1
  O2-  O283  1  0.80700412  0.16664129  0.39588075  1
  O2-  O284  1  0.79695561  0.16545269  0.73702906  1
  O2-  O285  1  0.79477164  0.66348483  0.06395274  1
  O2-  O286  1  0.80145844  0.66794020  0.39180457  1
  O2-  O287  1  0.79409571  0.67143278  0.73388891  1
