# generated using pymatgen
data_Ca2Al2SiO7
_symmetry_space_group_name_H-M   'P 1'
_cell_length_a   15.45501601
_cell_length_b   15.45496219
_cell_length_c   15.28206718
_cell_angle_alpha   90.00044742
_cell_angle_beta   89.99975526
_cell_angle_gamma   89.99746545
_symmetry_Int_Tables_number   1
_chemical_formula_structural   Ca2Al2SiO7
_chemical_formula_sum   'Ca48 Al48 Si24 O168'
_cell_volume   3650.22394952
_cell_formula_units_Z   24
loop_
 _symmetry_equiv_pos_site_id
 _symmetry_equiv_pos_as_xyz
  1  'x, y, z'
loop_
 _atom_type_symbol
 _atom_type_oxidation_number
  Ca2+  2.0
  Al0+  0.0
  Si0+  0.0
  O2-  -2.0
loop_
 _atom_site_type_symbol
 _atom_site_label
 _atom_site_symmetry_multiplicity
 _atom_site_fract_x
 _atom_site_fract_y
 _atom_site_fract_z
 _atom_site_occupancy
  Ca2+  Ca0  1  0.16483408  0.07909325  0.16925592  1
  Ca2+  Ca1  1  0.17029817  0.08694463  0.50480952  1
  Ca2+  Ca2  1  0.15995521  0.08081591  0.83861036  1
  Ca2+  Ca3  1  0.17566719  0.58907456  0.17363730  1
  Ca2+  Ca4  1  0.16809356  0.58169000  0.50130290  1
  Ca2+  Ca5  1  0.17135316  0.57509034  0.83909222  1
  Ca2+  Ca6  1  0.66466001  0.08464601  0.17104288  1
  Ca2+  Ca7  1  0.67743568  0.07181283  0.50975334  1
  Ca2+  Ca8  1  0.66986091  0.08250272  0.83459904  1
  Ca2+  Ca9  1  0.66979066  0.57156041  0.17086488  1
  Ca2+  Ca10  1  0.66585817  0.57908365  0.50747537  1
  Ca2+  Ca11  1  0.67344806  0.57686939  0.83381819  1
  Ca2+  Ca12  1  0.07019061  0.33051739  0.15874593  1
  Ca2+  Ca13  1  0.07860980  0.33256681  0.49753590  1
  Ca2+  Ca14  1  0.08332451  0.32555925  0.82651093  1
  Ca2+  Ca15  1  0.08409348  0.83011391  0.16723870  1
  Ca2+  Ca16  1  0.07055007  0.82641342  0.49406636  1
  Ca2+  Ca17  1  0.07894281  0.83208817  0.82789237  1
  Ca2+  Ca18  1  0.58773763  0.33135851  0.15974112  1
  Ca2+  Ca19  1  0.58147209  0.34150732  0.49861904  1
  Ca2+  Ca20  1  0.58205125  0.33896244  0.83074319  1
  Ca2+  Ca21  1  0.57687432  0.82645841  0.16816878  1
  Ca2+  Ca22  1  0.58696121  0.81987963  0.49501859  1
  Ca2+  Ca23  1  0.58593698  0.82585979  0.82282903  1
  Ca2+  Ca24  1  0.33372410  0.42934803  0.17215971  1
  Ca2+  Ca25  1  0.32960571  0.42089090  0.50670748  1
  Ca2+  Ca26  1  0.33105125  0.41714283  0.83261717  1
  Ca2+  Ca27  1  0.32901390  0.92041087  0.17555201  1
  Ca2+  Ca28  1  0.33845709  0.91997801  0.49801995  1
  Ca2+  Ca29  1  0.32401896  0.91768714  0.84223037  1
  Ca2+  Ca30  1  0.82690967  0.41054872  0.17102515  1
  Ca2+  Ca31  1  0.82331014  0.42077588  0.50747964  1
  Ca2+  Ca32  1  0.82869064  0.42635077  0.84180406  1
  Ca2+  Ca33  1  0.83489901  0.91923872  0.17108991  1
  Ca2+  Ca34  1  0.83447812  0.91549237  0.51207974  1
  Ca2+  Ca35  1  0.83296915  0.91916648  0.82808166  1
  Ca2+  Ca36  1  0.42195145  0.16565606  0.16189059  1
  Ca2+  Ca37  1  0.41601879  0.17248577  0.49752409  1
  Ca2+  Ca38  1  0.42478680  0.17331173  0.82758761  1
  Ca2+  Ca39  1  0.41828409  0.66127721  0.16620700  1
  Ca2+  Ca40  1  0.42829967  0.66739789  0.49092446  1
  Ca2+  Ca41  1  0.42248130  0.66267678  0.82804156  1
  Ca2+  Ca42  1  0.91695183  0.18033445  0.15880273  1
  Ca2+  Ca43  1  0.91974147  0.16870882  0.49793756  1
  Ca2+  Ca44  1  0.92440544  0.17056060  0.82938267  1
  Ca2+  Ca45  1  0.91808163  0.66847097  0.16541788  1
  Ca2+  Ca46  1  0.91417519  0.67347277  0.49484701  1
  Ca2+  Ca47  1  0.90596639  0.67016877  0.82647024  1
  Al0+  Al48  1  -0.00130637  -0.00100710  0.00256588  1
  Al0+  Al49  1  0.00083090  0.00021166  0.33095688  1
  Al0+  Al50  1  0.00169454  0.00002036  0.66176343  1
  Al0+  Al51  1  0.00062645  0.50305853  -0.00052924  1
  Al0+  Al52  1  -0.00074140  0.49973488  0.32534518  1
  Al0+  Al53  1  0.00189073  0.49887114  0.67476040  1
  Al0+  Al54  1  0.49910457  -0.00060910  -0.00470925  1
  Al0+  Al55  1  0.50059452  -0.00031596  0.33596947  1
  Al0+  Al56  1  0.49974346  0.00121823  0.67054338  1
  Al0+  Al57  1  0.50102388  0.50054173  0.00615572  1
  Al0+  Al58  1  0.49921165  0.49901776  0.33636977  1
  Al0+  Al59  1  0.49929330  0.50064301  0.66191320  1
  Al0+  Al60  1  0.25117253  0.24965504  -0.00222744  1
  Al0+  Al61  1  0.25091566  0.24923784  0.33521205  1
  Al0+  Al62  1  0.25133850  0.25059874  0.66316403  1
  Al0+  Al63  1  0.24866519  0.75219321  0.00648359  1
  Al0+  Al64  1  0.24956662  0.75226692  0.33475201  1
  Al0+  Al65  1  0.25048169  0.75152169  0.66561062  1
  Al0+  Al66  1  0.74983126  0.24919066  -0.00660164  1
  Al0+  Al67  1  0.74932499  0.24895408  0.33653411  1
  Al0+  Al68  1  0.75034626  0.24866153  0.67344287  1
  Al0+  Al69  1  0.74881325  0.74970603  0.00402051  1
  Al0+  Al70  1  0.74873764  0.74865058  0.32219314  1
  Al0+  Al71  1  0.74888019  0.75036452  0.66520988  1
  Al0+  Al72  1  0.68151396  0.42802933  0.01571676  1
  Al0+  Al73  1  0.67593775  0.42888789  0.68178737  1
  Al0+  Al74  1  0.67870556  0.92857708  0.68091705  1
  Al0+  Al75  1  0.82153305  0.57119507  0.67913441  1
  Al0+  Al76  1  0.56953402  0.68083349  0.65430162  1
  Al0+  Al77  1  0.68031727  0.42754842  0.34879570  1
  Al0+  Al78  1  0.17742033  0.93099860  0.01470862  1
  Al0+  Al79  1  0.43048157  0.82250561  0.31905973  1
  Al0+  Al80  1  0.07033980  0.17969512  0.65134101  1
  Al0+  Al81  1  0.82288566  0.57368786  0.01787168  1
  Al0+  Al82  1  0.92760939  0.82281874  0.31630354  1
  Al0+  Al83  1  0.82468830  0.07066293  0.68221945  1
  Al0+  Al84  1  0.57066800  0.17743342  0.98574626  1
  Al0+  Al85  1  0.93103363  0.81789071  0.65529137  1
  Al0+  Al86  1  0.92751699  0.31896517  0.32202873  1
  Al0+  Al87  1  0.07075254  0.67859489  0.31858632  1
  Al0+  Al88  1  0.31996307  0.57277643  0.34907317  1
  Al0+  Al89  1  0.57013094  0.67489379  0.31483897  1
  Al0+  Al90  1  0.31929289  0.56993700  0.01315539  1
  Al0+  Al91  1  0.17966672  0.42789999  0.67961174  1
  Al0+  Al92  1  0.43177369  0.31959023  0.65235594  1
  Al0+  Al93  1  0.32204505  0.07110046  0.34781511  1
  Al0+  Al94  1  0.92870387  0.32428895  0.98199397  1
  Al0+  Al95  1  0.07092025  0.17841718  0.98565202  1
  Si0+  Si96  1  0.18040726  0.92993451  0.68026342  1
  Si0+  Si97  1  0.17682522  0.42826842  0.34826846  1
  Si0+  Si98  1  0.32088624  0.07250866  0.68310168  1
  Si0+  Si99  1  0.42537729  0.82481451  0.65104007  1
  Si0+  Si100  1  0.17676356  0.92953380  0.35387199  1
  Si0+  Si101  1  0.42931921  0.32430026  0.98464359  1
  Si0+  Si102  1  0.82243809  0.57234551  0.34829986  1
  Si0+  Si103  1  0.32338379  0.07172719  0.01539672  1
  Si0+  Si104  1  0.57415341  0.17578529  0.64859415  1
  Si0+  Si105  1  0.67999251  0.92813674  0.34592356  1
  Si0+  Si106  1  0.67622277  0.92872075  0.01605236  1
  Si0+  Si107  1  0.07529080  0.67537157  0.65230338  1
  Si0+  Si108  1  0.56961468  0.17993668  0.32143643  1
  Si0+  Si109  1  0.56962616  0.67944208  0.98457941  1
  Si0+  Si110  1  0.07378607  0.68157903  0.98433533  1
  Si0+  Si111  1  0.17796546  0.42542248  0.01701014  1
  Si0+  Si112  1  0.42748193  0.82019278  0.98475985  1
  Si0+  Si113  1  0.81922056  0.06911909  0.01503420  1
  Si0+  Si114  1  0.07400006  0.17911688  0.31626324  1
  Si0+  Si115  1  0.42743568  0.32055943  0.31803149  1
  Si0+  Si116  1  0.92735603  0.32344684  0.65108812  1
  Si0+  Si117  1  0.32089471  0.57276589  0.68143137  1
  Si0+  Si118  1  0.92767832  0.81983805  0.98398145  1
  Si0+  Si119  1  0.82127725  0.07016213  0.34666378  1
  O2-  O120  1  0.25057606  0.00820398  0.05992384  1
  O2-  O121  1  0.24583181  -0.00113450  0.39684827  1
  O2-  O122  1  0.25332282  -0.00202050  0.72439642  1
  O2-  O123  1  0.24578077  0.49462452  0.06136657  1
  O2-  O124  1  0.24378768  0.49826072  0.39342424  1
  O2-  O125  1  0.25065149  0.50658788  0.72629973  1
  O2-  O126  1  0.74562167  0.00103787  0.05888196  1
  O2-  O127  1  0.75816066  -0.00840523  0.38748471  1
  O2-  O128  1  0.74830314  0.00242214  0.73222299  1
  O2-  O129  1  0.75655447  0.49605370  0.06709469  1
  O2-  O130  1  0.75325476  0.50493402  0.39319223  1
  O2-  O131  1  0.75348188  0.49565206  0.72986704  1
  O2-  O132  1  0.00443960  0.24685102  0.27360887  1
  O2-  O133  1  -0.00566677  0.25341937  0.60531724  1
  O2-  O134  1  0.00446106  0.25440828  0.93421743  1
  O2-  O135  1  -0.00104277  0.75027368  0.26643097  1
  O2-  O136  1  0.00210204  0.73950509  0.60943810  1
  O2-  O137  1  -0.00346021  0.74620933  0.94216603  1
  O2-  O138  1  0.49965610  0.25056093  0.27667863  1
  O2-  O139  1  0.50964210  0.24807642  0.60410209  1
  O2-  O140  1  0.49671030  0.25385948  0.94120640  1
  O2-  O141  1  0.49597746  0.74637605  0.26574873  1
  O2-  O142  1  0.49535517  0.75728965  0.60886734  1
  O2-  O143  1  0.49834081  0.75020975  0.94152792  1
  O2-  O144  1  0.06819507  0.17761516  0.09951130  1
  O2-  O145  1  0.07448415  0.17928236  0.42195210  1
  O2-  O146  1  0.07122089  0.17888280  0.76419109  1
  O2-  O147  1  0.07678130  0.68560932  0.08897091  1
  O2-  O148  1  0.06872751  0.67910553  0.43264389  1
  O2-  O149  1  0.08182076  0.68058605  0.75781528  1
  O2-  O150  1  0.56767287  0.17470701  0.09966490  1
  O2-  O151  1  0.56924943  0.17952499  0.42611040  1
  O2-  O152  1  0.56845136  0.17198057  0.75400755  1
  O2-  O153  1  0.56753404  0.68088862  0.08932452  1
  O2-  O154  1  0.57148359  0.67778053  0.42847524  1
  O2-  O155  1  0.56621904  0.68197549  0.76808643  1
  O2-  O156  1  0.18010005  0.42587679  0.24267425  1
  O2-  O157  1  0.18094873  0.42839416  0.56642685  1
  O2-  O158  1  0.18124555  0.42573678  0.91128740  1
  O2-  O159  1  0.17607441  0.93167953  0.24804308  1
  O2-  O160  1  0.18100127  0.93027099  0.57558236  1
  O2-  O161  1  0.17976218  0.92876125  0.90099146  1
  O2-  O162  1  0.68219054  0.42254978  0.23600475  1
  O2-  O163  1  0.67683085  0.43231075  0.56796525  1
  O2-  O164  1  0.67737502  0.43293088  0.90270517  1
  O2-  O165  1  0.67701190  0.93404651  0.24039627  1
  O2-  O166  1  0.68085205  0.92847981  0.56688997  1
  O2-  O167  1  0.67679364  0.92709497  0.91136339  1
  O2-  O168  1  0.42872313  0.32338352  0.09053576  1
  O2-  O169  1  0.42644922  0.31886918  0.42299746  1
  O2-  O170  1  0.43029425  0.31740219  0.76573203  1
  O2-  O171  1  0.42877666  0.82229036  0.08938397  1
  O2-  O172  1  0.43650708  0.82505890  0.43261443  1
  O2-  O173  1  0.42130789  0.82313615  0.75703874  1
  O2-  O174  1  0.92779922  0.31851909  0.09624465  1
  O2-  O175  1  0.92802821  0.31598008  0.43509085  1
  O2-  O176  1  0.93115502  0.32296847  0.75621917  1
  O2-  O177  1  0.92863663  0.82152059  0.08885329  1
  O2-  O178  1  0.92822737  0.82382088  0.42992099  1
  O2-  O179  1  0.93384325  0.81917692  0.76882935  1
  O2-  O180  1  0.32195694  0.07055313  0.23460324  1
  O2-  O181  1  0.32069545  0.07209015  0.57789728  1
  O2-  O182  1  0.32568352  0.06784594  0.90976226  1
  O2-  O183  1  0.31931761  0.56881182  0.23565270  1
  O2-  O184  1  0.31953870  0.57251775  0.57612445  1
  O2-  O185  1  0.31857944  0.57053217  0.89971502  1
  O2-  O186  1  0.81716687  0.07255362  0.24124652  1
  O2-  O187  1  0.82441050  0.06718923  0.56780988  1
  O2-  O188  1  0.82089412  0.06511261  0.91051528  1
  O2-  O189  1  0.82154346  0.57014873  0.24286577  1
  O2-  O190  1  0.82167398  0.57160896  0.56533596  1
  O2-  O191  1  0.81635460  0.57821558  0.90454166  1
  O2-  O192  1  0.04944718  0.08494681  0.27161681  1
  O2-  O193  1  0.04161090  0.08374645  0.59489721  1
  O2-  O194  1  0.03751082  0.08018128  0.93398696  1
  O2-  O195  1  0.04724919  0.58056595  0.26228405  1
  O2-  O196  1  0.05500739  0.57940353  0.60996816  1
  O2-  O197  1  0.05486023  0.58692542  0.93928038  1
  O2-  O198  1  0.54141046  0.08875873  0.27287572  1
  O2-  O199  1  0.54331052  0.08327285  0.60185045  1
  O2-  O200  1  0.53798933  0.08189960  0.92913788  1
  O2-  O201  1  0.53949174  0.57638069  0.26324503  1
  O2-  O202  1  0.53696389  0.58659157  0.59788986  1
  O2-  O203  1  0.54015441  0.58754653  0.93887012  1
  O2-  O204  1  0.16781036  0.20408909  0.27013293  1
  O2-  O205  1  0.16655556  0.21146590  0.59732915  1
  O2-  O206  1  0.17265581  0.19959002  0.93463862  1
  O2-  O207  1  0.16890744  0.71018498  0.26646318  1
  O2-  O208  1  0.16652920  0.70628912  0.60301240  1
  O2-  O209  1  0.16302924  0.71641747  0.93550399  1
  O2-  O210  1  0.66131216  0.20681040  0.27315977  1
  O2-  O211  1  0.67082891  0.19475152  0.60652221  1
  O2-  O212  1  0.66683077  0.20348128  0.93023475  1
  O2-  O213  1  0.66627697  0.70476446  0.25872736  1
  O2-  O214  1  0.66450792  0.71223183  0.59813377  1
  O2-  O215  1  0.66125810  0.71036964  0.93893761  1
  O2-  O216  1  0.08384921  0.45102834  0.06090769  1
  O2-  O217  1  0.08208688  0.45287586  0.39269723  1
  O2-  O218  1  0.08465091  0.45385096  0.73846124  1
  O2-  O219  1  0.08125682  0.96012537  0.07066680  1
  O2-  O220  1  0.08290235  0.95690668  0.39927408  1
  O2-  O221  1  0.09001696  0.96004544  0.72812192  1
  O2-  O222  1  0.58387476  0.45858408  0.07019240  1
  O2-  O223  1  0.58219470  0.45557595  0.40029039  1
  O2-  O224  1  0.57842859  0.46254280  0.73380064  1
  O2-  O225  1  0.58356609  0.95659469  0.06218018  1
  O2-  O226  1  0.59239076  0.96258867  0.39632716  1
  O2-  O227  1  0.57912082  0.95408331  0.73473793  1
  O2-  O228  1  0.20296881  0.33137459  0.06313266  1
  O2-  O229  1  0.20458961  0.33530106  0.39496100  1
  O2-  O230  1  0.21685100  0.33335229  0.73391558  1
  O2-  O231  1  0.21159653  0.83741922  0.07156674  1
  O2-  O232  1  0.20176012  0.83655709  0.40032038  1
  O2-  O233  1  0.20625683  0.83735430  0.72885368  1
  O2-  O234  1  0.70568682  0.32611645  0.06489444  1
  O2-  O235  1  0.71150598  0.33125423  0.40432569  1
  O2-  O236  1  0.69422886  0.32709383  0.73097511  1
  O2-  O237  1  0.70521442  0.83837188  0.06498160  1
  O2-  O238  1  0.70165585  0.83273396  0.38790893  1
  O2-  O239  1  0.70952704  0.83214725  0.73564439  1
  O2-  O240  1  0.45448272  0.41223077  0.27140879  1
  O2-  O241  1  0.45761803  0.41652751  0.59677911  1
  O2-  O242  1  0.45745653  0.41709469  0.93828336  1
  O2-  O243  1  0.46469655  0.91941799  0.26440598  1
  O2-  O244  1  0.44875788  0.92007892  0.60777102  1
  O2-  O245  1  0.45403732  0.91156877  0.93550322  1
  O2-  O246  1  0.95430822  0.41473519  0.26535130  1
  O2-  O247  1  0.95602454  0.41697039  0.60606452  1
  O2-  O248  1  0.95347428  0.42527516  0.93276873  1
  O2-  O249  1  0.95703263  0.92188765  0.26311018  1
  O2-  O250  1  0.96579988  0.91193174  0.59919289  1
  O2-  O251  1  0.95835995  0.91098046  0.93761274  1
  O2-  O252  1  0.33642043  0.29160272  0.26938120  1
  O2-  O253  1  0.33758810  0.28452636  0.59627965  1
  O2-  O254  1  0.33533455  0.30044569  0.93803311  1
  O2-  O255  1  0.32861468  0.80311760  0.27087273  1
  O2-  O256  1  0.33243357  0.79968610  0.60267764  1
  O2-  O257  1  0.33510554  0.79188981  0.93829578  1
  O2-  O258  1  0.83292620  0.28156757  0.26716384  1
  O2-  O259  1  0.83202243  0.29877637  0.60776365  1
  O2-  O260  1  0.83210742  0.29222734  0.92894148  1
  O2-  O261  1  0.82957694  0.79856691  0.26074222  1
  O2-  O262  1  0.83408060  0.79135823  0.60075478  1
  O2-  O263  1  0.83407386  0.79411816  0.93852083  1
  O2-  O264  1  0.41527310  0.04060908  0.06258346  1
  O2-  O265  1  0.41775514  0.03895084  0.40389933  1
  O2-  O266  1  0.41332380  0.04836783  0.73119274  1
  O2-  O267  1  0.41500668  0.53971379  0.06900257  1
  O2-  O268  1  0.41533417  0.53887411  0.40272335  1
  O2-  O269  1  0.41296874  0.54346368  0.72758323  1
  O2-  O270  1  0.90856651  0.03794306  0.06532213  1
  O2-  O271  1  0.91621850  0.05017761  0.39108868  1
  O2-  O272  1  0.92176667  0.03621243  0.73448035  1
  O2-  O273  1  0.92576281  0.55527242  0.06561791  1
  O2-  O274  1  0.91730014  0.54771026  0.39200979  1
  O2-  O275  1  0.92112497  0.55010830  0.73407035  1
  O2-  O276  1  0.30469064  0.16796317  0.05913105  1
  O2-  O277  1  0.29258124  0.16816306  0.40274820  1
  O2-  O278  1  0.28989965  0.16250223  0.73069405  1
  O2-  O279  1  0.28804095  0.66591839  0.06776074  1
  O2-  O280  1  0.29267103  0.67050693  0.40237917  1
  O2-  O281  1  0.29877417  0.66794979  0.72715999  1
  O2-  O282  1  0.79245621  0.16178866  0.06061189  1
  O2-  O283  1  0.78653216  0.15738276  0.39782301  1
  O2-  O284  1  0.80074944  0.16923881  0.73612507  1
  O2-  O285  1  0.78937139  0.67058547  0.07209655  1
  O2-  O286  1  0.79706842  0.66836744  0.38983203  1
  O2-  O287  1  0.78816723  0.66780780  0.73279170  1
