# generated using pymatgen
data_Ca2Al2SiO7
_symmetry_space_group_name_H-M   'P 1'
_cell_length_a   15.45471465
_cell_length_b   15.45442149
_cell_length_c   15.28161595
_cell_angle_alpha   90.00062693
_cell_angle_beta   90.00339924
_cell_angle_gamma   90.00513312
_symmetry_Int_Tables_number   1
_chemical_formula_structural   Ca2Al2SiO7
_chemical_formula_sum   'Ca48 Al48 Si24 O168'
_cell_volume   3649.91727998
_cell_formula_units_Z   24
loop_
 _symmetry_equiv_pos_site_id
 _symmetry_equiv_pos_as_xyz
  1  'x, y, z'
loop_
 _atom_type_symbol
 _atom_type_oxidation_number
  Ca2+  2.0
  Al0+  0.0
  Si0+  0.0
  O2-  -2.0
loop_
 _atom_site_type_symbol
 _atom_site_label
 _atom_site_symmetry_multiplicity
 _atom_site_fract_x
 _atom_site_fract_y
 _atom_site_fract_z
 _atom_site_occupancy
  Ca2+  Ca0  1  0.16986396  0.07844517  0.17275367  1
  Ca2+  Ca1  1  0.16202059  0.07706374  0.50417334  1
  Ca2+  Ca2  1  0.17191995  0.08357614  0.83376815  1
  Ca2+  Ca3  1  0.16828577  0.57406509  0.17364818  1
  Ca2+  Ca4  1  0.18026257  0.58194226  0.50411131  1
  Ca2+  Ca5  1  0.16875427  0.57944835  0.84020677  1
  Ca2+  Ca6  1  0.66771751  0.07461118  0.16635651  1
  Ca2+  Ca7  1  0.66876563  0.07620170  0.50878988  1
  Ca2+  Ca8  1  0.66434251  0.06988047  0.83872689  1
  Ca2+  Ca9  1  0.66873855  0.59323574  0.17274190  1
  Ca2+  Ca10  1  0.67639502  0.58338758  0.50485857  1
  Ca2+  Ca11  1  0.67145952  0.58338409  0.83271799  1
  Ca2+  Ca12  1  0.09502393  0.33085582  0.16420759  1
  Ca2+  Ca13  1  0.08945926  0.32255775  0.49675573  1
  Ca2+  Ca14  1  0.08096455  0.33032995  0.82520842  1
  Ca2+  Ca15  1  0.07588316  0.82909998  0.16133457  1
  Ca2+  Ca16  1  0.07964998  0.83744580  0.49193188  1
  Ca2+  Ca17  1  0.08280587  0.83126436  0.83083351  1
  Ca2+  Ca18  1  0.56698330  0.33556822  0.16167238  1
  Ca2+  Ca19  1  0.57885513  0.33783774  0.49572501  1
  Ca2+  Ca20  1  0.57831840  0.33536274  0.82821975  1
  Ca2+  Ca21  1  0.57925073  0.82217460  0.15629999  1
  Ca2+  Ca22  1  0.58170395  0.82829778  0.49404498  1
  Ca2+  Ca23  1  0.58216811  0.83458831  0.83471034  1
  Ca2+  Ca24  1  0.32726820  0.41705532  0.17321448  1
  Ca2+  Ca25  1  0.33499454  0.42419078  0.49759551  1
  Ca2+  Ca26  1  0.32880033  0.42060760  0.84029420  1
  Ca2+  Ca27  1  0.33161966  0.91839050  0.16917304  1
  Ca2+  Ca28  1  0.31775576  0.92133377  0.51029695  1
  Ca2+  Ca29  1  0.33288845  0.92805909  0.83886678  1
  Ca2+  Ca30  1  0.82911221  0.42808754  0.17509450  1
  Ca2+  Ca31  1  0.83076011  0.42695669  0.51000762  1
  Ca2+  Ca32  1  0.83286663  0.41682982  0.83306178  1
  Ca2+  Ca33  1  0.83158595  0.90376184  0.16773985  1
  Ca2+  Ca34  1  0.82885199  0.91418623  0.50444060  1
  Ca2+  Ca35  1  0.82342193  0.90912104  0.83800800  1
  Ca2+  Ca36  1  0.40706504  0.17732745  0.16191891  1
  Ca2+  Ca37  1  0.41260350  0.17186060  0.49654012  1
  Ca2+  Ca38  1  0.40701478  0.16944468  0.83163361  1
  Ca2+  Ca39  1  0.42507575  0.66644173  0.15980614  1
  Ca2+  Ca40  1  0.42206167  0.65898336  0.49260214  1
  Ca2+  Ca41  1  0.41832610  0.67036767  0.83068391  1
  Ca2+  Ca42  1  0.92580552  0.16779994  0.16509362  1
  Ca2+  Ca43  1  0.92688645  0.17207011  0.49700540  1
  Ca2+  Ca44  1  0.92380270  0.17451124  0.82078511  1
  Ca2+  Ca45  1  0.91965066  0.67400015  0.16099735  1
  Ca2+  Ca46  1  0.91258711  0.66959267  0.49412109  1
  Ca2+  Ca47  1  0.92149605  0.66693939  0.83405244  1
  Al0+  Al48  1  -0.00034780  0.00110159  -0.00509332  1
  Al0+  Al49  1  -0.00138923  0.00143340  0.32731119  1
  Al0+  Al50  1  -0.00090628  -0.00068154  0.66690699  1
  Al0+  Al51  1  -0.00053012  0.49897943  0.00218121  1
  Al0+  Al52  1  -0.00049992  0.49891903  0.34310081  1
  Al0+  Al53  1  0.00022821  0.50279709  0.66516740  1
  Al0+  Al54  1  0.50174854  0.00048975  0.00883878  1
  Al0+  Al55  1  0.50083541  0.00024490  0.33362936  1
  Al0+  Al56  1  0.49833776  0.00033861  0.67142088  1
  Al0+  Al57  1  0.50032185  0.49871356  -0.00951553  1
  Al0+  Al58  1  0.50079242  0.49863221  0.32659685  1
  Al0+  Al59  1  0.50130089  0.50111497  0.67313109  1
  Al0+  Al60  1  0.25032748  0.24999966  0.00195721  1
  Al0+  Al61  1  0.25028776  0.24924517  0.32936148  1
  Al0+  Al62  1  0.25029761  0.25040637  0.66308216  1
  Al0+  Al63  1  0.25125214  0.75053111  -0.00650687  1
  Al0+  Al64  1  0.24956048  0.75091383  0.34061075  1
  Al0+  Al65  1  0.24988179  0.75109035  0.67343534  1
  Al0+  Al66  1  0.74982714  0.24965566  0.00301501  1
  Al0+  Al67  1  0.75110280  0.24821476  0.33180304  1
  Al0+  Al68  1  0.74847601  0.25092267  0.66453644  1
  Al0+  Al69  1  0.75013407  0.74946465  -0.00359572  1
  Al0+  Al70  1  0.74892571  0.74991230  0.33102889  1
  Al0+  Al71  1  0.74970945  0.74802047  0.67378475  1
  Al0+  Al72  1  0.31968406  0.07007533  0.01621036  1
  Al0+  Al73  1  0.06955002  0.18080453  0.31704848  1
  Al0+  Al74  1  0.17751843  0.93002490  0.34452170  1
  Al0+  Al75  1  0.92682440  0.32397426  0.65029161  1
  Al0+  Al76  1  0.32245144  0.57104777  0.68220241  1
  Al0+  Al77  1  0.17889198  0.42611319  0.35064629  1
  Al0+  Al78  1  0.07148472  0.67632705  0.98641205  1
  Al0+  Al79  1  0.68182993  0.92815506  0.01680500  1
  Al0+  Al80  1  0.57138489  0.67809856  0.98071511  1
  Al0+  Al81  1  0.42812035  0.31831244  0.98370714  1
  Al0+  Al82  1  0.43142685  0.31859483  0.31988450  1
  Al0+  Al83  1  0.81942151  0.57232110  0.34573203  1
  Al0+  Al84  1  0.56887481  0.68085248  0.32196802  1
  Al0+  Al85  1  0.17504271  0.92897117  0.68393322  1
  Al0+  Al86  1  0.67935327  0.42782048  0.68173931  1
  Al0+  Al87  1  0.42884861  0.82430207  0.98462330  1
  Al0+  Al88  1  0.67892253  0.92894916  0.67946583  1
  Al0+  Al89  1  0.17911594  0.43081831  0.01256808  1
  Al0+  Al90  1  0.92986074  0.81943395  0.32123174  1
  Al0+  Al91  1  0.93025740  0.82158474  0.98249191  1
  Al0+  Al92  1  0.31968485  0.07246963  0.68074221  1
  Al0+  Al93  1  0.32317075  0.57095937  0.34541690  1
  Al0+  Al94  1  0.82361214  0.57119254  0.68473714  1
  Al0+  Al95  1  0.07156059  0.17910956  0.65060439  1
  Si0+  Si96  1  0.32379069  0.57304948  0.01507921  1
  Si0+  Si97  1  0.67734440  0.42683945  0.01610826  1
  Si0+  Si98  1  0.17972598  0.42901432  0.68175772  1
  Si0+  Si99  1  0.57391007  0.17903730  0.98387930  1
  Si0+  Si100  1  0.68008060  0.92940291  0.34799267  1
  Si0+  Si101  1  0.42541109  0.82412561  0.31979035  1
  Si0+  Si102  1  0.07100708  0.18038715  0.98456081  1
  Si0+  Si103  1  0.57554479  0.17430708  0.31567394  1
  Si0+  Si104  1  0.57001154  0.17683549  0.65265764  1
  Si0+  Si105  1  0.81931494  0.56874039  0.01616002  1
  Si0+  Si106  1  0.17599368  0.92685837  0.01676741  1
  Si0+  Si107  1  0.92768846  0.81846533  0.65174726  1
  Si0+  Si108  1  0.07376502  0.67990426  0.64985128  1
  Si0+  Si109  1  0.92667959  0.32401346  0.31596253  1
  Si0+  Si110  1  0.82117426  0.07226041  0.68152944  1
  Si0+  Si111  1  0.67849956  0.42605024  0.34681895  1
  Si0+  Si112  1  0.07445252  0.67613209  0.32061661  1
  Si0+  Si113  1  0.92695617  0.32055414  0.98709897  1
  Si0+  Si114  1  0.82112929  0.07230046  0.34853205  1
  Si0+  Si115  1  0.32254032  0.07144032  0.34950833  1
  Si0+  Si116  1  0.43023821  0.32272333  0.65118240  1
  Si0+  Si117  1  0.42865835  0.82265647  0.65129109  1
  Si0+  Si118  1  0.56984225  0.68017407  0.65088403  1
  Si0+  Si119  1  0.82379078  0.07382999  0.01737799  1
  O2-  O120  1  0.24705915  -0.00729719  0.06194424  1
  O2-  O121  1  0.25551047  0.00106040  0.39256368  1
  O2-  O122  1  0.24723587  0.00178308  0.73160440  1
  O2-  O123  1  0.25222519  0.50743330  0.05904741  1
  O2-  O124  1  0.24908605  0.50174228  0.39762928  1
  O2-  O125  1  0.24686088  0.49742123  0.72821048  1
  O2-  O126  1  0.75931117  0.00137346  0.06260280  1
  O2-  O127  1  0.74788521  0.00318184  0.39064416  1
  O2-  O128  1  0.75289163  0.00416710  0.72666982  1
  O2-  O129  1  0.74510352  0.50065962  0.05856724  1
  O2-  O130  1  0.74864800  0.49288780  0.39086504  1
  O2-  O131  1  0.75490685  0.49506167  0.73322561  1
  O2-  O132  1  -0.00137140  0.25972677  0.26982502  1
  O2-  O133  1  0.00003121  0.25254290  0.60103860  1
  O2-  O134  1  -0.00296699  0.24922159  0.94445068  1
  O2-  O135  1  0.00512593  0.74437912  0.27633719  1
  O2-  O136  1  0.00139721  0.75083145  0.60856338  1
  O2-  O137  1  0.00467952  0.75195602  0.93322548  1
  O2-  O138  1  0.50606428  0.24274830  0.27333015  1
  O2-  O139  1  0.50112195  0.25012615  0.61024566  1
  O2-  O140  1  0.50429033  0.24489882  0.93701603  1
  O2-  O141  1  0.49115734  0.75262710  0.27605002  1
  O2-  O142  1  0.49786039  0.75002170  0.60770554  1
  O2-  O143  1  0.49798843  0.75008250  0.93264328  1
  O2-  O144  1  0.07017311  0.18036708  0.08983097  1
  O2-  O145  1  0.06673217  0.17839286  0.42965528  1
  O2-  O146  1  0.07077244  0.18192311  0.76475658  1
  O2-  O147  1  0.06738175  0.67394694  0.10037377  1
  O2-  O148  1  0.07464211  0.67928654  0.42637207  1
  O2-  O149  1  0.07334925  0.67894316  0.75477733  1
  O2-  O150  1  0.57670929  0.18344457  0.08957189  1
  O2-  O151  1  0.57689816  0.17169010  0.42146589  1
  O2-  O152  1  0.57014064  0.17552361  0.75743582  1
  O2-  O153  1  0.57146655  0.67884579  0.09490167  1
  O2-  O154  1  0.57126808  0.68305236  0.43549380  1
  O2-  O155  1  0.56953776  0.68135733  0.75547611  1
  O2-  O156  1  0.18137886  0.42746683  0.23674073  1
  O2-  O157  1  0.18304129  0.42923683  0.57636788  1
  O2-  O158  1  0.17912629  0.42958708  0.89924077  1
  O2-  O159  1  0.17764592  0.93111697  0.23146432  1
  O2-  O160  1  0.17502381  0.92898482  0.56977635  1
  O2-  O161  1  0.17415225  0.93123335  0.91154085  1
  O2-  O162  1  0.67976319  0.42591391  0.24093661  1
  O2-  O163  1  0.67589887  0.43207729  0.56774780  1
  O2-  O164  1  0.68152116  0.42264403  0.91151250  1
  O2-  O165  1  0.68147738  0.92936903  0.24330834  1
  O2-  O166  1  0.68025504  0.92934871  0.56554555  1
  O2-  O167  1  0.68223033  0.93121483  0.90362520  1
  O2-  O168  1  0.42888735  0.31806090  0.09689485  1
  O2-  O169  1  0.43451818  0.31842444  0.43357587  1
  O2-  O170  1  0.42970965  0.32146187  0.75612612  1
  O2-  O171  1  0.43024212  0.82236048  0.09895975  1
  O2-  O172  1  0.42975481  0.82762307  0.42554638  1
  O2-  O173  1  0.43169829  0.82353847  0.75590586  1
  O2-  O174  1  0.92491632  0.31973244  0.09217244  1
  O2-  O175  1  0.92195582  0.31891894  0.42079041  1
  O2-  O176  1  0.92857374  0.32031252  0.76491174  1
  O2-  O177  1  0.93055556  0.81829824  0.09645487  1
  O2-  O178  1  0.92752595  0.81963549  0.43476951  1
  O2-  O179  1  0.92692985  0.81678751  0.75638130  1
  O2-  O180  1  0.32212530  0.07033259  0.24386791  1
  O2-  O181  1  0.32256898  0.06972443  0.56698039  1
  O2-  O182  1  0.31584766  0.07246164  0.90340211  1
  O2-  O183  1  0.32399684  0.57032921  0.23201500  1
  O2-  O184  1  0.32440684  0.56899572  0.56899238  1
  O2-  O185  1  0.32291821  0.56935088  0.90930056  1
  O2-  O186  1  0.81977223  0.07452670  0.24359189  1
  O2-  O187  1  0.81937814  0.06967537  0.57541286  1
  O2-  O188  1  0.82055116  0.07863524  0.91214882  1
  O2-  O189  1  0.81699918  0.57299981  0.23220017  1
  O2-  O190  1  0.81805916  0.57604594  0.57101202  1
  O2-  O191  1  0.82124081  0.56532009  0.91143888  1
  O2-  O192  1  0.03337552  0.08738754  0.25998617  1
  O2-  O193  1  0.04035062  0.08020028  0.59892026  1
  O2-  O194  1  0.04600264  0.08868087  0.93609587  1
  O2-  O195  1  0.04920581  0.58087889  0.27803011  1
  O2-  O196  1  0.04744873  0.58821035  0.60179663  1
  O2-  O197  1  0.03693244  0.57960268  0.93212100  1
  O2-  O198  1  0.55031483  0.08051909  0.26892997  1
  O2-  O199  1  0.54029883  0.08597969  0.60303681  1
  O2-  O200  1  0.55043562  0.08351380  0.94287700  1
  O2-  O201  1  0.54475288  0.58389091  0.26564933  1
  O2-  O202  1  0.54206033  0.58732772  0.60525832  1
  O2-  O203  1  0.54684506  0.57936990  0.92707450  1
  O2-  O204  1  0.16702148  0.20756694  0.26296449  1
  O2-  O205  1  0.16984531  0.20726041  0.59600412  1
  O2-  O206  1  0.16094317  0.21225517  0.93745883  1
  O2-  O207  1  0.16805153  0.70186289  0.27453767  1
  O2-  O208  1  0.16605834  0.70892074  0.60346681  1
  O2-  O209  1  0.17099721  0.69838667  0.93339694  1
  O2-  O210  1  0.66914553  0.19874925  0.26872676  1
  O2-  O211  1  0.66211890  0.20130406  0.60348537  1
  O2-  O212  1  0.66727030  0.20569857  0.93698825  1
  O2-  O213  1  0.66244645  0.71666035  0.26543103  1
  O2-  O214  1  0.66242982  0.71001431  0.60556651  1
  O2-  O215  1  0.66918302  0.70820110  0.92880900  1
  O2-  O216  1  0.08166636  0.45713355  0.06841683  1
  O2-  O217  1  0.07913602  0.44683246  0.40341662  1
  O2-  O218  1  0.08531287  0.45384191  0.72573531  1
  O2-  O219  1  0.08226875  0.95606263  0.06157571  1
  O2-  O220  1  0.08107668  0.96484038  0.39712186  1
  O2-  O221  1  0.07616821  0.95550065  0.73646973  1
  O2-  O222  1  0.58330975  0.45300955  0.05941256  1
  O2-  O223  1  0.58530344  0.45268072  0.39169056  1
  O2-  O224  1  0.58387071  0.45980247  0.73786677  1
  O2-  O225  1  0.58771139  0.96094231  0.07435922  1
  O2-  O226  1  0.58710846  0.95465768  0.39541013  1
  O2-  O227  1  0.58393979  0.96107018  0.73453083  1
  O2-  O228  1  0.21291062  0.33550939  0.06693814  1
  O2-  O229  1  0.21238888  0.32825487  0.40154389  1
  O2-  O230  1  0.20555644  0.33531322  0.72694264  1
  O2-  O231  1  0.19861337  0.83107590  0.05952457  1
  O2-  O232  1  0.20299763  0.83399346  0.40238088  1
  O2-  O233  1  0.20441196  0.83175543  0.73708311  1
  O2-  O234  1  0.70698892  0.33652442  0.06608450  1
  O2-  O235  1  0.70062726  0.33087295  0.39223850  1
  O2-  O236  1  0.70134150  0.32700215  0.73361571  1
  O2-  O237  1  0.71296614  0.83049863  0.06917912  1
  O2-  O238  1  0.71106975  0.83944063  0.39656336  1
  O2-  O239  1  0.71037569  0.83448085  0.73523331  1
  O2-  O240  1  0.46275930  0.41289889  0.26172398  1
  O2-  O241  1  0.46181642  0.41422620  0.60504168  1
  O2-  O242  1  0.45805235  0.41378584  0.92808259  1
  O2-  O243  1  0.45361558  0.91689435  0.27250733  1
  O2-  O244  1  0.45858664  0.91394445  0.60348282  1
  O2-  O245  1  0.46215828  0.92321544  0.93516598  1
  O2-  O246  1  0.94769572  0.42043243  0.27387879  1
  O2-  O247  1  0.95200065  0.42416884  0.59991278  1
  O2-  O248  1  0.95517662  0.41162104  0.93967035  1
  O2-  O249  1  0.95676979  0.91573739  0.26516326  1
  O2-  O250  1  0.95058273  0.91241007  0.60581630  1
  O2-  O251  1  0.95210848  0.92216222  0.93031500  1
  O2-  O252  1  0.33596512  0.28726155  0.26441937  1
  O2-  O253  1  0.33909103  0.29572257  0.60244065  1
  O2-  O254  1  0.33216055  0.28515340  0.92993290  1
  O2-  O255  1  0.33019171  0.80274131  0.27593725  1
  O2-  O256  1  0.33497102  0.79626766  0.60682928  1
  O2-  O257  1  0.32975187  0.80211102  0.93054091  1
  O2-  O258  1  0.83421751  0.29452150  0.26754724  1
  O2-  O259  1  0.82780152  0.29550447  0.59736219  1
  O2-  O260  1  0.83505352  0.29281234  0.93926243  1
  O2-  O261  1  0.83442565  0.78677463  0.26605954  1
  O2-  O262  1  0.83574530  0.78779258  0.60493640  1
  O2-  O263  1  0.83320800  0.78949982  0.93043865  1
  O2-  O264  1  0.41744133  0.04580412  0.07128315  1
  O2-  O265  1  0.41828935  0.05038133  0.39437705  1
  O2-  O266  1  0.41707182  0.04405260  0.73571508  1
  O2-  O267  1  0.41798521  0.54360319  0.05791322  1
  O2-  O268  1  0.42125047  0.53747598  0.39815283  1
  O2-  O269  1  0.41738306  0.54029409  0.73771277  1
  O2-  O270  1  0.91940053  0.05167277  0.06110106  1
  O2-  O271  1  0.91152085  0.04134201  0.39547087  1
  O2-  O272  1  0.91417825  0.04771082  0.72801423  1
  O2-  O273  1  0.90914047  0.53747557  0.06537985  1
  O2-  O274  1  0.91586231  0.54750727  0.40219859  1
  O2-  O275  1  0.92380827  0.54753729  0.73609925  1
  O2-  O276  1  0.28410759  0.16506392  0.07056139  1
  O2-  O277  1  0.29553540  0.16451559  0.39425110  1
  O2-  O278  1  0.29285462  0.17210259  0.73236032  1
  O2-  O279  1  0.30397952  0.66920107  0.05772825  1
  O2-  O280  1  0.29975182  0.66969800  0.40127484  1
  O2-  O281  1  0.29320340  0.66743657  0.73580149  1
  O2-  O282  1  0.79449673  0.16544666  0.06739788  1
  O2-  O283  1  0.79481358  0.16408569  0.39757358  1
  O2-  O284  1  0.79640751  0.16615160  0.72634265  1
  O2-  O285  1  0.79287869  0.66175316  0.06109561  1
  O2-  O286  1  0.78308206  0.66681143  0.40104616  1
  O2-  O287  1  0.78916681  0.66610349  0.74041429  1
