# generated using pymatgen
data_Ca2Al2SiO7
_symmetry_space_group_name_H-M   'P 1'
_cell_length_a   15.45935520
_cell_length_b   15.45840370
_cell_length_c   15.28435849
_cell_angle_alpha   90.00657314
_cell_angle_beta   90.00309746
_cell_angle_gamma   89.99526934
_symmetry_Int_Tables_number   1
_chemical_formula_structural   Ca2Al2SiO7
_chemical_formula_sum   'Ca48 Al48 Si24 O168'
_cell_volume   3652.60939019
_cell_formula_units_Z   24
loop_
 _symmetry_equiv_pos_site_id
 _symmetry_equiv_pos_as_xyz
  1  'x, y, z'
loop_
 _atom_type_symbol
 _atom_type_oxidation_number
  Ca2+  2.0
  Al0+  0.0
  Si0+  0.0
  O2-  -2.0
loop_
 _atom_site_type_symbol
 _atom_site_label
 _atom_site_symmetry_multiplicity
 _atom_site_fract_x
 _atom_site_fract_y
 _atom_site_fract_z
 _atom_site_occupancy
  Ca2+  Ca0  1  0.16176043  0.07841126  0.17783484  1
  Ca2+  Ca1  1  0.15254849  0.07590993  0.50210958  1
  Ca2+  Ca2  1  0.16089945  0.08174710  0.82889148  1
  Ca2+  Ca3  1  0.17120837  0.58218582  0.17662233  1
  Ca2+  Ca4  1  0.16724202  0.57107516  0.50553940  1
  Ca2+  Ca5  1  0.17715106  0.57720797  0.83571145  1
  Ca2+  Ca6  1  0.67705699  0.08089761  0.17512077  1
  Ca2+  Ca7  1  0.67217817  0.08519273  0.50333283  1
  Ca2+  Ca8  1  0.67171624  0.07231029  0.84200560  1
  Ca2+  Ca9  1  0.67332268  0.58670356  0.16927514  1
  Ca2+  Ca10  1  0.66508441  0.58157790  0.50702901  1
  Ca2+  Ca11  1  0.66795937  0.57798687  0.83302900  1
  Ca2+  Ca12  1  0.08238146  0.33234166  0.17085588  1
  Ca2+  Ca13  1  0.07955907  0.32982200  0.49142148  1
  Ca2+  Ca14  1  0.07659133  0.32763036  0.81921167  1
  Ca2+  Ca15  1  0.07270500  0.83729324  0.16854913  1
  Ca2+  Ca16  1  0.08402031  0.82989902  0.48972192  1
  Ca2+  Ca17  1  0.07591053  0.83520110  0.82858993  1
  Ca2+  Ca18  1  0.58241080  0.32637027  0.17147514  1
  Ca2+  Ca19  1  0.57226113  0.33718003  0.49402848  1
  Ca2+  Ca20  1  0.57908297  0.33709313  0.82254291  1
  Ca2+  Ca21  1  0.58846959  0.82906796  0.16348582  1
  Ca2+  Ca22  1  0.58803876  0.82289583  0.49712325  1
  Ca2+  Ca23  1  0.58861809  0.82882794  0.82530844  1
  Ca2+  Ca24  1  0.32900265  0.42041220  0.17437194  1
  Ca2+  Ca25  1  0.32518352  0.41322430  0.50657755  1
  Ca2+  Ca26  1  0.33545698  0.42508326  0.83109717  1
  Ca2+  Ca27  1  0.32518347  0.91941437  0.17528545  1
  Ca2+  Ca28  1  0.32019609  0.91749030  0.50484139  1
  Ca2+  Ca29  1  0.32481883  0.91477119  0.83357058  1
  Ca2+  Ca30  1  0.83899098  0.42282551  0.17315190  1
  Ca2+  Ca31  1  0.82991765  0.41184324  0.50603280  1
  Ca2+  Ca32  1  0.82972864  0.41799549  0.83547664  1
  Ca2+  Ca33  1  0.83928002  0.92431303  0.17080891  1
  Ca2+  Ca34  1  0.83417206  0.92298466  0.50155647  1
  Ca2+  Ca35  1  0.82371663  0.91959297  0.84229295  1
  Ca2+  Ca36  1  0.41790288  0.17142707  0.16808927  1
  Ca2+  Ca37  1  0.42166967  0.17881815  0.49235745  1
  Ca2+  Ca38  1  0.42043069  0.17487213  0.82399281  1
  Ca2+  Ca39  1  0.42133073  0.66379854  0.16500760  1
  Ca2+  Ca40  1  0.42698283  0.65790434  0.49877533  1
  Ca2+  Ca41  1  0.41934059  0.66148179  0.82541097  1
  Ca2+  Ca42  1  0.91539510  0.16519837  0.16915127  1
  Ca2+  Ca43  1  0.92275382  0.17623859  0.49437073  1
  Ca2+  Ca44  1  0.91890532  0.16954816  0.82642415  1
  Ca2+  Ca45  1  0.92013183  0.67624406  0.16275356  1
  Ca2+  Ca46  1  0.92495943  0.67550608  0.48878776  1
  Ca2+  Ca47  1  0.90825207  0.67214760  0.83368906  1
  Al0+  Al48  1  -0.00124936  -0.00116354  -0.00296663  1
  Al0+  Al49  1  -0.00186918  0.00123741  0.33644957  1
  Al0+  Al50  1  -0.00117230  0.00056211  0.66917572  1
  Al0+  Al51  1  0.00055962  0.49846269  0.00153844  1
  Al0+  Al52  1  0.00218730  0.50174704  0.33092613  1
  Al0+  Al53  1  -0.00025025  0.50249550  0.66892135  1
  Al0+  Al54  1  0.49774526  -0.00130410  0.00211309  1
  Al0+  Al55  1  0.50076882  -0.00095812  0.33182274  1
  Al0+  Al56  1  0.49883774  -0.00191005  0.66962949  1
  Al0+  Al57  1  0.49829463  0.49961950  0.00453230  1
  Al0+  Al58  1  0.50177783  0.50102876  0.32243716  1
  Al0+  Al59  1  0.50218401  0.50008147  0.66628025  1
  Al0+  Al60  1  0.25020009  0.24988432  -0.00328317  1
  Al0+  Al61  1  0.25023154  0.25132058  0.32844453  1
  Al0+  Al62  1  0.24981492  0.24738826  0.66339438  1
  Al0+  Al63  1  0.25091511  0.74830980  0.00390886  1
  Al0+  Al64  1  0.25305045  0.74998092  0.33535896  1
  Al0+  Al65  1  0.24993219  0.75161876  0.67530316  1
  Al0+  Al66  1  0.74932891  0.24783184  0.00174185  1
  Al0+  Al67  1  0.74944757  0.25113271  0.33093776  1
  Al0+  Al68  1  0.75078399  0.25051217  0.66973421  1
  Al0+  Al69  1  0.74940885  0.74712199  0.00150528  1
  Al0+  Al70  1  0.75019621  0.75078499  0.32616968  1
  Al0+  Al71  1  0.74949109  0.75128921  0.66493624  1
  Al0+  Al72  1  0.92753615  0.32434687  0.65304290  1
  Al0+  Al73  1  0.82147069  0.07043389  0.01650056  1
  Al0+  Al74  1  0.17746455  0.92969831  0.68218931  1
  Al0+  Al75  1  0.06961113  0.17931304  0.31793128  1
  Al0+  Al76  1  0.67693981  0.92748603  0.01666402  1
  Al0+  Al77  1  0.57217032  0.17693320  0.31913461  1
  Al0+  Al78  1  0.81954110  0.07240887  0.35020276  1
  Al0+  Al79  1  0.06999991  0.17829490  0.65110593  1
  Al0+  Al80  1  0.57002288  0.68100076  0.65452103  1
  Al0+  Al81  1  0.17992459  0.93055303  0.34646171  1
  Al0+  Al82  1  0.42804737  0.32133698  0.31614871  1
  Al0+  Al83  1  0.82120521  0.56847591  0.01404617  1
  Al0+  Al84  1  0.32151627  0.56916958  0.67961794  1
  Al0+  Al85  1  0.68065306  0.42935617  0.67738867  1
  Al0+  Al86  1  0.43093284  0.32093631  0.65390644  1
  Al0+  Al87  1  0.57095707  0.67991927  0.31729440  1
  Al0+  Al88  1  0.32047571  0.57035073  0.01653323  1
  Al0+  Al89  1  0.17947676  0.42979559  0.34689570  1
  Al0+  Al90  1  0.67873863  0.92826449  0.67863087  1
  Al0+  Al91  1  0.07449553  0.67866788  0.31976381  1
  Al0+  Al92  1  0.92782594  0.32282463  0.31743078  1
  Al0+  Al93  1  0.17661372  0.42551148  0.68141653  1
  Al0+  Al94  1  0.92982199  0.81931210  0.98388927  1
  Al0+  Al95  1  0.92983357  0.82189835  0.31912749  1
  Si0+  Si96  1  0.42783073  0.82253296  0.31695120  1
  Si0+  Si97  1  0.92894965  0.81985005  0.65243209  1
  Si0+  Si98  1  0.07372653  0.67666889  0.98198416  1
  Si0+  Si99  1  0.07143842  0.17880588  0.98399271  1
  Si0+  Si100  1  0.42982847  0.32037468  0.98282718  1
  Si0+  Si101  1  0.67719992  0.92648439  0.35089515  1
  Si0+  Si102  1  0.32423594  0.07310856  0.34974932  1
  Si0+  Si103  1  0.82032522  0.07154153  0.68430704  1
  Si0+  Si104  1  0.56933030  0.67866041  0.98323210  1
  Si0+  Si105  1  0.57048677  0.17785833  0.98443235  1
  Si0+  Si106  1  0.82126332  0.57305234  0.34764030  1
  Si0+  Si107  1  0.32020518  0.07267390  0.01431556  1
  Si0+  Si108  1  0.82280264  0.57474327  0.68095924  1
  Si0+  Si109  1  0.07367824  0.68064904  0.65455035  1
  Si0+  Si110  1  0.17874574  0.42616117  0.01675736  1
  Si0+  Si111  1  0.42679712  0.82118778  0.98423485  1
  Si0+  Si112  1  0.17930814  0.93007498  0.01474742  1
  Si0+  Si113  1  0.32528712  0.57138628  0.35032527  1
  Si0+  Si114  1  0.67971199  0.43158870  0.34678461  1
  Si0+  Si115  1  0.67673190  0.42696176  0.01823669  1
  Si0+  Si116  1  0.32336937  0.07173225  0.68350138  1
  Si0+  Si117  1  0.57246621  0.17487515  0.65308610  1
  Si0+  Si118  1  0.42527636  0.82323957  0.65069064  1
  Si0+  Si119  1  0.92806912  0.32198261  0.98462857  1
  O2-  O120  1  0.24903561  0.00233254  0.05679034  1
  O2-  O121  1  0.25363527  0.00644101  0.39384386  1
  O2-  O122  1  0.25277573  0.00451035  0.72825885  1
  O2-  O123  1  0.24394278  0.49760929  0.06161510  1
  O2-  O124  1  0.25508015  0.50427518  0.39314949  1
  O2-  O125  1  0.24952011  0.49735059  0.73114727  1
  O2-  O126  1  0.74926023  -0.00140695  0.06670650  1
  O2-  O127  1  0.74266846  -0.00196049  0.39506637  1
  O2-  O128  1  0.74903312  0.00517808  0.72761873  1
  O2-  O129  1  0.74896507  0.49187730  0.06211620  1
  O2-  O130  1  0.75205824  0.50067750  0.39025186  1
  O2-  O131  1  0.75877933  0.50063927  0.72396569  1
  O2-  O132  1  -0.00110677  0.25091136  0.26534592  1
  O2-  O133  1  0.00368700  0.25668068  0.60355956  1
  O2-  O134  1  -0.00081325  0.24996871  0.94390647  1
  O2-  O135  1  0.00280981  0.75048317  0.26919858  1
  O2-  O136  1  0.00167202  0.75034436  0.61167044  1
  O2-  O137  1  0.00383171  0.74358855  0.93597313  1
  O2-  O138  1  0.49782451  0.24595140  0.26745291  1
  O2-  O139  1  0.50523209  0.24467129  0.60913237  1
  O2-  O140  1  0.50252818  0.25104771  0.94040782  1
  O2-  O141  1  0.49762329  0.75603452  0.27092865  1
  O2-  O142  1  0.49440444  0.75484540  0.60725850  1
  O2-  O143  1  0.49980690  0.75199625  0.94191669  1
  O2-  O144  1  0.07517270  0.17857940  0.08850397  1
  O2-  O145  1  0.06761704  0.17955398  0.43087197  1
  O2-  O146  1  0.06521646  0.17648900  0.76582775  1
  O2-  O147  1  0.07414329  0.67912349  0.08718867  1
  O2-  O148  1  0.07209711  0.67964226  0.43403983  1
  O2-  O149  1  0.07327226  0.68244526  0.75987576  1
  O2-  O150  1  0.56817200  0.17856727  0.08905771  1
  O2-  O151  1  0.57096568  0.17957341  0.43301042  1
  O2-  O152  1  0.56967517  0.17485373  0.75932974  1
  O2-  O153  1  0.56759965  0.67871104  0.08832425  1
  O2-  O154  1  0.57116253  0.67863319  0.43042851  1
  O2-  O155  1  0.57056322  0.68168448  0.76791352  1
  O2-  O156  1  0.18149071  0.43156630  0.23324900  1
  O2-  O157  1  0.17671335  0.42810222  0.56810316  1
  O2-  O158  1  0.18072191  0.42495721  0.91129664  1
  O2-  O159  1  0.18223400  0.93193873  0.23262465  1
  O2-  O160  1  0.17773170  0.92800482  0.56954767  1
  O2-  O161  1  0.18054164  0.93086301  0.90953741  1
  O2-  O162  1  0.68001380  0.43381620  0.24133903  1
  O2-  O163  1  0.67862186  0.43204564  0.56443866  1
  O2-  O164  1  0.67483564  0.42858382  0.91234743  1
  O2-  O165  1  0.67771479  0.92620714  0.24541752  1
  O2-  O166  1  0.68244904  0.92670099  0.56593625  1
  O2-  O167  1  0.67717723  0.92971344  0.90258864  1
  O2-  O168  1  0.42845223  0.31806041  0.08738045  1
  O2-  O169  1  0.43047512  0.32323410  0.42974847  1
  O2-  O170  1  0.43414587  0.32020746  0.76793632  1
  O2-  O171  1  0.42494452  0.82112260  0.08914511  1
  O2-  O172  1  0.42715609  0.82230173  0.42231829  1
  O2-  O173  1  0.42555387  0.82332137  0.75671380  1
  O2-  O174  1  0.92884135  0.32390827  0.08920182  1
  O2-  O175  1  0.92695542  0.32301540  0.43063525  1
  O2-  O176  1  0.92586175  0.32058133  0.76754977  1
  O2-  O177  1  0.93389004  0.82133620  0.09620807  1
  O2-  O178  1  0.92927327  0.81933848  0.43337126  1
  O2-  O179  1  0.92804324  0.81820371  0.75784937  1
  O2-  O180  1  0.32441649  0.06933458  0.24332763  1
  O2-  O181  1  0.32860463  0.06865668  0.57864598  1
  O2-  O182  1  0.32054151  0.07331248  0.90936523  1
  O2-  O183  1  0.32441979  0.57029323  0.24427569  1
  O2-  O184  1  0.32111008  0.56915341  0.56646884  1
  O2-  O185  1  0.32269702  0.56854643  0.90364871  1
  O2-  O186  1  0.81930575  0.07033979  0.23717844  1
  O2-  O187  1  0.82050826  0.07090894  0.57894560  1
  O2-  O188  1  0.81950838  0.07078858  0.90256970  1
  O2-  O189  1  0.81875587  0.57245982  0.24234482  1
  O2-  O190  1  0.82066897  0.57933931  0.57559005  1
  O2-  O191  1  0.81823254  0.56731110  0.90059831  1
  O2-  O192  1  0.03969733  0.08118099  0.26568532  1
  O2-  O193  1  0.03551663  0.08078986  0.59956336  1
  O2-  O194  1  0.04405789  0.08706397  0.93612704  1
  O2-  O195  1  0.04578744  0.58242362  0.26408252  1
  O2-  O196  1  0.04788419  0.58838317  0.60773811  1
  O2-  O197  1  0.05027095  0.58126879  0.93815076  1
  O2-  O198  1  0.54735205  0.07751671  0.26585860  1
  O2-  O199  1  0.54669826  0.08139123  0.60703318  1
  O2-  O200  1  0.53906381  0.08638675  0.93764963  1
  O2-  O201  1  0.54040997  0.58625950  0.25793003  1
  O2-  O202  1  0.54017562  0.58512245  0.59945768  1
  O2-  O203  1  0.53857881  0.58602398  0.93836382  1
  O2-  O204  1  0.16884950  0.20414629  0.26443460  1
  O2-  O205  1  0.17193894  0.19347944  0.60188481  1
  O2-  O206  1  0.16316655  0.20668627  0.93493589  1
  O2-  O207  1  0.17411163  0.70507995  0.26849048  1
  O2-  O208  1  0.16497611  0.71070501  0.60836523  1
  O2-  O209  1  0.16760293  0.70495682  0.93712864  1
  O2-  O210  1  0.66687670  0.21127876  0.26290570  1
  O2-  O211  1  0.66712130  0.19878660  0.61030382  1
  O2-  O212  1  0.66356906  0.20226473  0.93749603  1
  O2-  O213  1  0.66633508  0.71024886  0.26100770  1
  O2-  O214  1  0.66574393  0.71292144  0.59866491  1
  O2-  O215  1  0.66194464  0.70286119  0.93638611  1
  O2-  O216  1  0.08371875  0.44707565  0.06108514  1
  O2-  O217  1  0.08291590  0.46156540  0.40079027  1
  O2-  O218  1  0.07885885  0.45639772  0.73599968  1
  O2-  O219  1  0.08736937  0.95810633  0.06023691  1
  O2-  O220  1  0.08357089  0.95929849  0.40101990  1
  O2-  O221  1  0.08164779  0.96191137  0.73803465  1
  O2-  O222  1  0.58503672  0.45630000  0.06545174  1
  O2-  O223  1  0.58754903  0.46317271  0.39126799  1
  O2-  O224  1  0.58743281  0.46453830  0.73555324  1
  O2-  O225  1  0.57683471  0.95389190  0.06763772  1
  O2-  O226  1  0.58139699  0.94663258  0.39519081  1
  O2-  O227  1  0.58020511  0.95221033  0.73315732  1
  O2-  O228  1  0.20883965  0.33326883  0.06223368  1
  O2-  O229  1  0.20991393  0.33191946  0.39815589  1
  O2-  O230  1  0.20348844  0.32569527  0.73241189  1
  O2-  O231  1  0.20863112  0.83883558  0.06144691  1
  O2-  O232  1  0.21302271  0.83421660  0.40075431  1
  O2-  O233  1  0.20919849  0.83575870  0.74120689  1
  O2-  O234  1  0.69838408  0.33157341  0.06146740  1
  O2-  O235  1  0.70327377  0.33905812  0.39344942  1
  O2-  O236  1  0.70607949  0.33249267  0.73533964  1
  O2-  O237  1  0.70239657  0.82739517  0.06552449  1
  O2-  O238  1  0.70687904  0.83289876  0.39526841  1
  O2-  O239  1  0.71323030  0.83336306  0.73444248  1
  O2-  O240  1  0.46140385  0.41642197  0.25957238  1
  O2-  O241  1  0.46485568  0.41541719  0.59948002  1
  O2-  O242  1  0.45827959  0.41338305  0.93811845  1
  O2-  O243  1  0.44976816  0.91663097  0.26982621  1
  O2-  O244  1  0.44955456  0.91701654  0.60471525  1
  O2-  O245  1  0.45013045  0.91474731  0.93719897  1
  O2-  O246  1  0.95819767  0.42073286  0.26452339  1
  O2-  O247  1  0.94712376  0.42657215  0.60433476  1
  O2-  O248  1  0.95560871  0.41353301  0.93609855  1
  O2-  O249  1  0.96009618  0.91925514  0.26662658  1
  O2-  O250  1  0.95550617  0.91264000  0.60796874  1
  O2-  O251  1  0.96173264  0.91545159  0.92822847  1
  O2-  O252  1  0.33120371  0.29382514  0.25999833  1
  O2-  O253  1  0.33449007  0.29068767  0.60069192  1
  O2-  O254  1  0.33862692  0.29074522  0.93460626  1
  O2-  O255  1  0.33586671  0.79521401  0.26822031  1
  O2-  O256  1  0.33087408  0.79784749  0.60659720  1
  O2-  O257  1  0.33548925  0.79097868  0.93634228  1
  O2-  O258  1  0.82928672  0.29698430  0.26410709  1
  O2-  O259  1  0.82927075  0.29291988  0.60083807  1
  O2-  O260  1  0.83469529  0.29495200  0.93887530  1
  O2-  O261  1  0.83330763  0.79308674  0.26368139  1
  O2-  O262  1  0.83887155  0.79084479  0.60332330  1
  O2-  O263  1  0.83220261  0.78623067  0.93177081  1
  O2-  O264  1  0.41082625  0.04421040  0.06323071  1
  O2-  O265  1  0.41748079  0.04625003  0.39616481  1
  O2-  O266  1  0.41518135  0.04457792  0.73412998  1
  O2-  O267  1  0.41609428  0.53785847  0.07156041  1
  O2-  O268  1  0.42008478  0.54327983  0.39219356  1
  O2-  O269  1  0.41906631  0.53892794  0.73433348  1
  O2-  O270  1  0.92093242  0.04120187  0.06680097  1
  O2-  O271  1  0.91427743  0.03918822  0.40541288  1
  O2-  O272  1  0.91184480  0.04193826  0.73202135  1
  O2-  O273  1  0.91911311  0.54103780  0.06744804  1
  O2-  O274  1  0.91433805  0.54891507  0.39324415  1
  O2-  O275  1  0.91712730  0.55711066  0.72865847  1
  O2-  O276  1  0.29315026  0.16490837  0.06126732  1
  O2-  O277  1  0.30212204  0.16848445  0.39160821  1
  O2-  O278  1  0.29859996  0.16490618  0.73091806  1
  O2-  O279  1  0.29302640  0.66783450  0.07099027  1
  O2-  O280  1  0.30525594  0.66640244  0.39500922  1
  O2-  O281  1  0.29497793  0.66737476  0.73534608  1
  O2-  O282  1  0.79388304  0.16964029  0.06848989  1
  O2-  O283  1  0.78758185  0.16978194  0.40235592  1
  O2-  O284  1  0.79746709  0.16526087  0.73158305  1
  O2-  O285  1  0.78784616  0.66335365  0.06874694  1
  O2-  O286  1  0.79077827  0.66467505  0.39393869  1
  O2-  O287  1  0.78954539  0.66496004  0.73013000  1
