# generated using pymatgen
data_Ca2Al2SiO7
_symmetry_space_group_name_H-M   'P 1'
_cell_length_a   15.45777770
_cell_length_b   15.45736286
_cell_length_c   15.28387488
_cell_angle_alpha   89.99364725
_cell_angle_beta   90.00161412
_cell_angle_gamma   90.00678941
_symmetry_Int_Tables_number   1
_chemical_formula_structural   Ca2Al2SiO7
_chemical_formula_sum   'Ca48 Al48 Si24 O168'
_cell_volume   3651.87519854
_cell_formula_units_Z   24
loop_
 _symmetry_equiv_pos_site_id
 _symmetry_equiv_pos_as_xyz
  1  'x, y, z'
loop_
 _atom_type_symbol
 _atom_type_oxidation_number
  Ca2+  2.0
  Al0+  0.0
  Si0+  0.0
  O2-  -2.0
loop_
 _atom_site_type_symbol
 _atom_site_label
 _atom_site_symmetry_multiplicity
 _atom_site_fract_x
 _atom_site_fract_y
 _atom_site_fract_z
 _atom_site_occupancy
  Ca2+  Ca0  1  0.16451864  0.08583104  0.16735918  1
  Ca2+  Ca1  1  0.17198627  0.07619991  0.51498636  1
  Ca2+  Ca2  1  0.16430397  0.08409214  0.83223222  1
  Ca2+  Ca3  1  0.17829784  0.58755090  0.17331605  1
  Ca2+  Ca4  1  0.16886313  0.59345087  0.50236699  1
  Ca2+  Ca5  1  0.17327392  0.58692655  0.83954778  1
  Ca2+  Ca6  1  0.67739833  0.08744882  0.17136441  1
  Ca2+  Ca7  1  0.67703998  0.08125683  0.50864900  1
  Ca2+  Ca8  1  0.67460048  0.07047700  0.83826407  1
  Ca2+  Ca9  1  0.66685384  0.57384654  0.16355021  1
  Ca2+  Ca10  1  0.66126898  0.57281311  0.50616375  1
  Ca2+  Ca11  1  0.66498768  0.58018272  0.84221798  1
  Ca2+  Ca12  1  0.07375798  0.32589075  0.15336804  1
  Ca2+  Ca13  1  0.08078718  0.32497156  0.49943544  1
  Ca2+  Ca14  1  0.07426086  0.32329767  0.83008737  1
  Ca2+  Ca15  1  0.07512308  0.83018725  0.16882283  1
  Ca2+  Ca16  1  0.08197500  0.82922019  0.49642897  1
  Ca2+  Ca17  1  0.08279244  0.82853927  0.82437358  1
  Ca2+  Ca18  1  0.58641391  0.33432769  0.16217663  1
  Ca2+  Ca19  1  0.58930706  0.32926073  0.49502346  1
  Ca2+  Ca20  1  0.58026091  0.34265376  0.83207179  1
  Ca2+  Ca21  1  0.58518362  0.82645825  0.15632134  1
  Ca2+  Ca22  1  0.58271735  0.83489989  0.50179419  1
  Ca2+  Ca23  1  0.58774319  0.82564594  0.82545851  1
  Ca2+  Ca24  1  0.34072978  0.42698566  0.16680090  1
  Ca2+  Ca25  1  0.33205951  0.42472846  0.50190956  1
  Ca2+  Ca26  1  0.33326777  0.42156367  0.84300583  1
  Ca2+  Ca27  1  0.33009115  0.91744134  0.16986759  1
  Ca2+  Ca28  1  0.32934309  0.92037964  0.51341347  1
  Ca2+  Ca29  1  0.33146145  0.91591300  0.82873242  1
  Ca2+  Ca30  1  0.82769755  0.41610379  0.16660151  1
  Ca2+  Ca31  1  0.82054301  0.41533637  0.50498163  1
  Ca2+  Ca32  1  0.82335365  0.42171327  0.84188452  1
  Ca2+  Ca33  1  0.83108261  0.92468508  0.16894330  1
  Ca2+  Ca34  1  0.83428726  0.92464097  0.50570898  1
  Ca2+  Ca35  1  0.82600394  0.92188743  0.83809010  1
  Ca2+  Ca36  1  0.42730238  0.17494683  0.15957698  1
  Ca2+  Ca37  1  0.42464447  0.16374748  0.49571129  1
  Ca2+  Ca38  1  0.41505852  0.17273947  0.82849716  1
  Ca2+  Ca39  1  0.42043714  0.66153357  0.15941851  1
  Ca2+  Ca40  1  0.41910120  0.67185050  0.50165955  1
  Ca2+  Ca41  1  0.42850176  0.66886725  0.82804698  1
  Ca2+  Ca42  1  0.91555429  0.16869711  0.15670994  1
  Ca2+  Ca43  1  0.91755241  0.15729727  0.49788852  1
  Ca2+  Ca44  1  0.91704558  0.16273587  0.83300949  1
  Ca2+  Ca45  1  0.91404957  0.66919396  0.16165727  1
  Ca2+  Ca46  1  0.92790493  0.67529643  0.49157531  1
  Ca2+  Ca47  1  0.91828165  0.66553646  0.82607724  1
  Al0+  Al48  1  0.00041200  -0.00289908  -0.00005501  1
  Al0+  Al49  1  0.00033914  -0.00180487  0.33266375  1
  Al0+  Al50  1  0.00226829  0.00027153  0.67022945  1
  Al0+  Al51  1  0.00040059  0.49826347  -0.00088576  1
  Al0+  Al52  1  0.00206637  0.49838396  0.32991974  1
  Al0+  Al53  1  -0.00030942  0.49807367  0.65939781  1
  Al0+  Al54  1  0.49630631  -0.00054734  0.00326048  1
  Al0+  Al55  1  0.50120066  0.00059559  0.32610280  1
  Al0+  Al56  1  0.49993843  0.00168487  0.67105392  1
  Al0+  Al57  1  0.49947740  0.50119402  -0.00048812  1
  Al0+  Al58  1  0.49769967  0.50121046  0.34368360  1
  Al0+  Al59  1  0.49805305  0.50050585  0.66469291  1
  Al0+  Al60  1  0.25057721  0.24903077  -0.00634852  1
  Al0+  Al61  1  0.25134794  0.25260171  0.33263551  1
  Al0+  Al62  1  0.24816010  0.25183444  0.66401892  1
  Al0+  Al63  1  0.24990482  0.75175315  0.00541402  1
  Al0+  Al64  1  0.25093912  0.75053038  0.33366982  1
  Al0+  Al65  1  0.25196235  0.75093810  0.66449254  1
  Al0+  Al66  1  0.74937301  0.24872978  0.00046442  1
  Al0+  Al67  1  0.75081818  0.24849722  0.33822780  1
  Al0+  Al68  1  0.74841566  0.25288578  0.67652985  1
  Al0+  Al69  1  0.74990542  0.74918980  0.00245436  1
  Al0+  Al70  1  0.74915913  0.75007982  0.32906693  1
  Al0+  Al71  1  0.75143803  0.74797689  0.66083282  1
  Al0+  Al72  1  0.06906821  0.17904143  0.65139793  1
  Al0+  Al73  1  0.07257504  0.67864356  0.31590193  1
  Al0+  Al74  1  0.31897371  0.57152245  0.35055849  1
  Al0+  Al75  1  0.57228052  0.18005262  0.32085307  1
  Al0+  Al76  1  0.07037302  0.17624357  0.98374691  1
  Al0+  Al77  1  0.67783931  0.42942637  0.01476527  1
  Al0+  Al78  1  0.92563246  0.32206256  0.98358568  1
  Al0+  Al79  1  0.67887818  0.92613012  0.67975340  1
  Al0+  Al80  1  0.82091173  0.06868776  0.01614385  1
  Al0+  Al81  1  0.56978600  0.68153775  0.98805140  1
  Al0+  Al82  1  0.92788446  0.82163249  0.31671733  1
  Al0+  Al83  1  0.82440588  0.57143520  0.01396945  1
  Al0+  Al84  1  0.07152537  0.67778265  0.65434325  1
  Al0+  Al85  1  0.57307898  0.67745050  0.64948529  1
  Al0+  Al86  1  0.82055869  0.06880340  0.34793273  1
  Al0+  Al87  1  0.18035721  0.92748471  0.68213240  1
  Al0+  Al88  1  0.82246937  0.07153703  0.68331495  1
  Al0+  Al89  1  0.31892842  0.57073474  0.01210459  1
  Al0+  Al90  1  0.67619054  0.92758861  0.01612050  1
  Al0+  Al91  1  0.67702470  0.43171781  0.68224897  1
  Al0+  Al92  1  0.68134103  0.43103466  0.34797570  1
  Al0+  Al93  1  0.32207146  0.07441337  0.68175667  1
  Al0+  Al94  1  0.43155684  0.82266319  0.65241046  1
  Al0+  Al95  1  0.43223993  0.32079065  0.98685704  1
  Si0+  Si96  1  0.42842610  0.32351034  0.31777341  1
  Si0+  Si97  1  0.42707468  0.32228296  0.64955040  1
  Si0+  Si98  1  0.31843681  0.57039910  0.68237508  1
  Si0+  Si99  1  0.57209941  0.17526568  0.98189436  1
  Si0+  Si100  1  0.17869755  0.42612533  0.01501455  1
  Si0+  Si101  1  0.92872561  0.31904573  0.31985264  1
  Si0+  Si102  1  0.82412077  0.57038377  0.67860892  1
  Si0+  Si103  1  0.18135537  0.93181719  0.34786855  1
  Si0+  Si104  1  0.17709213  0.42859401  0.68112864  1
  Si0+  Si105  1  0.92582952  0.32072685  0.64802021  1
  Si0+  Si106  1  0.57078345  0.18126639  0.65464914  1
  Si0+  Si107  1  0.31982495  0.07387675  0.01691936  1
  Si0+  Si108  1  0.07321595  0.67926182  0.98689781  1
  Si0+  Si109  1  0.17924376  0.92859779  0.01777900  1
  Si0+  Si110  1  0.07275204  0.17890305  0.31988673  1
  Si0+  Si111  1  0.92968487  0.81853128  0.98419917  1
  Si0+  Si112  1  0.56909123  0.67671897  0.31825153  1
  Si0+  Si113  1  0.42451303  0.82391125  0.98365767  1
  Si0+  Si114  1  0.17604246  0.42609042  0.35088408  1
  Si0+  Si115  1  0.42964330  0.82147664  0.31724525  1
  Si0+  Si116  1  0.82462328  0.57401480  0.34996943  1
  Si0+  Si117  1  0.92847696  0.82247512  0.65101284  1
  Si0+  Si118  1  0.32276592  0.07285066  0.34542539  1
  Si0+  Si119  1  0.67540558  0.92615838  0.34915627  1
  O2-  O120  1  0.24897980  0.00209797  0.05894088  1
  O2-  O121  1  0.25076640  0.00458206  0.38939136  1
  O2-  O122  1  0.25009527  0.00213033  0.73178238  1
  O2-  O123  1  0.24441813  0.49659139  0.06091342  1
  O2-  O124  1  0.24085230  0.49862688  0.39533408  1
  O2-  O125  1  0.24537720  0.50152525  0.72425051  1
  O2-  O126  1  0.74492042  0.00176494  0.06771865  1
  O2-  O127  1  0.74610327  -0.00725870  0.39271543  1
  O2-  O128  1  0.75232052  -0.00385737  0.73005077  1
  O2-  O129  1  0.75427871  0.49736200  0.06405982  1
  O2-  O130  1  0.75523391  0.50680908  0.39538494  1
  O2-  O131  1  0.75046179  0.50897264  0.72473435  1
  O2-  O132  1  0.00275063  0.25037048  0.27826216  1
  O2-  O133  1  -0.00948007  0.24845522  0.60239208  1
  O2-  O134  1  -0.00364471  0.24723027  0.93546841  1
  O2-  O135  1  -0.00501300  0.74445050  0.26574135  1
  O2-  O136  1  -0.00264323  0.75291315  0.60797718  1
  O2-  O137  1  -0.00213021  0.74390229  0.94300566  1
  O2-  O138  1  0.49739710  0.25522158  0.27442559  1
  O2-  O139  1  0.49849885  0.25066620  0.60969737  1
  O2-  O140  1  0.50630139  0.24700752  0.93766435  1
  O2-  O141  1  0.50194554  0.75172574  0.27602562  1
  O2-  O142  1  0.50516939  0.75386888  0.59960959  1
  O2-  O143  1  0.49833502  0.76020197  0.94222484  1
  O2-  O144  1  0.07186669  0.17883389  0.09858467  1
  O2-  O145  1  0.07421123  0.17935544  0.42484160  1
  O2-  O146  1  0.07143021  0.18333011  0.76355651  1
  O2-  O147  1  0.07590916  0.68393156  0.09162268  1
  O2-  O148  1  0.07335567  0.68424778  0.42950997  1
  O2-  O149  1  0.07014919  0.67733306  0.76803561  1
  O2-  O150  1  0.56867728  0.17522121  0.08800122  1
  O2-  O151  1  0.56976988  0.17961433  0.43434528  1
  O2-  O152  1  0.56877869  0.18355578  0.75934651  1
  O2-  O153  1  0.56567765  0.67998801  0.10188161  1
  O2-  O154  1  0.56719786  0.67648698  0.42313018  1
  O2-  O155  1  0.56956702  0.67443779  0.76282761  1
  O2-  O156  1  0.17827183  0.42101804  0.24575952  1
  O2-  O157  1  0.17999660  0.42731004  0.57580790  1
  O2-  O158  1  0.18088496  0.42806026  0.90917159  1
  O2-  O159  1  0.18256437  0.93309305  0.24229516  1
  O2-  O160  1  0.18186538  0.92846248  0.56784702  1
  O2-  O161  1  0.18039715  0.92355670  0.91343863  1
  O2-  O162  1  0.68115452  0.43120453  0.23543982  1
  O2-  O163  1  0.67855672  0.42912011  0.56861020  1
  O2-  O164  1  0.67565658  0.43561622  0.90151186  1
  O2-  O165  1  0.67331806  0.92772147  0.24388837  1
  O2-  O166  1  0.67920535  0.93049038  0.56564003  1
  O2-  O167  1  0.67906576  0.92661004  0.90273618  1
  O2-  O168  1  0.43187576  0.31918442  0.10031997  1
  O2-  O169  1  0.42546909  0.32117940  0.42341168  1
  O2-  O170  1  0.42616760  0.32453576  0.75452889  1
  O2-  O171  1  0.42099137  0.82193403  0.08983023  1
  O2-  O172  1  0.42859518  0.82378332  0.42184483  1
  O2-  O173  1  0.42866973  0.81720305  0.76568393  1
  O2-  O174  1  0.92949730  0.32167706  0.09820565  1
  O2-  O175  1  0.92931400  0.31807445  0.42504286  1
  O2-  O176  1  0.92972336  0.32480840  0.75285439  1
  O2-  O177  1  0.93277767  0.82034556  0.08921543  1
  O2-  O178  1  0.93261714  0.82386561  0.43034658  1
  O2-  O179  1  0.92828061  0.81974840  0.75686356  1
  O2-  O180  1  0.32036704  0.07179982  0.24010402  1
  O2-  O181  1  0.32069074  0.07436023  0.56703721  1
  O2-  O182  1  0.32081307  0.07482693  0.91248534  1
  O2-  O183  1  0.32093317  0.56937670  0.23738499  1
  O2-  O184  1  0.31803080  0.56877181  0.57701981  1
  O2-  O185  1  0.31659211  0.57106460  0.89896997  1
  O2-  O186  1  0.82123190  0.07074653  0.23539182  1
  O2-  O187  1  0.82064524  0.07078852  0.56906492  1
  O2-  O188  1  0.82237497  0.06381638  0.90315384  1
  O2-  O189  1  0.82367542  0.57175713  0.24460436  1
  O2-  O190  1  0.82649836  0.56569163  0.57302518  1
  O2-  O191  1  0.82454451  0.57304844  0.90014837  1
  O2-  O192  1  0.04657460  0.08689472  0.27311381  1
  O2-  O193  1  0.04482923  0.07989589  0.59874875  1
  O2-  O194  1  0.04520735  0.07617572  0.93309521  1
  O2-  O195  1  0.05475636  0.57603695  0.26724084  1
  O2-  O196  1  0.04333179  0.58167382  0.59683262  1
  O2-  O197  1  0.05452164  0.58456260  0.94224057  1
  O2-  O198  1  0.54086320  0.08534477  0.26285080  1
  O2-  O199  1  0.54492267  0.08931570  0.60673011  1
  O2-  O200  1  0.54028045  0.08260033  0.93731579  1
  O2-  O201  1  0.53435649  0.58610336  0.27316010  1
  O2-  O202  1  0.53514322  0.58173045  0.59527602  1
  O2-  O203  1  0.53411105  0.58745622  0.93314229  1
  O2-  O204  1  0.16525455  0.20616436  0.27218616  1
  O2-  O205  1  0.16433847  0.21496206  0.59569108  1
  O2-  O206  1  0.16828692  0.20522777  0.93063484  1
  O2-  O207  1  0.16966919  0.71417696  0.26350128  1
  O2-  O208  1  0.16757836  0.70926751  0.60034642  1
  O2-  O209  1  0.16313770  0.71368399  0.93908571  1
  O2-  O210  1  0.66850615  0.21238557  0.26770715  1
  O2-  O211  1  0.66243580  0.21231441  0.60806425  1
  O2-  O212  1  0.66700292  0.19515622  0.93837819  1
  O2-  O213  1  0.66258920  0.69850683  0.27182119  1
  O2-  O214  1  0.67304545  0.69806744  0.59548210  1
  O2-  O215  1  0.66786712  0.70789185  0.93481523  1
  O2-  O216  1  0.08453942  0.44828332  0.06058585  1
  O2-  O217  1  0.08096502  0.44611488  0.39668273  1
  O2-  O218  1  0.08361049  0.45372857  0.72573503  1
  O2-  O219  1  0.08792907  0.95551366  0.06617657  1
  O2-  O220  1  0.08956980  0.95786580  0.39503627  1
  O2-  O221  1  0.08229985  0.95297894  0.73572282  1
  O2-  O222  1  0.58142921  0.46285803  0.06921355  1
  O2-  O223  1  0.58453054  0.45967752  0.40325976  1
  O2-  O224  1  0.57843220  0.46045598  0.73282216  1
  O2-  O225  1  0.57440259  0.94941441  0.06644496  1
  O2-  O226  1  0.58132545  0.95419468  0.39360841  1
  O2-  O227  1  0.58152683  0.95468063  0.73363104  1
  O2-  O228  1  0.20625944  0.33262316  0.06034712  1
  O2-  O229  1  0.20716335  0.33420716  0.39992386  1
  O2-  O230  1  0.20769324  0.33877478  0.72947379  1
  O2-  O231  1  0.21044257  0.83972397  0.06987011  1
  O2-  O232  1  0.21143798  0.84075400  0.39420525  1
  O2-  O233  1  0.21198332  0.83007597  0.73610027  1
  O2-  O234  1  0.69999130  0.32851167  0.06480356  1
  O2-  O235  1  0.71416103  0.33530470  0.40312033  1
  O2-  O236  1  0.70682217  0.33728089  0.73913902  1
  O2-  O237  1  0.70787895  0.83072456  0.06961288  1
  O2-  O238  1  0.69713251  0.83046754  0.39296821  1
  O2-  O239  1  0.70554319  0.82529667  0.72900371  1
  O2-  O240  1  0.45471933  0.41829233  0.27526016  1
  O2-  O241  1  0.45557866  0.41310944  0.60055408  1
  O2-  O242  1  0.46046797  0.41715292  0.93130322  1
  O2-  O243  1  0.45396105  0.91317135  0.26680806  1
  O2-  O244  1  0.45456998  0.92366407  0.60056311  1
  O2-  O245  1  0.44191592  0.92028599  0.94050964  1
  O2-  O246  1  0.95310806  0.41156558  0.27201846  1
  O2-  O247  1  0.95612693  0.41123932  0.59721749  1
  O2-  O248  1  0.95731348  0.41978196  0.92967475  1
  O2-  O249  1  0.96480173  0.91726093  0.26171623  1
  O2-  O250  1  0.95631371  0.91554679  0.60578454  1
  O2-  O251  1  0.96283169  0.90774572  0.93586396  1
  O2-  O252  1  0.33507325  0.29857495  0.26980357  1
  O2-  O253  1  0.33567240  0.29588722  0.60042598  1
  O2-  O254  1  0.33598449  0.29044979  0.93146188  1
  O2-  O255  1  0.33840391  0.79221747  0.26939157  1
  O2-  O256  1  0.33475648  0.79023003  0.59711765  1
  O2-  O257  1  0.33230701  0.79308025  0.93769385  1
  O2-  O258  1  0.83862494  0.28788364  0.27262713  1
  O2-  O259  1  0.82969189  0.29787017  0.60607368  1
  O2-  O260  1  0.82630469  0.29671605  0.93182871  1
  O2-  O261  1  0.82757308  0.79920217  0.26431563  1
  O2-  O262  1  0.83641148  0.79860071  0.60112295  1
  O2-  O263  1  0.83748817  0.79308359  0.93758321  1
  O2-  O264  1  0.41060996  0.04619261  0.06697250  1
  O2-  O265  1  0.41481158  0.04326523  0.39074886  1
  O2-  O266  1  0.41954296  0.04880279  0.73650459  1
  O2-  O267  1  0.41368038  0.53748997  0.06738587  1
  O2-  O268  1  0.41216853  0.53817723  0.40923436  1
  O2-  O269  1  0.40921575  0.53883915  0.72845418  1
  O2-  O270  1  0.91937407  0.03653083  0.06837897  1
  O2-  O271  1  0.91851874  0.03777865  0.40047520  1
  O2-  O272  1  0.92166503  0.04623606  0.73420210  1
  O2-  O273  1  0.92405185  0.54600637  0.06746389  1
  O2-  O274  1  0.91969604  0.54822481  0.39342223  1
  O2-  O275  1  0.91625661  0.54008582  0.72581609  1
  O2-  O276  1  0.29083575  0.16508607  0.06540375  1
  O2-  O277  1  0.29911412  0.16635235  0.39152807  1
  O2-  O278  1  0.29172829  0.17340674  0.73253890  1
  O2-  O279  1  0.28853143  0.66666955  0.06886739  1
  O2-  O280  1  0.28906753  0.66915626  0.40343937  1
  O2-  O281  1  0.29269784  0.66229451  0.72880261  1
  O2-  O282  1  0.79654901  0.16913581  0.06677469  1
  O2-  O283  1  0.78993523  0.16414920  0.40418003  1
  O2-  O284  1  0.79230421  0.16872853  0.73631478  1
  O2-  O285  1  0.79442302  0.66823303  0.06864956  1
  O2-  O286  1  0.80055914  0.66919677  0.39352919  1
  O2-  O287  1  0.80698533  0.66696267  0.72077732  1
