# generated using pymatgen
data_Ca2Al2SiO7
_symmetry_space_group_name_H-M   'P 1'
_cell_length_a   15.45770584
_cell_length_b   15.45797253
_cell_length_c   15.28333342
_cell_angle_alpha   89.99496944
_cell_angle_beta   89.99446308
_cell_angle_gamma   89.97756316
_symmetry_Int_Tables_number   1
_chemical_formula_structural   Ca2Al2SiO7
_chemical_formula_sum   'Ca48 Al48 Si24 O168'
_cell_volume   3651.87261710
_cell_formula_units_Z   24
loop_
 _symmetry_equiv_pos_site_id
 _symmetry_equiv_pos_as_xyz
  1  'x, y, z'
loop_
 _atom_type_symbol
 _atom_type_oxidation_number
  Ca2+  2.0
  Al0+  0.0
  Si0+  0.0
  O2-  -2.0
loop_
 _atom_site_type_symbol
 _atom_site_label
 _atom_site_symmetry_multiplicity
 _atom_site_fract_x
 _atom_site_fract_y
 _atom_site_fract_z
 _atom_site_occupancy
  Ca2+  Ca0  1  0.16919696  0.08622520  0.17168567  1
  Ca2+  Ca1  1  0.15763850  0.08029305  0.50135196  1
  Ca2+  Ca2  1  0.16775885  0.08774435  0.84031561  1
  Ca2+  Ca3  1  0.15678095  0.56833128  0.17031756  1
  Ca2+  Ca4  1  0.17230930  0.57301958  0.50506902  1
  Ca2+  Ca5  1  0.17308467  0.57788470  0.84013564  1
  Ca2+  Ca6  1  0.67916623  0.09230978  0.17306113  1
  Ca2+  Ca7  1  0.66979874  0.09341096  0.50271128  1
  Ca2+  Ca8  1  0.67142614  0.08536394  0.83911497  1
  Ca2+  Ca9  1  0.67198370  0.58212097  0.17107216  1
  Ca2+  Ca10  1  0.66985080  0.58468651  0.50455943  1
  Ca2+  Ca11  1  0.66344624  0.58561865  0.83778446  1
  Ca2+  Ca12  1  0.07722317  0.33034558  0.15922875  1
  Ca2+  Ca13  1  0.08023483  0.32411181  0.49261961  1
  Ca2+  Ca14  1  0.07874471  0.32506551  0.83200513  1
  Ca2+  Ca15  1  0.08738688  0.82730207  0.16471986  1
  Ca2+  Ca16  1  0.08128550  0.83430745  0.49635821  1
  Ca2+  Ca17  1  0.07967888  0.82918042  0.83027455  1
  Ca2+  Ca18  1  0.57765281  0.32915266  0.16398720  1
  Ca2+  Ca19  1  0.57890974  0.32589402  0.50014541  1
  Ca2+  Ca20  1  0.57047974  0.32812765  0.82643982  1
  Ca2+  Ca21  1  0.57926353  0.82874802  0.16427597  1
  Ca2+  Ca22  1  0.56987672  0.83146384  0.49764873  1
  Ca2+  Ca23  1  0.57865119  0.82298225  0.82602969  1
  Ca2+  Ca24  1  0.31976080  0.40990709  0.16777362  1
  Ca2+  Ca25  1  0.32950724  0.41591370  0.50740305  1
  Ca2+  Ca26  1  0.33237829  0.41498171  0.84007746  1
  Ca2+  Ca27  1  0.32850374  0.92119365  0.17336520  1
  Ca2+  Ca28  1  0.33099170  0.91142114  0.50227635  1
  Ca2+  Ca29  1  0.33679833  0.92473445  0.83714160  1
  Ca2+  Ca30  1  0.84089806  0.42014295  0.17502437  1
  Ca2+  Ca31  1  0.83936474  0.41746651  0.50138543  1
  Ca2+  Ca32  1  0.83410368  0.40992134  0.83676530  1
  Ca2+  Ca33  1  0.83575556  0.93291095  0.17215054  1
  Ca2+  Ca34  1  0.83695260  0.92564314  0.50522751  1
  Ca2+  Ca35  1  0.83405150  0.92251097  0.83886123  1
  Ca2+  Ca36  1  0.41902056  0.16805510  0.16095644  1
  Ca2+  Ca37  1  0.42793477  0.16605370  0.49823480  1
  Ca2+  Ca38  1  0.41223409  0.17702363  0.82919079  1
  Ca2+  Ca39  1  0.41858656  0.67325946  0.16200973  1
  Ca2+  Ca40  1  0.41313214  0.67186542  0.50023990  1
  Ca2+  Ca41  1  0.42615436  0.66608803  0.82298253  1
  Ca2+  Ca42  1  0.92390599  0.17149681  0.16168263  1
  Ca2+  Ca43  1  0.92327569  0.17680925  0.49209035  1
  Ca2+  Ca44  1  0.92424183  0.17248990  0.82904907  1
  Ca2+  Ca45  1  0.92057498  0.66589172  0.16112639  1
  Ca2+  Ca46  1  0.91077995  0.67329123  0.49645123  1
  Ca2+  Ca47  1  0.92526008  0.67130582  0.83001026  1
  Al0+  Al48  1  -0.00041159  -0.00038805  0.00245775  1
  Al0+  Al49  1  -0.00009658  0.00039089  0.33805498  1
  Al0+  Al50  1  -0.00007822  -0.00156428  0.66369873  1
  Al0+  Al51  1  -0.00000441  0.50142211  -0.00613677  1
  Al0+  Al52  1  0.00049694  0.50096937  0.34287465  1
  Al0+  Al53  1  0.00052422  0.50013472  0.66760098  1
  Al0+  Al54  1  0.50044026  -0.00125841  0.00588097  1
  Al0+  Al55  1  0.50037524  -0.00095111  0.32341937  1
  Al0+  Al56  1  0.50048969  -0.00208686  0.66278752  1
  Al0+  Al57  1  0.50047271  0.50067923  -0.00393543  1
  Al0+  Al58  1  0.50102821  0.50100837  0.33331013  1
  Al0+  Al59  1  0.50136714  0.49944579  0.66277359  1
  Al0+  Al60  1  0.24981452  0.24981949  0.00201259  1
  Al0+  Al61  1  0.25124541  0.24864925  0.33757105  1
  Al0+  Al62  1  0.24873452  0.24787830  0.65964367  1
  Al0+  Al63  1  0.25098404  0.75046180  -0.00461769  1
  Al0+  Al64  1  0.25011696  0.75136099  0.33214787  1
  Al0+  Al65  1  0.24980861  0.74839935  0.67093012  1
  Al0+  Al66  1  0.74902542  0.25103338  0.00228502  1
  Al0+  Al67  1  0.74928614  0.25252080  0.33146243  1
  Al0+  Al68  1  0.75173448  0.25189263  0.66375419  1
  Al0+  Al69  1  0.74835123  0.75001728  -0.00199217  1
  Al0+  Al70  1  0.74906956  0.75103991  0.33619084  1
  Al0+  Al71  1  0.75059553  0.75089528  0.66181864  1
  Al0+  Al72  1  0.92903529  0.32269396  0.65044393  1
  Al0+  Al73  1  0.93021110  0.81956112  0.65341307  1
  Al0+  Al74  1  0.57167795  0.17781033  0.65477091  1
  Al0+  Al75  1  0.07192070  0.67845345  0.98705301  1
  Al0+  Al76  1  0.42755961  0.81935916  0.31689156  1
  Al0+  Al77  1  0.82065018  0.57182028  0.34726554  1
  Al0+  Al78  1  0.07173718  0.17700878  0.31626426  1
  Al0+  Al79  1  0.57196157  0.67764977  0.64948510  1
  Al0+  Al80  1  0.82064659  0.07193080  0.01329759  1
  Al0+  Al81  1  0.57067745  0.18029323  0.31758508  1
  Al0+  Al82  1  0.81935856  0.07233635  0.34950559  1
  Al0+  Al83  1  0.07093009  0.17769169  0.65063324  1
  Al0+  Al84  1  0.07125756  0.17737147  0.98615730  1
  Al0+  Al85  1  0.42726359  0.82060929  0.65261639  1
  Al0+  Al86  1  0.42737110  0.32134893  0.65121099  1
  Al0+  Al87  1  0.17991643  0.42741236  0.34849488  1
  Al0+  Al88  1  0.92707798  0.32213758  0.98496518  1
  Al0+  Al89  1  0.18031941  0.92913371  0.34749246  1
  Al0+  Al90  1  0.17909678  0.43117721  0.01205897  1
  Al0+  Al91  1  0.93141762  0.32348765  0.31778893  1
  Al0+  Al92  1  0.42879697  0.31889779  0.98874357  1
  Al0+  Al93  1  0.57035589  0.68003437  0.98711071  1
  Al0+  Al94  1  0.32143293  0.56920215  0.68129071  1
  Al0+  Al95  1  0.32039018  0.07112961  0.01317923  1
  Si0+  Si96  1  0.42823066  0.82351031  0.98252469  1
  Si0+  Si97  1  0.17759016  0.92862131  0.68340796  1
  Si0+  Si98  1  0.67692879  0.42994888  0.01426150  1
  Si0+  Si99  1  0.32406158  0.57306429  0.01646354  1
  Si0+  Si100  1  0.82123068  0.57367590  0.68406239  1
  Si0+  Si101  1  0.32252701  0.57232115  0.34772538  1
  Si0+  Si102  1  0.92778934  0.82181831  0.98591593  1
  Si0+  Si103  1  0.32477403  0.07080763  0.35123828  1
  Si0+  Si104  1  0.82088116  0.07097382  0.68194528  1
  Si0+  Si105  1  0.67691396  0.92844066  0.35102151  1
  Si0+  Si106  1  0.42764738  0.32418138  0.31639190  1
  Si0+  Si107  1  0.57228954  0.17671900  0.98506825  1
  Si0+  Si108  1  0.82000807  0.57146391  0.01231175  1
  Si0+  Si109  1  0.92710334  0.82162167  0.31836008  1
  Si0+  Si110  1  0.17764828  0.92578282  0.01593575  1
  Si0+  Si111  1  0.32207020  0.06962256  0.67977910  1
  Si0+  Si112  1  0.67601108  0.42912468  0.35138446  1
  Si0+  Si113  1  0.07259218  0.67812397  0.64947415  1
  Si0+  Si114  1  0.68074842  0.42920589  0.68275484  1
  Si0+  Si115  1  0.17826920  0.42557376  0.68538012  1
  Si0+  Si116  1  0.06993502  0.68046078  0.32112492  1
  Si0+  Si117  1  0.57333317  0.67787958  0.31569777  1
  Si0+  Si118  1  0.67868786  0.92847039  0.68137619  1
  Si0+  Si119  1  0.67883020  0.92610072  0.01777425  1
  O2-  O120  1  0.24508035  -0.00400010  0.05898798  1
  O2-  O121  1  0.25309862  0.00512766  0.39566502  1
  O2-  O122  1  0.24921820  0.00014216  0.72313004  1
  O2-  O123  1  0.25280212  0.50743198  0.06084560  1
  O2-  O124  1  0.25941504  0.49900818  0.39245114  1
  O2-  O125  1  0.24925712  0.49253957  0.72920099  1
  O2-  O126  1  0.74508099  -0.00249717  0.06090464  1
  O2-  O127  1  0.74325925  -0.00157648  0.39691072  1
  O2-  O128  1  0.74791137  0.00131004  0.72434564  1
  O2-  O129  1  0.75180702  0.49812700  0.05525894  1
  O2-  O130  1  0.74569539  0.49772677  0.39437218  1
  O2-  O131  1  0.75129503  0.50136434  0.72589733  1
  O2-  O132  1  0.00212825  0.25136227  0.26649714  1
  O2-  O133  1  0.00196060  0.25230894  0.60129511  1
  O2-  O134  1  -0.00272677  0.24765695  0.93675156  1
  O2-  O135  1  -0.00238819  0.74984554  0.27705444  1
  O2-  O136  1  0.00242438  0.74421331  0.60394457  1
  O2-  O137  1  -0.00129912  0.75551267  0.94173915  1
  O2-  O138  1  0.49452732  0.25398767  0.27186208  1
  O2-  O139  1  0.49857938  0.24765520  0.60344534  1
  O2-  O140  1  0.50099544  0.24198756  0.94101164  1
  O2-  O141  1  0.50282804  0.74432701  0.27147902  1
  O2-  O142  1  0.49688865  0.74700726  0.60142350  1
  O2-  O143  1  0.49489911  0.75279665  0.93944904  1
  O2-  O144  1  0.07094170  0.17772097  0.09919031  1
  O2-  O145  1  0.06799240  0.17702253  0.42963723  1
  O2-  O146  1  0.07021793  0.17619170  0.76435526  1
  O2-  O147  1  0.06791914  0.67794232  0.10065572  1
  O2-  O148  1  0.07013005  0.68321023  0.42617954  1
  O2-  O149  1  0.07089696  0.68040438  0.75535426  1
  O2-  O150  1  0.57279986  0.17996938  0.09061261  1
  O2-  O151  1  0.56912772  0.18114168  0.43064839  1
  O2-  O152  1  0.57154053  0.17896215  0.76860197  1
  O2-  O153  1  0.57170871  0.68170364  0.10030369  1
  O2-  O154  1  0.57424177  0.67845519  0.42076539  1
  O2-  O155  1  0.57306214  0.68088216  0.76341891  1
  O2-  O156  1  0.17783102  0.43038303  0.23506505  1
  O2-  O157  1  0.17826062  0.42884652  0.57963859  1
  O2-  O158  1  0.18107147  0.43256454  0.89917269  1
  O2-  O159  1  0.18282480  0.92492210  0.23444679  1
  O2-  O160  1  0.17667746  0.92750917  0.57838541  1
  O2-  O161  1  0.17799751  0.92400187  0.91014641  1
  O2-  O162  1  0.67236504  0.43202249  0.24546579  1
  O2-  O163  1  0.68183428  0.42912404  0.57776887  1
  O2-  O164  1  0.67540574  0.43110560  0.90916184  1
  O2-  O165  1  0.68140346  0.92593973  0.24522791  1
  O2-  O166  1  0.67961649  0.92804861  0.57657530  1
  O2-  O167  1  0.67991818  0.92441091  0.91192175  1
  O2-  O168  1  0.43157806  0.31921970  0.10186340  1
  O2-  O169  1  0.43019553  0.32566271  0.42181240  1
  O2-  O170  1  0.42809068  0.32002803  0.76515225  1
  O2-  O171  1  0.42842207  0.82200645  0.08819498  1
  O2-  O172  1  0.42707084  0.81683244  0.42970426  1
  O2-  O173  1  0.43114578  0.82300655  0.76623301  1
  O2-  O174  1  0.92807515  0.32535853  0.09803034  1
  O2-  O175  1  0.93325006  0.32321242  0.43108736  1
  O2-  O176  1  0.92726194  0.31949500  0.76399421  1
  O2-  O177  1  0.92598856  0.81967385  0.09163490  1
  O2-  O178  1  0.92703893  0.82024746  0.42350686  1
  O2-  O179  1  0.93191842  0.81969482  0.76694707  1
  O2-  O180  1  0.32469828  0.06910199  0.24538463  1
  O2-  O181  1  0.32418354  0.06690784  0.57494450  1
  O2-  O182  1  0.32192111  0.06901079  0.89955664  1
  O2-  O183  1  0.32157193  0.57328363  0.24203319  1
  O2-  O184  1  0.31645013  0.57049123  0.56791076  1
  O2-  O185  1  0.32476760  0.57134258  0.91089856  1
  O2-  O186  1  0.81936414  0.06985080  0.23615693  1
  O2-  O187  1  0.82005069  0.06906973  0.57698529  1
  O2-  O188  1  0.81855253  0.06897861  0.89963302  1
  O2-  O189  1  0.81971039  0.57355216  0.23344076  1
  O2-  O190  1  0.81992192  0.57484400  0.57902770  1
  O2-  O191  1  0.81764963  0.57454313  0.90730474  1
  O2-  O192  1  0.04227795  0.07730935  0.26634935  1
  O2-  O193  1  0.04055804  0.07981676  0.59880130  1
  O2-  O194  1  0.04554297  0.07702753  0.93471911  1
  O2-  O195  1  0.04079114  0.58863071  0.27573016  1
  O2-  O196  1  0.04927758  0.58359731  0.60563131  1
  O2-  O197  1  0.03791656  0.58652083  0.92758432  1
  O2-  O198  1  0.54393412  0.08369958  0.26174639  1
  O2-  O199  1  0.54626664  0.07982572  0.60032282  1
  O2-  O200  1  0.55192580  0.08012134  0.94346189  1
  O2-  O201  1  0.55048311  0.58326106  0.27007556  1
  O2-  O202  1  0.54818082  0.57900769  0.59686843  1
  O2-  O203  1  0.54208811  0.58403859  0.93146111  1
  O2-  O204  1  0.17443214  0.20053996  0.27046801  1
  O2-  O205  1  0.16951861  0.20002895  0.59620162  1
  O2-  O206  1  0.16894859  0.20749948  0.93363023  1
  O2-  O207  1  0.16008557  0.70933974  0.27170403  1
  O2-  O208  1  0.16511239  0.70620280  0.60434626  1
  O2-  O209  1  0.16860631  0.70682185  0.93157731  1
  O2-  O210  1  0.66566686  0.21449411  0.26286315  1
  O2-  O211  1  0.66830624  0.20938048  0.60116969  1
  O2-  O212  1  0.66430104  0.20536015  0.93838393  1
  O2-  O213  1  0.66618548  0.70703982  0.26905434  1
  O2-  O214  1  0.66905846  0.70879662  0.59677815  1
  O2-  O215  1  0.66631632  0.71112696  0.93115418  1
  O2-  O216  1  0.08217854  0.46548028  0.06477099  1
  O2-  O217  1  0.08771624  0.46451617  0.40646319  1
  O2-  O218  1  0.08495774  0.45424380  0.73102139  1
  O2-  O219  1  0.08285332  0.94604097  0.06175036  1
  O2-  O220  1  0.08310736  0.95577949  0.40280590  1
  O2-  O221  1  0.08571142  0.95663168  0.73148457  1
  O2-  O222  1  0.58753470  0.46258414  0.06418015  1
  O2-  O223  1  0.58318411  0.45624829  0.39951423  1
  O2-  O224  1  0.58830672  0.45597160  0.72960372  1
  O2-  O225  1  0.58467605  0.94744256  0.06448054  1
  O2-  O226  1  0.58112741  0.95255482  0.39239982  1
  O2-  O227  1  0.58648421  0.95406775  0.72982972  1
  O2-  O228  1  0.21106010  0.33598890  0.06733638  1
  O2-  O229  1  0.20875367  0.33083354  0.40369569  1
  O2-  O230  1  0.20232848  0.32992483  0.72762905  1
  O2-  O231  1  0.20559725  0.83225330  0.06246704  1
  O2-  O232  1  0.21260058  0.83277736  0.40259580  1
  O2-  O233  1  0.20429924  0.83701250  0.73212923  1
  O2-  O234  1  0.69981067  0.33745867  0.06245023  1
  O2-  O235  1  0.70100950  0.33585463  0.39703915  1
  O2-  O236  1  0.70983023  0.33796304  0.73168930  1
  O2-  O237  1  0.70714448  0.83345111  0.06542275  1
  O2-  O238  1  0.70256115  0.83534863  0.39802467  1
  O2-  O239  1  0.71015837  0.83738697  0.72924814  1
  O2-  O240  1  0.45425939  0.41781173  0.27010380  1
  O2-  O241  1  0.45809900  0.41777699  0.59727142  1
  O2-  O242  1  0.46129014  0.41456649  0.93426449  1
  O2-  O243  1  0.45863458  0.91412569  0.26015563  1
  O2-  O244  1  0.45795603  0.91656514  0.59688108  1
  O2-  O245  1  0.45744243  0.91665655  0.93753722  1
  O2-  O246  1  0.96010092  0.42442379  0.26925498  1
  O2-  O247  1  0.95295803  0.42385347  0.60142832  1
  O2-  O248  1  0.95453193  0.41983510  0.93053219  1
  O2-  O249  1  0.95697967  0.91252996  0.27172810  1
  O2-  O250  1  0.96175586  0.91428810  0.59771039  1
  O2-  O251  1  0.95175640  0.91515527  0.93925739  1
  O2-  O252  1  0.33339718  0.29854002  0.27284305  1
  O2-  O253  1  0.33018467  0.29418897  0.59719849  1
  O2-  O254  1  0.33330368  0.28914193  0.93356513  1
  O2-  O255  1  0.33211465  0.78689139  0.26124561  1
  O2-  O256  1  0.32758368  0.79304933  0.60216229  1
  O2-  O257  1  0.33398961  0.80266991  0.93649932  1
  O2-  O258  1  0.83028286  0.30055791  0.26867556  1
  O2-  O259  1  0.83133019  0.29482527  0.59713914  1
  O2-  O260  1  0.82684368  0.29539369  0.93410059  1
  O2-  O261  1  0.83513178  0.79413725  0.27124358  1
  O2-  O262  1  0.83471265  0.79097370  0.59727951  1
  O2-  O263  1  0.83555104  0.79411589  0.93816728  1
  O2-  O264  1  0.41698747  0.04078742  0.06918226  1
  O2-  O265  1  0.41807918  0.03958870  0.39466884  1
  O2-  O266  1  0.41319283  0.04007794  0.72853600  1
  O2-  O267  1  0.41735090  0.54635679  0.06280726  1
  O2-  O268  1  0.41854408  0.55325500  0.39233057  1
  O2-  O269  1  0.42091170  0.54220479  0.73220082  1
  O2-  O270  1  0.91603513  0.03872102  0.06891550  1
  O2-  O271  1  0.91404985  0.03731678  0.40401172  1
  O2-  O272  1  0.91157041  0.03793607  0.72882578  1
  O2-  O273  1  0.91289106  0.54671509  0.05862630  1
  O2-  O274  1  0.91571647  0.54476713  0.40575623  1
  O2-  O275  1  0.91475009  0.54859616  0.73044872  1
  O2-  O276  1  0.29163419  0.16662026  0.06964193  1
  O2-  O277  1  0.30596400  0.16578948  0.39680617  1
  O2-  O278  1  0.29461036  0.16259736  0.72552854  1
  O2-  O279  1  0.30130867  0.66911190  0.05906792  1
  O2-  O280  1  0.29070660  0.66346130  0.39473278  1
  O2-  O281  1  0.28948931  0.66521762  0.73769722  1
  O2-  O282  1  0.78916568  0.16797816  0.06847516  1
  O2-  O283  1  0.78786795  0.16980617  0.40111053  1
  O2-  O284  1  0.79422335  0.16359877  0.72814485  1
  O2-  O285  1  0.79025807  0.66257124  0.06126175  1
  O2-  O286  1  0.78916678  0.66854416  0.40231103  1
  O2-  O287  1  0.79263291  0.66583782  0.73101377  1
