# generated using pymatgen
data_Ca2Al2SiO7
_symmetry_space_group_name_H-M   'P 1'
_cell_length_a   15.46803166
_cell_length_b   15.46733244
_cell_length_c   15.29112462
_cell_angle_alpha   90.01583757
_cell_angle_beta   89.98935571
_cell_angle_gamma   89.98370737
_symmetry_Int_Tables_number   1
_chemical_formula_structural   Ca2Al2SiO7
_chemical_formula_sum   'Ca48 Al48 Si24 O168'
_cell_volume   3658.38879582
_cell_formula_units_Z   24
loop_
 _symmetry_equiv_pos_site_id
 _symmetry_equiv_pos_as_xyz
  1  'x, y, z'
loop_
 _atom_type_symbol
 _atom_type_oxidation_number
  Ca2+  2.0
  Al0+  0.0
  Si0+  0.0
  O2-  -2.0
loop_
 _atom_site_type_symbol
 _atom_site_label
 _atom_site_symmetry_multiplicity
 _atom_site_fract_x
 _atom_site_fract_y
 _atom_site_fract_z
 _atom_site_occupancy
  Ca2+  Ca0  1  0.16557874  0.08705599  0.16321649  1
  Ca2+  Ca1  1  0.16421802  0.08609933  0.49904061  1
  Ca2+  Ca2  1  0.17113421  0.08072596  0.85047510  1
  Ca2+  Ca3  1  0.17053065  0.58036994  0.16188710  1
  Ca2+  Ca4  1  0.16690294  0.58366034  0.50366700  1
  Ca2+  Ca5  1  0.17295811  0.57581583  0.84702592  1
  Ca2+  Ca6  1  0.66832197  0.07653363  0.16472591  1
  Ca2+  Ca7  1  0.66619298  0.07810642  0.50199931  1
  Ca2+  Ca8  1  0.67050598  0.08165558  0.84468505  1
  Ca2+  Ca9  1  0.66882235  0.57809313  0.17316147  1
  Ca2+  Ca10  1  0.67897254  0.57643015  0.49901499  1
  Ca2+  Ca11  1  0.67154192  0.58501559  0.83913252  1
  Ca2+  Ca12  1  0.07488401  0.32643329  0.15922259  1
  Ca2+  Ca13  1  0.07164144  0.33053396  0.49192074  1
  Ca2+  Ca14  1  0.07826591  0.33237713  0.83734706  1
  Ca2+  Ca15  1  0.07199557  0.83699957  0.15949930  1
  Ca2+  Ca16  1  0.06797795  0.83125905  0.49406844  1
  Ca2+  Ca17  1  0.07055896  0.84396520  0.83601989  1
  Ca2+  Ca18  1  0.58157087  0.33096320  0.15402057  1
  Ca2+  Ca19  1  0.58897523  0.32807912  0.49657611  1
  Ca2+  Ca20  1  0.57968106  0.31990078  0.83469301  1
  Ca2+  Ca21  1  0.57956796  0.83338498  0.15679834  1
  Ca2+  Ca22  1  0.57918985  0.83360988  0.48944422  1
  Ca2+  Ca23  1  0.58242284  0.83370278  0.84066953  1
  Ca2+  Ca24  1  0.33196294  0.41486935  0.16345419  1
  Ca2+  Ca25  1  0.32930450  0.41762201  0.50350166  1
  Ca2+  Ca26  1  0.32823263  0.41936235  0.85000206  1
  Ca2+  Ca27  1  0.33415321  0.91689819  0.16580651  1
  Ca2+  Ca28  1  0.33213806  0.91590296  0.50205531  1
  Ca2+  Ca29  1  0.32446990  0.92053122  0.84968266  1
  Ca2+  Ca30  1  0.83159285  0.41919934  0.17506653  1
  Ca2+  Ca31  1  0.83994899  0.42298896  0.50335199  1
  Ca2+  Ca32  1  0.84191517  0.42032309  0.83746054  1
  Ca2+  Ca33  1  0.82659588  0.91693272  0.16820892  1
  Ca2+  Ca34  1  0.82902373  0.90942398  0.50146352  1
  Ca2+  Ca35  1  0.83174907  0.92346677  0.84753498  1
  Ca2+  Ca36  1  0.42340105  0.17020717  0.15369959  1
  Ca2+  Ca37  1  0.42452904  0.16535616  0.49793922  1
  Ca2+  Ca38  1  0.42842974  0.15499739  0.83841088  1
  Ca2+  Ca39  1  0.42322814  0.67497059  0.15437994  1
  Ca2+  Ca40  1  0.42006578  0.67496504  0.49053693  1
  Ca2+  Ca41  1  0.42003295  0.66552217  0.83927651  1
  Ca2+  Ca42  1  0.91978625  0.17555809  0.15614380  1
  Ca2+  Ca43  1  0.92044114  0.17918975  0.49089050  1
  Ca2+  Ca44  1  0.91533453  0.17563774  0.83571147  1
  Ca2+  Ca45  1  0.90723547  0.67687035  0.16377976  1
  Ca2+  Ca46  1  0.90635599  0.67157061  0.49674885  1
  Ca2+  Ca47  1  0.91159709  0.67992629  0.83007126  1
  Al0+  Al48  1  -0.00027535  0.00296876  0.00102912  1
  Al0+  Al49  1  0.00210752  -0.00127209  0.32882212  1
  Al0+  Al50  1  -0.00158260  -0.00060432  0.66109307  1
  Al0+  Al51  1  0.00104435  0.50212578  0.00271217  1
  Al0+  Al52  1  0.00271058  0.50050143  0.33475531  1
  Al0+  Al53  1  0.00154098  0.50123324  0.66837887  1
  Al0+  Al54  1  0.49927746  -0.00199727  -0.00082261  1
  Al0+  Al55  1  0.49862295  0.00124787  0.33504356  1
  Al0+  Al56  1  0.49925565  -0.00068895  0.66248285  1
  Al0+  Al57  1  0.50172672  0.50123201  -0.00518782  1
  Al0+  Al58  1  0.49988614  0.50006958  0.34064914  1
  Al0+  Al59  1  0.50067168  0.49953555  0.66537938  1
  Al0+  Al60  1  0.24789737  0.25088849  0.00280212  1
  Al0+  Al61  1  0.25241150  0.24955422  0.33405984  1
  Al0+  Al62  1  0.25229802  0.24962773  0.66781425  1
  Al0+  Al63  1  0.24924033  0.74906202  0.00484008  1
  Al0+  Al64  1  0.24932515  0.75232413  0.33190753  1
  Al0+  Al65  1  0.24951069  0.75074278  0.66783597  1
  Al0+  Al66  1  0.75012442  0.25182472  -0.00474100  1
  Al0+  Al67  1  0.74958113  0.24729760  0.33345032  1
  Al0+  Al68  1  0.74929159  0.24858100  0.65746649  1
  Al0+  Al69  1  0.74946245  0.75042465  -0.00501472  1
  Al0+  Al70  1  0.74812611  0.74842836  0.33789438  1
  Al0+  Al71  1  0.74722436  0.74778200  0.66655497  1
  Al0+  Al72  1  0.42882414  0.82233035  0.31936534  1
  Al0+  Al73  1  0.32158565  0.07095339  0.01600108  1
  Al0+  Al74  1  0.07023097  0.17963753  0.98478019  1
  Al0+  Al75  1  0.42817576  0.32189130  0.98713598  1
  Al0+  Al76  1  0.92669967  0.81779596  0.31901740  1
  Al0+  Al77  1  0.92760196  0.32206947  0.31752003  1
  Al0+  Al78  1  0.92937913  0.82139401  0.98775671  1
  Al0+  Al79  1  0.57239389  0.67842339  0.98486758  1
  Al0+  Al80  1  0.17659544  0.92819009  0.01674350  1
  Al0+  Al81  1  0.93157020  0.32188199  0.65212316  1
  Al0+  Al82  1  0.57119518  0.17751698  0.98685474  1
  Al0+  Al83  1  0.82058640  0.56970495  0.68333320  1
  Al0+  Al84  1  0.32430538  0.57056345  0.01595530  1
  Al0+  Al85  1  0.68018881  0.92790047  0.01355902  1
  Al0+  Al86  1  0.92770810  0.32470668  0.98510703  1
  Al0+  Al87  1  0.17735250  0.42825752  0.01737105  1
  Al0+  Al88  1  0.07343839  0.17933571  0.31766492  1
  Al0+  Al89  1  0.82108200  0.07481024  0.01399932  1
  Al0+  Al90  1  0.82263989  0.56924988  0.34766204  1
  Al0+  Al91  1  0.67902761  0.93110595  0.34717366  1
  Al0+  Al92  1  0.42685846  0.82074394  0.98460964  1
  Al0+  Al93  1  0.56964100  0.17802803  0.65036298  1
  Al0+  Al94  1  0.92716506  0.82092131  0.65245399  1
  Al0+  Al95  1  0.67732695  0.42508663  0.34776710  1
  Si0+  Si96  1  0.82034776  0.07049100  0.67875151  1
  Si0+  Si97  1  0.56952325  0.67752234  0.31861490  1
  Si0+  Si98  1  0.42763181  0.32298939  0.64883069  1
  Si0+  Si99  1  0.43074726  0.32208895  0.32099232  1
  Si0+  Si100  1  0.32033404  0.57324290  0.34989689  1
  Si0+  Si101  1  0.18234972  0.42845061  0.35038711  1
  Si0+  Si102  1  0.82127837  0.57228356  0.01352542  1
  Si0+  Si103  1  0.32177750  0.57232314  0.68093250  1
  Si0+  Si104  1  0.42885176  0.81849746  0.65131089  1
  Si0+  Si105  1  0.07293138  0.67998666  0.65149499  1
  Si0+  Si106  1  0.07445434  0.67759949  0.31632234  1
  Si0+  Si107  1  0.67715532  0.92868681  0.68118892  1
  Si0+  Si108  1  0.57027974  0.17858311  0.31888847  1
  Si0+  Si109  1  0.57063901  0.67619484  0.64788706  1
  Si0+  Si110  1  0.07473959  0.17779315  0.65041533  1
  Si0+  Si111  1  0.82475325  0.07039369  0.35088031  1
  Si0+  Si112  1  0.07160803  0.67840419  0.98432268  1
  Si0+  Si113  1  0.32128904  0.06979513  0.68105259  1
  Si0+  Si114  1  0.68033099  0.43022924  0.01076045  1
  Si0+  Si115  1  0.17805094  0.92995518  0.67991078  1
  Si0+  Si116  1  0.17803804  0.92732787  0.35142269  1
  Si0+  Si117  1  0.32003294  0.07081618  0.35095777  1
  Si0+  Si118  1  0.18081331  0.42903628  0.68133654  1
  Si0+  Si119  1  0.67827531  0.42531838  0.68490287  1
  O2-  O120  1  0.25065867  -0.00168122  0.06687349  1
  O2-  O121  1  0.24789131  0.00046237  0.39358352  1
  O2-  O122  1  0.24510212  0.00440567  0.72159071  1
  O2-  O123  1  0.25378084  0.49723140  0.06614867  1
  O2-  O124  1  0.25016191  0.50240637  0.39444670  1
  O2-  O125  1  0.25375142  0.49873424  0.72211522  1
  O2-  O126  1  0.75072461  0.00092510  0.06351057  1
  O2-  O127  1  0.75667894  0.00136711  0.39716681  1
  O2-  O128  1  0.75138808  -0.00289504  0.72101744  1
  O2-  O129  1  0.75243866  0.49910978  0.05410028  1
  O2-  O130  1  0.75512133  0.49183770  0.39728624  1
  O2-  O131  1  0.74779343  0.49268686  0.72997619  1
  O2-  O132  1  -0.00285516  0.24717366  0.26953520  1
  O2-  O133  1  0.00664311  0.24670075  0.60629515  1
  O2-  O134  1  -0.00141594  0.25167667  0.93482067  1
  O2-  O135  1  0.00037951  0.74109272  0.27416668  1
  O2-  O136  1  0.00159171  0.74513191  0.60634637  1
  O2-  O137  1  0.00616844  0.74949578  0.93931402  1
  O2-  O138  1  0.50836465  0.25870919  0.28010265  1
  O2-  O139  1  0.49661778  0.25522393  0.60362176  1
  O2-  O140  1  0.49522550  0.24581521  0.93639748  1
  O2-  O141  1  0.50281536  0.74731135  0.27463750  1
  O2-  O142  1  0.49906906  0.74785773  0.60712518  1
  O2-  O143  1  0.49900362  0.74916948  0.93391080  1
  O2-  O144  1  0.06839026  0.18144649  0.09793056  1
  O2-  O145  1  0.07443382  0.18381309  0.43259266  1
  O2-  O146  1  0.07706583  0.17692816  0.75499338  1
  O2-  O147  1  0.06817101  0.67636885  0.08985166  1
  O2-  O148  1  0.07971001  0.68117636  0.42248313  1
  O2-  O149  1  0.07738669  0.68214044  0.75622216  1
  O2-  O150  1  0.57233617  0.18181540  0.10063354  1
  O2-  O151  1  0.56541950  0.17599345  0.42452792  1
  O2-  O152  1  0.56761880  0.17482897  0.76242836  1
  O2-  O153  1  0.57343500  0.67765219  0.09841617  1
  O2-  O154  1  0.56613322  0.67839718  0.42501243  1
  O2-  O155  1  0.57030826  0.67446104  0.75227106  1
  O2-  O156  1  0.18544298  0.42756464  0.24644161  1
  O2-  O157  1  0.18286942  0.42993455  0.57560582  1
  O2-  O158  1  0.17671872  0.43305214  0.90283768  1
  O2-  O159  1  0.17885460  0.92328939  0.24759642  1
  O2-  O160  1  0.18077119  0.92822319  0.57454106  1
  O2-  O161  1  0.17713862  0.93052705  0.90179351  1
  O2-  O162  1  0.67140159  0.42993879  0.23449114  1
  O2-  O163  1  0.67757514  0.42797568  0.57925674  1
  O2-  O164  1  0.68056843  0.43101852  0.90557710  1
  O2-  O165  1  0.67661888  0.93300320  0.23531695  1
  O2-  O166  1  0.67515478  0.92994779  0.57564604  1
  O2-  O167  1  0.68313721  0.92809659  0.89906372  1
  O2-  O168  1  0.43463514  0.32326405  0.10134774  1
  O2-  O169  1  0.42723001  0.31900904  0.42664763  1
  O2-  O170  1  0.42594070  0.32439433  0.75326800  1
  O2-  O171  1  0.42964101  0.81947663  0.09810978  1
  O2-  O172  1  0.42904200  0.81979438  0.43395253  1
  O2-  O173  1  0.42718209  0.81845458  0.75532776  1
  O2-  O174  1  0.92679468  0.32613218  0.09818796  1
  O2-  O175  1  0.93194155  0.32205353  0.43195519  1
  O2-  O176  1  0.93333972  0.32184847  0.76438891  1
  O2-  O177  1  0.92710648  0.81694974  0.10055624  1
  O2-  O178  1  0.92892193  0.81676640  0.43285401  1
  O2-  O179  1  0.92918144  0.82331670  0.76497102  1
  O2-  O180  1  0.32213761  0.07237067  0.24710477  1
  O2-  O181  1  0.32230231  0.06810630  0.57541242  1
  O2-  O182  1  0.32054564  0.06780686  0.90134918  1
  O2-  O183  1  0.32176257  0.57232910  0.24588533  1
  O2-  O184  1  0.31926998  0.57378330  0.57522937  1
  O2-  O185  1  0.32101356  0.56931297  0.90136082  1
  O2-  O186  1  0.82230879  0.07096096  0.24607360  1
  O2-  O187  1  0.81984096  0.06914893  0.57350236  1
  O2-  O188  1  0.81927976  0.07368843  0.89923967  1
  O2-  O189  1  0.81810157  0.57193111  0.23418805  1
  O2-  O190  1  0.81863052  0.57006970  0.57046296  1
  O2-  O191  1  0.82070377  0.57265208  0.90812191  1
  O2-  O192  1  0.05501708  0.07766667  0.26987473  1
  O2-  O193  1  0.04872606  0.08459138  0.60275563  1
  O2-  O194  1  0.04332758  0.08165175  0.93043329  1
  O2-  O195  1  0.05676326  0.58154515  0.27385933  1
  O2-  O196  1  0.05114359  0.58532582  0.60577868  1
  O2-  O197  1  0.04351081  0.58670474  0.93601396  1
  O2-  O198  1  0.53223870  0.09122752  0.27157564  1
  O2-  O199  1  0.53385965  0.08293696  0.59405677  1
  O2-  O200  1  0.54427394  0.07948808  0.93248315  1
  O2-  O201  1  0.54158396  0.58372066  0.27489792  1
  O2-  O202  1  0.54227408  0.58473547  0.59937864  1
  O2-  O203  1  0.54455983  0.58209492  0.92702220  1
  O2-  O204  1  0.17167336  0.21150247  0.26765011  1
  O2-  O205  1  0.16948536  0.20255700  0.60434455  1
  O2-  O206  1  0.16887624  0.20762864  0.93226015  1
  O2-  O207  1  0.16536617  0.70829420  0.26867777  1
  O2-  O208  1  0.16544853  0.70864125  0.60206707  1
  O2-  O209  1  0.16674565  0.69894463  0.94010666  1
  O2-  O210  1  0.66516977  0.19445910  0.27487795  1
  O2-  O211  1  0.66515074  0.20608121  0.59294083  1
  O2-  O212  1  0.66600469  0.21098500  0.93014193  1
  O2-  O213  1  0.66380439  0.70043743  0.27557054  1
  O2-  O214  1  0.66131008  0.70582741  0.60003606  1
  O2-  O215  1  0.66788695  0.70962684  0.92702291  1
  O2-  O216  1  0.08190400  0.46404823  0.07235224  1
  O2-  O217  1  0.09050656  0.45498822  0.39879955  1
  O2-  O218  1  0.09050282  0.45836146  0.72901664  1
  O2-  O219  1  0.07948696  0.95867976  0.06972943  1
  O2-  O220  1  0.08613712  0.95478943  0.40009876  1
  O2-  O221  1  0.08405197  0.95408514  0.72417751  1
  O2-  O222  1  0.58950156  0.45921828  0.05857155  1
  O2-  O223  1  0.58097178  0.45748317  0.40647026  1
  O2-  O224  1  0.58352271  0.45243627  0.72823485  1
  O2-  O225  1  0.58088516  0.95309561  0.06418677  1
  O2-  O226  1  0.58312227  0.96559784  0.40334984  1
  O2-  O227  1  0.58545515  0.95955096  0.72690674  1
  O2-  O228  1  0.20187547  0.33038747  0.07108616  1
  O2-  O229  1  0.21581385  0.33898738  0.40035340  1
  O2-  O230  1  0.20746737  0.33638820  0.72748473  1
  O2-  O231  1  0.20026192  0.82881934  0.06867887  1
  O2-  O232  1  0.20917617  0.83702332  0.40167568  1
  O2-  O233  1  0.20900278  0.83940828  0.72761038  1
  O2-  O234  1  0.70553880  0.33860505  0.05871914  1
  O2-  O235  1  0.69823196  0.32391561  0.39903850  1
  O2-  O236  1  0.70167927  0.32935334  0.72600119  1
  O2-  O237  1  0.71010180  0.82959114  0.06570615  1
  O2-  O238  1  0.70541294  0.83332149  0.40239465  1
  O2-  O239  1  0.69968753  0.83488641  0.72552666  1
  O2-  O240  1  0.45044726  0.41731407  0.27808860  1
  O2-  O241  1  0.45107887  0.41742896  0.60169076  1
  O2-  O242  1  0.45996154  0.41733769  0.93067223  1
  O2-  O243  1  0.45818655  0.91974557  0.26892153  1
  O2-  O244  1  0.45695567  0.90979812  0.60247014  1
  O2-  O245  1  0.45497994  0.91805789  0.92977250  1
  O2-  O246  1  0.95779705  0.42134275  0.26863700  1
  O2-  O247  1  0.96491168  0.41876518  0.59912261  1
  O2-  O248  1  0.95955595  0.42300170  0.93310248  1
  O2-  O249  1  0.95863236  0.91424412  0.26758033  1
  O2-  O250  1  0.95863669  0.91617693  0.59512559  1
  O2-  O251  1  0.95884970  0.91812836  0.93402838  1
  O2-  O252  1  0.34182543  0.28844813  0.27330035  1
  O2-  O253  1  0.33441346  0.29517746  0.60107516  1
  O2-  O254  1  0.32714434  0.30146038  0.93836033  1
  O2-  O255  1  0.33175434  0.79288228  0.26811630  1
  O2-  O256  1  0.33662576  0.79051966  0.60294780  1
  O2-  O257  1  0.32758076  0.79168137  0.93321929  1
  O2-  O258  1  0.82692429  0.29698310  0.26856914  1
  O2-  O259  1  0.83518852  0.29194644  0.59748701  1
  O2-  O260  1  0.83063794  0.29734705  0.92914005  1
  O2-  O261  1  0.82898768  0.78765543  0.26789729  1
  O2-  O262  1  0.82969663  0.78922275  0.60021309  1
  O2-  O263  1  0.83577945  0.78774561  0.93035587  1
  O2-  O264  1  0.42045609  0.04390942  0.06795731  1
  O2-  O265  1  0.40994814  0.04022049  0.40173366  1
  O2-  O266  1  0.41145703  0.03588068  0.72723688  1
  O2-  O267  1  0.42391325  0.54368136  0.06658654  1
  O2-  O268  1  0.41096669  0.54593221  0.40097992  1
  O2-  O269  1  0.41536533  0.54773753  0.72526381  1
  O2-  O270  1  0.91876923  0.04818985  0.06651787  1
  O2-  O271  1  0.91962917  0.04624471  0.39568011  1
  O2-  O272  1  0.91367126  0.04478048  0.72419629  1
  O2-  O273  1  0.91303665  0.54887673  0.06163242  1
  O2-  O274  1  0.92391813  0.54866021  0.40078560  1
  O2-  O275  1  0.91972486  0.54385023  0.73486176  1
  O2-  O276  1  0.29507054  0.16971452  0.06808059  1
  O2-  O277  1  0.29267068  0.16243559  0.40117097  1
  O2-  O278  1  0.30123104  0.16419974  0.72612391  1
  O2-  O279  1  0.29383282  0.66714482  0.07025396  1
  O2-  O280  1  0.29050149  0.66488042  0.39818881  1
  O2-  O281  1  0.29217288  0.66336835  0.72846895  1
  O2-  O282  1  0.79066657  0.17303104  0.06610356  1
  O2-  O283  1  0.79720263  0.16353800  0.39803846  1
  O2-  O284  1  0.79031346  0.16245520  0.72385985  1
  O2-  O285  1  0.78954559  0.66267668  0.06014089  1
  O2-  O286  1  0.78718499  0.66453677  0.40445084  1
  O2-  O287  1  0.78586768  0.66632469  0.73581454  1
