# generated using pymatgen
data_Ca2Al2SiO7
_symmetry_space_group_name_H-M   'P 1'
_cell_length_a   15.45732908
_cell_length_b   15.45718090
_cell_length_c   15.28320905
_cell_angle_alpha   89.99116674
_cell_angle_beta   89.99158665
_cell_angle_gamma   89.99230050
_symmetry_Int_Tables_number   1
_chemical_formula_structural   Ca2Al2SiO7
_chemical_formula_sum   'Ca48 Al48 Si24 O168'
_cell_volume   3651.56707274
_cell_formula_units_Z   24
loop_
 _symmetry_equiv_pos_site_id
 _symmetry_equiv_pos_as_xyz
  1  'x, y, z'
loop_
 _atom_type_symbol
 _atom_type_oxidation_number
  Ca2+  2.0
  Al0+  0.0
  Si0+  0.0
  O2-  -2.0
loop_
 _atom_site_type_symbol
 _atom_site_label
 _atom_site_symmetry_multiplicity
 _atom_site_fract_x
 _atom_site_fract_y
 _atom_site_fract_z
 _atom_site_occupancy
  Ca2+  Ca0  1  0.16926007  0.07873782  0.16752261  1
  Ca2+  Ca1  1  0.17633430  0.08598255  0.50142235  1
  Ca2+  Ca2  1  0.16675880  0.07653085  0.84275130  1
  Ca2+  Ca3  1  0.17353979  0.58440302  0.16900927  1
  Ca2+  Ca4  1  0.17148755  0.58490513  0.50578429  1
  Ca2+  Ca5  1  0.18241404  0.58309270  0.83940535  1
  Ca2+  Ca6  1  0.66872985  0.08412952  0.16711383  1
  Ca2+  Ca7  1  0.67587365  0.08843657  0.50715694  1
  Ca2+  Ca8  1  0.67260471  0.08598581  0.84051125  1
  Ca2+  Ca9  1  0.67370981  0.58258594  0.17046647  1
  Ca2+  Ca10  1  0.66208918  0.57698798  0.50171523  1
  Ca2+  Ca11  1  0.66677040  0.58748189  0.84117535  1
  Ca2+  Ca12  1  0.07948812  0.32323566  0.15907697  1
  Ca2+  Ca13  1  0.07420711  0.33691420  0.49869810  1
  Ca2+  Ca14  1  0.07534078  0.32729633  0.83197030  1
  Ca2+  Ca15  1  0.08358872  0.83050876  0.16312619  1
  Ca2+  Ca16  1  0.07728533  0.82712368  0.49774296  1
  Ca2+  Ca17  1  0.07707755  0.83631878  0.82949326  1
  Ca2+  Ca18  1  0.57747822  0.33148198  0.16161788  1
  Ca2+  Ca19  1  0.57526584  0.33309980  0.49815289  1
  Ca2+  Ca20  1  0.57833512  0.32457939  0.83097676  1
  Ca2+  Ca21  1  0.57911787  0.83097352  0.15436081  1
  Ca2+  Ca22  1  0.58136827  0.82822819  0.50250429  1
  Ca2+  Ca23  1  0.58005836  0.82582862  0.83024582  1
  Ca2+  Ca24  1  0.34288124  0.41932435  0.16818077  1
  Ca2+  Ca25  1  0.33668074  0.41803485  0.50785707  1
  Ca2+  Ca26  1  0.34826968  0.42498236  0.83473944  1
  Ca2+  Ca27  1  0.33228868  0.92027602  0.16719461  1
  Ca2+  Ca28  1  0.33496262  0.91904543  0.50406503  1
  Ca2+  Ca29  1  0.32897755  0.90803270  0.84166456  1
  Ca2+  Ca30  1  0.82359372  0.42541537  0.17417239  1
  Ca2+  Ca31  1  0.82773230  0.41833759  0.50382311  1
  Ca2+  Ca32  1  0.83328515  0.42214834  0.83902109  1
  Ca2+  Ca33  1  0.82462802  0.92676130  0.16591357  1
  Ca2+  Ca34  1  0.83620091  0.92645359  0.50739323  1
  Ca2+  Ca35  1  0.82588361  0.92292845  0.84100797  1
  Ca2+  Ca36  1  0.41787412  0.17749156  0.15654437  1
  Ca2+  Ca37  1  0.42045412  0.17364087  0.49176532  1
  Ca2+  Ca38  1  0.43043902  0.17215462  0.82641569  1
  Ca2+  Ca39  1  0.42524551  0.67059593  0.15259363  1
  Ca2+  Ca40  1  0.41858808  0.66645041  0.50357839  1
  Ca2+  Ca41  1  0.42251222  0.67129140  0.82940245  1
  Ca2+  Ca42  1  0.91787048  0.15927119  0.15969221  1
  Ca2+  Ca43  1  0.90941933  0.16882986  0.50033877  1
  Ca2+  Ca44  1  0.91883285  0.16110095  0.82801984  1
  Ca2+  Ca45  1  0.91991645  0.65776244  0.16315924  1
  Ca2+  Ca46  1  0.91809032  0.67223533  0.49132126  1
  Ca2+  Ca47  1  0.91257579  0.67573435  0.82707085  1
  Al0+  Al48  1  0.00158814  -0.00136825  0.00484085  1
  Al0+  Al49  1  -0.00064533  -0.00181095  0.33794012  1
  Al0+  Al50  1  0.00154221  -0.00034085  0.66414142  1
  Al0+  Al51  1  0.00303811  0.49931027  0.00292257  1
  Al0+  Al52  1  0.00107672  0.50041950  0.33143647  1
  Al0+  Al53  1  0.00100889  0.49781281  0.66503101  1
  Al0+  Al54  1  0.49869743  0.00080996  -0.00376929  1
  Al0+  Al55  1  0.49969595  0.00030319  0.33740578  1
  Al0+  Al56  1  0.50186301  -0.00146335  0.65925022  1
  Al0+  Al57  1  0.50161453  0.50130062  -0.00135399  1
  Al0+  Al58  1  0.49996478  0.50105811  0.33303865  1
  Al0+  Al59  1  0.50116273  0.49928418  0.66494056  1
  Al0+  Al60  1  0.24609435  0.25109195  -0.01112342  1
  Al0+  Al61  1  0.24918811  0.25085257  0.33341165  1
  Al0+  Al62  1  0.24864127  0.24929254  0.66690834  1
  Al0+  Al63  1  0.24885647  0.74801538  0.00720249  1
  Al0+  Al64  1  0.24791977  0.75021060  0.33002998  1
  Al0+  Al65  1  0.25066559  0.74906431  0.66766499  1
  Al0+  Al66  1  0.75069600  0.25336245  0.00211872  1
  Al0+  Al67  1  0.74782859  0.25076105  0.34030914  1
  Al0+  Al68  1  0.75199116  0.25133839  0.66527648  1
  Al0+  Al69  1  0.75192059  0.75197897  0.00648909  1
  Al0+  Al70  1  0.75020003  0.75224459  0.33527351  1
  Al0+  Al71  1  0.75040385  0.75118440  0.65608630  1
  Al0+  Al72  1  0.42774412  0.32242756  0.98364480  1
  Al0+  Al73  1  0.92947994  0.82178454  0.65358152  1
  Al0+  Al74  1  0.82285969  0.57240037  0.01146398  1
  Al0+  Al75  1  0.06802057  0.17645115  0.98686064  1
  Al0+  Al76  1  0.67724189  0.43083281  0.35039012  1
  Al0+  Al77  1  0.82028685  0.07070785  0.68180486  1
  Al0+  Al78  1  0.67562325  0.92981439  0.01335524  1
  Al0+  Al79  1  0.17944708  0.92818228  0.01415235  1
  Al0+  Al80  1  0.57339199  0.17830287  0.98642299  1
  Al0+  Al81  1  0.82309751  0.57137684  0.35029235  1
  Al0+  Al82  1  0.57459926  0.68092657  0.98724453  1
  Al0+  Al83  1  0.32184562  0.56781572  0.01480860  1
  Al0+  Al84  1  0.42825361  0.32070592  0.31857186  1
  Al0+  Al85  1  0.93016702  0.32150476  0.65309344  1
  Al0+  Al86  1  0.06984181  0.67880937  0.31783829  1
  Al0+  Al87  1  0.82041647  0.06940522  0.34906708  1
  Al0+  Al88  1  0.57203784  0.67815251  0.65005994  1
  Al0+  Al89  1  0.31965587  0.07183155  0.34517946  1
  Al0+  Al90  1  0.42585768  0.82046234  0.65037328  1
  Al0+  Al91  1  0.42620410  0.82109152  0.98727943  1
  Al0+  Al92  1  0.57311764  0.17816350  0.64984736  1
  Al0+  Al93  1  0.42897463  0.31946782  0.65057422  1
  Al0+  Al94  1  0.82045591  0.07287364  0.01376545  1
  Al0+  Al95  1  0.32052763  0.56893854  0.68048952  1
  Si0+  Si96  1  0.67834443  0.42912578  0.01628809  1
  Si0+  Si97  1  0.82272010  0.57250266  0.67949925  1
  Si0+  Si98  1  0.92883984  0.32363242  0.98597532  1
  Si0+  Si99  1  0.67558798  0.92736607  0.35294356  1
  Si0+  Si100  1  0.17881527  0.92679849  0.35251799  1
  Si0+  Si101  1  0.92754831  0.82350230  0.31389905  1
  Si0+  Si102  1  0.07145590  0.67806627  0.65296029  1
  Si0+  Si103  1  0.07155999  0.67683202  0.98466526  1
  Si0+  Si104  1  0.31993585  0.57187628  0.34779876  1
  Si0+  Si105  1  0.07148199  0.17630865  0.64779962  1
  Si0+  Si106  1  0.67801665  0.92587137  0.68260680  1
  Si0+  Si107  1  0.06983758  0.17883716  0.31991045  1
  Si0+  Si108  1  0.92719721  0.32024740  0.31856377  1
  Si0+  Si109  1  0.57009741  0.68015468  0.31750702  1
  Si0+  Si110  1  0.17744688  0.42669303  0.01757877  1
  Si0+  Si111  1  0.42845168  0.82238803  0.31754089  1
  Si0+  Si112  1  0.68057706  0.43064878  0.68341441  1
  Si0+  Si113  1  0.93146017  0.81987771  0.98754990  1
  Si0+  Si114  1  0.17529108  0.42588543  0.68531461  1
  Si0+  Si115  1  0.18140305  0.92981260  0.68067058  1
  Si0+  Si116  1  0.57232733  0.17742470  0.31666943  1
  Si0+  Si117  1  0.17931807  0.42825880  0.34787696  1
  Si0+  Si118  1  0.32085976  0.07474415  0.01228260  1
  Si0+  Si119  1  0.32315938  0.07162549  0.68122744  1
  O2-  O120  1  0.25587076  0.00268533  0.05808020  1
  O2-  O121  1  0.24752311  -0.00427366  0.39563666  1
  O2-  O122  1  0.25465704  -0.00202778  0.72356457  1
  O2-  O123  1  0.25091462  0.48958316  0.06269717  1
  O2-  O124  1  0.25010223  0.49959072  0.39000594  1
  O2-  O125  1  0.24765907  0.49161311  0.72743162  1
  O2-  O126  1  0.74294082  0.00678779  0.06353913  1
  O2-  O127  1  0.74492999  -0.00409806  0.39623981  1
  O2-  O128  1  0.74376968  -0.00251835  0.72686748  1
  O2-  O129  1  0.74710198  0.49927202  0.05830719  1
  O2-  O130  1  0.75048750  0.50156669  0.40201128  1
  O2-  O131  1  0.75071475  0.50414298  0.72403974  1
  O2-  O132  1  -0.00512013  0.24552435  0.27694095  1
  O2-  O133  1  0.00406990  0.24659621  0.60447837  1
  O2-  O134  1  -0.00963445  0.24861779  0.94136451  1
  O2-  O135  1  -0.00789220  0.75032628  0.27013941  1
  O2-  O136  1  -0.00018228  0.74245819  0.60745929  1
  O2-  O137  1  -0.00087775  0.74616726  0.94307247  1
  O2-  O138  1  0.50179289  0.24450315  0.27301986  1
  O2-  O139  1  0.49666603  0.24498591  0.59866407  1
  O2-  O140  1  0.49840845  0.24761410  0.93670898  1
  O2-  O141  1  0.50055923  0.75275128  0.27568620  1
  O2-  O142  1  0.49864252  0.74938270  0.60003122  1
  O2-  O143  1  0.50142852  0.75219409  0.93804755  1
  O2-  O144  1  0.06856591  0.17778772  0.10068902  1
  O2-  O145  1  0.07178626  0.18189796  0.42494066  1
  O2-  O146  1  0.07016531  0.17376077  0.75325283  1
  O2-  O147  1  0.07076788  0.67682690  0.08986638  1
  O2-  O148  1  0.07254613  0.68201628  0.43125539  1
  O2-  O149  1  0.07107310  0.68017927  0.75863602  1
  O2-  O150  1  0.57262752  0.18114813  0.10049881  1
  O2-  O151  1  0.57124360  0.17802793  0.42209145  1
  O2-  O152  1  0.57374051  0.18054588  0.76329860  1
  O2-  O153  1  0.57296706  0.68124255  0.10149042  1
  O2-  O154  1  0.56708482  0.67931027  0.42246006  1
  O2-  O155  1  0.57469226  0.67992617  0.76321291  1
  O2-  O156  1  0.17874702  0.42645424  0.24304704  1
  O2-  O157  1  0.17211205  0.42805602  0.57927871  1
  O2-  O158  1  0.17036416  0.43210174  0.91262131  1
  O2-  O159  1  0.17825621  0.92682834  0.24708715  1
  O2-  O160  1  0.18086989  0.93081449  0.57539531  1
  O2-  O161  1  0.17645163  0.92880491  0.90067909  1
  O2-  O162  1  0.67822851  0.43227368  0.23665072  1
  O2-  O163  1  0.68126297  0.43138091  0.57830809  1
  O2-  O164  1  0.68068481  0.42761212  0.91055023  1
  O2-  O165  1  0.67447155  0.92734831  0.24747810  1
  O2-  O166  1  0.68134245  0.92518421  0.57675894  1
  O2-  O167  1  0.68130252  0.92480481  0.90014824  1
  O2-  O168  1  0.42897820  0.32106164  0.09786126  1
  O2-  O169  1  0.42662469  0.31992694  0.43129629  1
  O2-  O170  1  0.43280713  0.31911936  0.76358950  1
  O2-  O171  1  0.42589696  0.81823516  0.10170315  1
  O2-  O172  1  0.42711134  0.82043020  0.42250400  1
  O2-  O173  1  0.42210664  0.81789295  0.76323382  1
  O2-  O174  1  0.93299663  0.32580252  0.09173865  1
  O2-  O175  1  0.93078600  0.32121055  0.42373163  1
  O2-  O176  1  0.93248792  0.32421323  0.76605275  1
  O2-  O177  1  0.93408173  0.81989943  0.09252322  1
  O2-  O178  1  0.93181332  0.82446998  0.41969770  1
  O2-  O179  1  0.93100147  0.82134986  0.76707987  1
  O2-  O180  1  0.31636098  0.07097524  0.23218530  1
  O2-  O181  1  0.31807860  0.07238459  0.57581224  1
  O2-  O182  1  0.31696011  0.07434866  0.90665307  1
  O2-  O183  1  0.31927136  0.57161165  0.24284130  1
  O2-  O184  1  0.31582102  0.56945484  0.56658150  1
  O2-  O185  1  0.31947893  0.56942930  0.90190232  1
  O2-  O186  1  0.82194646  0.06815427  0.23624871  1
  O2-  O187  1  0.82080619  0.06840610  0.56843801  1
  O2-  O188  1  0.82342865  0.06846195  0.90036780  1
  O2-  O189  1  0.82241262  0.56765366  0.23662507  1
  O2-  O190  1  0.82472284  0.56961774  0.57478929  1
  O2-  O191  1  0.82470802  0.57114616  0.89774793  1
  O2-  O192  1  0.04557526  0.08441218  0.27586832  1
  O2-  O193  1  0.04594076  0.08425536  0.59893125  1
  O2-  O194  1  0.03948048  0.07915104  0.93292708  1
  O2-  O195  1  0.04355198  0.58097144  0.26301825  1
  O2-  O196  1  0.05111302  0.58320080  0.60742111  1
  O2-  O197  1  0.04684569  0.58432669  0.93770469  1
  O2-  O198  1  0.54875252  0.08196216  0.27341036  1
  O2-  O199  1  0.55159570  0.07832956  0.59711454  1
  O2-  O200  1  0.54911244  0.07975736  0.93236989  1
  O2-  O201  1  0.54064549  0.58941526  0.26969897  1
  O2-  O202  1  0.54153620  0.58079744  0.59663033  1
  O2-  O203  1  0.54800682  0.58248468  0.93504450  1
  O2-  O204  1  0.15922719  0.21086579  0.27073736  1
  O2-  O205  1  0.16541980  0.20210805  0.60249814  1
  O2-  O206  1  0.16097837  0.20803298  0.92667880  1
  O2-  O207  1  0.16543279  0.71254076  0.26218430  1
  O2-  O208  1  0.16253745  0.70822486  0.60482719  1
  O2-  O209  1  0.16238440  0.70781392  0.93857608  1
  O2-  O210  1  0.66609387  0.20544336  0.27227270  1
  O2-  O211  1  0.66989213  0.21205254  0.59770081  1
  O2-  O212  1  0.67177854  0.21004292  0.93418574  1
  O2-  O213  1  0.66408914  0.70585433  0.27340912  1
  O2-  O214  1  0.66851655  0.70639973  0.59235686  1
  O2-  O215  1  0.67400924  0.70877849  0.93591124  1
  O2-  O216  1  0.08730091  0.45705535  0.06897708  1
  O2-  O217  1  0.08793802  0.45730054  0.39587380  1
  O2-  O218  1  0.08309879  0.45467632  0.73327025  1
  O2-  O219  1  0.08598398  0.96162075  0.07263859  1
  O2-  O220  1  0.08563352  0.95248022  0.39924034  1
  O2-  O221  1  0.09042543  0.96062288  0.72814776  1
  O2-  O222  1  0.58564025  0.45481352  0.06317602  1
  O2-  O223  1  0.57972151  0.46335887  0.40401469  1
  O2-  O224  1  0.58881186  0.45742072  0.73039576  1
  O2-  O225  1  0.57531236  0.95284437  0.06603921  1
  O2-  O226  1  0.58210344  0.95123232  0.40017744  1
  O2-  O227  1  0.58164745  0.94617800  0.72459524  1
  O2-  O228  1  0.19672141  0.32970819  0.05908928  1
  O2-  O229  1  0.20563048  0.33748423  0.39793529  1
  O2-  O230  1  0.19552857  0.33010011  0.72930196  1
  O2-  O231  1  0.20716046  0.83258039  0.07169632  1
  O2-  O232  1  0.20601175  0.83331268  0.39843090  1
  O2-  O233  1  0.20488795  0.83706478  0.72833751  1
  O2-  O234  1  0.70506237  0.33766414  0.06635147  1
  O2-  O235  1  0.70399060  0.33274430  0.40435986  1
  O2-  O236  1  0.71264110  0.34043521  0.73068173  1
  O2-  O237  1  0.71136295  0.83570323  0.07181376  1
  O2-  O238  1  0.70106327  0.83373168  0.39900941  1
  O2-  O239  1  0.70838628  0.83253464  0.72670542  1
  O2-  O240  1  0.45980332  0.41828601  0.26655902  1
  O2-  O241  1  0.46002308  0.41700746  0.59803691  1
  O2-  O242  1  0.46091537  0.41948656  0.93206594  1
  O2-  O243  1  0.45508427  0.91543995  0.27202316  1
  O2-  O244  1  0.45276008  0.91849329  0.59566830  1
  O2-  O245  1  0.44539659  0.92134015  0.93554712  1
  O2-  O246  1  0.95897985  0.41041170  0.27068427  1
  O2-  O247  1  0.96269684  0.41679343  0.59570666  1
  O2-  O248  1  0.96307307  0.41391283  0.93724035  1
  O2-  O249  1  0.95958151  0.91552437  0.26804178  1
  O2-  O250  1  0.96720744  0.91478216  0.59673613  1
  O2-  O251  1  0.96381283  0.90963105  0.93960774  1
  O2-  O252  1  0.33047854  0.29124584  0.26541983  1
  O2-  O253  1  0.32674589  0.29695062  0.60188448  1
  O2-  O254  1  0.32771114  0.30187969  0.93096517  1
  O2-  O255  1  0.33595517  0.79518618  0.27151555  1
  O2-  O256  1  0.32789366  0.79022239  0.59563333  1
  O2-  O257  1  0.32776595  0.78795002  0.93684599  1
  O2-  O258  1  0.83351224  0.29570460  0.27426119  1
  O2-  O259  1  0.83508423  0.29162150  0.59727772  1
  O2-  O260  1  0.83307238  0.30773892  0.94226335  1
  O2-  O261  1  0.83123466  0.80417866  0.27132927  1
  O2-  O262  1  0.83506965  0.79524289  0.59453728  1
  O2-  O263  1  0.83944600  0.79398894  0.94069358  1
  O2-  O264  1  0.41531990  0.05452045  0.05804349  1
  O2-  O265  1  0.41612958  0.04322627  0.40053455  1
  O2-  O266  1  0.41745748  0.04731039  0.72395416  1
  O2-  O267  1  0.41965248  0.54093443  0.06891113  1
  O2-  O268  1  0.41190005  0.54586981  0.39458762  1
  O2-  O269  1  0.41830305  0.53959652  0.73266587  1
  O2-  O270  1  0.91595973  0.03690262  0.06852863  1
  O2-  O271  1  0.91731608  0.03856148  0.40405973  1
  O2-  O272  1  0.91896380  0.03836631  0.73124522  1
  O2-  O273  1  0.91897091  0.53935425  0.06619980  1
  O2-  O274  1  0.92273654  0.54286167  0.40102977  1
  O2-  O275  1  0.91481687  0.54411796  0.72681520  1
  O2-  O276  1  0.28922940  0.16757977  0.05700658  1
  O2-  O277  1  0.28451199  0.16652275  0.40139155  1
  O2-  O278  1  0.29268170  0.16231870  0.72923798  1
  O2-  O279  1  0.28567309  0.66129391  0.07187596  1
  O2-  O280  1  0.28902582  0.66340729  0.39432983  1
  O2-  O281  1  0.28625542  0.66462093  0.73467871  1
  O2-  O282  1  0.80064283  0.17400729  0.06558462  1
  O2-  O283  1  0.79203858  0.16679147  0.40264806  1
  O2-  O284  1  0.79412037  0.16955969  0.73328618  1
  O2-  O285  1  0.79686028  0.66792459  0.06933969  1
  O2-  O286  1  0.79895739  0.67293393  0.39842447  1
  O2-  O287  1  0.79673830  0.66670397  0.72277782  1
