# generated using pymatgen
data_Ca2Al2SiO7
_symmetry_space_group_name_H-M   'P 1'
_cell_length_a   15.46144552
_cell_length_b   15.45908798
_cell_length_c   15.28456687
_cell_angle_alpha   90.01282730
_cell_angle_beta   90.00547696
_cell_angle_gamma   90.00693189
_symmetry_Int_Tables_number   1
_chemical_formula_structural   Ca2Al2SiO7
_chemical_formula_sum   'Ca48 Al48 Si24 O168'
_cell_volume   3653.31469459
_cell_formula_units_Z   24
loop_
 _symmetry_equiv_pos_site_id
 _symmetry_equiv_pos_as_xyz
  1  'x, y, z'
loop_
 _atom_type_symbol
 _atom_type_oxidation_number
  Ca2+  2.0
  Al0+  0.0
  Si0+  0.0
  O2-  -2.0
loop_
 _atom_site_type_symbol
 _atom_site_label
 _atom_site_symmetry_multiplicity
 _atom_site_fract_x
 _atom_site_fract_y
 _atom_site_fract_z
 _atom_site_occupancy
  Ca2+  Ca0  1  0.17663683  0.07916918  0.17110968  1
  Ca2+  Ca1  1  0.17343434  0.08748082  0.49781308  1
  Ca2+  Ca2  1  0.17723996  0.07299691  0.84518812  1
  Ca2+  Ca3  1  0.17741660  0.58498052  0.17079852  1
  Ca2+  Ca4  1  0.17043692  0.57653111  0.50452531  1
  Ca2+  Ca5  1  0.16955834  0.58373513  0.83864773  1
  Ca2+  Ca6  1  0.67241483  0.07564542  0.17139231  1
  Ca2+  Ca7  1  0.65798635  0.07255309  0.50419998  1
  Ca2+  Ca8  1  0.66444069  0.07928131  0.83534155  1
  Ca2+  Ca9  1  0.65535262  0.57490777  0.16868633  1
  Ca2+  Ca10  1  0.66415383  0.57248039  0.50243709  1
  Ca2+  Ca11  1  0.65307103  0.57109714  0.83786019  1
  Ca2+  Ca12  1  0.09374749  0.32751861  0.16936501  1
  Ca2+  Ca13  1  0.09085866  0.33117324  0.49087246  1
  Ca2+  Ca14  1  0.08229428  0.33412396  0.82521767  1
  Ca2+  Ca15  1  0.08164889  0.83203472  0.15945120  1
  Ca2+  Ca16  1  0.07665047  0.82633797  0.49422578  1
  Ca2+  Ca17  1  0.09278649  0.82101412  0.83234228  1
  Ca2+  Ca18  1  0.57911922  0.34020817  0.16330122  1
  Ca2+  Ca19  1  0.57608253  0.33555359  0.49571924  1
  Ca2+  Ca20  1  0.57937176  0.32914968  0.82339361  1
  Ca2+  Ca21  1  0.57393954  0.82824924  0.16171943  1
  Ca2+  Ca22  1  0.57762694  0.83814070  0.49321989  1
  Ca2+  Ca23  1  0.57179470  0.83512825  0.82743345  1
  Ca2+  Ca24  1  0.33476657  0.43231732  0.17738062  1
  Ca2+  Ca25  1  0.32932248  0.41597449  0.50076433  1
  Ca2+  Ca26  1  0.33187719  0.42124249  0.83631309  1
  Ca2+  Ca27  1  0.33774134  0.92234005  0.17021471  1
  Ca2+  Ca28  1  0.34615122  0.92265275  0.50107455  1
  Ca2+  Ca29  1  0.33476364  0.91816296  0.84318306  1
  Ca2+  Ca30  1  0.81976695  0.41879223  0.17048772  1
  Ca2+  Ca31  1  0.82073549  0.41233720  0.50361415  1
  Ca2+  Ca32  1  0.81968788  0.41645115  0.83745244  1
  Ca2+  Ca33  1  0.83171948  0.91786366  0.17449372  1
  Ca2+  Ca34  1  0.82165996  0.90996309  0.50176687  1
  Ca2+  Ca35  1  0.82575044  0.92236770  0.83807697  1
  Ca2+  Ca36  1  0.40953019  0.17101400  0.16766219  1
  Ca2+  Ca37  1  0.41883445  0.17766732  0.49560849  1
  Ca2+  Ca38  1  0.42021083  0.17177394  0.82404338  1
  Ca2+  Ca39  1  0.41294514  0.67353627  0.15865731  1
  Ca2+  Ca40  1  0.41299203  0.67846601  0.49407116  1
  Ca2+  Ca41  1  0.41449643  0.67562719  0.83605807  1
  Ca2+  Ca42  1  0.92149174  0.16407179  0.16328193  1
  Ca2+  Ca43  1  0.92688452  0.16759905  0.49239292  1
  Ca2+  Ca44  1  0.91545809  0.16388722  0.83321958  1
  Ca2+  Ca45  1  0.92277827  0.67206683  0.16261038  1
  Ca2+  Ca46  1  0.92305651  0.66743335  0.49525135  1
  Ca2+  Ca47  1  0.93115593  0.66108003  0.82968127  1
  Al0+  Al48  1  -0.00054337  0.00088430  0.00452078  1
  Al0+  Al49  1  0.00144419  0.00076551  0.32565385  1
  Al0+  Al50  1  0.00069353  -0.00082196  0.66649804  1
  Al0+  Al51  1  -0.00370737  0.49804657  -0.00316759  1
  Al0+  Al52  1  -0.00092982  0.49881121  0.33356332  1
  Al0+  Al53  1  0.00086418  0.49866592  0.66484318  1
  Al0+  Al54  1  0.50130114  0.00247462  0.00140962  1
  Al0+  Al55  1  0.50074949  0.00118278  0.33551069  1
  Al0+  Al56  1  0.50120447  0.00129404  0.66568071  1
  Al0+  Al57  1  0.49631810  0.49965696  0.00307279  1
  Al0+  Al58  1  0.49933183  0.50069595  0.34034882  1
  Al0+  Al59  1  0.49789848  0.50250361  0.66743810  1
  Al0+  Al60  1  0.24884861  0.24833988  -0.00035633  1
  Al0+  Al61  1  0.25198172  0.24873490  0.33100057  1
  Al0+  Al62  1  0.25027386  0.25050726  0.66896854  1
  Al0+  Al63  1  0.24817296  0.74956057  -0.00050481  1
  Al0+  Al64  1  0.24941531  0.75180989  0.33362792  1
  Al0+  Al65  1  0.24942440  0.74993801  0.65594085  1
  Al0+  Al66  1  0.74939802  0.24986636  0.00795286  1
  Al0+  Al67  1  0.75168263  0.24858504  0.33724247  1
  Al0+  Al68  1  0.75164599  0.24848237  0.66585808  1
  Al0+  Al69  1  0.75024932  0.74653766  -0.00604070  1
  Al0+  Al70  1  0.75074331  0.74962146  0.33222504  1
  Al0+  Al71  1  0.75048965  0.75052992  0.67467711  1
  Al0+  Al72  1  0.06938246  0.67889638  0.98725218  1
  Al0+  Al73  1  0.32140739  0.57527015  0.35110451  1
  Al0+  Al74  1  0.67810050  0.92958785  0.68205562  1
  Al0+  Al75  1  0.32416132  0.07262337  0.01538113  1
  Al0+  Al76  1  0.68124441  0.92934587  0.34523915  1
  Al0+  Al77  1  0.32087702  0.06955105  0.34926866  1
  Al0+  Al78  1  0.43044125  0.82272162  0.98586474  1
  Al0+  Al79  1  0.18019035  0.42954365  0.34627075  1
  Al0+  Al80  1  0.67905260  0.42825683  0.34840026  1
  Al0+  Al81  1  0.57083032  0.67578447  0.98491305  1
  Al0+  Al82  1  0.17998647  0.42893584  0.68130599  1
  Al0+  Al83  1  0.67805991  0.42930309  0.68080736  1
  Al0+  Al84  1  0.81932642  0.06980817  0.01415855  1
  Al0+  Al85  1  0.42771266  0.32315314  0.65178900  1
  Al0+  Al86  1  0.92838565  0.81942311  0.32006852  1
  Al0+  Al87  1  0.07005245  0.67777799  0.65067460  1
  Al0+  Al88  1  0.42915446  0.82274753  0.31859721  1
  Al0+  Al89  1  0.31776983  0.56902145  0.01177638  1
  Al0+  Al90  1  0.07186019  0.18061093  0.31793711  1
  Al0+  Al91  1  0.43070160  0.82052805  0.65208723  1
  Al0+  Al92  1  0.18026315  0.92780059  0.01440896  1
  Al0+  Al93  1  0.43146627  0.32154219  0.31840216  1
  Al0+  Al94  1  0.67855255  0.43127093  0.01325838  1
  Al0+  Al95  1  0.57290985  0.17965898  0.65163591  1
  Si0+  Si96  1  0.57334326  0.18140991  0.98729561  1
  Si0+  Si97  1  0.57187739  0.67825508  0.31892567  1
  Si0+  Si98  1  0.17374490  0.42662284  0.01502630  1
  Si0+  Si99  1  0.92958455  0.32023849  0.65176401  1
  Si0+  Si100  1  0.31976855  0.06983975  0.68097601  1
  Si0+  Si101  1  0.92564131  0.32242045  0.31516487  1
  Si0+  Si102  1  0.67802220  0.92511139  0.01603155  1
  Si0+  Si103  1  0.17739819  0.92839419  0.67915087  1
  Si0+  Si104  1  0.92724610  0.82277477  0.65172754  1
  Si0+  Si105  1  0.82284103  0.57121373  0.68405781  1
  Si0+  Si106  1  0.92665333  0.31850467  0.98433851  1
  Si0+  Si107  1  0.92724013  0.82472773  0.98146675  1
  Si0+  Si108  1  0.82500259  0.07104341  0.35117690  1
  Si0+  Si109  1  0.82245556  0.57207135  0.34944318  1
  Si0+  Si110  1  0.32009051  0.57591896  0.68456871  1
  Si0+  Si111  1  0.07061441  0.17911846  0.98287909  1
  Si0+  Si112  1  0.82558410  0.07111831  0.68223716  1
  Si0+  Si113  1  0.57358966  0.17835772  0.31539645  1
  Si0+  Si114  1  0.82472872  0.57172150  0.01625754  1
  Si0+  Si115  1  0.17574225  0.92888044  0.35131928  1
  Si0+  Si116  1  0.42778814  0.32034679  0.98602643  1
  Si0+  Si117  1  0.57457375  0.67824579  0.65012722  1
  Si0+  Si118  1  0.07150127  0.67643475  0.31582967  1
  Si0+  Si119  1  0.07114308  0.17804915  0.65363169  1
  O2-  O120  1  0.25471820  -0.00265801  0.06401437  1
  O2-  O121  1  0.24797429  -0.00699812  0.39708326  1
  O2-  O122  1  0.25023681  -0.00300748  0.72197177  1
  O2-  O123  1  0.24160185  0.49544351  0.05804587  1
  O2-  O124  1  0.24868059  0.50260457  0.39921897  1
  O2-  O125  1  0.25420664  0.50352098  0.72815872  1
  O2-  O126  1  0.75049665  -0.01010937  0.06044082  1
  O2-  O127  1  0.75593293  0.00343883  0.39498926  1
  O2-  O128  1  0.75423407  0.00492016  0.72566510  1
  O2-  O129  1  0.74904853  0.51056076  0.05956722  1
  O2-  O130  1  0.75565748  0.50187471  0.39398110  1
  O2-  O131  1  0.75019415  0.50653795  0.72841158  1
  O2-  O132  1  -0.00274340  0.25654322  0.27137079  1
  O2-  O133  1  0.00178294  0.25008852  0.61053307  1
  O2-  O134  1  0.00050124  0.25091503  0.94014275  1
  O2-  O135  1  0.00405525  0.74664789  0.27229518  1
  O2-  O136  1  -0.00673144  0.75202241  0.60691895  1
  O2-  O137  1  -0.00471981  0.75460328  0.93843538  1
  O2-  O138  1  0.50937278  0.25044089  0.26994823  1
  O2-  O139  1  0.50438372  0.25535531  0.60257659  1
  O2-  O140  1  0.49779519  0.24766702  0.94502081  1
  O2-  O141  1  0.50094833  0.74436255  0.27454474  1
  O2-  O142  1  0.50757039  0.74768214  0.60522836  1
  O2-  O143  1  0.50490511  0.75340269  0.93462709  1
  O2-  O144  1  0.07106189  0.18111841  0.08762612  1
  O2-  O145  1  0.06960991  0.18070992  0.43192329  1
  O2-  O146  1  0.06904883  0.17732556  0.75877400  1
  O2-  O147  1  0.06604773  0.67790699  0.10001757  1
  O2-  O148  1  0.06826105  0.67625978  0.42163665  1
  O2-  O149  1  0.07059634  0.67893949  0.76400835  1
  O2-  O150  1  0.57684210  0.18363542  0.09215755  1
  O2-  O151  1  0.57187060  0.17837971  0.42088302  1
  O2-  O152  1  0.57050465  0.17954953  0.76619320  1
  O2-  O153  1  0.56789754  0.67549924  0.09853730  1
  O2-  O154  1  0.57507029  0.68064196  0.42464540  1
  O2-  O155  1  0.57237441  0.67820802  0.75552918  1
  O2-  O156  1  0.18133821  0.43152591  0.23239385  1
  O2-  O157  1  0.17872851  0.42786211  0.56883113  1
  O2-  O158  1  0.17419749  0.42596869  0.90914498  1
  O2-  O159  1  0.17424043  0.93094175  0.24601609  1
  O2-  O160  1  0.17228175  0.93250316  0.57444027  1
  O2-  O161  1  0.18058773  0.93031410  0.89971336  1
  O2-  O162  1  0.68008620  0.42986211  0.23514179  1
  O2-  O163  1  0.68173907  0.42978306  0.56793447  1
  O2-  O164  1  0.68061259  0.42817994  0.90013837  1
  O2-  O165  1  0.68381223  0.93087797  0.23214217  1
  O2-  O166  1  0.68000433  0.92945156  0.56898241  1
  O2-  O167  1  0.67763155  0.93001816  0.91033194  1
  O2-  O168  1  0.42874687  0.32146776  0.09103439  1
  O2-  O169  1  0.43155193  0.31995525  0.43131537  1
  O2-  O170  1  0.42663910  0.31897031  0.76623153  1
  O2-  O171  1  0.43173021  0.82234753  0.09923988  1
  O2-  O172  1  0.43381272  0.82327470  0.43192587  1
  O2-  O173  1  0.42855838  0.82138369  0.76502449  1
  O2-  O174  1  0.92547060  0.31714666  0.08914543  1
  O2-  O175  1  0.92367080  0.31992299  0.42097937  1
  O2-  O176  1  0.92921721  0.31918291  0.75715734  1
  O2-  O177  1  0.92744666  0.82398921  0.08720560  1
  O2-  O178  1  0.92897741  0.81662058  0.43360286  1
  O2-  O179  1  0.92987835  0.82535572  0.75702474  1
  O2-  O180  1  0.31930780  0.06938212  0.23651571  1
  O2-  O181  1  0.31782157  0.07109095  0.57593375  1
  O2-  O182  1  0.32075196  0.07604117  0.90106635  1
  O2-  O183  1  0.32036650  0.57507738  0.23715946  1
  O2-  O184  1  0.31747427  0.57794866  0.57935440  1
  O2-  O185  1  0.31753128  0.56690408  0.89847032  1
  O2-  O186  1  0.82361812  0.07108332  0.24544035  1
  O2-  O187  1  0.83242212  0.06904605  0.57726441  1
  O2-  O188  1  0.81728439  0.07120540  0.90069634  1
  O2-  O189  1  0.82305158  0.57178088  0.24390151  1
  O2-  O190  1  0.82343570  0.56975125  0.57830836  1
  O2-  O191  1  0.83162288  0.56528368  0.91117845  1
  O2-  O192  1  0.04040492  0.08582274  0.26126434  1
  O2-  O193  1  0.04233420  0.08706284  0.60464595  1
  O2-  O194  1  0.04053154  0.08741343  0.93620923  1
  O2-  O195  1  0.04455649  0.58314233  0.26976029  1
  O2-  O196  1  0.03785188  0.58157701  0.59660493  1
  O2-  O197  1  0.03706577  0.58186914  0.93231782  1
  O2-  O198  1  0.54426926  0.08638059  0.26879801  1
  O2-  O199  1  0.53989291  0.08347110  0.59807902  1
  O2-  O200  1  0.55059405  0.08809483  0.94048165  1
  O2-  O201  1  0.54775347  0.58344763  0.27573128  1
  O2-  O202  1  0.54861797  0.58476056  0.60405989  1
  O2-  O203  1  0.53398392  0.57952046  0.93141193  1
  O2-  O204  1  0.16700945  0.21173960  0.26211323  1
  O2-  O205  1  0.16292079  0.20535123  0.60696464  1
  O2-  O206  1  0.16239323  0.20560710  0.93388749  1
  O2-  O207  1  0.16517759  0.70260250  0.27161535  1
  O2-  O208  1  0.16342547  0.71033915  0.59309247  1
  O2-  O209  1  0.16469369  0.70913650  0.93043896  1
  O2-  O210  1  0.67033726  0.19910580  0.27304459  1
  O2-  O211  1  0.67411701  0.19965705  0.60053443  1
  O2-  O212  1  0.66338018  0.21353559  0.93862979  1
  O2-  O213  1  0.66458233  0.70422411  0.27093523  1
  O2-  O214  1  0.67070189  0.70115059  0.60787632  1
  O2-  O215  1  0.67328181  0.69095743  0.93358057  1
  O2-  O216  1  0.07874540  0.44870816  0.05924614  1
  O2-  O217  1  0.07843401  0.45126735  0.39709221  1
  O2-  O218  1  0.08165833  0.45792814  0.73392034  1
  O2-  O219  1  0.08249889  0.95858602  0.06706169  1
  O2-  O220  1  0.08313387  0.95974543  0.39716304  1
  O2-  O221  1  0.08700761  0.95724935  0.72945272  1
  O2-  O222  1  0.58174831  0.45962134  0.06738584  1
  O2-  O223  1  0.58486839  0.46045363  0.40472341  1
  O2-  O224  1  0.58008570  0.45813933  0.73390657  1
  O2-  O225  1  0.58683297  0.95561758  0.06315967  1
  O2-  O226  1  0.58635013  0.96253358  0.40052032  1
  O2-  O227  1  0.58302840  0.96451966  0.73701877  1
  O2-  O228  1  0.19982508  0.33254096  0.05889367  1
  O2-  O229  1  0.20993518  0.33108641  0.39772654  1
  O2-  O230  1  0.20838905  0.33165389  0.73699139  1
  O2-  O231  1  0.20159468  0.82852413  0.06680117  1
  O2-  O232  1  0.19536877  0.83341456  0.39523073  1
  O2-  O233  1  0.20485303  0.83489556  0.72236094  1
  O2-  O234  1  0.71409791  0.33792258  0.06989099  1
  O2-  O235  1  0.71068882  0.33146443  0.40213303  1
  O2-  O236  1  0.71264163  0.33231460  0.73285234  1
  O2-  O237  1  0.69902490  0.82843389  0.05715337  1
  O2-  O238  1  0.71233862  0.83283052  0.39986065  1
  O2-  O239  1  0.70727969  0.83365012  0.73879070  1
  O2-  O240  1  0.46134266  0.42028232  0.26754573  1
  O2-  O241  1  0.45016085  0.42399983  0.60205005  1
  O2-  O242  1  0.45677703  0.41096022  0.93802576  1
  O2-  O243  1  0.46357121  0.91879480  0.26602071  1
  O2-  O244  1  0.46217389  0.91743826  0.59981132  1
  O2-  O245  1  0.45713129  0.92307556  0.93368274  1
  O2-  O246  1  0.94654247  0.41762235  0.27031789  1
  O2-  O247  1  0.95515121  0.41158226  0.60354152  1
  O2-  O248  1  0.95070477  0.41039991  0.93520659  1
  O2-  O249  1  0.95690143  0.91597953  0.26525641  1
  O2-  O250  1  0.95553651  0.91504543  0.60366913  1
  O2-  O251  1  0.95298445  0.91907326  0.93675564  1
  O2-  O252  1  0.33677130  0.28729607  0.26397416  1
  O2-  O253  1  0.33047943  0.28853365  0.59959564  1
  O2-  O254  1  0.33525880  0.29395966  0.93832990  1
  O2-  O255  1  0.32961983  0.79754725  0.26790199  1
  O2-  O256  1  0.33509109  0.79198421  0.59513055  1
  O2-  O257  1  0.33187012  0.79229246  0.93412964  1
  O2-  O258  1  0.83341901  0.29246836  0.26793079  1
  O2-  O259  1  0.83927568  0.29109241  0.60232672  1
  O2-  O260  1  0.83608430  0.28562808  0.93682348  1
  O2-  O261  1  0.83334560  0.78757422  0.26329123  1
  O2-  O262  1  0.83202303  0.79851230  0.60832483  1
  O2-  O263  1  0.83312153  0.80126128  0.93511582  1
  O2-  O264  1  0.42396203  0.05083149  0.06784260  1
  O2-  O265  1  0.41764013  0.04084277  0.40363307  1
  O2-  O266  1  0.41186976  0.04351506  0.72761360  1
  O2-  O267  1  0.41174836  0.53656898  0.06899504  1
  O2-  O268  1  0.41902731  0.54766378  0.40477947  1
  O2-  O269  1  0.41501894  0.55410444  0.72929538  1
  O2-  O270  1  0.91704510  0.04511414  0.06840524  1
  O2-  O271  1  0.91939182  0.04509163  0.39500649  1
  O2-  O272  1  0.91754926  0.04264495  0.73250196  1
  O2-  O273  1  0.91392102  0.53802603  0.06699437  1
  O2-  O274  1  0.91613544  0.54782163  0.39640357  1
  O2-  O275  1  0.91452685  0.53909444  0.73050236  1
  O2-  O276  1  0.28959986  0.16963484  0.06821431  1
  O2-  O277  1  0.28619259  0.16493246  0.40271158  1
  O2-  O278  1  0.29000705  0.16026903  0.73002453  1
  O2-  O279  1  0.28750287  0.66513664  0.06548086  1
  O2-  O280  1  0.29191663  0.67381143  0.40352361  1
  O2-  O281  1  0.28849618  0.66868483  0.72931248  1
  O2-  O282  1  0.78653859  0.16373470  0.07172404  1
  O2-  O283  1  0.80256047  0.16517018  0.39754489  1
  O2-  O284  1  0.80335726  0.16571799  0.72778046  1
  O2-  O285  1  0.80774247  0.66907672  0.05751719  1
  O2-  O286  1  0.79551232  0.66442264  0.39699084  1
  O2-  O287  1  0.80530257  0.66624592  0.73045986  1
