# generated using pymatgen
data_Ca2Al2SiO7
_symmetry_space_group_name_H-M   'P 1'
_cell_length_a   15.46156694
_cell_length_b   15.46153992
_cell_length_c   15.28684812
_cell_angle_alpha   89.99567374
_cell_angle_beta   90.00593264
_cell_angle_gamma   89.99640507
_symmetry_Int_Tables_number   1
_chemical_formula_structural   Ca2Al2SiO7
_chemical_formula_sum   'Ca48 Al48 Si24 O168'
_cell_volume   3654.46828706
_cell_formula_units_Z   24
loop_
 _symmetry_equiv_pos_site_id
 _symmetry_equiv_pos_as_xyz
  1  'x, y, z'
loop_
 _atom_type_symbol
 _atom_type_oxidation_number
  Ca2+  2.0
  Al0+  0.0
  Si0+  0.0
  O2-  -2.0
loop_
 _atom_site_type_symbol
 _atom_site_label
 _atom_site_symmetry_multiplicity
 _atom_site_fract_x
 _atom_site_fract_y
 _atom_site_fract_z
 _atom_site_occupancy
  Ca2+  Ca0  1  0.16214394  0.08637214  0.17185824  1
  Ca2+  Ca1  1  0.16423245  0.09196524  0.50332116  1
  Ca2+  Ca2  1  0.16183394  0.08765132  0.83776295  1
  Ca2+  Ca3  1  0.16784836  0.58116302  0.18215591  1
  Ca2+  Ca4  1  0.16732749  0.57351196  0.49668127  1
  Ca2+  Ca5  1  0.16122577  0.57637719  0.83687601  1
  Ca2+  Ca6  1  0.67488133  0.07819468  0.17636466  1
  Ca2+  Ca7  1  0.66902001  0.08371780  0.49708553  1
  Ca2+  Ca8  1  0.67886232  0.07377691  0.84744982  1
  Ca2+  Ca9  1  0.67630682  0.58363691  0.16769081  1
  Ca2+  Ca10  1  0.66963202  0.57856444  0.50483654  1
  Ca2+  Ca11  1  0.66907915  0.57752466  0.84179710  1
  Ca2+  Ca12  1  0.07724531  0.32921162  0.16800604  1
  Ca2+  Ca13  1  0.07732894  0.33312124  0.49229491  1
  Ca2+  Ca14  1  0.07338565  0.32567300  0.82430878  1
  Ca2+  Ca15  1  0.08412130  0.81713180  0.16294800  1
  Ca2+  Ca16  1  0.07535191  0.82706350  0.49478991  1
  Ca2+  Ca17  1  0.07436698  0.82518164  0.82922795  1
  Ca2+  Ca18  1  0.58076202  0.33792898  0.16629703  1
  Ca2+  Ca19  1  0.57897106  0.33255808  0.49041446  1
  Ca2+  Ca20  1  0.58659124  0.34000425  0.82785817  1
  Ca2+  Ca21  1  0.58481789  0.83418572  0.16462486  1
  Ca2+  Ca22  1  0.58005927  0.82900122  0.49167439  1
  Ca2+  Ca23  1  0.59806622  0.81875413  0.83348807  1
  Ca2+  Ca24  1  0.32605093  0.42272603  0.17870063  1
  Ca2+  Ca25  1  0.32047418  0.40908936  0.49910289  1
  Ca2+  Ca26  1  0.32502596  0.41657547  0.83439863  1
  Ca2+  Ca27  1  0.33337186  0.91539125  0.17528719  1
  Ca2+  Ca28  1  0.33338977  0.91558624  0.49880154  1
  Ca2+  Ca29  1  0.32937613  0.91932257  0.83607086  1
  Ca2+  Ca30  1  0.83638621  0.42571998  0.17202394  1
  Ca2+  Ca31  1  0.83727897  0.41940107  0.50298000  1
  Ca2+  Ca32  1  0.82336711  0.41652766  0.83831508  1
  Ca2+  Ca33  1  0.82407169  0.92611729  0.17301863  1
  Ca2+  Ca34  1  0.83499680  0.92158269  0.49905253  1
  Ca2+  Ca35  1  0.83403313  0.91996928  0.84214194  1
  Ca2+  Ca36  1  0.42429509  0.17162563  0.17145021  1
  Ca2+  Ca37  1  0.42501774  0.17401997  0.48758230  1
  Ca2+  Ca38  1  0.42181441  0.16918689  0.83055596  1
  Ca2+  Ca39  1  0.41961793  0.66977568  0.16400271  1
  Ca2+  Ca40  1  0.42099651  0.66701849  0.49207292  1
  Ca2+  Ca41  1  0.43169236  0.66528223  0.83017453  1
  Ca2+  Ca42  1  0.91843182  0.16556434  0.16592840  1
  Ca2+  Ca43  1  0.92203062  0.18022754  0.49077182  1
  Ca2+  Ca44  1  0.92308559  0.16705065  0.82638911  1
  Ca2+  Ca45  1  0.92386966  0.65539676  0.16391960  1
  Ca2+  Ca46  1  0.91645837  0.66967089  0.49221247  1
  Ca2+  Ca47  1  0.91281476  0.66904616  0.83289429  1
  Al0+  Al48  1  0.00264066  -0.00133849  0.00112781  1
  Al0+  Al49  1  -0.00177341  -0.00070264  0.33453344  1
  Al0+  Al50  1  0.00168016  -0.00246346  0.66037972  1
  Al0+  Al51  1  -0.00023355  0.49595167  -0.00383180  1
  Al0+  Al52  1  0.00036660  0.49973120  0.33536196  1
  Al0+  Al53  1  0.00135560  0.50066585  0.67040671  1
  Al0+  Al54  1  0.49702955  0.00204596  0.00107953  1
  Al0+  Al55  1  0.49855148  -0.00115734  0.33019256  1
  Al0+  Al56  1  0.49989157  -0.00103567  0.67074860  1
  Al0+  Al57  1  0.49662998  0.50150487  -0.00125357  1
  Al0+  Al58  1  0.50025494  0.50279203  0.33136679  1
  Al0+  Al59  1  0.50041328  0.50041564  0.66523544  1
  Al0+  Al60  1  0.25021011  0.25015850  -0.00399992  1
  Al0+  Al61  1  0.25080816  0.24936348  0.32962283  1
  Al0+  Al62  1  0.25243925  0.25023464  0.67132866  1
  Al0+  Al63  1  0.24981164  0.75035596  -0.00789125  1
  Al0+  Al64  1  0.25087268  0.75044776  0.33175332  1
  Al0+  Al65  1  0.25189671  0.75213462  0.67043339  1
  Al0+  Al66  1  0.74769580  0.24973824  0.00690240  1
  Al0+  Al67  1  0.75104513  0.24969045  0.32905168  1
  Al0+  Al68  1  0.75168577  0.24914143  0.66832118  1
  Al0+  Al69  1  0.75016462  0.74943841  0.00470277  1
  Al0+  Al70  1  0.74905530  0.75102483  0.34100813  1
  Al0+  Al71  1  0.74972801  0.75009793  0.65687470  1
  Al0+  Al72  1  0.32262643  0.57398439  0.34752515  1
  Al0+  Al73  1  0.06837886  0.68123200  0.32284376  1
  Al0+  Al74  1  0.67671392  0.93077973  0.35140019  1
  Al0+  Al75  1  0.17893374  0.42877947  0.68288174  1
  Al0+  Al76  1  0.92919822  0.81942006  0.65244686  1
  Al0+  Al77  1  0.57174077  0.17914824  0.31852395  1
  Al0+  Al78  1  0.82459215  0.07098942  0.01499559  1
  Al0+  Al79  1  0.82227317  0.56913123  0.01419883  1
  Al0+  Al80  1  0.82147891  0.56994396  0.34844397  1
  Al0+  Al81  1  0.07266172  0.17974417  0.65193778  1
  Al0+  Al82  1  0.57045816  0.68084321  0.98803818  1
  Al0+  Al83  1  0.07220205  0.67521070  0.98534979  1
  Al0+  Al84  1  0.67433242  0.42905040  0.01601795  1
  Al0+  Al85  1  0.82261030  0.07311852  0.35181224  1
  Al0+  Al86  1  0.07075926  0.17753604  0.31809115  1
  Al0+  Al87  1  0.67775989  0.92786413  0.01480201  1
  Al0+  Al88  1  0.06989854  0.17930136  0.98558484  1
  Al0+  Al89  1  0.92744329  0.32203877  0.65236321  1
  Al0+  Al90  1  0.92833998  0.32321083  0.31671794  1
  Al0+  Al91  1  0.42893864  0.32389950  0.31824639  1
  Al0+  Al92  1  0.56982880  0.67839764  0.65139991  1
  Al0+  Al93  1  0.18026278  0.42742941  0.34721167  1
  Al0+  Al94  1  0.67951902  0.42880146  0.67814576  1
  Al0+  Al95  1  0.42958938  0.81938680  0.32030732  1
  Si0+  Si96  1  0.82189005  0.06877632  0.68089630  1
  Si0+  Si97  1  0.18019600  0.42815228  0.01374917  1
  Si0+  Si98  1  0.07502718  0.67778388  0.65032444  1
  Si0+  Si99  1  0.57137866  0.17673694  0.65532087  1
  Si0+  Si100  1  0.17842284  0.92753801  0.34768414  1
  Si0+  Si101  1  0.92534483  0.82214122  0.31518810  1
  Si0+  Si102  1  0.42789649  0.82351172  0.65054092  1
  Si0+  Si103  1  0.43077408  0.32021113  0.65310851  1
  Si0+  Si104  1  0.67816849  0.92886957  0.68200566  1
  Si0+  Si105  1  0.18123343  0.92790714  0.01472433  1
  Si0+  Si106  1  0.42964851  0.32081073  0.98271692  1
  Si0+  Si107  1  0.31809666  0.57203975  0.01294764  1
  Si0+  Si108  1  0.31937368  0.06989113  0.34762373  1
  Si0+  Si109  1  0.32200616  0.07081393  0.68280498  1
  Si0+  Si110  1  0.57446218  0.67836061  0.31547421  1
  Si0+  Si111  1  0.17825020  0.92901455  0.68274194  1
  Si0+  Si112  1  0.92495159  0.32093049  0.98232640  1
  Si0+  Si113  1  0.67733789  0.42847172  0.34868405  1
  Si0+  Si114  1  0.93028134  0.81995860  0.98666433  1
  Si0+  Si115  1  0.57077186  0.17839282  0.98425972  1
  Si0+  Si116  1  0.32216821  0.57344769  0.68501609  1
  Si0+  Si117  1  0.31995544  0.07274349  0.01629133  1
  Si0+  Si118  1  0.42693904  0.82498207  0.98052865  1
  Si0+  Si119  1  0.82134021  0.57447924  0.68238265  1
  O2-  O120  1  0.25139039  -0.00072243  0.05762674  1
  O2-  O121  1  0.24439719  0.00343953  0.39058481  1
  O2-  O122  1  0.24776391  0.00247516  0.72443598  1
  O2-  O123  1  0.24257713  0.50676048  0.05545313  1
  O2-  O124  1  0.25521889  0.49753735  0.39689228  1
  O2-  O125  1  0.25097667  0.50727457  0.72982452  1
  O2-  O126  1  0.74800854  0.00226307  0.06263687  1
  O2-  O127  1  0.74927405  0.00189182  0.40226568  1
  O2-  O128  1  0.75052058  -0.00173895  0.72435682  1
  O2-  O129  1  0.75028467  0.49715731  0.06453274  1
  O2-  O130  1  0.74685683  0.49490689  0.39472180  1
  O2-  O131  1  0.75527765  0.50254004  0.72531265  1
  O2-  O132  1  -0.00252910  0.24737583  0.26774694  1
  O2-  O133  1  0.00297734  0.25333187  0.60285376  1
  O2-  O134  1  -0.00947045  0.24829440  0.93900893  1
  O2-  O135  1  -0.00757635  0.75200288  0.27145438  1
  O2-  O136  1  0.00212641  0.74212488  0.60717879  1
  O2-  O137  1  -0.00534499  0.74780811  0.94024871  1
  O2-  O138  1  0.50463016  0.25594706  0.26779644  1
  O2-  O139  1  0.50432220  0.25120648  0.61274259  1
  O2-  O140  1  0.50465881  0.25361084  0.94004231  1
  O2-  O141  1  0.50398552  0.74604426  0.27251292  1
  O2-  O142  1  0.49423665  0.75341963  0.60692855  1
  O2-  O143  1  0.49989358  0.75981752  0.93856849  1
  O2-  O144  1  0.07481305  0.18218446  0.09759133  1
  O2-  O145  1  0.07223775  0.17997758  0.43150818  1
  O2-  O146  1  0.06988246  0.17884130  0.76599879  1
  O2-  O147  1  0.07734678  0.67814773  0.09793642  1
  O2-  O148  1  0.06883823  0.68436305  0.43606132  1
  O2-  O149  1  0.07561068  0.68122499  0.75634960  1
  O2-  O150  1  0.56544812  0.17503837  0.08834693  1
  O2-  O151  1  0.56700325  0.17889097  0.43323714  1
  O2-  O152  1  0.56732013  0.17490627  0.76067261  1
  O2-  O153  1  0.56559553  0.68033665  0.10030904  1
  O2-  O154  1  0.57284647  0.67906608  0.42135081  1
  O2-  O155  1  0.57022897  0.68014905  0.76497204  1
  O2-  O156  1  0.18078974  0.42945911  0.23304734  1
  O2-  O157  1  0.18233623  0.42596547  0.57065800  1
  O2-  O158  1  0.18444752  0.42763023  0.90837895  1
  O2-  O159  1  0.18228930  0.92556681  0.24238548  1
  O2-  O160  1  0.18095262  0.92593241  0.57800302  1
  O2-  O161  1  0.18256647  0.92844513  0.90924388  1
  O2-  O162  1  0.67570601  0.43298406  0.24337868  1
  O2-  O163  1  0.67584466  0.42940059  0.56569156  1
  O2-  O164  1  0.67450554  0.43164327  0.90175825  1
  O2-  O165  1  0.67702609  0.93179855  0.23788029  1
  O2-  O166  1  0.67304945  0.93257323  0.57783632  1
  O2-  O167  1  0.68108986  0.92847073  0.89995549  1
  O2-  O168  1  0.42674679  0.31914348  0.08707220  1
  O2-  O169  1  0.42832853  0.31876167  0.43253368  1
  O2-  O170  1  0.42985530  0.31836933  0.75881556  1
  O2-  O171  1  0.42140065  0.82366497  0.08556066  1
  O2-  O172  1  0.42908039  0.81962034  0.43372834  1
  O2-  O173  1  0.42684976  0.82576622  0.75608316  1
  O2-  O174  1  0.92954131  0.32508391  0.08718501  1
  O2-  O175  1  0.93081625  0.32453536  0.43042216  1
  O2-  O176  1  0.92494938  0.31693890  0.76626537  1
  O2-  O177  1  0.93502309  0.82165666  0.09154482  1
  O2-  O178  1  0.92912717  0.82144328  0.42123081  1
  O2-  O179  1  0.93019144  0.82078973  0.76615999  1
  O2-  O180  1  0.32003546  0.06783438  0.24233982  1
  O2-  O181  1  0.32605169  0.06996978  0.57817549  1
  O2-  O182  1  0.32072734  0.07244467  0.91060654  1
  O2-  O183  1  0.31822759  0.57550499  0.23326710  1
  O2-  O184  1  0.32209468  0.57471224  0.58012435  1
  O2-  O185  1  0.31958728  0.56887064  0.90756962  1
  O2-  O186  1  0.82352532  0.06839535  0.23837895  1
  O2-  O187  1  0.81944104  0.06886830  0.57659864  1
  O2-  O188  1  0.82428760  0.06755104  0.89998919  1
  O2-  O189  1  0.82138619  0.57000199  0.23555977  1
  O2-  O190  1  0.81946380  0.57526394  0.57695666  1
  O2-  O191  1  0.82046162  0.57001782  0.90002826  1
  O2-  O192  1  0.04581210  0.07669024  0.26744388  1
  O2-  O193  1  0.04879421  0.07998242  0.60097736  1
  O2-  O194  1  0.04596730  0.07928342  0.93336092  1
  O2-  O195  1  0.04095375  0.58449106  0.26911824  1
  O2-  O196  1  0.05549484  0.58190086  0.60848601  1
  O2-  O197  1  0.04388964  0.57830121  0.93072447  1
  O2-  O198  1  0.53364949  0.08450490  0.26463787  1
  O2-  O199  1  0.53842565  0.08649133  0.60801800  1
  O2-  O200  1  0.53699172  0.08870176  0.93418427  1
  O2-  O201  1  0.55104535  0.58511131  0.26888130  1
  O2-  O202  1  0.53783754  0.58266363  0.59689905  1
  O2-  O203  1  0.53348488  0.58632262  0.93182298  1
  O2-  O204  1  0.16982058  0.20358091  0.26546828  1
  O2-  O205  1  0.17495436  0.20354087  0.60513851  1
  O2-  O206  1  0.16631454  0.21258995  0.93029376  1
  O2-  O207  1  0.16340178  0.71555918  0.26764029  1
  O2-  O208  1  0.16783000  0.70945299  0.60664735  1
  O2-  O209  1  0.16622084  0.71028349  0.92742143  1
  O2-  O210  1  0.67074211  0.19993514  0.26594585  1
  O2-  O211  1  0.66442451  0.19943332  0.61004552  1
  O2-  O212  1  0.66497125  0.20011179  0.93870627  1
  O2-  O213  1  0.66763297  0.70745403  0.27137743  1
  O2-  O214  1  0.66433998  0.70913392  0.59522906  1
  O2-  O215  1  0.66837190  0.70931432  0.93369948  1
  O2-  O216  1  0.08528419  0.44678851  0.05663348  1
  O2-  O217  1  0.08477548  0.46060359  0.40187076  1
  O2-  O218  1  0.08225760  0.45733765  0.73921238  1
  O2-  O219  1  0.09022188  0.95346326  0.06310071  1
  O2-  O220  1  0.08513884  0.94883316  0.39428416  1
  O2-  O221  1  0.08614312  0.95510421  0.73058207  1
  O2-  O222  1  0.57580303  0.46024367  0.06709719  1
  O2-  O223  1  0.58367972  0.45507368  0.39504808  1
  O2-  O224  1  0.58215152  0.45939793  0.73262493  1
  O2-  O225  1  0.57648089  0.95395663  0.06262495  1
  O2-  O226  1  0.57715604  0.95992243  0.40285079  1
  O2-  O227  1  0.58706241  0.95607342  0.73225387  1
  O2-  O228  1  0.21711833  0.33933141  0.06018249  1
  O2-  O229  1  0.21061083  0.32896998  0.40002703  1
  O2-  O230  1  0.21578860  0.33411606  0.73903182  1
  O2-  O231  1  0.21106714  0.83563129  0.06033776  1
  O2-  O232  1  0.21290370  0.83972365  0.39824213  1
  O2-  O233  1  0.20900108  0.83927635  0.73418916  1
  O2-  O234  1  0.69331033  0.32808992  0.06606254  1
  O2-  O235  1  0.69781635  0.33262147  0.39118131  1
  O2-  O236  1  0.70718199  0.33101080  0.73407794  1
  O2-  O237  1  0.70498572  0.83087201  0.06910126  1
  O2-  O238  1  0.70408883  0.83265108  0.40523561  1
  O2-  O239  1  0.70801084  0.83559832  0.72507832  1
  O2-  O240  1  0.45287658  0.42354277  0.26543813  1
  O2-  O241  1  0.45459659  0.41225616  0.60616721  1
  O2-  O242  1  0.45244038  0.41358560  0.93450274  1
  O2-  O243  1  0.45701902  0.91558208  0.26414667  1
  O2-  O244  1  0.45521492  0.91711027  0.60491864  1
  O2-  O245  1  0.44633961  0.92111810  0.93613793  1
  O2-  O246  1  0.96231839  0.41956707  0.26336421  1
  O2-  O247  1  0.95302017  0.42332507  0.60457299  1
  O2-  O248  1  0.95475007  0.41149733  0.93188687  1
  O2-  O249  1  0.95283463  0.91489605  0.27018743  1
  O2-  O250  1  0.96427010  0.91282472  0.59533157  1
  O2-  O251  1  0.96168948  0.91096104  0.93744360  1
  O2-  O252  1  0.33379277  0.28977046  0.26290124  1
  O2-  O253  1  0.34055077  0.28782929  0.60663014  1
  O2-  O254  1  0.34074621  0.28642991  0.93227258  1
  O2-  O255  1  0.33377346  0.78994013  0.26372501  1
  O2-  O256  1  0.33266246  0.80125458  0.60611756  1
  O2-  O257  1  0.33595314  0.79529300  0.93012902  1
  O2-  O258  1  0.82921758  0.29999183  0.26421389  1
  O2-  O259  1  0.82978366  0.29126912  0.59894570  1
  O2-  O260  1  0.82838071  0.29937706  0.94024317  1
  O2-  O261  1  0.83015582  0.79843091  0.27350367  1
  O2-  O262  1  0.83374528  0.79329411  0.59495584  1
  O2-  O263  1  0.83538162  0.79826308  0.94140056  1
  O2-  O264  1  0.41162263  0.04733198  0.06432500  1
  O2-  O265  1  0.40873059  0.03757886  0.39677398  1
  O2-  O266  1  0.41149681  0.03885635  0.73459628  1
  O2-  O267  1  0.40749582  0.54044101  0.06131153  1
  O2-  O268  1  0.42338253  0.55182985  0.39789875  1
  O2-  O269  1  0.41438214  0.54242224  0.73155654  1
  O2-  O270  1  0.92209943  0.03987161  0.06750917  1
  O2-  O271  1  0.92038894  0.04120053  0.40545647  1
  O2-  O272  1  0.91443599  0.03820578  0.72587000  1
  O2-  O273  1  0.92184789  0.53917082  0.06519906  1
  O2-  O274  1  0.91732102  0.54032329  0.40392865  1
  O2-  O275  1  0.91708311  0.55589491  0.72698856  1
  O2-  O276  1  0.28970055  0.16405661  0.06222621  1
  O2-  O277  1  0.29601886  0.16251253  0.39522584  1
  O2-  O278  1  0.29836266  0.16219158  0.73351081  1
  O2-  O279  1  0.29608160  0.66710721  0.05600861  1
  O2-  O280  1  0.28983694  0.67044881  0.40228489  1
  O2-  O281  1  0.30107119  0.66856523  0.73176900  1
  O2-  O282  1  0.79894969  0.16976257  0.06640419  1
  O2-  O283  1  0.79450589  0.17289548  0.40219767  1
  O2-  O284  1  0.79483295  0.15990505  0.72999121  1
  O2-  O285  1  0.79689272  0.66769842  0.06724967  1
  O2-  O286  1  0.79179737  0.66640862  0.40324476  1
  O2-  O287  1  0.79122415  0.66782436  0.72735698  1
