# generated using pymatgen
data_Ca2Al2SiO7
_symmetry_space_group_name_H-M   'P 1'
_cell_length_a   15.45303627
_cell_length_b   15.45372469
_cell_length_c   15.28004378
_cell_angle_alpha   89.99933058
_cell_angle_beta   89.99827147
_cell_angle_gamma   89.99417753
_symmetry_Int_Tables_number   1
_chemical_formula_structural   Ca2Al2SiO7
_chemical_formula_sum   'Ca48 Al48 Si24 O168'
_cell_volume   3648.98090679
_cell_formula_units_Z   24
loop_
 _symmetry_equiv_pos_site_id
 _symmetry_equiv_pos_as_xyz
  1  'x, y, z'
loop_
 _atom_type_symbol
 _atom_type_oxidation_number
  Ca2+  2.0
  Al0+  0.0
  Si0+  0.0
  O2-  -2.0
loop_
 _atom_site_type_symbol
 _atom_site_label
 _atom_site_symmetry_multiplicity
 _atom_site_fract_x
 _atom_site_fract_y
 _atom_site_fract_z
 _atom_site_occupancy
  Ca2+  Ca0  1  0.17704655  0.09106821  0.17397906  1
  Ca2+  Ca1  1  0.16839926  0.07983434  0.50285836  1
  Ca2+  Ca2  1  0.17336608  0.07671124  0.83771598  1
  Ca2+  Ca3  1  0.17239133  0.58305871  0.16552944  1
  Ca2+  Ca4  1  0.17085144  0.58668390  0.50452888  1
  Ca2+  Ca5  1  0.16900781  0.58201212  0.84249376  1
  Ca2+  Ca6  1  0.66614623  0.07759990  0.17036461  1
  Ca2+  Ca7  1  0.66932274  0.09073588  0.50607967  1
  Ca2+  Ca8  1  0.66792235  0.08229406  0.83502819  1
  Ca2+  Ca9  1  0.66201461  0.57053541  0.17538449  1
  Ca2+  Ca10  1  0.66960161  0.57952728  0.50069245  1
  Ca2+  Ca11  1  0.67498900  0.57646369  0.83929575  1
  Ca2+  Ca12  1  0.08360432  0.33093417  0.16004897  1
  Ca2+  Ca13  1  0.07537256  0.32811050  0.49693592  1
  Ca2+  Ca14  1  0.07313479  0.34094864  0.83091247  1
  Ca2+  Ca15  1  0.07156447  0.82895298  0.15884597  1
  Ca2+  Ca16  1  0.08055046  0.83208164  0.49785400  1
  Ca2+  Ca17  1  0.08855364  0.82163121  0.82901127  1
  Ca2+  Ca18  1  0.58170116  0.33442896  0.16763607  1
  Ca2+  Ca19  1  0.57668014  0.32620223  0.49357230  1
  Ca2+  Ca20  1  0.57828311  0.32936060  0.82535041  1
  Ca2+  Ca21  1  0.58659840  0.82543735  0.16240257  1
  Ca2+  Ca22  1  0.57819982  0.82761167  0.49598663  1
  Ca2+  Ca23  1  0.57739073  0.83640289  0.83026324  1
  Ca2+  Ca24  1  0.33143379  0.42444056  0.17279981  1
  Ca2+  Ca25  1  0.33970468  0.41709341  0.49911094  1
  Ca2+  Ca26  1  0.32668934  0.41978230  0.84337094  1
  Ca2+  Ca27  1  0.33213102  0.93031113  0.17167866  1
  Ca2+  Ca28  1  0.33126629  0.92108748  0.50707434  1
  Ca2+  Ca29  1  0.33131081  0.91843200  0.83603081  1
  Ca2+  Ca30  1  0.82278903  0.40980553  0.16817938  1
  Ca2+  Ca31  1  0.82667332  0.41596898  0.50825315  1
  Ca2+  Ca32  1  0.83361731  0.41718061  0.83882871  1
  Ca2+  Ca33  1  0.83169725  0.90748052  0.16942197  1
  Ca2+  Ca34  1  0.83424332  0.92239435  0.50628512  1
  Ca2+  Ca35  1  0.82972887  0.92244877  0.83907762  1
  Ca2+  Ca36  1  0.41590259  0.16720585  0.16655316  1
  Ca2+  Ca37  1  0.42383963  0.17529978  0.49147136  1
  Ca2+  Ca38  1  0.42195183  0.17070835  0.82458634  1
  Ca2+  Ca39  1  0.41895889  0.65651215  0.16663662  1
  Ca2+  Ca40  1  0.41825130  0.67137094  0.49357868  1
  Ca2+  Ca41  1  0.41510869  0.67016704  0.82786545  1
  Ca2+  Ca42  1  0.92548612  0.17180246  0.16268159  1
  Ca2+  Ca43  1  0.91915267  0.16722715  0.49768661  1
  Ca2+  Ca44  1  0.91035675  0.17818335  0.82793121  1
  Ca2+  Ca45  1  0.91951947  0.67706642  0.15710601  1
  Ca2+  Ca46  1  0.91990163  0.66870945  0.49776132  1
  Ca2+  Ca47  1  0.92873966  0.66418001  0.82819131  1
  Al0+  Al48  1  0.00011492  0.00162922  -0.00481478  1
  Al0+  Al49  1  -0.00073771  0.00030370  0.32393612  1
  Al0+  Al50  1  -0.00010170  -0.00079228  0.67887358  1
  Al0+  Al51  1  0.00050894  0.50026563  -0.00153673  1
  Al0+  Al52  1  -0.00020209  0.50114393  0.33241905  1
  Al0+  Al53  1  0.00050210  0.50072237  0.65965835  1
  Al0+  Al54  1  0.50241130  -0.00061553  0.00770771  1
  Al0+  Al55  1  0.49972894  0.00039364  0.33577470  1
  Al0+  Al56  1  0.50001935  -0.00067909  0.65830193  1
  Al0+  Al57  1  0.50121615  0.49898421  0.00384697  1
  Al0+  Al58  1  0.49973459  0.50005491  0.33657248  1
  Al0+  Al59  1  0.50058224  0.50047908  0.66482718  1
  Al0+  Al60  1  0.25129883  0.25071526  0.00525245  1
  Al0+  Al61  1  0.24954815  0.25110802  0.33286134  1
  Al0+  Al62  1  0.24901544  0.25069494  0.66460411  1
  Al0+  Al63  1  0.25117716  0.75219918  0.00266326  1
  Al0+  Al64  1  0.24880253  0.75046458  0.33616184  1
  Al0+  Al65  1  0.24989027  0.75002793  0.66187516  1
  Al0+  Al66  1  0.75036576  0.24830407  0.00097884  1
  Al0+  Al67  1  0.74823944  0.24846974  0.33443352  1
  Al0+  Al68  1  0.74979961  0.25017112  0.66433219  1
  Al0+  Al69  1  0.74870396  0.75062735  -0.00255346  1
  Al0+  Al70  1  0.74846374  0.74912267  0.32759892  1
  Al0+  Al71  1  0.75150375  0.74949638  0.67289182  1
  Al0+  Al72  1  0.17991920  0.92776209  0.68055402  1
  Al0+  Al73  1  0.32139354  0.07248019  0.35014067  1
  Al0+  Al74  1  0.68036878  0.42766288  0.01307469  1
  Al0+  Al75  1  0.57239389  0.17721913  0.31520523  1
  Al0+  Al76  1  0.06963566  0.17989133  0.32117494  1
  Al0+  Al77  1  0.68029871  0.42765825  0.34936036  1
  Al0+  Al78  1  0.31944382  0.57075554  0.34976042  1
  Al0+  Al79  1  0.42916441  0.81938828  0.65384369  1
  Al0+  Al80  1  0.82288926  0.57090319  0.68014530  1
  Al0+  Al81  1  0.42586270  0.32331035  0.65249279  1
  Al0+  Al82  1  0.57054625  0.17913711  0.65235006  1
  Al0+  Al83  1  0.92927624  0.31874243  0.98724598  1
  Al0+  Al84  1  0.68082279  0.92907104  0.01397221  1
  Al0+  Al85  1  0.92973962  0.32087441  0.65284836  1
  Al0+  Al86  1  0.32181583  0.57314772  0.01420066  1
  Al0+  Al87  1  0.92566566  0.82286187  0.98024535  1
  Al0+  Al88  1  0.92977600  0.81997548  0.32128813  1
  Al0+  Al89  1  0.56878971  0.68039385  0.32033025  1
  Al0+  Al90  1  0.07172867  0.68111158  0.98501037  1
  Al0+  Al91  1  0.42969179  0.32135497  0.31591511  1
  Al0+  Al92  1  0.32130196  0.07027149  0.01248717  1
  Al0+  Al93  1  0.17685299  0.42958923  0.01479932  1
  Al0+  Al94  1  0.82045487  0.07200558  0.68030481  1
  Al0+  Al95  1  0.07083608  0.67940891  0.65092726  1
  Si0+  Si96  1  0.82205352  0.57163180  0.01626091  1
  Si0+  Si97  1  0.17552482  0.42787521  0.35271750  1
  Si0+  Si98  1  0.17650650  0.93044423  0.34868844  1
  Si0+  Si99  1  0.56978996  0.67597829  0.98411663  1
  Si0+  Si100  1  0.17878130  0.42874923  0.67956011  1
  Si0+  Si101  1  0.07129587  0.17522718  0.65257313  1
  Si0+  Si102  1  0.92765452  0.82296550  0.65195218  1
  Si0+  Si103  1  0.67946594  0.92620368  0.34899955  1
  Si0+  Si104  1  0.92691496  0.32319791  0.31744053  1
  Si0+  Si105  1  0.32248976  0.07194252  0.68185344  1
  Si0+  Si106  1  0.07639020  0.17910938  0.98119824  1
  Si0+  Si107  1  0.43187348  0.82265514  0.98753789  1
  Si0+  Si108  1  0.67849251  0.42894068  0.68375983  1
  Si0+  Si109  1  0.82278958  0.07221552  0.01814589  1
  Si0+  Si110  1  0.17722261  0.92858105  0.01789556  1
  Si0+  Si111  1  0.32115560  0.57075084  0.67999724  1
  Si0+  Si112  1  0.57480200  0.67793357  0.65158061  1
  Si0+  Si113  1  0.67649969  0.92748352  0.68230129  1
  Si0+  Si114  1  0.42567799  0.82244874  0.31589283  1
  Si0+  Si115  1  0.82149953  0.57341583  0.34858742  1
  Si0+  Si116  1  0.82122354  0.06865389  0.34661950  1
  Si0+  Si117  1  0.56962964  0.17760815  0.98566692  1
  Si0+  Si118  1  0.07374050  0.67716172  0.31535589  1
  Si0+  Si119  1  0.42966768  0.32165380  0.98562892  1
  O2-  O120  1  0.24224340  0.00084874  0.06129188  1
  O2-  O121  1  0.24770877  -0.00452166  0.39472620  1
  O2-  O122  1  0.25437521  0.00335945  0.72713022  1
  O2-  O123  1  0.24907883  0.50173451  0.06382337  1
  O2-  O124  1  0.24268534  0.49819390  0.39726861  1
  O2-  O125  1  0.25443284  0.49557321  0.72130394  1
  O2-  O126  1  0.76063189  -0.00243268  0.06235710  1
  O2-  O127  1  0.74794796  0.00012353  0.39023770  1
  O2-  O128  1  0.74457718  -0.00271333  0.72554255  1
  O2-  O129  1  0.75429969  0.50266752  0.06116210  1
  O2-  O130  1  0.75883250  0.49985010  0.39392877  1
  O2-  O131  1  0.74746768  0.49729336  0.72797360  1
  O2-  O132  1  -0.00134376  0.25790955  0.27370729  1
  O2-  O133  1  0.00213078  0.24317360  0.60774194  1
  O2-  O134  1  0.00604853  0.24668752  0.93817508  1
  O2-  O135  1  0.00260862  0.74409074  0.27346449  1
  O2-  O136  1  -0.00490978  0.75431536  0.60594938  1
  O2-  O137  1  -0.00002922  0.75222972  0.93210121  1
  O2-  O138  1  0.49978094  0.24788527  0.26426154  1
  O2-  O139  1  0.49689066  0.24988042  0.60392878  1
  O2-  O140  1  0.49970693  0.24964330  0.94324866  1
  O2-  O141  1  0.49328837  0.75329281  0.27101842  1
  O2-  O142  1  0.50561100  0.74624170  0.60786600  1
  O2-  O143  1  0.49782024  0.74716283  0.94358779  1
  O2-  O144  1  0.07536556  0.17939758  0.08705046  1
  O2-  O145  1  0.06491993  0.17729501  0.43458834  1
  O2-  O146  1  0.07379595  0.17782711  0.75794577  1
  O2-  O147  1  0.07041600  0.68335638  0.09882823  1
  O2-  O148  1  0.07339418  0.67812389  0.42113771  1
  O2-  O149  1  0.07323647  0.67877858  0.76360664  1
  O2-  O150  1  0.56922469  0.17676824  0.09033829  1
  O2-  O151  1  0.57363148  0.17878106  0.42853198  1
  O2-  O152  1  0.56875459  0.17896240  0.76697125  1
  O2-  O153  1  0.57025280  0.67595895  0.08909584  1
  O2-  O154  1  0.57096083  0.68451143  0.43369171  1
  O2-  O155  1  0.57268630  0.67672491  0.75751073  1
  O2-  O156  1  0.17381042  0.42865961  0.24735146  1
  O2-  O157  1  0.17710091  0.42974631  0.57460770  1
  O2-  O158  1  0.17993790  0.42873935  0.90042753  1
  O2-  O159  1  0.17702104  0.93173226  0.24310330  1
  O2-  O160  1  0.17882929  0.93016512  0.56721745  1
  O2-  O161  1  0.18184160  0.92679380  0.91218969  1
  O2-  O162  1  0.68240717  0.42885230  0.23590479  1
  O2-  O163  1  0.67900541  0.43045496  0.57830288  1
  O2-  O164  1  0.67900247  0.42943881  0.89976313  1
  O2-  O165  1  0.68179548  0.92469926  0.24388930  1
  O2-  O166  1  0.67875872  0.92401960  0.57667826  1
  O2-  O167  1  0.67463463  0.93448792  0.90095940  1
  O2-  O168  1  0.43060378  0.32215734  0.09014688  1
  O2-  O169  1  0.43214957  0.31989206  0.42959746  1
  O2-  O170  1  0.42640608  0.32286708  0.76705434  1
  O2-  O171  1  0.43517487  0.82444353  0.09226450  1
  O2-  O172  1  0.42742987  0.82088890  0.42177058  1
  O2-  O173  1  0.43045679  0.81857448  0.76776069  1
  O2-  O174  1  0.92808823  0.31459953  0.10041475  1
  O2-  O175  1  0.92728255  0.32149073  0.42321276  1
  O2-  O176  1  0.93107043  0.32091401  0.76602221  1
  O2-  O177  1  0.92659934  0.81900403  0.09435752  1
  O2-  O178  1  0.93053326  0.82195574  0.43465631  1
  O2-  O179  1  0.92772833  0.82129064  0.75689301  1
  O2-  O180  1  0.31947649  0.06985883  0.23665800  1
  O2-  O181  1  0.32010268  0.07090467  0.57659204  1
  O2-  O182  1  0.32300230  0.06739462  0.89894117  1
  O2-  O183  1  0.31734770  0.57021493  0.23691619  1
  O2-  O184  1  0.31964298  0.57192387  0.57508758  1
  O2-  O185  1  0.32389853  0.57115720  0.89984814  1
  O2-  O186  1  0.82158822  0.06715509  0.24161822  1
  O2-  O187  1  0.82264080  0.06845380  0.56664608  1
  O2-  O188  1  0.81713500  0.07539223  0.91263999  1
  O2-  O189  1  0.81943495  0.57477681  0.24310201  1
  O2-  O190  1  0.82076391  0.57096763  0.56680193  1
  O2-  O191  1  0.82006865  0.56976819  0.91039085  1
  O2-  O192  1  0.03680054  0.08705520  0.26112682  1
  O2-  O193  1  0.04425319  0.08096743  0.60900797  1
  O2-  O194  1  0.05326150  0.08447503  0.93618834  1
  O2-  O195  1  0.05091984  0.58242849  0.27045022  1
  O2-  O196  1  0.03989985  0.58498071  0.59342223  1
  O2-  O197  1  0.04482036  0.58190013  0.93256725  1
  O2-  O198  1  0.54557187  0.07654535  0.26556727  1
  O2-  O199  1  0.54775342  0.08052056  0.59771707  1
  O2-  O200  1  0.53948062  0.08606674  0.93893236  1
  O2-  O201  1  0.53798546  0.58399144  0.26724368  1
  O2-  O202  1  0.54992749  0.58473032  0.60497805  1
  O2-  O203  1  0.54214575  0.58468042  0.93531534  1
  O2-  O204  1  0.16591041  0.20946812  0.26707327  1
  O2-  O205  1  0.16415967  0.20118932  0.60503004  1
  O2-  O206  1  0.17036698  0.20470319  0.93581087  1
  O2-  O207  1  0.16657071  0.70541894  0.26976956  1
  O2-  O208  1  0.16561345  0.71219759  0.59516178  1
  O2-  O209  1  0.17157747  0.71060338  0.93327120  1
  O2-  O210  1  0.67174786  0.20472509  0.26317562  1
  O2-  O211  1  0.66798875  0.20859891  0.59889958  1
  O2-  O212  1  0.66176242  0.20501797  0.93901692  1
  O2-  O213  1  0.66335424  0.71154112  0.26260716  1
  O2-  O214  1  0.66838714  0.70499015  0.60637117  1
  O2-  O215  1  0.66080858  0.70494492  0.93601125  1
  O2-  O216  1  0.07845216  0.45642241  0.06879928  1
  O2-  O217  1  0.08027281  0.45213475  0.39801940  1
  O2-  O218  1  0.08846354  0.46146759  0.72634169  1
  O2-  O219  1  0.08096415  0.95106848  0.05975909  1
  O2-  O220  1  0.08336633  0.96066811  0.39347801  1
  O2-  O221  1  0.08548935  0.95591903  0.73956217  1
  O2-  O222  1  0.58520249  0.45939649  0.06845126  1
  O2-  O223  1  0.58589461  0.46315547  0.40334648  1
  O2-  O224  1  0.58444338  0.45529524  0.72980907  1
  O2-  O225  1  0.58795444  0.96298543  0.07292080  1
  O2-  O226  1  0.58623511  0.94975708  0.39524884  1
  O2-  O227  1  0.58193886  0.95364695  0.72670519  1
  O2-  O228  1  0.20536383  0.33174356  0.06840901  1
  O2-  O229  1  0.20191361  0.33486364  0.39900738  1
  O2-  O230  1  0.20126645  0.33554265  0.72766804  1
  O2-  O231  1  0.20594152  0.83741806  0.06651236  1
  O2-  O232  1  0.19801299  0.83555044  0.39433148  1
  O2-  O233  1  0.21550440  0.83197743  0.73389423  1
  O2-  O234  1  0.71167956  0.33147866  0.06773987  1
  O2-  O235  1  0.70969723  0.33043782  0.40336065  1
  O2-  O236  1  0.70416039  0.33526160  0.72879830  1
  O2-  O237  1  0.70599634  0.82999807  0.06710350  1
  O2-  O238  1  0.71026396  0.83548700  0.39700830  1
  O2-  O239  1  0.70108489  0.83487644  0.73132244  1
  O2-  O240  1  0.46026548  0.41980496  0.26524003  1
  O2-  O241  1  0.45509602  0.42167149  0.59970474  1
  O2-  O242  1  0.45925068  0.41294579  0.93776438  1
  O2-  O243  1  0.45237558  0.91620310  0.27187462  1
  O2-  O244  1  0.45715639  0.91475101  0.59639147  1
  O2-  O245  1  0.46585109  0.91219999  0.93871790  1
  O2-  O246  1  0.94763272  0.41862189  0.27272526  1
  O2-  O247  1  0.96304818  0.41422143  0.59516656  1
  O2-  O248  1  0.95654298  0.41658476  0.93388605  1
  O2-  O249  1  0.96015274  0.91392711  0.26200176  1
  O2-  O250  1  0.95505539  0.91751126  0.60873776  1
  O2-  O251  1  0.94955488  0.92427852  0.93152669  1
  O2-  O252  1  0.32946928  0.29623942  0.26598078  1
  O2-  O253  1  0.32695766  0.29766451  0.59898866  1
  O2-  O254  1  0.33702903  0.29435703  0.93941851  1
  O2-  O255  1  0.33076631  0.79914642  0.27169344  1
  O2-  O256  1  0.33545135  0.78690609  0.59638843  1
  O2-  O257  1  0.33825566  0.80008751  0.94146562  1
  O2-  O258  1  0.83480123  0.29300068  0.27207789  1
  O2-  O259  1  0.83330809  0.29171134  0.59893873  1
  O2-  O260  1  0.83323739  0.28519521  0.93218423  1
  O2-  O261  1  0.83403738  0.78926799  0.26559194  1
  O2-  O262  1  0.83287283  0.79832619  0.60708565  1
  O2-  O263  1  0.82590384  0.79625334  0.92901076  1
  O2-  O264  1  0.41464948  0.03500149  0.06952436  1
  O2-  O265  1  0.41841100  0.04166116  0.40366507  1
  O2-  O266  1  0.41692818  0.04481264  0.72552210  1
  O2-  O267  1  0.41918418  0.54216016  0.06748061  1
  O2-  O268  1  0.41575102  0.54059818  0.40435188  1
  O2-  O269  1  0.41536986  0.54909105  0.72634557  1
  O2-  O270  1  0.92021216  0.05424400  0.05960863  1
  O2-  O271  1  0.91259916  0.03766551  0.39328202  1
  O2-  O272  1  0.91475063  0.04357683  0.73952586  1
  O2-  O273  1  0.91594393  0.54869040  0.06162703  1
  O2-  O274  1  0.91803068  0.55444981  0.39219755  1
  O2-  O275  1  0.91985472  0.53774403  0.73200046  1
  O2-  O276  1  0.29463965  0.16699910  0.06783174  1
  O2-  O277  1  0.28835027  0.16870470  0.40268630  1
  O2-  O278  1  0.29660647  0.16599798  0.72778516  1
  O2-  O279  1  0.29717367  0.67232165  0.06785239  1
  O2-  O280  1  0.29061482  0.66913726  0.40329062  1
  O2-  O281  1  0.28978932  0.66134126  0.72712617  1
  O2-  O282  1  0.79096068  0.16234882  0.06706697  1
  O2-  O283  1  0.79620328  0.16098590  0.39449143  1
  O2-  O284  1  0.78825673  0.16846997  0.73462830  1
  O2-  O285  1  0.79482801  0.66567494  0.05984995  1
  O2-  O286  1  0.78925612  0.66491128  0.39572469  1
  O2-  O287  1  0.79409748  0.66685016  0.73717400  1
