# generated using pymatgen
data_Ca2Al2SiO7
_symmetry_space_group_name_H-M   'P 1'
_cell_length_a   15.45830431
_cell_length_b   15.45757654
_cell_length_c   15.28340094
_cell_angle_alpha   90.00388897
_cell_angle_beta   90.00754400
_cell_angle_gamma   90.00903234
_symmetry_Int_Tables_number   1
_chemical_formula_structural   Ca2Al2SiO7
_chemical_formula_sum   'Ca48 Al48 Si24 O168'
_cell_volume   3651.93681143
_cell_formula_units_Z   24
loop_
 _symmetry_equiv_pos_site_id
 _symmetry_equiv_pos_as_xyz
  1  'x, y, z'
loop_
 _atom_type_symbol
 _atom_type_oxidation_number
  Ca2+  2.0
  Al0+  0.0
  Si0+  0.0
  O2-  -2.0
loop_
 _atom_site_type_symbol
 _atom_site_label
 _atom_site_symmetry_multiplicity
 _atom_site_fract_x
 _atom_site_fract_y
 _atom_site_fract_z
 _atom_site_occupancy
  Ca2+  Ca0  1  0.16138975  0.07224607  0.17216881  1
  Ca2+  Ca1  1  0.15642260  0.07531243  0.50359588  1
  Ca2+  Ca2  1  0.15634131  0.07405396  0.83493840  1
  Ca2+  Ca3  1  0.16883424  0.58610383  0.16859693  1
  Ca2+  Ca4  1  0.17306982  0.59259501  0.49962494  1
  Ca2+  Ca5  1  0.17241724  0.57562712  0.84763412  1
  Ca2+  Ca6  1  0.67609383  0.07531925  0.16853716  1
  Ca2+  Ca7  1  0.66357067  0.07205781  0.50572632  1
  Ca2+  Ca8  1  0.66616808  0.07765341  0.84051901  1
  Ca2+  Ca9  1  0.66845202  0.58401120  0.16259779  1
  Ca2+  Ca10  1  0.67734973  0.58355588  0.50752650  1
  Ca2+  Ca11  1  0.67920197  0.57849995  0.84367052  1
  Ca2+  Ca12  1  0.08143957  0.32791191  0.15779248  1
  Ca2+  Ca13  1  0.08077765  0.32185413  0.49776857  1
  Ca2+  Ca14  1  0.07324985  0.33305664  0.82784237  1
  Ca2+  Ca15  1  0.08790694  0.82566167  0.16317697  1
  Ca2+  Ca16  1  0.07695731  0.83393448  0.48708498  1
  Ca2+  Ca17  1  0.08720607  0.83041816  0.83319312  1
  Ca2+  Ca18  1  0.58475666  0.33584169  0.15820070  1
  Ca2+  Ca19  1  0.58069856  0.32781618  0.50134040  1
  Ca2+  Ca20  1  0.58083897  0.33099866  0.82643182  1
  Ca2+  Ca21  1  0.57876619  0.83471807  0.16030625  1
  Ca2+  Ca22  1  0.57908064  0.83816059  0.49169674  1
  Ca2+  Ca23  1  0.59220333  0.83021536  0.83233434  1
  Ca2+  Ca24  1  0.32937797  0.43087828  0.16759826  1
  Ca2+  Ca25  1  0.33449421  0.42132248  0.50277121  1
  Ca2+  Ca26  1  0.32799579  0.41694989  0.84279104  1
  Ca2+  Ca27  1  0.32300259  0.90902111  0.17105244  1
  Ca2+  Ca28  1  0.32021545  0.91112464  0.50172798  1
  Ca2+  Ca29  1  0.32155813  0.91952091  0.83707167  1
  Ca2+  Ca30  1  0.83553508  0.41968275  0.16087730  1
  Ca2+  Ca31  1  0.84051225  0.42482006  0.50697174  1
  Ca2+  Ca32  1  0.83580541  0.42066253  0.84267226  1
  Ca2+  Ca33  1  0.82498937  0.91052003  0.16926004  1
  Ca2+  Ca34  1  0.82364340  0.90979232  0.50436838  1
  Ca2+  Ca35  1  0.82328969  0.92719382  0.84157600  1
  Ca2+  Ca36  1  0.41944393  0.16708817  0.16282696  1
  Ca2+  Ca37  1  0.41970569  0.16844083  0.50154542  1
  Ca2+  Ca38  1  0.42355767  0.17416588  0.82287647  1
  Ca2+  Ca39  1  0.41678920  0.66744058  0.16098060  1
  Ca2+  Ca40  1  0.41823485  0.67356108  0.49006513  1
  Ca2+  Ca41  1  0.42393223  0.66139810  0.83647815  1
  Ca2+  Ca42  1  0.91830222  0.16836950  0.16045673  1
  Ca2+  Ca43  1  0.92611164  0.16699926  0.49833212  1
  Ca2+  Ca44  1  0.91324240  0.17801960  0.82949783  1
  Ca2+  Ca45  1  0.92534168  0.67081396  0.16052199  1
  Ca2+  Ca46  1  0.92248978  0.67213355  0.49202996  1
  Ca2+  Ca47  1  0.92113059  0.65813300  0.83256251  1
  Al0+  Al48  1  -0.00014621  -0.00120658  0.00709737  1
  Al0+  Al49  1  -0.00292388  0.00201947  0.32901956  1
  Al0+  Al50  1  -0.00355404  -0.00218959  0.66889851  1
  Al0+  Al51  1  0.00052987  0.49900601  0.00038130  1
  Al0+  Al52  1  0.00017747  0.49816523  0.33138016  1
  Al0+  Al53  1  0.00406851  0.50136468  0.66440124  1
  Al0+  Al54  1  0.49803998  0.00027483  0.00114821  1
  Al0+  Al55  1  0.49999394  0.00101823  0.33140975  1
  Al0+  Al56  1  0.49683853  -0.00178023  0.66782779  1
  Al0+  Al57  1  0.50011653  0.50174201  0.00167626  1
  Al0+  Al58  1  0.49940430  0.49925431  0.33936600  1
  Al0+  Al59  1  0.50219092  0.50198483  0.66131107  1
  Al0+  Al60  1  0.25033168  0.24866768  0.00207681  1
  Al0+  Al61  1  0.25080240  0.25098201  0.32880391  1
  Al0+  Al62  1  0.25053301  0.25026242  0.65834690  1
  Al0+  Al63  1  0.25079021  0.75123618  -0.00055373  1
  Al0+  Al64  1  0.25180776  0.75033988  0.33488540  1
  Al0+  Al65  1  0.25183909  0.75004138  0.67297913  1
  Al0+  Al66  1  0.75070001  0.24921540  0.00316099  1
  Al0+  Al67  1  0.74924529  0.24944088  0.33554866  1
  Al0+  Al68  1  0.74891763  0.25069397  0.65489372  1
  Al0+  Al69  1  0.74930327  0.75006305  0.00197242  1
  Al0+  Al70  1  0.74968938  0.74788057  0.33439579  1
  Al0+  Al71  1  0.75166409  0.74859458  0.67534613  1
  Al0+  Al72  1  0.42857936  0.32385610  0.65077733  1
  Al0+  Al73  1  0.92896657  0.32468086  0.65064311  1
  Al0+  Al74  1  0.67703061  0.92832333  0.01597365  1
  Al0+  Al75  1  0.17922678  0.93121041  0.34674616  1
  Al0+  Al76  1  0.06922033  0.17616178  0.65294291  1
  Al0+  Al77  1  0.57126238  0.67987043  0.98579093  1
  Al0+  Al78  1  0.17981715  0.92983958  0.01471467  1
  Al0+  Al79  1  0.82351843  0.57182495  0.01650315  1
  Al0+  Al80  1  0.82078550  0.07189554  0.01482151  1
  Al0+  Al81  1  0.67975572  0.92881936  0.34728358  1
  Al0+  Al82  1  0.07113375  0.17966020  0.31724136  1
  Al0+  Al83  1  0.92996373  0.31901520  0.98709771  1
  Al0+  Al84  1  0.17737125  0.42665128  0.01434559  1
  Al0+  Al85  1  0.31966564  0.57056258  0.34902468  1
  Al0+  Al86  1  0.43065318  0.82147306  0.32022458  1
  Al0+  Al87  1  0.67905476  0.42878742  0.01248760  1
  Al0+  Al88  1  0.57108171  0.17582645  0.65121014  1
  Al0+  Al89  1  0.32124422  0.57059234  0.01405169  1
  Al0+  Al90  1  0.17642007  0.92916511  0.68039043  1
  Al0+  Al91  1  0.67647511  0.92977813  0.68112618  1
  Al0+  Al92  1  0.92562135  0.82151833  0.31825979  1
  Al0+  Al93  1  0.07113060  0.68036772  0.98486190  1
  Al0+  Al94  1  0.07185303  0.67959544  0.31880203  1
  Al0+  Al95  1  0.82360017  0.56879336  0.68037975  1
  Si0+  Si96  1  0.82141197  0.56886014  0.34854638  1
  Si0+  Si97  1  0.32278912  0.07294426  0.01649770  1
  Si0+  Si98  1  0.57332559  0.68124638  0.65165900  1
  Si0+  Si99  1  0.43053780  0.32288098  0.31585657  1
  Si0+  Si100  1  0.92635267  0.32183677  0.31496507  1
  Si0+  Si101  1  0.32266710  0.07495616  0.35054484  1
  Si0+  Si102  1  0.07410917  0.68052991  0.65277582  1
  Si0+  Si103  1  0.57034317  0.17890821  0.98693522  1
  Si0+  Si104  1  0.42771083  0.81874094  0.65229015  1
  Si0+  Si105  1  0.42792432  0.82380104  0.98006637  1
  Si0+  Si106  1  0.32030786  0.07310820  0.68191798  1
  Si0+  Si107  1  0.32332997  0.57167592  0.68240987  1
  Si0+  Si108  1  0.82059011  0.07411283  0.35324918  1
  Si0+  Si109  1  0.67786415  0.42729354  0.35115309  1
  Si0+  Si110  1  0.92736694  0.82297569  0.98170205  1
  Si0+  Si111  1  0.57076436  0.17982692  0.31615651  1
  Si0+  Si112  1  0.67802163  0.42795872  0.68036038  1
  Si0+  Si113  1  0.18230565  0.42843804  0.67934514  1
  Si0+  Si114  1  0.17754362  0.42652755  0.35152723  1
  Si0+  Si115  1  0.57197494  0.67583801  0.31817682  1
  Si0+  Si116  1  0.92846771  0.81866591  0.65466296  1
  Si0+  Si117  1  0.42925992  0.32125606  0.98722565  1
  Si0+  Si118  1  0.07334211  0.17555866  0.98374318  1
  Si0+  Si119  1  0.82033914  0.07332625  0.68109669  1
  O2-  O120  1  0.25317771  0.00597608  0.06053793  1
  O2-  O121  1  0.25204320  0.00811087  0.39468463  1
  O2-  O122  1  0.24714154  0.00900265  0.72576596  1
  O2-  O123  1  0.24621785  0.50187892  0.06396740  1
  O2-  O124  1  0.24286568  0.49819179  0.39710884  1
  O2-  O125  1  0.25626655  0.49634858  0.72211125  1
  O2-  O126  1  0.75210465  -0.00313528  0.06542781  1
  O2-  O127  1  0.75575253  0.00096240  0.39652519  1
  O2-  O128  1  0.74591176  0.01047359  0.72494565  1
  O2-  O129  1  0.74953106  0.50063642  0.06527297  1
  O2-  O130  1  0.75072030  0.49725709  0.39160160  1
  O2-  O131  1  0.75208804  0.48982089  0.72460243  1
  O2-  O132  1  -0.00370704  0.25452774  0.27165184  1
  O2-  O133  1  -0.00197926  0.24898444  0.60202713  1
  O2-  O134  1  0.00605678  0.24550230  0.93997530  1
  O2-  O135  1  0.00129900  0.75300895  0.26888433  1
  O2-  O136  1  0.00277459  0.75134093  0.61148504  1
  O2-  O137  1  -0.00533800  0.75302249  0.93616880  1
  O2-  O138  1  0.50102747  0.25176633  0.27301261  1
  O2-  O139  1  0.50005126  0.25009520  0.60158173  1
  O2-  O140  1  0.50015417  0.25062644  0.94451384  1
  O2-  O141  1  0.50582172  0.74687168  0.27468260  1
  O2-  O142  1  0.50225284  0.75170786  0.60901771  1
  O2-  O143  1  0.49950843  0.75722138  0.93666282  1
  O2-  O144  1  0.07390694  0.17752919  0.08933369  1
  O2-  O145  1  0.06981129  0.18054796  0.43056619  1
  O2-  O146  1  0.06776602  0.17732953  0.76635380  1
  O2-  O147  1  0.07255553  0.68293022  0.09751408  1
  O2-  O148  1  0.06953682  0.68085716  0.43356135  1
  O2-  O149  1  0.07496833  0.67972560  0.75761756  1
  O2-  O150  1  0.56753036  0.17925312  0.09231982  1
  O2-  O151  1  0.56908333  0.18020317  0.42113171  1
  O2-  O152  1  0.56883221  0.17695727  0.76524074  1
  O2-  O153  1  0.56737994  0.67864623  0.09887067  1
  O2-  O154  1  0.57150718  0.67583413  0.42455742  1
  O2-  O155  1  0.57183016  0.67966353  0.75638515  1
  O2-  O156  1  0.18026010  0.42528971  0.24636283  1
  O2-  O157  1  0.18203458  0.43131247  0.57419293  1
  O2-  O158  1  0.18141345  0.42506726  0.89988186  1
  O2-  O159  1  0.18300556  0.93063290  0.23410627  1
  O2-  O160  1  0.17800131  0.92581670  0.56740110  1
  O2-  O161  1  0.18092092  0.93129830  0.90103695  1
  O2-  O162  1  0.67558530  0.42657267  0.24652284  1
  O2-  O163  1  0.67539637  0.43392258  0.57440377  1
  O2-  O164  1  0.67805393  0.42759945  0.89874838  1
  O2-  O165  1  0.67862517  0.93167626  0.23496026  1
  O2-  O166  1  0.67860087  0.92692471  0.56773998  1
  O2-  O167  1  0.67683701  0.93280170  0.90204614  1
  O2-  O168  1  0.43039056  0.31924229  0.09253562  1
  O2-  O169  1  0.43237452  0.32293210  0.42090619  1
  O2-  O170  1  0.42944179  0.32420002  0.76479907  1
  O2-  O171  1  0.42796819  0.82428850  0.08567288  1
  O2-  O172  1  0.43133222  0.81988318  0.43419240  1
  O2-  O173  1  0.42478638  0.81591280  0.75692805  1
  O2-  O174  1  0.92984410  0.31609787  0.10023193  1
  O2-  O175  1  0.92646807  0.32238948  0.42068388  1
  O2-  O176  1  0.93033508  0.32566953  0.76402268  1
  O2-  O177  1  0.92901381  0.82218686  0.08713648  1
  O2-  O178  1  0.92424974  0.81727019  0.43304762  1
  O2-  O179  1  0.92822659  0.81834218  0.75933209  1
  O2-  O180  1  0.32364636  0.07545430  0.24492842  1
  O2-  O181  1  0.32331232  0.06959703  0.57648650  1
  O2-  O182  1  0.32544626  0.07365589  0.91089998  1
  O2-  O183  1  0.32340144  0.56765507  0.23683050  1
  O2-  O184  1  0.32121350  0.57524051  0.57726825  1
  O2-  O185  1  0.32225049  0.56582217  0.89963181  1
  O2-  O186  1  0.81568200  0.08039729  0.24832714  1
  O2-  O187  1  0.82332083  0.06764298  0.57561179  1
  O2-  O188  1  0.81689382  0.07377173  0.90066256  1
  O2-  O189  1  0.82091890  0.56839579  0.24420670  1
  O2-  O190  1  0.82076022  0.57160836  0.56652477  1
  O2-  O191  1  0.82271688  0.56814830  0.90259418  1
  O2-  O192  1  0.03986934  0.08420250  0.26248783  1
  O2-  O193  1  0.03783278  0.07770036  0.59996900  1
  O2-  O194  1  0.04645248  0.08132634  0.94011836  1
  O2-  O195  1  0.04423831  0.57975438  0.26855674  1
  O2-  O196  1  0.04847722  0.58941957  0.60333097  1
  O2-  O197  1  0.04289472  0.58225454  0.93195716  1
  O2-  O198  1  0.54162200  0.08946179  0.26745538  1
  O2-  O199  1  0.53758751  0.07816903  0.59807408  1
  O2-  O200  1  0.54044735  0.08795611  0.93866288  1
  O2-  O201  1  0.54354171  0.58221435  0.27412460  1
  O2-  O202  1  0.54681750  0.59026674  0.60150744  1
  O2-  O203  1  0.53696213  0.58400281  0.93042061  1
  O2-  O204  1  0.16872186  0.20887105  0.26384194  1
  O2-  O205  1  0.16780483  0.20195080  0.59881430  1
  O2-  O206  1  0.16862194  0.19802524  0.93884221  1
  O2-  O207  1  0.17098049  0.70654172  0.26831878  1
  O2-  O208  1  0.16670115  0.70907771  0.60690883  1
  O2-  O209  1  0.16788339  0.71245088  0.93022093  1
  O2-  O210  1  0.66308854  0.20847372  0.27062818  1
  O2-  O211  1  0.66789710  0.20073312  0.59309205  1
  O2-  O212  1  0.66186760  0.20563231  0.93997114  1
  O2-  O213  1  0.66635355  0.69730785  0.27363494  1
  O2-  O214  1  0.66587690  0.70951441  0.60579537  1
  O2-  O215  1  0.66895955  0.70756635  0.93127435  1
  O2-  O216  1  0.07963595  0.45187891  0.06747658  1
  O2-  O217  1  0.08177677  0.44730437  0.39557926  1
  O2-  O218  1  0.09204211  0.45985756  0.72708344  1
  O2-  O219  1  0.08384891  0.95665386  0.07028510  1
  O2-  O220  1  0.07989891  0.96029145  0.39725893  1
  O2-  O221  1  0.07891409  0.95533105  0.73510847  1
  O2-  O222  1  0.58150205  0.45733789  0.06726999  1
  O2-  O223  1  0.58745151  0.45608120  0.40093570  1
  O2-  O224  1  0.58584589  0.45893258  0.72679905  1
  O2-  O225  1  0.57847969  0.95877652  0.06717248  1
  O2-  O226  1  0.58303236  0.96356366  0.40017137  1
  O2-  O227  1  0.57762856  0.95385365  0.73381585  1
  O2-  O228  1  0.20854032  0.32925195  0.06803646  1
  O2-  O229  1  0.20921034  0.33426641  0.39761536  1
  O2-  O230  1  0.20672027  0.33505965  0.72500625  1
  O2-  O231  1  0.21444059  0.83471727  0.06765350  1
  O2-  O232  1  0.21245082  0.83561108  0.40163233  1
  O2-  O233  1  0.21423128  0.83538563  0.73643480  1
  O2-  O234  1  0.70624587  0.33148617  0.06801449  1
  O2-  O235  1  0.70410347  0.33486509  0.39863443  1
  O2-  O236  1  0.69445731  0.32997621  0.71976515  1
  O2-  O237  1  0.70088970  0.82906836  0.06748242  1
  O2-  O238  1  0.70628887  0.82999840  0.40082874  1
  O2-  O239  1  0.71266478  0.83565478  0.73609292  1
  O2-  O240  1  0.46127062  0.41446712  0.27015557  1
  O2-  O241  1  0.45902782  0.42144755  0.59527421  1
  O2-  O242  1  0.45585608  0.41265043  0.93948553  1
  O2-  O243  1  0.45898725  0.91838421  0.26545573  1
  O2-  O244  1  0.45009286  0.91185558  0.60583273  1
  O2-  O245  1  0.45061100  0.91894118  0.93470904  1
  O2-  O246  1  0.95004408  0.41580279  0.26953731  1
  O2-  O247  1  0.96427351  0.42088401  0.59543175  1
  O2-  O248  1  0.95915445  0.41568522  0.93288196  1
  O2-  O249  1  0.94483739  0.92234793  0.26857027  1
  O2-  O250  1  0.95146272  0.91101250  0.60636407  1
  O2-  O251  1  0.95591950  0.91690410  0.93707489  1
  O2-  O252  1  0.33885378  0.29665740  0.26830121  1
  O2-  O253  1  0.33167033  0.29687684  0.59402024  1
  O2-  O254  1  0.33775992  0.29226461  0.93913233  1
  O2-  O255  1  0.33540927  0.78859468  0.26652535  1
  O2-  O256  1  0.33751368  0.78556111  0.60378377  1
  O2-  O257  1  0.33590774  0.79531156  0.93254626  1
  O2-  O258  1  0.83182439  0.29500556  0.27138379  1
  O2-  O259  1  0.82943424  0.30407327  0.59635365  1
  O2-  O260  1  0.83289602  0.28710860  0.93314465  1
  O2-  O261  1  0.82883096  0.78772905  0.26516890  1
  O2-  O262  1  0.83775648  0.78609712  0.60699874  1
  O2-  O263  1  0.83217803  0.80095897  0.93761696  1
  O2-  O264  1  0.41521282  0.04704243  0.06494477  1
  O2-  O265  1  0.41619464  0.04807708  0.39601069  1
  O2-  O266  1  0.41097144  0.04251384  0.73151470  1
  O2-  O267  1  0.41697655  0.53894069  0.06927819  1
  O2-  O268  1  0.41552993  0.53726557  0.40550881  1
  O2-  O269  1  0.41799316  0.54752642  0.72569471  1
  O2-  O270  1  0.91936525  0.04783875  0.06821699  1
  O2-  O271  1  0.91606077  0.05246467  0.39590603  1
  O2-  O272  1  0.91016537  0.04223994  0.73113196  1
  O2-  O273  1  0.92020288  0.54129780  0.06997279  1
  O2-  O274  1  0.91338658  0.54074842  0.39679073  1
  O2-  O275  1  0.92268554  0.54259082  0.73139742  1
  O2-  O276  1  0.30041327  0.16647392  0.06413664  1
  O2-  O277  1  0.29995241  0.17020324  0.39500569  1
  O2-  O278  1  0.30103528  0.16963443  0.72480325  1
  O2-  O279  1  0.29725241  0.67058338  0.06348722  1
  O2-  O280  1  0.29083088  0.66691533  0.40508015  1
  O2-  O281  1  0.29292098  0.66077413  0.73284011  1
  O2-  O282  1  0.78834492  0.16687297  0.07160444  1
  O2-  O283  1  0.79044154  0.16587646  0.40209460  1
  O2-  O284  1  0.79977163  0.17075103  0.72109373  1
  O2-  O285  1  0.79556456  0.67021384  0.06799536  1
  O2-  O286  1  0.79237874  0.65956696  0.39804155  1
  O2-  O287  1  0.78946115  0.66221015  0.73745198  1
