# generated using pymatgen
data_Ca2Al2SiO7
_symmetry_space_group_name_H-M   'P 1'
_cell_length_a   15.45666816
_cell_length_b   15.45637763
_cell_length_c   15.28319796
_cell_angle_alpha   90.00270472
_cell_angle_beta   90.00405120
_cell_angle_gamma   90.01906414
_symmetry_Int_Tables_number   1
_chemical_formula_structural   Ca2Al2SiO7
_chemical_formula_sum   'Ca48 Al48 Si24 O168'
_cell_volume   3651.21843846
_cell_formula_units_Z   24
loop_
 _symmetry_equiv_pos_site_id
 _symmetry_equiv_pos_as_xyz
  1  'x, y, z'
loop_
 _atom_type_symbol
 _atom_type_oxidation_number
  Ca2+  2.0
  Al0+  0.0
  Si0+  0.0
  O2-  -2.0
loop_
 _atom_site_type_symbol
 _atom_site_label
 _atom_site_symmetry_multiplicity
 _atom_site_fract_x
 _atom_site_fract_y
 _atom_site_fract_z
 _atom_site_occupancy
  Ca2+  Ca0  1  0.15748040  0.07195107  0.17089254  1
  Ca2+  Ca1  1  0.16293094  0.08364134  0.50466425  1
  Ca2+  Ca2  1  0.16778932  0.08352710  0.83532304  1
  Ca2+  Ca3  1  0.17658492  0.57241053  0.17351424  1
  Ca2+  Ca4  1  0.17461388  0.57537088  0.50961482  1
  Ca2+  Ca5  1  0.16588176  0.57819568  0.83935856  1
  Ca2+  Ca6  1  0.66942489  0.08654234  0.16200721  1
  Ca2+  Ca7  1  0.67620806  0.08360455  0.51005871  1
  Ca2+  Ca8  1  0.68057698  0.08010891  0.84277914  1
  Ca2+  Ca9  1  0.67256952  0.58744836  0.16796390  1
  Ca2+  Ca10  1  0.66694696  0.56941370  0.50394995  1
  Ca2+  Ca11  1  0.67148313  0.57940925  0.83886104  1
  Ca2+  Ca12  1  0.09328362  0.32909732  0.16485584  1
  Ca2+  Ca13  1  0.09331251  0.32442156  0.49717342  1
  Ca2+  Ca14  1  0.07767119  0.33412982  0.82182077  1
  Ca2+  Ca15  1  0.08135172  0.83498383  0.15823710  1
  Ca2+  Ca16  1  0.08295996  0.83102402  0.49982327  1
  Ca2+  Ca17  1  0.07485799  0.83097010  0.82684723  1
  Ca2+  Ca18  1  0.57772597  0.33604260  0.16311486  1
  Ca2+  Ca19  1  0.57825472  0.33884391  0.49223391  1
  Ca2+  Ca20  1  0.58591262  0.32880773  0.82915926  1
  Ca2+  Ca21  1  0.58033704  0.82832245  0.15288919  1
  Ca2+  Ca22  1  0.57826634  0.83026944  0.49633374  1
  Ca2+  Ca23  1  0.59038746  0.82657078  0.83391634  1
  Ca2+  Ca24  1  0.32972019  0.42260600  0.17143215  1
  Ca2+  Ca25  1  0.32691205  0.42118976  0.50438564  1
  Ca2+  Ca26  1  0.31775220  0.42522866  0.83662218  1
  Ca2+  Ca27  1  0.31907325  0.91410913  0.16956233  1
  Ca2+  Ca28  1  0.32575305  0.92455059  0.50517484  1
  Ca2+  Ca29  1  0.32533930  0.92201162  0.83690126  1
  Ca2+  Ca30  1  0.82739858  0.42362916  0.16857001  1
  Ca2+  Ca31  1  0.82107737  0.40400439  0.50620588  1
  Ca2+  Ca32  1  0.83208688  0.41760035  0.83627871  1
  Ca2+  Ca33  1  0.83148755  0.91855958  0.16177836  1
  Ca2+  Ca34  1  0.83603472  0.92241374  0.50712433  1
  Ca2+  Ca35  1  0.83910645  0.92403253  0.84126143  1
  Ca2+  Ca36  1  0.42077647  0.17726571  0.15974778  1
  Ca2+  Ca37  1  0.41176514  0.17540517  0.49374124  1
  Ca2+  Ca38  1  0.42264770  0.16252992  0.82896200  1
  Ca2+  Ca39  1  0.42043399  0.65882450  0.15977862  1
  Ca2+  Ca40  1  0.41178843  0.65916418  0.49747166  1
  Ca2+  Ca41  1  0.41574319  0.66001377  0.83323667  1
  Ca2+  Ca42  1  0.91986785  0.16752922  0.16330860  1
  Ca2+  Ca43  1  0.92533779  0.17026836  0.50331204  1
  Ca2+  Ca44  1  0.92011994  0.16789354  0.82349716  1
  Ca2+  Ca45  1  0.91561857  0.67310047  0.15450219  1
  Ca2+  Ca46  1  0.92499402  0.66807751  0.50305722  1
  Ca2+  Ca47  1  0.91654779  0.67722860  0.82677519  1
  Al0+  Al48  1  -0.00027635  0.00142751  0.00350012  1
  Al0+  Al49  1  -0.00135940  0.00015700  0.33378920  1
  Al0+  Al50  1  -0.00088258  0.00064847  0.66257030  1
  Al0+  Al51  1  -0.00104276  0.49856581  0.00976682  1
  Al0+  Al52  1  0.00019232  0.50082364  0.33566110  1
  Al0+  Al53  1  -0.00437091  0.50140082  0.65912559  1
  Al0+  Al54  1  0.50025410  0.00069605  -0.00169180  1
  Al0+  Al55  1  0.50094981  -0.00193766  0.33091613  1
  Al0+  Al56  1  0.49980777  -0.00240124  0.66871334  1
  Al0+  Al57  1  0.49844099  0.49936642  -0.00492274  1
  Al0+  Al58  1  0.50258376  0.49993712  0.33404009  1
  Al0+  Al59  1  0.50061373  0.49830680  0.67512542  1
  Al0+  Al60  1  0.25081597  0.24997812  0.00041590  1
  Al0+  Al61  1  0.25181063  0.24926834  0.32287269  1
  Al0+  Al62  1  0.25233951  0.25054875  0.67211456  1
  Al0+  Al63  1  0.25109155  0.74961520  0.00635528  1
  Al0+  Al64  1  0.24890407  0.75175794  0.34050169  1
  Al0+  Al65  1  0.25202863  0.75119637  0.66589036  1
  Al0+  Al66  1  0.75053282  0.24964580  0.00084351  1
  Al0+  Al67  1  0.75246589  0.24943081  0.33551000  1
  Al0+  Al68  1  0.75028184  0.24650999  0.67180012  1
  Al0+  Al69  1  0.74922570  0.75103768  -0.00195811  1
  Al0+  Al70  1  0.75026927  0.75160746  0.33515940  1
  Al0+  Al71  1  0.74727318  0.74806748  0.65712400  1
  Al0+  Al72  1  0.43121796  0.32133493  0.31934135  1
  Al0+  Al73  1  0.17649342  0.42717575  0.01658595  1
  Al0+  Al74  1  0.82129892  0.06742569  0.68007324  1
  Al0+  Al75  1  0.17713491  0.93074326  0.34934705  1
  Al0+  Al76  1  0.32173735  0.57006842  0.34906888  1
  Al0+  Al77  1  0.32216949  0.07230484  0.67938895  1
  Al0+  Al78  1  0.57126376  0.17953371  0.98487495  1
  Al0+  Al79  1  0.32128109  0.57047726  0.01591523  1
  Al0+  Al80  1  0.92780445  0.82207064  0.65012985  1
  Al0+  Al81  1  0.06964181  0.17997225  0.31771426  1
  Al0+  Al82  1  0.81956776  0.57200357  0.01097556  1
  Al0+  Al83  1  0.93069882  0.82104067  0.98722885  1
  Al0+  Al84  1  0.68017312  0.42786481  0.68200323  1
  Al0+  Al85  1  0.17880606  0.42544400  0.34963299  1
  Al0+  Al86  1  0.32065091  0.57277192  0.68391180  1
  Al0+  Al87  1  0.17967098  0.93127733  0.01136379  1
  Al0+  Al88  1  0.07349410  0.67847603  0.65190112  1
  Al0+  Al89  1  0.57029562  0.67894328  0.98529860  1
  Al0+  Al90  1  0.92617726  0.32219803  0.65271565  1
  Al0+  Al91  1  0.17541383  0.42956940  0.68038295  1
  Al0+  Al92  1  0.68255180  0.43032832  0.34486377  1
  Al0+  Al93  1  0.67875075  0.92895631  0.01381325  1
  Al0+  Al94  1  0.07392083  0.18156329  0.65319423  1
  Al0+  Al95  1  0.82215894  0.07293299  0.01716469  1
  Si0+  Si96  1  0.82275702  0.57602154  0.35167648  1
  Si0+  Si97  1  0.92548847  0.32302097  0.31522962  1
  Si0+  Si98  1  0.17806758  0.92951702  0.68259364  1
  Si0+  Si99  1  0.42538709  0.82245012  0.98277959  1
  Si0+  Si100  1  0.92889998  0.82010003  0.31613966  1
  Si0+  Si101  1  0.32395744  0.07051577  0.34619373  1
  Si0+  Si102  1  0.56896831  0.67652978  0.64950240  1
  Si0+  Si103  1  0.57541814  0.17611508  0.31792645  1
  Si0+  Si104  1  0.92921384  0.32231633  0.98720864  1
  Si0+  Si105  1  0.07244092  0.67674858  0.98788377  1
  Si0+  Si106  1  0.67794862  0.42758580  0.01546348  1
  Si0+  Si107  1  0.57083460  0.17669325  0.65233646  1
  Si0+  Si108  1  0.07219313  0.67953132  0.31749700  1
  Si0+  Si109  1  0.81947069  0.06981868  0.34989048  1
  Si0+  Si110  1  0.67750888  0.92757008  0.34894568  1
  Si0+  Si111  1  0.07052330  0.17927120  0.98556596  1
  Si0+  Si112  1  0.42780622  0.82228357  0.31808842  1
  Si0+  Si113  1  0.32387857  0.07270377  0.01760054  1
  Si0+  Si114  1  0.57040148  0.68099716  0.31906390  1
  Si0+  Si115  1  0.42957830  0.82228423  0.65059936  1
  Si0+  Si116  1  0.42720109  0.32173383  0.97837501  1
  Si0+  Si117  1  0.43218489  0.31996082  0.65330185  1
  Si0+  Si118  1  0.82000873  0.57459739  0.68116927  1
  Si0+  Si119  1  0.67706311  0.92524515  0.68160359  1
  O2-  O120  1  0.25454527  0.00470592  0.06126791  1
  O2-  O121  1  0.25293179  0.00587919  0.39300900  1
  O2-  O122  1  0.24432406  0.00098180  0.72589867  1
  O2-  O123  1  0.24947119  0.49884294  0.06523635  1
  O2-  O124  1  0.24892533  0.49940234  0.39902153  1
  O2-  O125  1  0.24144594  0.50721479  0.73085161  1
  O2-  O126  1  0.74829842  0.00183047  0.06660285  1
  O2-  O127  1  0.74455746  0.00169273  0.39090247  1
  O2-  O128  1  0.74974027  -0.01101467  0.72492535  1
  O2-  O129  1  0.74318462  0.49947923  0.05939734  1
  O2-  O130  1  0.75952515  0.50142863  0.39408837  1
  O2-  O131  1  0.75702026  0.50119499  0.72622959  1
  O2-  O132  1  -0.00077191  0.25964982  0.27095933  1
  O2-  O133  1  0.00508067  0.25711854  0.60278533  1
  O2-  O134  1  0.00261908  0.25367116  0.94530997  1
  O2-  O135  1  -0.00169036  0.74764676  0.27404983  1
  O2-  O136  1  0.00172910  0.75151058  0.60076041  1
  O2-  O137  1  0.00480210  0.74537037  0.94187518  1
  O2-  O138  1  0.50609497  0.24447365  0.27475552  1
  O2-  O139  1  0.50093128  0.24732103  0.60844327  1
  O2-  O140  1  0.49639805  0.25245887  0.93535735  1
  O2-  O141  1  0.49761840  0.74990796  0.27648585  1
  O2-  O142  1  0.49697313  0.74730490  0.60809571  1
  O2-  O143  1  0.49511798  0.75415952  0.93889809  1
  O2-  O144  1  0.06842618  0.17810548  0.09098818  1
  O2-  O145  1  0.06767521  0.17740683  0.43040659  1
  O2-  O146  1  0.07167723  0.17976625  0.76708529  1
  O2-  O147  1  0.07007020  0.67949798  0.09386866  1
  O2-  O148  1  0.07131215  0.68236951  0.42228738  1
  O2-  O149  1  0.07260980  0.68147373  0.76596874  1
  O2-  O150  1  0.56935267  0.18324391  0.09852491  1
  O2-  O151  1  0.57545653  0.17467314  0.42375209  1
  O2-  O152  1  0.56952707  0.17686386  0.75717742  1
  O2-  O153  1  0.57009242  0.68035654  0.09913354  1
  O2-  O154  1  0.57134098  0.68350106  0.42439197  1
  O2-  O155  1  0.57237306  0.67846547  0.75419593  1
  O2-  O156  1  0.18157338  0.42795839  0.23622105  1
  O2-  O157  1  0.18319285  0.42575298  0.56723358  1
  O2-  O158  1  0.17346059  0.42768108  0.90317195  1
  O2-  O159  1  0.17712053  0.93012598  0.23606491  1
  O2-  O160  1  0.18080017  0.92982192  0.57666245  1
  O2-  O161  1  0.17998138  0.93327630  0.89839665  1
  O2-  O162  1  0.68249799  0.43322617  0.23181020  1
  O2-  O163  1  0.67705651  0.42943558  0.56850113  1
  O2-  O164  1  0.68144532  0.42642966  0.90993657  1
  O2-  O165  1  0.67744975  0.92394356  0.24454030  1
  O2-  O166  1  0.67387600  0.92893460  0.57523495  1
  O2-  O167  1  0.68161031  0.92902678  0.90033354  1
  O2-  O168  1  0.42894717  0.32148772  0.08434697  1
  O2-  O169  1  0.43279054  0.32017754  0.43297125  1
  O2-  O170  1  0.43510658  0.31807357  0.75799415  1
  O2-  O171  1  0.42583084  0.82248923  0.08875484  1
  O2-  O172  1  0.43201805  0.82659340  0.42323961  1
  O2-  O173  1  0.43163717  0.82631743  0.75515205  1
  O2-  O174  1  0.92689025  0.32109109  0.09249175  1
  O2-  O175  1  0.91843599  0.31676186  0.42005044  1
  O2-  O176  1  0.92445489  0.31841811  0.76679099  1
  O2-  O177  1  0.93173689  0.81991214  0.10106873  1
  O2-  O178  1  0.92745811  0.81995317  0.42097089  1
  O2-  O179  1  0.92749937  0.82152705  0.76367600  1
  O2-  O180  1  0.32691623  0.06511133  0.24100842  1
  O2-  O181  1  0.32615493  0.06944335  0.56610639  1
  O2-  O182  1  0.32279117  0.07181918  0.91179888  1
  O2-  O183  1  0.32288581  0.56971340  0.23586598  1
  O2-  O184  1  0.32424204  0.56792022  0.57042449  1
  O2-  O185  1  0.31879244  0.56993398  0.90271418  1
  O2-  O186  1  0.81907625  0.06971544  0.24502019  1
  O2-  O187  1  0.81771222  0.06796964  0.56622190  1
  O2-  O188  1  0.82375368  0.07257045  0.90394995  1
  O2-  O189  1  0.81859382  0.58081246  0.24595489  1
  O2-  O190  1  0.81366722  0.57858482  0.57559275  1
  O2-  O191  1  0.82009386  0.56985049  0.89816188  1
  O2-  O192  1  0.03183022  0.08424913  0.26435180  1
  O2-  O193  1  0.04256798  0.08419637  0.59926903  1
  O2-  O194  1  0.03989697  0.08895045  0.93793108  1
  O2-  O195  1  0.04812290  0.58571652  0.27172479  1
  O2-  O196  1  0.04333209  0.58240123  0.59444174  1
  O2-  O197  1  0.04552540  0.58219375  0.94519450  1
  O2-  O198  1  0.55133570  0.08169925  0.27172557  1
  O2-  O199  1  0.54458296  0.08382827  0.60526920  1
  O2-  O200  1  0.54237136  0.08217828  0.93077939  1
  O2-  O201  1  0.54631359  0.58890213  0.27148489  1
  O2-  O202  1  0.53998253  0.58376366  0.60439870  1
  O2-  O203  1  0.54209584  0.58206248  0.93005917  1
  O2-  O204  1  0.16721785  0.20274137  0.26119734  1
  O2-  O205  1  0.17479641  0.20532093  0.60143294  1
  O2-  O206  1  0.16502014  0.20124785  0.94078633  1
  O2-  O207  1  0.16375500  0.71140841  0.27181338  1
  O2-  O208  1  0.17218142  0.70805693  0.59852855  1
  O2-  O209  1  0.16691158  0.70160197  0.94400913  1
  O2-  O210  1  0.66888365  0.20237812  0.27211503  1
  O2-  O211  1  0.66275134  0.20423760  0.60573307  1
  O2-  O212  1  0.66855728  0.21083650  0.93186591  1
  O2-  O213  1  0.66229601  0.71191884  0.27262469  1
  O2-  O214  1  0.65812294  0.70425788  0.59634077  1
  O2-  O215  1  0.66538166  0.71160109  0.92943294  1
  O2-  O216  1  0.07942852  0.45238064  0.07363248  1
  O2-  O217  1  0.07708467  0.44839824  0.39829198  1
  O2-  O218  1  0.07249409  0.45166380  0.72653049  1
  O2-  O219  1  0.08545339  0.96383715  0.06877157  1
  O2-  O220  1  0.08055583  0.96181465  0.40258274  1
  O2-  O221  1  0.08340696  0.95242316  0.72589963  1
  O2-  O222  1  0.58236412  0.45006159  0.05728697  1
  O2-  O223  1  0.58819942  0.46416260  0.40104696  1
  O2-  O224  1  0.58648944  0.46076383  0.73912040  1
  O2-  O225  1  0.57886786  0.95505770  0.06593277  1
  O2-  O226  1  0.58415678  0.95152436  0.39611893  1
  O2-  O227  1  0.58534886  0.95242183  0.72945960  1
  O2-  O228  1  0.20769200  0.32828158  0.06747649  1
  O2-  O229  1  0.21052564  0.32529287  0.39652491  1
  O2-  O230  1  0.20944206  0.33388113  0.73569491  1
  O2-  O231  1  0.20903682  0.83543796  0.06820477  1
  O2-  O232  1  0.20952945  0.83632374  0.40552141  1
  O2-  O233  1  0.20809642  0.83775691  0.72869134  1
  O2-  O234  1  0.70661509  0.33627723  0.06366748  1
  O2-  O235  1  0.70902524  0.33209813  0.39923986  1
  O2-  O236  1  0.70857663  0.33101225  0.73572273  1
  O2-  O237  1  0.70805918  0.83166804  0.06832332  1
  O2-  O238  1  0.70814161  0.83767088  0.39927995  1
  O2-  O239  1  0.69751534  0.82844055  0.72179714  1
  O2-  O240  1  0.46728308  0.41628017  0.26439261  1
  O2-  O241  1  0.46354717  0.41137641  0.60701841  1
  O2-  O242  1  0.45277998  0.41445924  0.93163915  1
  O2-  O243  1  0.45729301  0.91235873  0.26756981  1
  O2-  O244  1  0.46263378  0.91162643  0.59955803  1
  O2-  O245  1  0.44878527  0.91680208  0.93729471  1
  O2-  O246  1  0.94309161  0.42074238  0.27410709  1
  O2-  O247  1  0.93700503  0.42371345  0.60052569  1
  O2-  O248  1  0.95486983  0.41534477  0.94111583  1
  O2-  O249  1  0.95724191  0.91197922  0.26991071  1
  O2-  O250  1  0.95614358  0.91949096  0.59516844  1
  O2-  O251  1  0.96294391  0.91809345  0.93520819  1
  O2-  O252  1  0.33783314  0.29046233  0.25945561  1
  O2-  O253  1  0.34026566  0.29264439  0.60647315  1
  O2-  O254  1  0.33357903  0.29388500  0.93343528  1
  O2-  O255  1  0.33405723  0.79689036  0.27390338  1
  O2-  O256  1  0.33740292  0.79948072  0.60171013  1
  O2-  O257  1  0.33221342  0.79521515  0.93627326  1
  O2-  O258  1  0.83444398  0.29101215  0.26581836  1
  O2-  O259  1  0.83030131  0.28218466  0.59926673  1
  O2-  O260  1  0.83783486  0.29412916  0.93945306  1
  O2-  O261  1  0.83543266  0.79311922  0.27019371  1
  O2-  O262  1  0.82941453  0.79349659  0.59454323  1
  O2-  O263  1  0.83435341  0.79145924  0.93354058  1
  O2-  O264  1  0.41747477  0.04850589  0.06329566  1
  O2-  O265  1  0.41717982  0.04330494  0.39395692  1
  O2-  O266  1  0.41686569  0.03593631  0.73491860  1
  O2-  O267  1  0.42107418  0.54052973  0.06615870  1
  O2-  O268  1  0.42137642  0.54288650  0.40015219  1
  O2-  O269  1  0.41670601  0.53890552  0.73783325  1
  O2-  O270  1  0.91834324  0.04184316  0.07235768  1
  O2-  O271  1  0.90880657  0.03642274  0.39734194  1
  O2-  O272  1  0.91886688  0.04008364  0.73315814  1
  O2-  O273  1  0.91294484  0.54120496  0.07127758  1
  O2-  O274  1  0.91859157  0.55714546  0.39421555  1
  O2-  O275  1  0.91612511  0.55771334  0.72348697  1
  O2-  O276  1  0.29956644  0.16671978  0.06248676  1
  O2-  O277  1  0.30129734  0.16607390  0.38757369  1
  O2-  O278  1  0.29738654  0.16783293  0.73712283  1
  O2-  O279  1  0.29827320  0.66953112  0.07003272  1
  O2-  O280  1  0.29564021  0.66956669  0.40127117  1
  O2-  O281  1  0.30294612  0.67557796  0.73199563  1
  O2-  O282  1  0.79166150  0.17061511  0.07135917  1
  O2-  O283  1  0.79429617  0.16178296  0.39789279  1
  O2-  O284  1  0.78641440  0.16068073  0.73671768  1
  O2-  O285  1  0.78789119  0.66724617  0.06699894  1
  O2-  O286  1  0.79061270  0.66692523  0.39998069  1
  O2-  O287  1  0.78691636  0.66641721  0.72726054  1
