# generated using pymatgen
data_Ca2Al2SiO7
_symmetry_space_group_name_H-M   'P 1'
_cell_length_a   15.46643647
_cell_length_b   15.46546991
_cell_length_c   15.28837336
_cell_angle_alpha   89.98321172
_cell_angle_beta   89.99065373
_cell_angle_gamma   89.97144743
_symmetry_Int_Tables_number   1
_chemical_formula_structural   Ca2Al2SiO7
_chemical_formula_sum   'Ca48 Al48 Si24 O168'
_cell_volume   3656.91262956
_cell_formula_units_Z   24
loop_
 _symmetry_equiv_pos_site_id
 _symmetry_equiv_pos_as_xyz
  1  'x, y, z'
loop_
 _atom_type_symbol
 _atom_type_oxidation_number
  Ca2+  2.0
  Al0+  0.0
  Si0+  0.0
  O2-  -2.0
loop_
 _atom_site_type_symbol
 _atom_site_label
 _atom_site_symmetry_multiplicity
 _atom_site_fract_x
 _atom_site_fract_y
 _atom_site_fract_z
 _atom_site_occupancy
  Ca2+  Ca0  1  0.15713833  0.07385858  0.17152046  1
  Ca2+  Ca1  1  0.16611687  0.08053191  0.50545830  1
  Ca2+  Ca2  1  0.16708884  0.08222343  0.83908030  1
  Ca2+  Ca3  1  0.17475352  0.58854994  0.17454596  1
  Ca2+  Ca4  1  0.16598831  0.59081635  0.49989256  1
  Ca2+  Ca5  1  0.16970783  0.58434212  0.83847907  1
  Ca2+  Ca6  1  0.67451324  0.08706782  0.17077647  1
  Ca2+  Ca7  1  0.66410942  0.08007557  0.50864789  1
  Ca2+  Ca8  1  0.66868710  0.07974421  0.83455994  1
  Ca2+  Ca9  1  0.67970079  0.58124729  0.17356687  1
  Ca2+  Ca10  1  0.67407427  0.58837056  0.50468132  1
  Ca2+  Ca11  1  0.67174862  0.58379769  0.83908986  1
  Ca2+  Ca12  1  0.07650205  0.32366196  0.16201367  1
  Ca2+  Ca13  1  0.07753818  0.32244739  0.49562821  1
  Ca2+  Ca14  1  0.07329460  0.32448500  0.82672041  1
  Ca2+  Ca15  1  0.08609554  0.83314905  0.16863693  1
  Ca2+  Ca16  1  0.08293859  0.82651467  0.49067279  1
  Ca2+  Ca17  1  0.08499339  0.82926970  0.83196513  1
  Ca2+  Ca18  1  0.58604444  0.32915760  0.16860437  1
  Ca2+  Ca19  1  0.58454469  0.31978279  0.49639439  1
  Ca2+  Ca20  1  0.58217976  0.32650029  0.82837925  1
  Ca2+  Ca21  1  0.56791940  0.83225413  0.16174358  1
  Ca2+  Ca22  1  0.57362374  0.83674012  0.50037746  1
  Ca2+  Ca23  1  0.57338018  0.83108562  0.82265010  1
  Ca2+  Ca24  1  0.33307291  0.43104433  0.17460783  1
  Ca2+  Ca25  1  0.33350545  0.42450704  0.50296559  1
  Ca2+  Ca26  1  0.33013908  0.42474573  0.84203982  1
  Ca2+  Ca27  1  0.32228837  0.90943386  0.17131623  1
  Ca2+  Ca28  1  0.33115364  0.91672017  0.50261636  1
  Ca2+  Ca29  1  0.33102311  0.91728027  0.83567903  1
  Ca2+  Ca30  1  0.84553924  0.42327616  0.17029989  1
  Ca2+  Ca31  1  0.84568831  0.41883770  0.49940424  1
  Ca2+  Ca32  1  0.83764186  0.41692221  0.83873642  1
  Ca2+  Ca33  1  0.83790834  0.92281281  0.17283371  1
  Ca2+  Ca34  1  0.82787826  0.91431845  0.50518017  1
  Ca2+  Ca35  1  0.82443900  0.92163972  0.83948273  1
  Ca2+  Ca36  1  0.42566693  0.16191290  0.16593498  1
  Ca2+  Ca37  1  0.42680132  0.15425139  0.49929421  1
  Ca2+  Ca38  1  0.42029385  0.16275557  0.82281742  1
  Ca2+  Ca39  1  0.40454322  0.67572366  0.16298745  1
  Ca2+  Ca40  1  0.41701603  0.67887499  0.49371000  1
  Ca2+  Ca41  1  0.41687439  0.67761288  0.82751060  1
  Ca2+  Ca42  1  0.92489323  0.17219347  0.15874665  1
  Ca2+  Ca43  1  0.92485938  0.17510984  0.49225876  1
  Ca2+  Ca44  1  0.92297579  0.17083760  0.83076153  1
  Ca2+  Ca45  1  0.91606501  0.66722625  0.16742210  1
  Ca2+  Ca46  1  0.92685856  0.67109603  0.49035459  1
  Ca2+  Ca47  1  0.92182708  0.66442703  0.82657935  1
  Al0+  Al48  1  -0.00094589  -0.00168020  0.00248554  1
  Al0+  Al49  1  -0.00081579  -0.00107772  0.33516116  1
  Al0+  Al50  1  -0.00082241  0.00014214  0.66642353  1
  Al0+  Al51  1  0.00030362  0.49891908  0.00059577  1
  Al0+  Al52  1  0.00284394  0.50015541  0.33167121  1
  Al0+  Al53  1  0.00170109  0.50083751  0.66102058  1
  Al0+  Al54  1  0.49827490  -0.00167860  -0.00436315  1
  Al0+  Al55  1  0.50027712  -0.00115032  0.32248743  1
  Al0+  Al56  1  0.49875225  -0.00032314  0.66862190  1
  Al0+  Al57  1  0.50144666  0.49995433  0.00548168  1
  Al0+  Al58  1  0.50215341  0.49971738  0.33997488  1
  Al0+  Al59  1  0.50272978  0.50117373  0.66648680  1
  Al0+  Al60  1  0.25175725  0.24902376  -0.00138576  1
  Al0+  Al61  1  0.25302820  0.25071820  0.33042960  1
  Al0+  Al62  1  0.24908665  0.25182354  0.66890671  1
  Al0+  Al63  1  0.24956025  0.75149533  0.00055201  1
  Al0+  Al64  1  0.24990114  0.75182930  0.33582879  1
  Al0+  Al65  1  0.24997885  0.75111920  0.66097312  1
  Al0+  Al66  1  0.74924363  0.24939710  0.00017378  1
  Al0+  Al67  1  0.74980238  0.25034199  0.32662125  1
  Al0+  Al68  1  0.74912152  0.25275246  0.66083430  1
  Al0+  Al69  1  0.74847959  0.74887012  0.00473267  1
  Al0+  Al70  1  0.74938426  0.74974193  0.33505619  1
  Al0+  Al71  1  0.74887817  0.75002921  0.67113328  1
  Al0+  Al72  1  0.56972145  0.17883094  0.31836969  1
  Al0+  Al73  1  0.82237614  0.57083683  0.01332817  1
  Al0+  Al74  1  0.82196957  0.57016821  0.34954140  1
  Al0+  Al75  1  0.81839810  0.06970037  0.01319994  1
  Al0+  Al76  1  0.07421615  0.17699183  0.31819522  1
  Al0+  Al77  1  0.07016628  0.68109145  0.65456070  1
  Al0+  Al78  1  0.56842302  0.18029761  0.65523908  1
  Al0+  Al79  1  0.42956495  0.82103234  0.65019495  1
  Al0+  Al80  1  0.42751150  0.81897458  0.98380613  1
  Al0+  Al81  1  0.67913765  0.92945395  0.68034696  1
  Al0+  Al82  1  0.07125885  0.68088500  0.31637042  1
  Al0+  Al83  1  0.93042935  0.32066563  0.31611149  1
  Al0+  Al84  1  0.43043557  0.81872752  0.31778641  1
  Al0+  Al85  1  0.32108635  0.57214404  0.34995107  1
  Al0+  Al86  1  0.17859032  0.93206763  0.34896117  1
  Al0+  Al87  1  0.31973879  0.57005192  0.01214647  1
  Al0+  Al88  1  0.07201148  0.17533676  0.98366021  1
  Al0+  Al89  1  0.31844845  0.07080720  0.67887802  1
  Al0+  Al90  1  0.92882867  0.32096703  0.65037088  1
  Al0+  Al91  1  0.17990547  0.93067220  0.01309124  1
  Al0+  Al92  1  0.07316175  0.17675363  0.65160253  1
  Al0+  Al93  1  0.92904779  0.32137834  0.98343497  1
  Al0+  Al94  1  0.92583533  0.82085422  0.31872830  1
  Al0+  Al95  1  0.57351093  0.67752669  0.65209935  1
  Si0+  Si96  1  0.92590735  0.82252548  0.65399597  1
  Si0+  Si97  1  0.67543737  0.92772044  0.01824801  1
  Si0+  Si98  1  0.17880923  0.43099103  0.68224062  1
  Si0+  Si99  1  0.06985264  0.68008731  0.98620849  1
  Si0+  Si100  1  0.42996806  0.32328482  0.98658572  1
  Si0+  Si101  1  0.17990821  0.42650255  0.35127511  1
  Si0+  Si102  1  0.42641921  0.32476411  0.65209697  1
  Si0+  Si103  1  0.17619226  0.92645822  0.68335811  1
  Si0+  Si104  1  0.32423969  0.07371048  0.01710435  1
  Si0+  Si105  1  0.67781854  0.42707009  0.01777628  1
  Si0+  Si106  1  0.56971129  0.17923278  0.98367407  1
  Si0+  Si107  1  0.32198409  0.57216565  0.68155588  1
  Si0+  Si108  1  0.32492330  0.07240181  0.34732243  1
  Si0+  Si109  1  0.67809092  0.42765954  0.68238451  1
  Si0+  Si110  1  0.57274645  0.67567215  0.31646241  1
  Si0+  Si111  1  0.42922558  0.32560177  0.31698493  1
  Si0+  Si112  1  0.81956912  0.07163824  0.34887077  1
  Si0+  Si113  1  0.57307749  0.67728343  0.98496651  1
  Si0+  Si114  1  0.17848491  0.42606969  0.01653786  1
  Si0+  Si115  1  0.82154611  0.07485182  0.68191687  1
  Si0+  Si116  1  0.82179603  0.56899193  0.68097495  1
  Si0+  Si117  1  0.67699626  0.93049413  0.34680867  1
  Si0+  Si118  1  0.67891738  0.42629151  0.35314354  1
  Si0+  Si119  1  0.92550843  0.82056606  0.98518100  1
  O2-  O120  1  0.25196696  0.00879702  0.05972792  1
  O2-  O121  1  0.25105943  0.01061381  0.39253158  1
  O2-  O122  1  0.24103758  -0.00070582  0.72665569  1
  O2-  O123  1  0.24757039  0.49418607  0.06080250  1
  O2-  O124  1  0.24780491  0.49604143  0.39662075  1
  O2-  O125  1  0.25174350  0.50075527  0.72480079  1
  O2-  O126  1  0.74472588  -0.00508277  0.06311867  1
  O2-  O127  1  0.74924291  -0.00042978  0.39057694  1
  O2-  O128  1  0.75489487  0.00378556  0.72642725  1
  O2-  O129  1  0.74887461  0.49431548  0.05948950  1
  O2-  O130  1  0.74811216  0.49444489  0.39732449  1
  O2-  O131  1  0.74980646  0.49878675  0.72345826  1
  O2-  O132  1  0.00178977  0.24785819  0.26756092  1
  O2-  O133  1  -0.00227035  0.24526384  0.60272226  1
  O2-  O134  1  0.00125912  0.24925839  0.93456250  1
  O2-  O135  1  -0.00309704  0.74975841  0.26560975  1
  O2-  O136  1  -0.00209781  0.75826072  0.60970463  1
  O2-  O137  1  -0.00561273  0.74669889  0.94366777  1
  O2-  O138  1  0.49514523  0.25426542  0.27229664  1
  O2-  O139  1  0.49182593  0.25298718  0.60817454  1
  O2-  O140  1  0.49633464  0.24865541  0.94267267  1
  O2-  O141  1  0.50145944  0.74027139  0.27062926  1
  O2-  O142  1  0.50058419  0.74731351  0.60130374  1
  O2-  O143  1  0.50457797  0.74527092  0.93984249  1
  O2-  O144  1  0.07024107  0.17624176  0.09683734  1
  O2-  O145  1  0.07286611  0.17863576  0.43182730  1
  O2-  O146  1  0.07290301  0.17889372  0.76507960  1
  O2-  O147  1  0.07173894  0.68138393  0.09055246  1
  O2-  O148  1  0.06988771  0.68362086  0.43012252  1
  O2-  O149  1  0.06897627  0.67933595  0.76859756  1
  O2-  O150  1  0.56960421  0.17990519  0.08876852  1
  O2-  O151  1  0.56869453  0.17735963  0.43142664  1
  O2-  O152  1  0.56828180  0.18289420  0.76867247  1
  O2-  O153  1  0.57428771  0.67843517  0.09032952  1
  O2-  O154  1  0.57271785  0.67835002  0.42191707  1
  O2-  O155  1  0.57230677  0.67703881  0.76614785  1
  O2-  O156  1  0.18343094  0.42593438  0.24560256  1
  O2-  O157  1  0.18017647  0.43115867  0.57750843  1
  O2-  O158  1  0.18024474  0.42847075  0.91040914  1
  O2-  O159  1  0.18124409  0.93041604  0.23573456  1
  O2-  O160  1  0.17708795  0.92482191  0.57819359  1
  O2-  O161  1  0.18203040  0.92779577  0.89975025  1
  O2-  O162  1  0.67598233  0.42814458  0.24741850  1
  O2-  O163  1  0.67505079  0.42573433  0.57812076  1
  O2-  O164  1  0.67374825  0.42767692  0.91199245  1
  O2-  O165  1  0.67650371  0.93333080  0.24163634  1
  O2-  O166  1  0.68029105  0.93130762  0.56688867  1
  O2-  O167  1  0.67603262  0.92908746  0.91249664  1
  O2-  O168  1  0.43293760  0.32433981  0.09136684  1
  O2-  O169  1  0.43101635  0.32751915  0.42247585  1
  O2-  O170  1  0.42944052  0.32684530  0.75820381  1
  O2-  O171  1  0.42771324  0.81745927  0.09681214  1
  O2-  O172  1  0.43342149  0.82185162  0.43040112  1
  O2-  O173  1  0.42834774  0.81827502  0.76407764  1
  O2-  O174  1  0.93114669  0.32141710  0.09631633  1
  O2-  O175  1  0.93079632  0.31780183  0.42967449  1
  O2-  O176  1  0.92973085  0.32272725  0.76393471  1
  O2-  O177  1  0.92443886  0.82058742  0.08966355  1
  O2-  O178  1  0.92452478  0.81955376  0.43272229  1
  O2-  O179  1  0.92484666  0.81956671  0.76014009  1
  O2-  O180  1  0.32837001  0.06932390  0.24179038  1
  O2-  O181  1  0.32076129  0.06855557  0.56591871  1
  O2-  O182  1  0.32720447  0.07322083  0.91149654  1
  O2-  O183  1  0.31986639  0.57032644  0.23645417  1
  O2-  O184  1  0.32189063  0.57023361  0.57680113  1
  O2-  O185  1  0.31811570  0.56866073  0.89846037  1
  O2-  O186  1  0.81758075  0.07138047  0.24357732  1
  O2-  O187  1  0.81964360  0.07432591  0.57626815  1
  O2-  O188  1  0.81484223  0.06784974  0.89979419  1
  O2-  O189  1  0.81872753  0.56961948  0.23631546  1
  O2-  O190  1  0.82159674  0.56886413  0.57629213  1
  O2-  O191  1  0.82038273  0.57183904  0.89961013  1
  O2-  O192  1  0.04297649  0.07887148  0.26827205  1
  O2-  O193  1  0.04891992  0.07630391  0.60124032  1
  O2-  O194  1  0.04074904  0.07708231  0.93176401  1
  O2-  O195  1  0.04910070  0.58062738  0.26608820  1
  O2-  O196  1  0.03915822  0.58667752  0.59814668  1
  O2-  O197  1  0.04656762  0.58676542  0.93938933  1
  O2-  O198  1  0.53894950  0.08528152  0.25888075  1
  O2-  O199  1  0.53817003  0.08419707  0.60145627  1
  O2-  O200  1  0.54370104  0.08684879  0.93680025  1
  O2-  O201  1  0.55212782  0.57953612  0.27407476  1
  O2-  O202  1  0.55026627  0.57773099  0.60012543  1
  O2-  O203  1  0.54886121  0.58214061  0.94105824  1
  O2-  O204  1  0.17416125  0.20263515  0.26642382  1
  O2-  O205  1  0.17079564  0.20938394  0.59979959  1
  O2-  O206  1  0.17323940  0.20134697  0.93411790  1
  O2-  O207  1  0.16894197  0.71287469  0.26500945  1
  O2-  O208  1  0.16624840  0.70813357  0.59919302  1
  O2-  O209  1  0.15927362  0.71256338  0.93673405  1
  O2-  O210  1  0.66437807  0.21118393  0.26173791  1
  O2-  O211  1  0.66307391  0.21185487  0.59900652  1
  O2-  O212  1  0.66015447  0.20928931  0.93578693  1
  O2-  O213  1  0.66499050  0.70438965  0.27015231  1
  O2-  O214  1  0.67199017  0.70724247  0.60065413  1
  O2-  O215  1  0.66680905  0.70268154  0.93836171  1
  O2-  O216  1  0.08556298  0.45233293  0.06194371  1
  O2-  O217  1  0.08667819  0.45232737  0.39693755  1
  O2-  O218  1  0.08822746  0.46329505  0.72994253  1
  O2-  O219  1  0.08209070  0.95534812  0.06733769  1
  O2-  O220  1  0.08064132  0.95731170  0.40380768  1
  O2-  O221  1  0.08019108  0.94582429  0.72849275  1
  O2-  O222  1  0.58623056  0.45414713  0.06791040  1
  O2-  O223  1  0.58566512  0.44973912  0.40112297  1
  O2-  O224  1  0.58678178  0.45499786  0.73297844  1
  O2-  O225  1  0.58152915  0.95560138  0.06242945  1
  O2-  O226  1  0.58575549  0.96259784  0.39277797  1
  O2-  O227  1  0.58412087  0.96229221  0.73602481  1
  O2-  O228  1  0.20436165  0.33230112  0.06184643  1
  O2-  O229  1  0.20791867  0.33329023  0.39816627  1
  O2-  O230  1  0.20493321  0.33988795  0.73213259  1
  O2-  O231  1  0.21436544  0.83571382  0.06790257  1
  O2-  O232  1  0.21337542  0.83700821  0.40309477  1
  O2-  O233  1  0.20680310  0.83377800  0.72987398  1
  O2-  O234  1  0.70045549  0.33281627  0.06319315  1
  O2-  O235  1  0.70431503  0.33109828  0.39622068  1
  O2-  O236  1  0.70613234  0.33618895  0.73144395  1
  O2-  O237  1  0.69806210  0.83346113  0.06349338  1
  O2-  O238  1  0.70131478  0.83796555  0.39410475  1
  O2-  O239  1  0.70892189  0.83351295  0.73778493  1
  O2-  O240  1  0.45956204  0.41784565  0.26987549  1
  O2-  O241  1  0.45543823  0.41665939  0.60511637  1
  O2-  O242  1  0.46125375  0.41393491  0.93787675  1
  O2-  O243  1  0.46358562  0.91223410  0.25969693  1
  O2-  O244  1  0.46106773  0.91831355  0.59857622  1
  O2-  O245  1  0.45691064  0.91638911  0.93036147  1
  O2-  O246  1  0.96029435  0.41896363  0.26530260  1
  O2-  O247  1  0.96255132  0.41732124  0.59724412  1
  O2-  O248  1  0.95778351  0.42061891  0.93085542  1
  O2-  O249  1  0.95384247  0.91962520  0.26763364  1
  O2-  O250  1  0.94434825  0.91782575  0.60922746  1
  O2-  O251  1  0.95573710  0.91056853  0.93655079  1
  O2-  O252  1  0.33556844  0.30449901  0.27005472  1
  O2-  O253  1  0.33182172  0.30442525  0.60773713  1
  O2-  O254  1  0.33682364  0.30147647  0.93908506  1
  O2-  O255  1  0.33368584  0.78754832  0.26595574  1
  O2-  O256  1  0.33192917  0.79319968  0.59678123  1
  O2-  O257  1  0.33233104  0.78499191  0.92926210  1
  O2-  O258  1  0.83113193  0.29561678  0.26406241  1
  O2-  O259  1  0.82936785  0.29912578  0.59752834  1
  O2-  O260  1  0.82868705  0.29381358  0.93324680  1
  O2-  O261  1  0.82679993  0.79415558  0.26551213  1
  O2-  O262  1  0.83376506  0.79402456  0.60788061  1
  O2-  O263  1  0.83214258  0.79493408  0.93879734  1
  O2-  O264  1  0.41735195  0.04432731  0.06281377  1
  O2-  O265  1  0.41721736  0.03884570  0.39249108  1
  O2-  O266  1  0.41380126  0.03840334  0.73520376  1
  O2-  O267  1  0.41661984  0.54140003  0.06712139  1
  O2-  O268  1  0.41845512  0.54192641  0.40359107  1
  O2-  O269  1  0.41448945  0.54514272  0.72867745  1
  O2-  O270  1  0.91401876  0.03825239  0.06746458  1
  O2-  O271  1  0.91061493  0.04468481  0.39727757  1
  O2-  O272  1  0.91579010  0.05098611  0.72801824  1
  O2-  O273  1  0.91950577  0.54227829  0.06731727  1
  O2-  O274  1  0.92035211  0.54095667  0.40118324  1
  O2-  O275  1  0.91396205  0.54015981  0.72783212  1
  O2-  O276  1  0.30648022  0.16981037  0.06168426  1
  O2-  O277  1  0.30998608  0.16964731  0.39011252  1
  O2-  O278  1  0.29504252  0.17005673  0.73358498  1
  O2-  O279  1  0.28521967  0.66498122  0.06552188  1
  O2-  O280  1  0.28847750  0.66743506  0.40400743  1
  O2-  O281  1  0.29176928  0.66407341  0.72732649  1
  O2-  O282  1  0.78537546  0.16552504  0.06777071  1
  O2-  O283  1  0.78881365  0.16351532  0.39405106  1
  O2-  O284  1  0.79179603  0.16782808  0.72699136  1
  O2-  O285  1  0.79068782  0.66653486  0.06921078  1
  O2-  O286  1  0.78925790  0.66693190  0.40329483  1
  O2-  O287  1  0.79537880  0.66060107  0.72993753  1
