# generated using pymatgen
data_Ca2Al2SiO7
_symmetry_space_group_name_H-M   'P 1'
_cell_length_a   15.45674332
_cell_length_b   15.45683506
_cell_length_c   15.28240298
_cell_angle_alpha   89.99364646
_cell_angle_beta   89.99563479
_cell_angle_gamma   90.00658447
_symmetry_Int_Tables_number   1
_chemical_formula_structural   Ca2Al2SiO7
_chemical_formula_sum   'Ca48 Al48 Si24 O168'
_cell_volume   3651.15447998
_cell_formula_units_Z   24
loop_
 _symmetry_equiv_pos_site_id
 _symmetry_equiv_pos_as_xyz
  1  'x, y, z'
loop_
 _atom_type_symbol
 _atom_type_oxidation_number
  Ca2+  2.0
  Al0+  0.0
  Si0+  0.0
  O2-  -2.0
loop_
 _atom_site_type_symbol
 _atom_site_label
 _atom_site_symmetry_multiplicity
 _atom_site_fract_x
 _atom_site_fract_y
 _atom_site_fract_z
 _atom_site_occupancy
  Ca2+  Ca0  1  0.17028404  0.07559702  0.17732953  1
  Ca2+  Ca1  1  0.17290794  0.07519367  0.50851827  1
  Ca2+  Ca2  1  0.16410756  0.08084883  0.82898601  1
  Ca2+  Ca3  1  0.17688807  0.58919458  0.17124812  1
  Ca2+  Ca4  1  0.16764160  0.58329124  0.50525202  1
  Ca2+  Ca5  1  0.16435436  0.58103640  0.83710746  1
  Ca2+  Ca6  1  0.66907240  0.07363851  0.16798059  1
  Ca2+  Ca7  1  0.66284296  0.07560534  0.50207621  1
  Ca2+  Ca8  1  0.67248231  0.07626698  0.84357196  1
  Ca2+  Ca9  1  0.68003902  0.58832953  0.17417857  1
  Ca2+  Ca10  1  0.67603702  0.59414030  0.50290535  1
  Ca2+  Ca11  1  0.67921382  0.58916333  0.83576474  1
  Ca2+  Ca12  1  0.07722808  0.33049123  0.15990327  1
  Ca2+  Ca13  1  0.08507153  0.33386114  0.50449146  1
  Ca2+  Ca14  1  0.07272201  0.33242627  0.82279518  1
  Ca2+  Ca15  1  0.09066931  0.82233523  0.16565877  1
  Ca2+  Ca16  1  0.08961194  0.82671943  0.49620053  1
  Ca2+  Ca17  1  0.08578452  0.82159134  0.82607594  1
  Ca2+  Ca18  1  0.57018389  0.33684882  0.16316406  1
  Ca2+  Ca19  1  0.57512994  0.33029394  0.49159067  1
  Ca2+  Ca20  1  0.57632661  0.33467095  0.83242983  1
  Ca2+  Ca21  1  0.58857744  0.83296390  0.16731702  1
  Ca2+  Ca22  1  0.57928403  0.82589414  0.49652069  1
  Ca2+  Ca23  1  0.57890037  0.83023326  0.82455426  1
  Ca2+  Ca24  1  0.33879774  0.42444327  0.17137516  1
  Ca2+  Ca25  1  0.33024255  0.42166535  0.50289575  1
  Ca2+  Ca26  1  0.32609889  0.42189678  0.83882632  1
  Ca2+  Ca27  1  0.32644014  0.92416847  0.17822544  1
  Ca2+  Ca28  1  0.32539512  0.92155785  0.50794485  1
  Ca2+  Ca29  1  0.33093172  0.91505291  0.82952662  1
  Ca2+  Ca30  1  0.83849895  0.42563355  0.16795024  1
  Ca2+  Ca31  1  0.83682789  0.42775336  0.50663835  1
  Ca2+  Ca32  1  0.84086528  0.42344269  0.83615711  1
  Ca2+  Ca33  1  0.82370394  0.91660995  0.16873012  1
  Ca2+  Ca34  1  0.82588497  0.91031605  0.50145376  1
  Ca2+  Ca35  1  0.82730599  0.92259793  0.84305521  1
  Ca2+  Ca36  1  0.40917985  0.17790336  0.16479130  1
  Ca2+  Ca37  1  0.40401520  0.17098593  0.49528632  1
  Ca2+  Ca38  1  0.41294372  0.16976493  0.82896724  1
  Ca2+  Ca39  1  0.42191622  0.65959664  0.16284797  1
  Ca2+  Ca40  1  0.42479538  0.66816208  0.49303225  1
  Ca2+  Ca41  1  0.42246321  0.67173291  0.82438898  1
  Ca2+  Ca42  1  0.91468544  0.17145562  0.15688004  1
  Ca2+  Ca43  1  0.92284731  0.17120256  0.49949207  1
  Ca2+  Ca44  1  0.91656486  0.17647264  0.82526791  1
  Ca2+  Ca45  1  0.92773121  0.65928910  0.16259822  1
  Ca2+  Ca46  1  0.92709694  0.65885779  0.49676877  1
  Ca2+  Ca47  1  0.92465269  0.65913954  0.82825254  1
  Al0+  Al48  1  0.00009073  -0.00211768  0.00504169  1
  Al0+  Al49  1  -0.00149472  -0.00006452  0.33537675  1
  Al0+  Al50  1  -0.00014486  0.00033352  0.66691544  1
  Al0+  Al51  1  0.00131522  0.49713102  -0.00296513  1
  Al0+  Al52  1  0.00061907  0.50047002  0.33168852  1
  Al0+  Al53  1  -0.00031417  0.50066510  0.66637439  1
  Al0+  Al54  1  0.49823081  -0.00029041  0.00436571  1
  Al0+  Al55  1  0.50169108  0.00135643  0.34008088  1
  Al0+  Al56  1  0.49877057  0.00053613  0.66758416  1
  Al0+  Al57  1  0.49997564  0.50044432  -0.00417886  1
  Al0+  Al58  1  0.50123684  0.49965989  0.32898720  1
  Al0+  Al59  1  0.50271366  0.49880371  0.66280476  1
  Al0+  Al60  1  0.24868916  0.24999562  -0.00505122  1
  Al0+  Al61  1  0.24757149  0.25110534  0.32984097  1
  Al0+  Al62  1  0.24852538  0.25065688  0.67199026  1
  Al0+  Al63  1  0.25187737  0.74865233  -0.00097404  1
  Al0+  Al64  1  0.25167997  0.74942238  0.33641529  1
  Al0+  Al65  1  0.25117161  0.75186448  0.66299503  1
  Al0+  Al66  1  0.74798358  0.25014339  -0.00033524  1
  Al0+  Al67  1  0.74903468  0.25021042  0.33127038  1
  Al0+  Al68  1  0.74788523  0.25230851  0.66154471  1
  Al0+  Al69  1  0.75146814  0.74922686  0.00757933  1
  Al0+  Al70  1  0.75085103  0.75118902  0.33733560  1
  Al0+  Al71  1  0.75085556  0.74959123  0.66985450  1
  Al0+  Al72  1  0.92802471  0.31881456  0.98619399  1
  Al0+  Al73  1  0.68044574  0.93000835  0.35040591  1
  Al0+  Al74  1  0.42801385  0.31951671  0.31985796  1
  Al0+  Al75  1  0.57301753  0.67818001  0.65181726  1
  Al0+  Al76  1  0.82265137  0.56817740  0.01457415  1
  Al0+  Al77  1  0.32364939  0.56975705  0.34704154  1
  Al0+  Al78  1  0.18014006  0.43150513  0.68040295  1
  Al0+  Al79  1  0.32115087  0.57042176  0.01179523  1
  Al0+  Al80  1  0.82210632  0.07283793  0.01393622  1
  Al0+  Al81  1  0.07135822  0.17835432  0.65079236  1
  Al0+  Al82  1  0.31966281  0.07366092  0.34715790  1
  Al0+  Al83  1  0.67698709  0.92823521  0.01527871  1
  Al0+  Al84  1  0.81936654  0.56990303  0.68122562  1
  Al0+  Al85  1  0.57200669  0.68060475  0.31731811  1
  Al0+  Al86  1  0.42808281  0.32232835  0.98341619  1
  Al0+  Al87  1  0.07166035  0.68011824  0.98589323  1
  Al0+  Al88  1  0.82179824  0.56933318  0.34772102  1
  Al0+  Al89  1  0.17779786  0.92773172  0.34882866  1
  Al0+  Al90  1  0.92767118  0.32206661  0.64892050  1
  Al0+  Al91  1  0.17698240  0.92679036  0.68428493  1
  Al0+  Al92  1  0.07204158  0.67952549  0.31893846  1
  Al0+  Al93  1  0.07029469  0.67968130  0.65307913  1
  Al0+  Al94  1  0.32090383  0.07121779  0.68470921  1
  Al0+  Al95  1  0.42947009  0.82229894  0.65018960  1
  Si0+  Si96  1  0.31947743  0.07227333  0.01543749  1
  Si0+  Si97  1  0.56868134  0.17689351  0.98378621  1
  Si0+  Si98  1  0.17730480  0.42873861  0.34838112  1
  Si0+  Si99  1  0.92715056  0.82139579  0.98492277  1
  Si0+  Si100  1  0.18010681  0.92697215  0.01496184  1
  Si0+  Si101  1  0.07179372  0.17416060  0.98367487  1
  Si0+  Si102  1  0.82194858  0.07529505  0.35190499  1
  Si0+  Si103  1  0.92713814  0.82358925  0.65199411  1
  Si0+  Si104  1  0.42966386  0.82287698  0.31627648  1
  Si0+  Si105  1  0.67590603  0.42814241  0.01648949  1
  Si0+  Si106  1  0.06891967  0.17824909  0.31772132  1
  Si0+  Si107  1  0.57083278  0.17889763  0.65231719  1
  Si0+  Si108  1  0.92819425  0.32085534  0.31735087  1
  Si0+  Si109  1  0.57336467  0.68006689  0.98597313  1
  Si0+  Si110  1  0.57381777  0.17638453  0.31489973  1
  Si0+  Si111  1  0.67998034  0.93013934  0.68202217  1
  Si0+  Si112  1  0.42950779  0.82209735  0.98673487  1
  Si0+  Si113  1  0.42831185  0.32028500  0.65207868  1
  Si0+  Si114  1  0.17886759  0.42707891  0.01671572  1
  Si0+  Si115  1  0.81993003  0.07359578  0.67955382  1
  Si0+  Si116  1  0.92764647  0.82333865  0.31613360  1
  Si0+  Si117  1  0.67816189  0.42736954  0.34886021  1
  Si0+  Si118  1  0.32525334  0.57215731  0.68139128  1
  Si0+  Si119  1  0.67602789  0.42523233  0.68370892  1
  O2-  O120  1  0.24692035  0.00256118  0.05658019  1
  O2-  O121  1  0.25063698  -0.00040929  0.39718397  1
  O2-  O122  1  0.24918040  -0.00114201  0.73502709  1
  O2-  O123  1  0.24843862  0.49458815  0.06079407  1
  O2-  O124  1  0.24681041  0.49677757  0.39195111  1
  O2-  O125  1  0.25428356  0.50694479  0.72717897  1
  O2-  O126  1  0.75081470  -0.00008179  0.06344538  1
  O2-  O127  1  0.75450424  0.00597514  0.39695524  1
  O2-  O128  1  0.75091474  0.00141940  0.72334424  1
  O2-  O129  1  0.74681607  0.49415371  0.06118822  1
  O2-  O130  1  0.74629318  0.49529097  0.39425811  1
  O2-  O131  1  0.74381120  0.49506741  0.72705709  1
  O2-  O132  1  -0.00393320  0.24701079  0.27470634  1
  O2-  O133  1  -0.00049766  0.24982609  0.59903693  1
  O2-  O134  1  -0.00061115  0.23989230  0.94151145  1
  O2-  O135  1  -0.00123416  0.75658034  0.27238343  1
  O2-  O136  1  -0.00188004  0.75763886  0.60772624  1
  O2-  O137  1  -0.00488591  0.75325798  0.93934689  1
  O2-  O138  1  0.50216008  0.24329966  0.27275043  1
  O2-  O139  1  0.49833220  0.24819872  0.61010873  1
  O2-  O140  1  0.50140690  0.24575215  0.93730587  1
  O2-  O141  1  0.49635969  0.75383825  0.26864436  1
  O2-  O142  1  0.49826177  0.74669135  0.60129780  1
  O2-  O143  1  0.50322577  0.75290917  0.94553107  1
  O2-  O144  1  0.07412458  0.17633346  0.08984619  1
  O2-  O145  1  0.06932999  0.17927517  0.42212570  1
  O2-  O146  1  0.06689051  0.17910614  0.76468701  1
  O2-  O147  1  0.07349192  0.68227721  0.09906820  1
  O2-  O148  1  0.06915062  0.67675624  0.43171981  1
  O2-  O149  1  0.06785766  0.67886826  0.76655555  1
  O2-  O150  1  0.56631724  0.17628791  0.08915609  1
  O2-  O151  1  0.57848933  0.17964781  0.42060354  1
  O2-  O152  1  0.57287042  0.18008464  0.75743719  1
  O2-  O153  1  0.57277611  0.67907997  0.09091362  1
  O2-  O154  1  0.57185496  0.68220396  0.42998250  1
  O2-  O155  1  0.57380544  0.68168852  0.76627297  1
  O2-  O156  1  0.17610227  0.42735411  0.24254360  1
  O2-  O157  1  0.18346027  0.43147193  0.56698266  1
  O2-  O158  1  0.17929680  0.42805332  0.91123510  1
  O2-  O159  1  0.17948083  0.93033561  0.23397409  1
  O2-  O160  1  0.17741602  0.92816301  0.57121282  1
  O2-  O161  1  0.18106915  0.92555786  0.91047108  1
  O2-  O162  1  0.67987190  0.42646647  0.24314109  1
  O2-  O163  1  0.67468426  0.42120936  0.57836382  1
  O2-  O164  1  0.67399517  0.43003464  0.91090515  1
  O2-  O165  1  0.68209776  0.93158641  0.23742439  1
  O2-  O166  1  0.68126185  0.93086759  0.57701973  1
  O2-  O167  1  0.67690390  0.92996580  0.90116293  1
  O2-  O168  1  0.42891564  0.32082258  0.09654684  1
  O2-  O169  1  0.42920938  0.31849400  0.43325309  1
  O2-  O170  1  0.43106361  0.32090723  0.75722540  1
  O2-  O171  1  0.42759700  0.82300490  0.09157904  1
  O2-  O172  1  0.43218962  0.82173922  0.42138550  1
  O2-  O173  1  0.43348588  0.82234173  0.76500489  1
  O2-  O174  1  0.93221182  0.31907516  0.10004936  1
  O2-  O175  1  0.92836042  0.32046332  0.42191431  1
  O2-  O176  1  0.92688394  0.31933309  0.76260260  1
  O2-  O177  1  0.92801996  0.82162358  0.09039788  1
  O2-  O178  1  0.92674131  0.82311375  0.42178499  1
  O2-  O179  1  0.92458687  0.82318761  0.75776969  1
  O2-  O180  1  0.31593385  0.07363724  0.23259299  1
  O2-  O181  1  0.32055589  0.07165566  0.57148411  1
  O2-  O182  1  0.32166271  0.07151233  0.91094433  1
  O2-  O183  1  0.32327643  0.56788404  0.23349118  1
  O2-  O184  1  0.32699081  0.56755195  0.57586456  1
  O2-  O185  1  0.32115326  0.57086544  0.89879241  1
  O2-  O186  1  0.82095622  0.07680860  0.24643231  1
  O2-  O187  1  0.81653407  0.07340667  0.57443505  1
  O2-  O188  1  0.81952829  0.07144738  0.89982915  1
  O2-  O189  1  0.82329632  0.56610023  0.23435797  1
  O2-  O190  1  0.81872334  0.56944303  0.56816014  1
  O2-  O191  1  0.82103412  0.56871155  0.90160182  1
  O2-  O192  1  0.04252301  0.08575490  0.26991623  1
  O2-  O193  1  0.04222522  0.07996610  0.59801394  1
  O2-  O194  1  0.05013332  0.07846652  0.94036253  1
  O2-  O195  1  0.03945813  0.58318791  0.26396320  1
  O2-  O196  1  0.03653036  0.58495537  0.59831075  1
  O2-  O197  1  0.04236630  0.58243177  0.93409518  1
  O2-  O198  1  0.55061975  0.08149128  0.27116588  1
  O2-  O199  1  0.54523241  0.08669941  0.60521484  1
  O2-  O200  1  0.54144520  0.08336356  0.93740305  1
  O2-  O201  1  0.54404635  0.58314039  0.26338252  1
  O2-  O202  1  0.55104662  0.57783869  0.59950690  1
  O2-  O203  1  0.54516629  0.58938877  0.93703210  1
  O2-  O204  1  0.15872405  0.20840935  0.26720786  1
  O2-  O205  1  0.16999452  0.20978170  0.60023988  1
  O2-  O206  1  0.16386277  0.20151361  0.93594114  1
  O2-  O207  1  0.17002811  0.70958454  0.26573143  1
  O2-  O208  1  0.16836070  0.70542209  0.60044990  1
  O2-  O209  1  0.16785787  0.71253219  0.93183979  1
  O2-  O210  1  0.66630549  0.20409637  0.26640978  1
  O2-  O211  1  0.66040761  0.20726295  0.60080861  1
  O2-  O212  1  0.66265171  0.20134578  0.93772184  1
  O2-  O213  1  0.66923339  0.71418112  0.26535590  1
  O2-  O214  1  0.67040461  0.71205948  0.60013144  1
  O2-  O215  1  0.66607912  0.70786155  0.94004078  1
  O2-  O216  1  0.08571925  0.45240925  0.06305913  1
  O2-  O217  1  0.08472420  0.45500949  0.39532815  1
  O2-  O218  1  0.08357432  0.46181028  0.73432101  1
  O2-  O219  1  0.08727769  0.94926788  0.06319786  1
  O2-  O220  1  0.07833944  0.95487028  0.39953609  1
  O2-  O221  1  0.07758208  0.95526270  0.73692753  1
  O2-  O222  1  0.58324197  0.45669100  0.06278703  1
  O2-  O223  1  0.58439456  0.45177642  0.39406177  1
  O2-  O224  1  0.58212127  0.45002990  0.73043917  1
  O2-  O225  1  0.57956420  0.95830363  0.07028393  1
  O2-  O226  1  0.58497172  0.96062710  0.40634385  1
  O2-  O227  1  0.58871256  0.95901397  0.72914330  1
  O2-  O228  1  0.20292506  0.33196561  0.06141240  1
  O2-  O229  1  0.20260592  0.33513997  0.39391223  1
  O2-  O230  1  0.20994945  0.33621304  0.73691167  1
  O2-  O231  1  0.21398290  0.83775717  0.06346189  1
  O2-  O232  1  0.20562323  0.82978173  0.40081002  1
  O2-  O233  1  0.20854977  0.82830821  0.73690623  1
  O2-  O234  1  0.69641642  0.33300238  0.06136272  1
  O2-  O235  1  0.70228171  0.33282737  0.39460399  1
  O2-  O236  1  0.70155603  0.33174870  0.73110331  1
  O2-  O237  1  0.70622349  0.83136631  0.07043564  1
  O2-  O238  1  0.71339594  0.83514548  0.40579359  1
  O2-  O239  1  0.70817381  0.83927904  0.73061308  1
  O2-  O240  1  0.46245184  0.41394968  0.26343939  1
  O2-  O241  1  0.45695705  0.41101891  0.60305571  1
  O2-  O242  1  0.46147333  0.41739388  0.92759731  1
  O2-  O243  1  0.45692405  0.91781670  0.27241925  1
  O2-  O244  1  0.46134151  0.92011079  0.59822271  1
  O2-  O245  1  0.45527040  0.91468957  0.93920267  1
  O2-  O246  1  0.96011183  0.41080413  0.26888166  1
  O2-  O247  1  0.95978311  0.41903247  0.59672193  1
  O2-  O248  1  0.96313893  0.41290516  0.93058768  1
  O2-  O249  1  0.94887936  0.91884566  0.27053214  1
  O2-  O250  1  0.94693818  0.91810989  0.60541622  1
  O2-  O251  1  0.95176650  0.91618692  0.93994832  1
  O2-  O252  1  0.33130671  0.29077199  0.26342417  1
  O2-  O253  1  0.33632609  0.29280035  0.60631227  1
  O2-  O254  1  0.33124512  0.29196449  0.92989359  1
  O2-  O255  1  0.33497515  0.79946337  0.27161477  1
  O2-  O256  1  0.33047386  0.79929785  0.59792464  1
  O2-  O257  1  0.34001202  0.79114888  0.93688795  1
  O2-  O258  1  0.83521236  0.29602197  0.27002227  1
  O2-  O259  1  0.82874870  0.29473650  0.59565353  1
  O2-  O260  1  0.82902523  0.29418463  0.93343831  1
  O2-  O261  1  0.83490992  0.79523696  0.27022289  1
  O2-  O262  1  0.83459400  0.79487717  0.60532637  1
  O2-  O263  1  0.83244569  0.79689692  0.94008601  1
  O2-  O264  1  0.41024245  0.04424793  0.06434064  1
  O2-  O265  1  0.42053584  0.05387751  0.39748485  1
  O2-  O266  1  0.42055909  0.04355479  0.73760271  1
  O2-  O267  1  0.41869315  0.53979312  0.06451405  1
  O2-  O268  1  0.41980264  0.53640330  0.40006593  1
  O2-  O269  1  0.41864282  0.54354941  0.72740225  1
  O2-  O270  1  0.92058087  0.04631368  0.06888076  1
  O2-  O271  1  0.91585291  0.05091590  0.39713862  1
  O2-  O272  1  0.91190085  0.04861920  0.72684584  1
  O2-  O273  1  0.91908057  0.53421671  0.06742310  1
  O2-  O274  1  0.91769535  0.53538658  0.40091303  1
  O2-  O275  1  0.91508818  0.53712124  0.73496901  1
  O2-  O276  1  0.29169996  0.16516763  0.06116024  1
  O2-  O277  1  0.28725904  0.17142326  0.39877821  1
  O2-  O278  1  0.29223373  0.16919120  0.73848078  1
  O2-  O279  1  0.29079551  0.66667211  0.06729725  1
  O2-  O280  1  0.29643595  0.66670728  0.40024581  1
  O2-  O281  1  0.30392930  0.66779772  0.72376416  1
  O2-  O282  1  0.79181655  0.17066133  0.06768591  1
  O2-  O283  1  0.79514785  0.16895384  0.39765510  1
  O2-  O284  1  0.78891184  0.16510852  0.72590539  1
  O2-  O285  1  0.79380979  0.66445573  0.06973892  1
  O2-  O286  1  0.79252836  0.66613672  0.40044725  1
  O2-  O287  1  0.78939732  0.66648653  0.73722587  1
