# generated using pymatgen
data_Ca2Al2SiO7
_symmetry_space_group_name_H-M   'P 1'
_cell_length_a   15.46481753
_cell_length_b   15.46588655
_cell_length_c   15.29012125
_cell_angle_alpha   90.01012655
_cell_angle_beta   90.00853901
_cell_angle_gamma   89.99376032
_symmetry_Int_Tables_number   1
_chemical_formula_structural   Ca2Al2SiO7
_chemical_formula_sum   'Ca48 Al48 Si24 O168'
_cell_volume   3657.04694507
_cell_formula_units_Z   24
loop_
 _symmetry_equiv_pos_site_id
 _symmetry_equiv_pos_as_xyz
  1  'x, y, z'
loop_
 _atom_type_symbol
 _atom_type_oxidation_number
  Ca2+  2.0
  Al0+  0.0
  Si0+  0.0
  O2-  -2.0
loop_
 _atom_site_type_symbol
 _atom_site_label
 _atom_site_symmetry_multiplicity
 _atom_site_fract_x
 _atom_site_fract_y
 _atom_site_fract_z
 _atom_site_occupancy
  Ca2+  Ca0  1  0.15711541  0.07461410  0.16982302  1
  Ca2+  Ca1  1  0.16637715  0.07551213  0.50420302  1
  Ca2+  Ca2  1  0.16503343  0.08001071  0.83369848  1
  Ca2+  Ca3  1  0.15620590  0.57592616  0.17095006  1
  Ca2+  Ca4  1  0.16304232  0.57389867  0.50336271  1
  Ca2+  Ca5  1  0.16531401  0.58326975  0.84188327  1
  Ca2+  Ca6  1  0.68145875  0.07202769  0.17088166  1
  Ca2+  Ca7  1  0.67175073  0.07288405  0.50342517  1
  Ca2+  Ca8  1  0.67036034  0.07099319  0.84130867  1
  Ca2+  Ca9  1  0.66849278  0.59103481  0.16622340  1
  Ca2+  Ca10  1  0.66462003  0.58771568  0.49962668  1
  Ca2+  Ca11  1  0.67248396  0.58068162  0.84352200  1
  Ca2+  Ca12  1  0.08233120  0.32002925  0.16031439  1
  Ca2+  Ca13  1  0.08389689  0.31962532  0.49667414  1
  Ca2+  Ca14  1  0.07211880  0.31921449  0.82899683  1
  Ca2+  Ca15  1  0.07416609  0.83875036  0.15931883  1
  Ca2+  Ca16  1  0.08089046  0.84139259  0.49135590  1
  Ca2+  Ca17  1  0.08098158  0.83971489  0.83445404  1
  Ca2+  Ca18  1  0.58134365  0.33146058  0.16343536  1
  Ca2+  Ca19  1  0.57571451  0.33236230  0.49846090  1
  Ca2+  Ca20  1  0.57745945  0.32957196  0.82697337  1
  Ca2+  Ca21  1  0.58671731  0.83153851  0.16331168  1
  Ca2+  Ca22  1  0.57503974  0.84087469  0.49191888  1
  Ca2+  Ca23  1  0.58654327  0.83298747  0.82773093  1
  Ca2+  Ca24  1  0.32448607  0.42242857  0.17576345  1
  Ca2+  Ca25  1  0.32886906  0.41545094  0.50358918  1
  Ca2+  Ca26  1  0.33406744  0.41676860  0.83723170  1
  Ca2+  Ca27  1  0.32067696  0.91145055  0.17107893  1
  Ca2+  Ca28  1  0.32638215  0.91610950  0.50926122  1
  Ca2+  Ca29  1  0.32467973  0.91681609  0.83310136  1
  Ca2+  Ca30  1  0.84528982  0.42516918  0.16539363  1
  Ca2+  Ca31  1  0.83599845  0.41911168  0.50543290  1
  Ca2+  Ca32  1  0.84392929  0.41963494  0.84076997  1
  Ca2+  Ca33  1  0.83556046  0.92112363  0.17237610  1
  Ca2+  Ca34  1  0.82638351  0.91658836  0.49791043  1
  Ca2+  Ca35  1  0.82426350  0.91843750  0.84463092  1
  Ca2+  Ca36  1  0.41742459  0.16694476  0.16469238  1
  Ca2+  Ca37  1  0.41000943  0.16633974  0.50201062  1
  Ca2+  Ca38  1  0.41440440  0.16825298  0.82448996  1
  Ca2+  Ca39  1  0.42712334  0.67353968  0.16568954  1
  Ca2+  Ca40  1  0.42243252  0.68351271  0.49259389  1
  Ca2+  Ca41  1  0.42375281  0.67618026  0.82979602  1
  Ca2+  Ca42  1  0.92262627  0.16348459  0.15899940  1
  Ca2+  Ca43  1  0.92744502  0.16041135  0.49448322  1
  Ca2+  Ca44  1  0.92384461  0.16349105  0.83053133  1
  Ca2+  Ca45  1  0.91723999  0.68004589  0.15787420  1
  Ca2+  Ca46  1  0.91886514  0.67703167  0.49407128  1
  Ca2+  Ca47  1  0.91754642  0.67098714  0.83982110  1
  Al0+  Al48  1  0.00042200  -0.00011252  -0.00336777  1
  Al0+  Al49  1  0.00143276  0.00131964  0.33351527  1
  Al0+  Al50  1  -0.00111391  -0.00156844  0.66519300  1
  Al0+  Al51  1  0.00040022  0.49987700  -0.00063563  1
  Al0+  Al52  1  -0.00078296  0.49851159  0.34270317  1
  Al0+  Al53  1  0.00024838  0.49979266  0.66427752  1
  Al0+  Al54  1  0.49780951  0.00158253  0.00408338  1
  Al0+  Al55  1  0.49916857  0.00289201  0.32949997  1
  Al0+  Al56  1  0.49951260  -0.00071409  0.67081360  1
  Al0+  Al57  1  0.49945228  0.50253830  -0.00225634  1
  Al0+  Al58  1  0.50011815  0.50137186  0.33082257  1
  Al0+  Al59  1  0.50102336  0.49944509  0.66323128  1
  Al0+  Al60  1  0.24909370  0.25129083  -0.00299613  1
  Al0+  Al61  1  0.24799351  0.25109557  0.33267148  1
  Al0+  Al62  1  0.24883721  0.25030940  0.66295051  1
  Al0+  Al63  1  0.25292404  0.74968342  0.00192236  1
  Al0+  Al64  1  0.25189788  0.74746168  0.33334983  1
  Al0+  Al65  1  0.25155729  0.74730176  0.66673448  1
  Al0+  Al66  1  0.74641897  0.25015345  -0.00029020  1
  Al0+  Al67  1  0.75054205  0.25284076  0.33779530  1
  Al0+  Al68  1  0.74905585  0.25176074  0.66357344  1
  Al0+  Al69  1  0.74904665  0.74582926  -0.00164747  1
  Al0+  Al70  1  0.75088812  0.74985291  0.33137098  1
  Al0+  Al71  1  0.75305668  0.74712320  0.67033082  1
  Al0+  Al72  1  0.07182946  0.17693594  0.98315925  1
  Al0+  Al73  1  0.42910118  0.32159920  0.65252564  1
  Al0+  Al74  1  0.92877358  0.82149482  0.98423857  1
  Al0+  Al75  1  0.93228720  0.82038826  0.32120308  1
  Al0+  Al76  1  0.17721324  0.92587282  0.68223173  1
  Al0+  Al77  1  0.57097440  0.68022930  0.31759349  1
  Al0+  Al78  1  0.82272048  0.07279685  0.34943254  1
  Al0+  Al79  1  0.92789301  0.32255997  0.64936843  1
  Al0+  Al80  1  0.18080913  0.92929887  0.01365994  1
  Al0+  Al81  1  0.43022127  0.82095805  0.65429150  1
  Al0+  Al82  1  0.67740777  0.92648960  0.01548537  1
  Al0+  Al83  1  0.31981041  0.07178353  0.68099047  1
  Al0+  Al84  1  0.06905041  0.17680163  0.64836230  1
  Al0+  Al85  1  0.67886949  0.92801244  0.34781300  1
  Al0+  Al86  1  0.82123847  0.07164728  0.01311364  1
  Al0+  Al87  1  0.07002212  0.18065468  0.31804708  1
  Al0+  Al88  1  0.07320469  0.67907281  0.98731761  1
  Al0+  Al89  1  0.92714839  0.32040526  0.98766257  1
  Al0+  Al90  1  0.57017516  0.68038610  0.98411515  1
  Al0+  Al91  1  0.18128288  0.92812291  0.34520593  1
  Al0+  Al92  1  0.42668726  0.82556289  0.31655504  1
  Al0+  Al93  1  0.82146894  0.56762346  0.01431030  1
  Al0+  Al94  1  0.17878403  0.42916663  0.34871431  1
  Al0+  Al95  1  0.68020799  0.92840630  0.67999847  1
  Si0+  Si96  1  0.42945215  0.32061636  0.31806203  1
  Si0+  Si97  1  0.67727148  0.42917932  0.68116339  1
  Si0+  Si98  1  0.42913450  0.32148832  0.98656502  1
  Si0+  Si99  1  0.57429737  0.67895666  0.65049115  1
  Si0+  Si100  1  0.07215818  0.67447933  0.32056570  1
  Si0+  Si101  1  0.32346224  0.57095629  0.01598440  1
  Si0+  Si102  1  0.57151375  0.17708037  0.64974666  1
  Si0+  Si103  1  0.67407684  0.42825342  0.01669110  1
  Si0+  Si104  1  0.42817876  0.82420124  0.98225030  1
  Si0+  Si105  1  0.32254302  0.56917951  0.68246250  1
  Si0+  Si106  1  0.92866931  0.81875041  0.65164860  1
  Si0+  Si107  1  0.56907601  0.17854577  0.98544963  1
  Si0+  Si108  1  0.82224161  0.56867726  0.68309592  1
  Si0+  Si109  1  0.57385419  0.18045960  0.31803898  1
  Si0+  Si110  1  0.82121734  0.07327482  0.68241482  1
  Si0+  Si111  1  0.67636334  0.42919778  0.34957007  1
  Si0+  Si112  1  0.82014245  0.57079689  0.34988507  1
  Si0+  Si113  1  0.17915275  0.43005177  0.68381428  1
  Si0+  Si114  1  0.32088151  0.07619916  0.01774715  1
  Si0+  Si115  1  0.32244771  0.07394229  0.34804877  1
  Si0+  Si116  1  0.32447207  0.56988059  0.35211096  1
  Si0+  Si117  1  0.07245982  0.67816602  0.65167200  1
  Si0+  Si118  1  0.92624251  0.32409261  0.31716177  1
  Si0+  Si119  1  0.18056256  0.43024692  0.01419493  1
  O2-  O120  1  0.25255482  0.00732886  0.06066551  1
  O2-  O121  1  0.26029610  -0.00094398  0.39083224  1
  O2-  O122  1  0.24786249  0.00018655  0.73106609  1
  O2-  O123  1  0.24875450  0.50359440  0.05772357  1
  O2-  O124  1  0.25168516  0.50550669  0.39660123  1
  O2-  O125  1  0.25166418  0.49919993  0.72725005  1
  O2-  O126  1  0.75433758  -0.00546505  0.06325487  1
  O2-  O127  1  0.74962162  0.00100246  0.39843206  1
  O2-  O128  1  0.75273532  0.00477501  0.72663774  1
  O2-  O129  1  0.74717074  0.49172621  0.06116898  1
  O2-  O130  1  0.74788824  0.49999290  0.39119323  1
  O2-  O131  1  0.75194627  0.49566932  0.72333475  1
  O2-  O132  1  -0.00770969  0.25369278  0.27346302  1
  O2-  O133  1  -0.00527041  0.24724413  0.59845583  1
  O2-  O134  1  -0.00624065  0.24466543  0.93630700  1
  O2-  O135  1  0.00993520  0.74764886  0.27613022  1
  O2-  O136  1  0.00622063  0.75368175  0.61020107  1
  O2-  O137  1  0.00465341  0.75230817  0.93431505  1
  O2-  O138  1  0.50009626  0.24992808  0.27555385  1
  O2-  O139  1  0.50152959  0.24513867  0.60515326  1
  O2-  O140  1  0.49762445  0.24945518  0.94319694  1
  O2-  O141  1  0.50289304  0.75633041  0.26830274  1
  O2-  O142  1  0.50915503  0.75052703  0.60709768  1
  O2-  O143  1  0.50182636  0.76061374  0.93775351  1
  O2-  O144  1  0.07688393  0.18158178  0.09655854  1
  O2-  O145  1  0.07253034  0.18173792  0.43074591  1
  O2-  O146  1  0.06887313  0.17883088  0.76170173  1
  O2-  O147  1  0.06999979  0.67614549  0.10084661  1
  O2-  O148  1  0.06786532  0.67203643  0.42661533  1
  O2-  O149  1  0.07082850  0.67325433  0.75618335  1
  O2-  O150  1  0.56743320  0.18139386  0.09067469  1
  O2-  O151  1  0.57346347  0.18312862  0.42306566  1
  O2-  O152  1  0.57208869  0.18101699  0.75554991  1
  O2-  O153  1  0.56501686  0.67420957  0.09640020  1
  O2-  O154  1  0.56738889  0.67581459  0.43143589  1
  O2-  O155  1  0.57281600  0.67645106  0.75592242  1
  O2-  O156  1  0.18100993  0.43058388  0.23520740  1
  O2-  O157  1  0.18018578  0.43319004  0.57861238  1
  O2-  O158  1  0.18475861  0.43023898  0.90905051  1
  O2-  O159  1  0.17973558  0.93003781  0.23225041  1
  O2-  O160  1  0.17923957  0.92437776  0.56851406  1
  O2-  O161  1  0.18489594  0.92744290  0.90095332  1
  O2-  O162  1  0.67333179  0.42723820  0.24491782  1
  O2-  O163  1  0.67380551  0.43258727  0.57603662  1
  O2-  O164  1  0.66796475  0.43108138  0.91114144  1
  O2-  O165  1  0.68147205  0.92875505  0.23483647  1
  O2-  O166  1  0.68118070  0.92829965  0.56710457  1
  O2-  O167  1  0.67637113  0.93059149  0.90136713  1
  O2-  O168  1  0.42951450  0.32181898  0.09193381  1
  O2-  O169  1  0.43073512  0.32146862  0.42301432  1
  O2-  O170  1  0.43301757  0.32503539  0.76583766  1
  O2-  O171  1  0.42625809  0.82070574  0.08750394  1
  O2-  O172  1  0.42671368  0.82313900  0.43058442  1
  O2-  O173  1  0.42977134  0.81642607  0.76723975  1
  O2-  O174  1  0.93295170  0.32294334  0.10127942  1
  O2-  O175  1  0.92747528  0.32633696  0.42255151  1
  O2-  O176  1  0.93132288  0.32597293  0.76236641  1
  O2-  O177  1  0.92949229  0.82013792  0.09783573  1
  O2-  O178  1  0.93132081  0.81665936  0.43515110  1
  O2-  O179  1  0.92473358  0.81519234  0.75612382  1
  O2-  O180  1  0.32045145  0.07867033  0.24250508  1
  O2-  O181  1  0.31983773  0.07062227  0.56732673  1
  O2-  O182  1  0.32285350  0.07919813  0.91256738  1
  O2-  O183  1  0.32743924  0.56501280  0.24651531  1
  O2-  O184  1  0.32131956  0.56722743  0.57757569  1
  O2-  O185  1  0.32585019  0.56692448  0.91061974  1
  O2-  O186  1  0.82100904  0.07452717  0.23621429  1
  O2-  O187  1  0.81979483  0.07203406  0.57685295  1
  O2-  O188  1  0.81542897  0.07307573  0.89918441  1
  O2-  O189  1  0.82329933  0.56854615  0.24534749  1
  O2-  O190  1  0.82094392  0.57074766  0.57770999  1
  O2-  O191  1  0.82016486  0.56528951  0.90080126  1
  O2-  O192  1  0.03968638  0.08448899  0.26483923  1
  O2-  O193  1  0.04203214  0.07718987  0.59622413  1
  O2-  O194  1  0.04821982  0.07872189  0.92953585  1
  O2-  O195  1  0.04050727  0.58181708  0.27573937  1
  O2-  O196  1  0.03892688  0.58899216  0.60168297  1
  O2-  O197  1  0.04292323  0.58158655  0.93279316  1
  O2-  O198  1  0.54744417  0.09013766  0.26807943  1
  O2-  O199  1  0.54572022  0.08386600  0.60450429  1
  O2-  O200  1  0.54016896  0.08730437  0.93776999  1
  O2-  O201  1  0.53929338  0.58209249  0.26379898  1
  O2-  O202  1  0.54567103  0.58635511  0.60391615  1
  O2-  O203  1  0.53348054  0.58512037  0.92850202  1
  O2-  O204  1  0.16545325  0.21595790  0.26380897  1
  O2-  O205  1  0.16649727  0.21002323  0.59661286  1
  O2-  O206  1  0.16838686  0.21304935  0.92945977  1
  O2-  O207  1  0.16924650  0.68840810  0.27883559  1
  O2-  O208  1  0.16622919  0.69778964  0.60484473  1
  O2-  O209  1  0.17467808  0.70024045  0.93671452  1
  O2-  O210  1  0.66363395  0.21426900  0.27065679  1
  O2-  O211  1  0.66354797  0.20510234  0.60204733  1
  O2-  O212  1  0.65885279  0.20691991  0.93526018  1
  O2-  O213  1  0.67107649  0.70213451  0.26670247  1
  O2-  O214  1  0.66992287  0.69979532  0.60658288  1
  O2-  O215  1  0.66808448  0.70154498  0.92948290  1
  O2-  O216  1  0.08937320  0.45681540  0.06212802  1
  O2-  O217  1  0.08363907  0.45868171  0.40689207  1
  O2-  O218  1  0.08799587  0.46185906  0.72961282  1
  O2-  O219  1  0.08256627  0.95728819  0.06469815  1
  O2-  O220  1  0.08677126  0.96289799  0.40001489  1
  O2-  O221  1  0.07693374  0.95194743  0.73232145  1
  O2-  O222  1  0.58244360  0.45935073  0.06505761  1
  O2-  O223  1  0.58481404  0.45844174  0.39774476  1
  O2-  O224  1  0.58686357  0.46005791  0.73052329  1
  O2-  O225  1  0.57975157  0.95937237  0.06788374  1
  O2-  O226  1  0.57896768  0.95950248  0.39722338  1
  O2-  O227  1  0.58381726  0.95712594  0.73477276  1
  O2-  O228  1  0.21242060  0.33984206  0.06227861  1
  O2-  O229  1  0.21499916  0.33471668  0.40297558  1
  O2-  O230  1  0.20671178  0.33810945  0.72922792  1
  O2-  O231  1  0.21344625  0.83284820  0.06805033  1
  O2-  O232  1  0.20481844  0.82821836  0.39742907  1
  O2-  O233  1  0.20724635  0.82662358  0.73354016  1
  O2-  O234  1  0.69199972  0.33265584  0.06096347  1
  O2-  O235  1  0.70278822  0.33890105  0.40043023  1
  O2-  O236  1  0.69806943  0.33509582  0.72727327  1
  O2-  O237  1  0.69852941  0.82467773  0.06213964  1
  O2-  O238  1  0.70739191  0.82907401  0.40052284  1
  O2-  O239  1  0.71272351  0.83133072  0.73298222  1
  O2-  O240  1  0.45848667  0.41154274  0.26970492  1
  O2-  O241  1  0.46384452  0.41627750  0.59578472  1
  O2-  O242  1  0.45833710  0.41224771  0.93813592  1
  O2-  O243  1  0.44732126  0.92603025  0.26471602  1
  O2-  O244  1  0.45701247  0.91891620  0.60191278  1
  O2-  O245  1  0.44702619  0.92084854  0.94002956  1
  O2-  O246  1  0.95586090  0.41810713  0.27377746  1
  O2-  O247  1  0.96013361  0.42044746  0.59585226  1
  O2-  O248  1  0.96202757  0.41629225  0.93353859  1
  O2-  O249  1  0.96188927  0.91657369  0.26782867  1
  O2-  O250  1  0.94926836  0.91201632  0.60498206  1
  O2-  O251  1  0.95350999  0.91952180  0.92997514  1
  O2-  O252  1  0.33814809  0.29327233  0.26997057  1
  O2-  O253  1  0.33239923  0.29492248  0.59782501  1
  O2-  O254  1  0.33755593  0.29666701  0.93767939  1
  O2-  O255  1  0.33029110  0.78901903  0.26294559  1
  O2-  O256  1  0.33543336  0.78405792  0.59961989  1
  O2-  O257  1  0.33793298  0.79034616  0.93467157  1
  O2-  O258  1  0.83010262  0.30560994  0.27371558  1
  O2-  O259  1  0.82523330  0.30450142  0.60018078  1
  O2-  O260  1  0.82430986  0.30357052  0.93821594  1
  O2-  O261  1  0.83731330  0.78645772  0.26760140  1
  O2-  O262  1  0.84016548  0.78183087  0.60249492  1
  O2-  O263  1  0.83229467  0.78648118  0.93127964  1
  O2-  O264  1  0.41435224  0.05188563  0.06504574  1
  O2-  O265  1  0.41900822  0.05802274  0.39157409  1
  O2-  O266  1  0.41856515  0.04620542  0.73528031  1
  O2-  O267  1  0.41210201  0.53633646  0.06536798  1
  O2-  O268  1  0.41555717  0.53781323  0.39974913  1
  O2-  O269  1  0.41477138  0.53984076  0.72902526  1
  O2-  O270  1  0.92176984  0.04881237  0.06276370  1
  O2-  O271  1  0.91936572  0.04054214  0.40260093  1
  O2-  O272  1  0.91472816  0.04679360  0.72676736  1
  O2-  O273  1  0.91783892  0.53716348  0.06982258  1
  O2-  O274  1  0.90972967  0.54199722  0.40212174  1
  O2-  O275  1  0.91444096  0.54099217  0.72953902  1
  O2-  O276  1  0.29701130  0.17093440  0.06374314  1
  O2-  O277  1  0.29192725  0.16566113  0.39559298  1
  O2-  O278  1  0.29400736  0.17250692  0.73226693  1
  O2-  O279  1  0.30171721  0.66341304  0.06333947  1
  O2-  O280  1  0.30311288  0.66467515  0.39652904  1
  O2-  O281  1  0.29522337  0.66003263  0.73113132  1
  O2-  O282  1  0.78773407  0.16917414  0.06639956  1
  O2-  O283  1  0.79463923  0.17212842  0.40225335  1
  O2-  O284  1  0.79665137  0.16843545  0.72594902  1
  O2-  O285  1  0.78884874  0.66299995  0.06824610  1
  O2-  O286  1  0.79172930  0.66143687  0.39895892  1
  O2-  O287  1  0.79362169  0.65876783  0.73266583  1
