# generated using pymatgen
data_Ca2Al2SiO7
_symmetry_space_group_name_H-M   'P 1'
_cell_length_a   15.45800695
_cell_length_b   15.45612981
_cell_length_c   15.28269076
_cell_angle_alpha   89.99016759
_cell_angle_beta   90.00005347
_cell_angle_gamma   90.00307344
_symmetry_Int_Tables_number   1
_chemical_formula_structural   Ca2Al2SiO7
_chemical_formula_sum   'Ca48 Al48 Si24 O168'
_cell_volume   3651.35512057
_cell_formula_units_Z   24
loop_
 _symmetry_equiv_pos_site_id
 _symmetry_equiv_pos_as_xyz
  1  'x, y, z'
loop_
 _atom_type_symbol
 _atom_type_oxidation_number
  Ca2+  2.0
  Al0+  0.0
  Si0+  0.0
  O2-  -2.0
loop_
 _atom_site_type_symbol
 _atom_site_label
 _atom_site_symmetry_multiplicity
 _atom_site_fract_x
 _atom_site_fract_y
 _atom_site_fract_z
 _atom_site_occupancy
  Ca2+  Ca0  1  0.16579322  0.08441517  0.17204440  1
  Ca2+  Ca1  1  0.15630334  0.07128329  0.50066511  1
  Ca2+  Ca2  1  0.16628870  0.08059637  0.84020920  1
  Ca2+  Ca3  1  0.15959867  0.57890659  0.17542451  1
  Ca2+  Ca4  1  0.16572347  0.57654666  0.50397925  1
  Ca2+  Ca5  1  0.17209918  0.58220444  0.83704309  1
  Ca2+  Ca6  1  0.67621544  0.07438977  0.17917226  1
  Ca2+  Ca7  1  0.67368779  0.07945356  0.50846185  1
  Ca2+  Ca8  1  0.66639516  0.08437166  0.83167284  1
  Ca2+  Ca9  1  0.67614892  0.58957370  0.17132531  1
  Ca2+  Ca10  1  0.67846116  0.58578031  0.50223375  1
  Ca2+  Ca11  1  0.67802335  0.58626868  0.83967690  1
  Ca2+  Ca12  1  0.08095846  0.32655833  0.16864679  1
  Ca2+  Ca13  1  0.07295438  0.33002583  0.48999984  1
  Ca2+  Ca14  1  0.07918070  0.32482076  0.82953589  1
  Ca2+  Ca15  1  0.07906384  0.82478175  0.16135402  1
  Ca2+  Ca16  1  0.08592139  0.82904128  0.49175919  1
  Ca2+  Ca17  1  0.07917897  0.83141377  0.83225341  1
  Ca2+  Ca18  1  0.57492371  0.33320547  0.16068171  1
  Ca2+  Ca19  1  0.58016406  0.33085651  0.50157919  1
  Ca2+  Ca20  1  0.57231177  0.32905681  0.82365109  1
  Ca2+  Ca21  1  0.59399056  0.82347923  0.16594142  1
  Ca2+  Ca22  1  0.58877454  0.83238382  0.49398416  1
  Ca2+  Ca23  1  0.58622176  0.83026802  0.83032115  1
  Ca2+  Ca24  1  0.32616125  0.41546747  0.17107067  1
  Ca2+  Ca25  1  0.32797749  0.42058516  0.50414851  1
  Ca2+  Ca26  1  0.34044592  0.41682893  0.83620823  1
  Ca2+  Ca27  1  0.32662084  0.92369333  0.17131893  1
  Ca2+  Ca28  1  0.31921145  0.91236657  0.50423545  1
  Ca2+  Ca29  1  0.32657490  0.92462267  0.83710874  1
  Ca2+  Ca30  1  0.84193180  0.42848292  0.17225928  1
  Ca2+  Ca31  1  0.84435560  0.42500467  0.50437341  1
  Ca2+  Ca32  1  0.83955206  0.42587188  0.83480955  1
  Ca2+  Ca33  1  0.83387937  0.91835179  0.17418635  1
  Ca2+  Ca34  1  0.82565587  0.92905801  0.50453824  1
  Ca2+  Ca35  1  0.83103649  0.91842358  0.83345966  1
  Ca2+  Ca36  1  0.41273135  0.17165260  0.15738404  1
  Ca2+  Ca37  1  0.42185718  0.16613769  0.50129113  1
  Ca2+  Ca38  1  0.41638845  0.17518517  0.82703195  1
  Ca2+  Ca39  1  0.43079732  0.66743506  0.16297197  1
  Ca2+  Ca40  1  0.42264225  0.66495821  0.49423085  1
  Ca2+  Ca41  1  0.42414813  0.66201644  0.82701386  1
  Ca2+  Ca42  1  0.92739418  0.16241695  0.16634040  1
  Ca2+  Ca43  1  0.91216642  0.17479312  0.49250643  1
  Ca2+  Ca44  1  0.91902611  0.16909400  0.82438305  1
  Ca2+  Ca45  1  0.92299608  0.66762429  0.16039394  1
  Ca2+  Ca46  1  0.91882632  0.66471979  0.49189741  1
  Ca2+  Ca47  1  0.91552209  0.66824498  0.83454681  1
  Al0+  Al48  1  -0.00082865  -0.00124228  -0.00735127  1
  Al0+  Al49  1  0.00039328  0.00113549  0.33766712  1
  Al0+  Al50  1  -0.00225288  -0.00332717  0.67454163  1
  Al0+  Al51  1  0.00149354  0.50006828  -0.00001187  1
  Al0+  Al52  1  0.00092859  0.49933329  0.33468822  1
  Al0+  Al53  1  0.00261725  0.49921963  0.66993852  1
  Al0+  Al54  1  0.49977135  -0.00045978  0.00652965  1
  Al0+  Al55  1  0.49843701  0.00027474  0.33517132  1
  Al0+  Al56  1  0.49779721  -0.00191088  0.66614061  1
  Al0+  Al57  1  0.50066372  0.49997763  -0.00660450  1
  Al0+  Al58  1  0.50151659  0.50099220  0.32795669  1
  Al0+  Al59  1  0.50035701  0.50046416  0.66386602  1
  Al0+  Al60  1  0.24962976  0.25042951  -0.00498214  1
  Al0+  Al61  1  0.24934053  0.25153942  0.33673294  1
  Al0+  Al62  1  0.24848859  0.24912011  0.65961039  1
  Al0+  Al63  1  0.25111572  0.75007660  -0.00146226  1
  Al0+  Al64  1  0.25300284  0.75107703  0.33040237  1
  Al0+  Al65  1  0.25086433  0.74816574  0.67614616  1
  Al0+  Al66  1  0.74915712  0.25024391  0.00269779  1
  Al0+  Al67  1  0.74735262  0.25381617  0.32944803  1
  Al0+  Al68  1  0.74973885  0.25115075  0.66293866  1
  Al0+  Al69  1  0.75079713  0.74962426  -0.00414554  1
  Al0+  Al70  1  0.75038092  0.74934643  0.33741959  1
  Al0+  Al71  1  0.75167849  0.75061774  0.67300933  1
  Al0+  Al72  1  0.81912335  0.07373093  0.68349074  1
  Al0+  Al73  1  0.31895626  0.07166393  0.01254884  1
  Al0+  Al74  1  0.92893933  0.82031670  0.98399644  1
  Al0+  Al75  1  0.93090369  0.32148756  0.65373227  1
  Al0+  Al76  1  0.06965295  0.17989302  0.98583692  1
  Al0+  Al77  1  0.67871965  0.92847455  0.34785055  1
  Al0+  Al78  1  0.42669044  0.32337624  0.64745184  1
  Al0+  Al79  1  0.82161367  0.07397090  0.34709373  1
  Al0+  Al80  1  0.07283492  0.67916194  0.32283001  1
  Al0+  Al81  1  0.17788510  0.92752155  0.68285779  1
  Al0+  Al82  1  0.57194965  0.68091121  0.32079629  1
  Al0+  Al83  1  0.92620407  0.32266550  0.31683578  1
  Al0+  Al84  1  0.07049461  0.17786677  0.31961352  1
  Al0+  Al85  1  0.56984678  0.17738560  0.65110427  1
  Al0+  Al86  1  0.32166876  0.56831826  0.67969154  1
  Al0+  Al87  1  0.82066608  0.56855189  0.34651386  1
  Al0+  Al88  1  0.07344904  0.67616022  0.98347342  1
  Al0+  Al89  1  0.42959355  0.31911206  0.98676160  1
  Al0+  Al90  1  0.82295446  0.57004799  0.68182759  1
  Al0+  Al91  1  0.18011062  0.92852816  0.34442473  1
  Al0+  Al92  1  0.17935075  0.42975298  0.34693761  1
  Al0+  Al93  1  0.82056290  0.57000750  0.01530704  1
  Al0+  Al94  1  0.56994351  0.68098507  0.98422546  1
  Al0+  Al95  1  0.67670553  0.92934858  0.68394883  1
  Si0+  Si96  1  0.42937862  0.32056717  0.31763113  1
  Si0+  Si97  1  0.42709670  0.81895529  0.65262416  1
  Si0+  Si98  1  0.67738062  0.42892978  0.68250223  1
  Si0+  Si99  1  0.18093738  0.43007596  0.01454280  1
  Si0+  Si100  1  0.32443700  0.57150618  0.34650997  1
  Si0+  Si101  1  0.32030868  0.07203720  0.68188739  1
  Si0+  Si102  1  0.67650968  0.42788091  0.01620572  1
  Si0+  Si103  1  0.32404361  0.57206017  0.01568559  1
  Si0+  Si104  1  0.42714262  0.82420774  0.31537480  1
  Si0+  Si105  1  0.82227104  0.07286169  0.01516313  1
  Si0+  Si106  1  0.17903959  0.42634604  0.68443120  1
  Si0+  Si107  1  0.07050404  0.17389908  0.64965128  1
  Si0+  Si108  1  0.92660005  0.32204478  0.98397555  1
  Si0+  Si109  1  0.32197106  0.07430988  0.35154092  1
  Si0+  Si110  1  0.57323406  0.17581158  0.98614271  1
  Si0+  Si111  1  0.92906766  0.82154011  0.32099182  1
  Si0+  Si112  1  0.42789329  0.82430046  0.98295731  1
  Si0+  Si113  1  0.07234012  0.68058185  0.65262270  1
  Si0+  Si114  1  0.17633331  0.92793464  0.01768426  1
  Si0+  Si115  1  0.92840648  0.81983607  0.64999683  1
  Si0+  Si116  1  0.67350373  0.42868297  0.34962825  1
  Si0+  Si117  1  0.57294008  0.68072228  0.65105771  1
  Si0+  Si118  1  0.67983886  0.92956162  0.01582716  1
  Si0+  Si119  1  0.56996143  0.17741349  0.31683275  1
  O2-  O120  1  0.24488996  -0.00276398  0.06102098  1
  O2-  O121  1  0.25307984  0.00452335  0.39333474  1
  O2-  O122  1  0.24803109  0.00774824  0.72703534  1
  O2-  O123  1  0.24888364  0.50512000  0.05717841  1
  O2-  O124  1  0.25239631  0.50748368  0.39156120  1
  O2-  O125  1  0.25268508  0.48952054  0.72901589  1
  O2-  O126  1  0.74995670  0.00236383  0.05636494  1
  O2-  O127  1  0.74679369  0.00434489  0.39657582  1
  O2-  O128  1  0.74564318  0.00360676  0.73493840  1
  O2-  O129  1  0.74716894  0.49357176  0.06168130  1
  O2-  O130  1  0.74700347  0.49245929  0.39308203  1
  O2-  O131  1  0.74791944  0.49508645  0.72783065  1
  O2-  O132  1  -0.00419508  0.24692769  0.26860157  1
  O2-  O133  1  0.00183420  0.24302694  0.60713210  1
  O2-  O134  1  -0.00910684  0.24995428  0.93898394  1
  O2-  O135  1  -0.00112648  0.75433163  0.27623942  1
  O2-  O136  1  0.00074733  0.74975979  0.60829299  1
  O2-  O137  1  0.00223419  0.74886344  0.93379779  1
  O2-  O138  1  0.49808588  0.24778824  0.27450872  1
  O2-  O139  1  0.49816704  0.24970816  0.59946512  1
  O2-  O140  1  0.50527014  0.24477446  0.94177093  1
  O2-  O141  1  0.49981757  0.75831261  0.27332685  1
  O2-  O142  1  0.50157386  0.75188052  0.60928239  1
  O2-  O143  1  0.49351795  0.75371668  0.93689974  1
  O2-  O144  1  0.07063849  0.18061565  0.09861328  1
  O2-  O145  1  0.07100878  0.17845010  0.43296278  1
  O2-  O146  1  0.07188194  0.17657661  0.75575251  1
  O2-  O147  1  0.07242853  0.67659185  0.09732059  1
  O2-  O148  1  0.07284991  0.68010321  0.43644739  1
  O2-  O149  1  0.07223420  0.68161285  0.75753773  1
  O2-  O150  1  0.57230167  0.17713567  0.09198437  1
  O2-  O151  1  0.56848539  0.17710180  0.42154140  1
  O2-  O152  1  0.56653359  0.17879419  0.76527482  1
  O2-  O153  1  0.57035782  0.68220895  0.09749732  1
  O2-  O154  1  0.56921559  0.67969498  0.43407220  1
  O2-  O155  1  0.57133757  0.68101568  0.75628293  1
  O2-  O156  1  0.18267998  0.42860333  0.23330674  1
  O2-  O157  1  0.17704258  0.43094179  0.57904455  1
  O2-  O158  1  0.18267175  0.42976802  0.90934304  1
  O2-  O159  1  0.18270806  0.92752650  0.23152706  1
  O2-  O160  1  0.17994831  0.92436496  0.56955179  1
  O2-  O161  1  0.17845480  0.92880006  0.91192865  1
  O2-  O162  1  0.66740276  0.43171803  0.24414567  1
  O2-  O163  1  0.67528928  0.43303884  0.57691185  1
  O2-  O164  1  0.67619323  0.42807567  0.91073094  1
  O2-  O165  1  0.68145391  0.92856947  0.23354597  1
  O2-  O166  1  0.67989699  0.92748646  0.57071963  1
  O2-  O167  1  0.67732468  0.93102517  0.91104022  1
  O2-  O168  1  0.42930497  0.31867670  0.10045688  1
  O2-  O169  1  0.43139212  0.32211616  0.42220590  1
  O2-  O170  1  0.42889341  0.32230752  0.76119572  1
  O2-  O171  1  0.42882079  0.82383590  0.08850415  1
  O2-  O172  1  0.42304641  0.82180215  0.42107625  1
  O2-  O173  1  0.42686799  0.81671372  0.75772500  1
  O2-  O174  1  0.92857074  0.32264798  0.08912816  1
  O2-  O175  1  0.93008569  0.32363957  0.43047749  1
  O2-  O176  1  0.93526466  0.32240354  0.76736059  1
  O2-  O177  1  0.92955857  0.82140676  0.09813700  1
  O2-  O178  1  0.92970712  0.81958847  0.42679471  1
  O2-  O179  1  0.92858503  0.81857407  0.75497834  1
  O2-  O180  1  0.32299265  0.07481355  0.24562752  1
  O2-  O181  1  0.32135660  0.06859602  0.57631161  1
  O2-  O182  1  0.31806211  0.07023672  0.89951517  1
  O2-  O183  1  0.32694740  0.56785695  0.24069059  1
  O2-  O184  1  0.31869942  0.57098108  0.56646410  1
  O2-  O185  1  0.32552381  0.56924048  0.91057983  1
  O2-  O186  1  0.82131936  0.06933965  0.23258993  1
  O2-  O187  1  0.81997309  0.07176160  0.57016950  1
  O2-  O188  1  0.82030722  0.07557863  0.91047659  1
  O2-  O189  1  0.81951042  0.57071273  0.23338335  1
  O2-  O190  1  0.82258992  0.57139772  0.56872885  1
  O2-  O191  1  0.81932374  0.56800264  0.90206215  1
  O2-  O192  1  0.04473193  0.07834935  0.26610114  1
  O2-  O193  1  0.04450351  0.07855326  0.60797561  1
  O2-  O194  1  0.04336006  0.08299090  0.93112534  1
  O2-  O195  1  0.04124019  0.58363232  0.26875423  1
  O2-  O196  1  0.04609387  0.58728902  0.60776305  1
  O2-  O197  1  0.04566150  0.57765289  0.93036987  1
  O2-  O198  1  0.54266933  0.08504117  0.26944673  1
  O2-  O199  1  0.53917577  0.07890787  0.59803404  1
  O2-  O200  1  0.54744166  0.08172150  0.94201227  1
  O2-  O201  1  0.53899022  0.58618255  0.26334552  1
  O2-  O202  1  0.54509618  0.58932337  0.60371066  1
  O2-  O203  1  0.53997840  0.58485554  0.92924643  1
  O2-  O204  1  0.16963744  0.20940957  0.26809720  1
  O2-  O205  1  0.16446307  0.19602485  0.60319650  1
  O2-  O206  1  0.16337946  0.21502886  0.92928385  1
  O2-  O207  1  0.17012942  0.70638276  0.26775720  1
  O2-  O208  1  0.16484788  0.70961683  0.60761223  1
  O2-  O209  1  0.17364435  0.70266650  0.93217385  1
  O2-  O210  1  0.66052677  0.20546730  0.26736714  1
  O2-  O211  1  0.66762125  0.20640046  0.59767842  1
  O2-  O212  1  0.66728824  0.20030209  0.94025350  1
  O2-  O213  1  0.66860124  0.71174796  0.26621399  1
  O2-  O214  1  0.66537077  0.70954624  0.60577982  1
  O2-  O215  1  0.66490472  0.71343195  0.92950670  1
  O2-  O216  1  0.08843987  0.45444548  0.06206839  1
  O2-  O217  1  0.08461290  0.46077901  0.40306135  1
  O2-  O218  1  0.08932035  0.45791529  0.73453007  1
  O2-  O219  1  0.08179781  0.95357642  0.06070055  1
  O2-  O220  1  0.08431119  0.95631618  0.40133653  1
  O2-  O221  1  0.08126674  0.95339739  0.73811163  1
  O2-  O222  1  0.58301246  0.45635467  0.06176294  1
  O2-  O223  1  0.58240532  0.45990886  0.39828542  1
  O2-  O224  1  0.58450949  0.45674901  0.72918805  1
  O2-  O225  1  0.58817370  0.95400738  0.06568474  1
  O2-  O226  1  0.57742245  0.95145042  0.39762598  1
  O2-  O227  1  0.57577295  0.95256109  0.73495412  1
  O2-  O228  1  0.21361891  0.33984719  0.06149013  1
  O2-  O229  1  0.21222215  0.33538752  0.40362122  1
  O2-  O230  1  0.19904251  0.32948716  0.72619310  1
  O2-  O231  1  0.20324641  0.83362433  0.06211694  1
  O2-  O232  1  0.21442440  0.83268557  0.39987450  1
  O2-  O233  1  0.21467394  0.83474282  0.73989437  1
  O2-  O234  1  0.69691919  0.33272213  0.06289348  1
  O2-  O235  1  0.69203310  0.33279907  0.39288737  1
  O2-  O236  1  0.69882234  0.33418054  0.72694810  1
  O2-  O237  1  0.71072188  0.83799446  0.06134376  1
  O2-  O238  1  0.70787165  0.83165122  0.40233741  1
  O2-  O239  1  0.70946722  0.83269515  0.73833318  1
  O2-  O240  1  0.45850564  0.41132184  0.26815520  1
  O2-  O241  1  0.45755014  0.42151877  0.59450333  1
  O2-  O242  1  0.46012817  0.41472435  0.93118258  1
  O2-  O243  1  0.44834301  0.91950620  0.27041108  1
  O2-  O244  1  0.44832818  0.91181564  0.60490733  1
  O2-  O245  1  0.45693157  0.91748521  0.93759551  1
  O2-  O246  1  0.96303214  0.41837906  0.26362665  1
  O2-  O247  1  0.96699224  0.41729850  0.60019349  1
  O2-  O248  1  0.95715455  0.41383131  0.93746964  1
  O2-  O249  1  0.95329470  0.91536771  0.27533995  1
  O2-  O250  1  0.95565362  0.91280600  0.60506727  1
  O2-  O251  1  0.95571294  0.91762633  0.92756543  1
  O2-  O252  1  0.33685984  0.29374501  0.27148294  1
  O2-  O253  1  0.32757891  0.29676334  0.59470924  1
  O2-  O254  1  0.33501228  0.28838331  0.92988372  1
  O2-  O255  1  0.33699271  0.79511775  0.26411789  1
  O2-  O256  1  0.33653865  0.78540173  0.60552261  1
  O2-  O257  1  0.33320902  0.80261733  0.93776554  1
  O2-  O258  1  0.82487208  0.30484529  0.26464089  1
  O2-  O259  1  0.83225535  0.29915078  0.60076799  1
  O2-  O260  1  0.83052806  0.30115870  0.94051093  1
  O2-  O261  1  0.83617420  0.79464944  0.27462423  1
  O2-  O262  1  0.83663119  0.79029089  0.60392138  1
  O2-  O263  1  0.83226285  0.79051614  0.92872525  1
  O2-  O264  1  0.41544724  0.04224489  0.06942858  1
  O2-  O265  1  0.41525887  0.04815299  0.39773088  1
  O2-  O266  1  0.41169956  0.04254641  0.72968947  1
  O2-  O267  1  0.41492744  0.53986613  0.06267054  1
  O2-  O268  1  0.41613581  0.54099544  0.39398192  1
  O2-  O269  1  0.42005076  0.54171640  0.73316242  1
  O2-  O270  1  0.91430831  0.04195758  0.06001719  1
  O2-  O271  1  0.91857169  0.04599326  0.40186433  1
  O2-  O272  1  0.91580789  0.04146109  0.73794006  1
  O2-  O273  1  0.91882730  0.54017097  0.06721199  1
  O2-  O274  1  0.91678458  0.53889020  0.40150148  1
  O2-  O275  1  0.91928436  0.53862355  0.73631381  1
  O2-  O276  1  0.28770822  0.16865276  0.06590565  1
  O2-  O277  1  0.29835987  0.16746505  0.39836901  1
  O2-  O278  1  0.29859045  0.16826716  0.72453674  1
  O2-  O279  1  0.30272549  0.66652477  0.06092422  1
  O2-  O280  1  0.30543234  0.66729470  0.38979048  1
  O2-  O281  1  0.28923422  0.66166202  0.73889140  1
  O2-  O282  1  0.79662889  0.16484666  0.06403035  1
  O2-  O283  1  0.79321045  0.17448595  0.39508137  1
  O2-  O284  1  0.79333076  0.17375832  0.73502789  1
  O2-  O285  1  0.78739905  0.66724862  0.06630932  1
  O2-  O286  1  0.78871065  0.66388644  0.40220288  1
  O2-  O287  1  0.79056159  0.66524901  0.73674448  1
