# generated using pymatgen
data_Ca2Al2SiO7
_symmetry_space_group_name_H-M   'P 1'
_cell_length_a   15.46318195
_cell_length_b   15.46314855
_cell_length_c   15.28910708
_cell_angle_alpha   90.00112703
_cell_angle_beta   90.00958484
_cell_angle_gamma   89.99481343
_symmetry_Int_Tables_number   1
_chemical_formula_structural   Ca2Al2SiO7
_chemical_formula_sum   'Ca48 Al48 Si24 O168'
_cell_volume   3655.77037255
_cell_formula_units_Z   24
loop_
 _symmetry_equiv_pos_site_id
 _symmetry_equiv_pos_as_xyz
  1  'x, y, z'
loop_
 _atom_type_symbol
 _atom_type_oxidation_number
  Ca2+  2.0
  Al0+  0.0
  Si0+  0.0
  O2-  -2.0
loop_
 _atom_site_type_symbol
 _atom_site_label
 _atom_site_symmetry_multiplicity
 _atom_site_fract_x
 _atom_site_fract_y
 _atom_site_fract_z
 _atom_site_occupancy
  Ca2+  Ca0  1  0.16898512  0.08143248  0.17958553  1
  Ca2+  Ca1  1  0.16726667  0.07219308  0.50285168  1
  Ca2+  Ca2  1  0.17001669  0.08153861  0.83644845  1
  Ca2+  Ca3  1  0.16348485  0.57385876  0.17862980  1
  Ca2+  Ca4  1  0.16366702  0.58513419  0.49732355  1
  Ca2+  Ca5  1  0.16089361  0.57851083  0.83896447  1
  Ca2+  Ca6  1  0.67280615  0.08305077  0.17880764  1
  Ca2+  Ca7  1  0.66839112  0.07331520  0.49589416  1
  Ca2+  Ca8  1  0.66548880  0.07764921  0.83652329  1
  Ca2+  Ca9  1  0.67581165  0.57901253  0.17626624  1
  Ca2+  Ca10  1  0.67473804  0.59081945  0.50212096  1
  Ca2+  Ca11  1  0.66546384  0.58453895  0.83551005  1
  Ca2+  Ca12  1  0.08179589  0.32831984  0.16536461  1
  Ca2+  Ca13  1  0.08080346  0.32559243  0.48693973  1
  Ca2+  Ca14  1  0.08546420  0.33150430  0.83676938  1
  Ca2+  Ca15  1  0.07157481  0.83809862  0.16720607  1
  Ca2+  Ca16  1  0.08755845  0.82797549  0.48960421  1
  Ca2+  Ca17  1  0.07891968  0.83134236  0.82632151  1
  Ca2+  Ca18  1  0.58432653  0.31879366  0.16539858  1
  Ca2+  Ca19  1  0.57752937  0.32391088  0.48983688  1
  Ca2+  Ca20  1  0.58351216  0.32474964  0.83106006  1
  Ca2+  Ca21  1  0.56925229  0.84188416  0.16653196  1
  Ca2+  Ca22  1  0.57990827  0.83909695  0.49323679  1
  Ca2+  Ca23  1  0.57748524  0.83151901  0.82695611  1
  Ca2+  Ca24  1  0.32086854  0.42336546  0.17592252  1
  Ca2+  Ca25  1  0.32708476  0.42013638  0.49646762  1
  Ca2+  Ca26  1  0.32613901  0.42230053  0.84273525  1
  Ca2+  Ca27  1  0.32808514  0.91702396  0.17816997  1
  Ca2+  Ca28  1  0.32463491  0.92149820  0.49661274  1
  Ca2+  Ca29  1  0.32926597  0.91683132  0.83283898  1
  Ca2+  Ca30  1  0.84150588  0.41797025  0.17562852  1
  Ca2+  Ca31  1  0.84127681  0.42230306  0.49503671  1
  Ca2+  Ca32  1  0.83622509  0.41824730  0.84028235  1
  Ca2+  Ca33  1  0.82858081  0.91852374  0.17976638  1
  Ca2+  Ca34  1  0.82774933  0.91565504  0.49792973  1
  Ca2+  Ca35  1  0.82685532  0.91094785  0.83737486  1
  Ca2+  Ca36  1  0.42927046  0.15292978  0.16630733  1
  Ca2+  Ca37  1  0.41896480  0.15334096  0.49284593  1
  Ca2+  Ca38  1  0.41824849  0.16350987  0.83111399  1
  Ca2+  Ca39  1  0.40575537  0.67923520  0.16860749  1
  Ca2+  Ca40  1  0.42166889  0.67179452  0.48974444  1
  Ca2+  Ca41  1  0.41983777  0.67464148  0.82721068  1
  Ca2+  Ca42  1  0.92763101  0.17033851  0.16557286  1
  Ca2+  Ca43  1  0.92025689  0.17097814  0.48536629  1
  Ca2+  Ca44  1  0.92332566  0.17163153  0.83620270  1
  Ca2+  Ca45  1  0.91599513  0.67602675  0.17113360  1
  Ca2+  Ca46  1  0.92663922  0.67290296  0.48969560  1
  Ca2+  Ca47  1  0.92230830  0.67328389  0.82928399  1
  Al0+  Al48  1  -0.00142817  0.00038884  -0.00996067  1
  Al0+  Al49  1  -0.00132931  0.00013686  0.33471251  1
  Al0+  Al50  1  -0.00138699  0.00243484  0.67173480  1
  Al0+  Al51  1  -0.00043597  0.50014769  0.00161464  1
  Al0+  Al52  1  -0.00065558  0.50017199  0.33647530  1
  Al0+  Al53  1  -0.00060033  0.50171033  0.66527639  1
  Al0+  Al54  1  0.49954901  -0.00257702  -0.01082838  1
  Al0+  Al55  1  0.50006178  -0.00205872  0.33213687  1
  Al0+  Al56  1  0.50142140  0.00069985  0.67465097  1
  Al0+  Al57  1  0.50157879  0.49959066  0.00328470  1
  Al0+  Al58  1  0.50017445  0.49859977  0.33496274  1
  Al0+  Al59  1  0.50065639  0.49924890  0.66376064  1
  Al0+  Al60  1  0.25234254  0.25011965  0.00179313  1
  Al0+  Al61  1  0.25285603  0.25232090  0.33750143  1
  Al0+  Al62  1  0.24977547  0.25193139  0.67099390  1
  Al0+  Al63  1  0.25037822  0.75190119  -0.00602873  1
  Al0+  Al64  1  0.25184044  0.74842737  0.33257730  1
  Al0+  Al65  1  0.25082774  0.75020297  0.66710094  1
  Al0+  Al66  1  0.75018359  0.24900482  -0.00917821  1
  Al0+  Al67  1  0.74900397  0.24989910  0.33088008  1
  Al0+  Al68  1  0.74848365  0.25106314  0.66637598  1
  Al0+  Al69  1  0.74923576  0.74898349  -0.00196607  1
  Al0+  Al70  1  0.74939428  0.74723073  0.33783644  1
  Al0+  Al71  1  0.75054408  0.74942196  0.66967566  1
  Al0+  Al72  1  0.07129317  0.68004306  0.65285192  1
  Al0+  Al73  1  0.43072588  0.81923873  0.32166784  1
  Al0+  Al74  1  0.07493961  0.17840780  0.98399897  1
  Al0+  Al75  1  0.82191460  0.07284840  0.34585518  1
  Al0+  Al76  1  0.67830483  0.92792870  0.34531682  1
  Al0+  Al77  1  0.17743417  0.92707755  0.68357838  1
  Al0+  Al78  1  0.17781238  0.42925522  0.35048058  1
  Al0+  Al79  1  0.93068323  0.32251960  0.98438455  1
  Al0+  Al80  1  0.57090408  0.67844123  0.65254720  1
  Al0+  Al81  1  0.32210037  0.57238550  0.34861519  1
  Al0+  Al82  1  0.82064857  0.57024300  0.34785959  1
  Al0+  Al83  1  0.07228529  0.67956970  0.31799380  1
  Al0+  Al84  1  0.32229913  0.07132831  0.34417442  1
  Al0+  Al85  1  0.68206760  0.92920626  0.68265904  1
  Al0+  Al86  1  0.92685769  0.82175759  0.32112196  1
  Al0+  Al87  1  0.17632091  0.92869723  0.34424516  1
  Al0+  Al88  1  0.31977099  0.07199404  0.68403384  1
  Al0+  Al89  1  0.92672993  0.82121475  0.98541942  1
  Al0+  Al90  1  0.17927629  0.42981665  0.01485912  1
  Al0+  Al91  1  0.56789855  0.17859043  0.32162797  1
  Al0+  Al92  1  0.57071588  0.17869141  0.98378148  1
  Al0+  Al93  1  0.92944178  0.32072061  0.32004324  1
  Al0+  Al94  1  0.07472657  0.17724975  0.32185235  1
  Al0+  Al95  1  0.42811726  0.81954561  0.98316761  1
  Si0+  Si96  1  0.42793503  0.32524276  0.31542974  1
  Si0+  Si97  1  0.32207162  0.06863154  0.01429432  1
  Si0+  Si98  1  0.32317148  0.57427050  0.01532098  1
  Si0+  Si99  1  0.67770670  0.42833879  0.68262705  1
  Si0+  Si100  1  0.07050021  0.67945581  0.98459733  1
  Si0+  Si101  1  0.92787531  0.82349019  0.65075065  1
  Si0+  Si102  1  0.56983419  0.17905112  0.65037578  1
  Si0+  Si103  1  0.67888183  0.42630637  0.01457439  1
  Si0+  Si104  1  0.32378925  0.56995742  0.68192516  1
  Si0+  Si105  1  0.57243355  0.67628331  0.98472761  1
  Si0+  Si106  1  0.42984664  0.82312540  0.64805999  1
  Si0+  Si107  1  0.82090928  0.56871792  0.68408063  1
  Si0+  Si108  1  0.42777985  0.32114475  0.65208535  1
  Si0+  Si109  1  0.42989907  0.32368171  0.98383586  1
  Si0+  Si110  1  0.82032540  0.07110321  0.01319788  1
  Si0+  Si111  1  0.17831913  0.43135708  0.68328046  1
  Si0+  Si112  1  0.67779261  0.42661548  0.35046723  1
  Si0+  Si113  1  0.07150149  0.18090803  0.65245777  1
  Si0+  Si114  1  0.67886497  0.92873064  0.01431413  1
  Si0+  Si115  1  0.81956439  0.57059437  0.01479094  1
  Si0+  Si116  1  0.57308410  0.67499090  0.31636799  1
  Si0+  Si117  1  0.17721546  0.92924165  0.01368245  1
  Si0+  Si118  1  0.82142387  0.07654988  0.68626499  1
  Si0+  Si119  1  0.92812989  0.32111141  0.65164984  1
  O2-  O120  1  0.24636297  0.00246885  0.05533979  1
  O2-  O121  1  0.24404416  0.00590313  0.39314760  1
  O2-  O122  1  0.24806619  0.00019720  0.73517399  1
  O2-  O123  1  0.25392703  0.50614351  0.05825469  1
  O2-  O124  1  0.24879005  0.50281777  0.40053590  1
  O2-  O125  1  0.24873702  0.50351137  0.72546844  1
  O2-  O126  1  0.75043805  -0.00107253  0.05572579  1
  O2-  O127  1  0.75317571  -0.00284239  0.39505413  1
  O2-  O128  1  0.75735334  0.00322032  0.73065629  1
  O2-  O129  1  0.75061781  0.49658971  0.05582574  1
  O2-  O130  1  0.74493310  0.49623188  0.39540032  1
  O2-  O131  1  0.74853905  0.49881917  0.72667546  1
  O2-  O132  1  0.00245351  0.24931316  0.27171262  1
  O2-  O133  1  -0.00328404  0.24805293  0.61079375  1
  O2-  O134  1  0.00444623  0.25285348  0.93357237  1
  O2-  O135  1  0.00197459  0.75380649  0.26898708  1
  O2-  O136  1  0.00291427  0.76141008  0.60840437  1
  O2-  O137  1  0.00388512  0.74914902  0.93874569  1
  O2-  O138  1  0.49230943  0.25162700  0.27279230  1
  O2-  O139  1  0.49509281  0.24668306  0.60957558  1
  O2-  O140  1  0.49679445  0.25465713  0.93701132  1
  O2-  O141  1  0.50400793  0.74303647  0.27270576  1
  O2-  O142  1  0.49847239  0.75380985  0.60493888  1
  O2-  O143  1  0.50146541  0.74174522  0.93976016  1
  O2-  O144  1  0.07436561  0.17602961  0.09666321  1
  O2-  O145  1  0.07255772  0.17898485  0.43619079  1
  O2-  O146  1  0.07220518  0.18440373  0.75764603  1
  O2-  O147  1  0.07011682  0.67963990  0.08929096  1
  O2-  O148  1  0.06986288  0.68106910  0.43192103  1
  O2-  O149  1  0.06544002  0.67499795  0.76652129  1
  O2-  O150  1  0.57106279  0.17800779  0.09644707  1
  O2-  O151  1  0.56693816  0.17977225  0.43511538  1
  O2-  O152  1  0.57146212  0.18256282  0.75572095  1
  O2-  O153  1  0.57602009  0.67585343  0.08955382  1
  O2-  O154  1  0.57211727  0.67502338  0.42213869  1
  O2-  O155  1  0.56711272  0.67703390  0.76620372  1
  O2-  O156  1  0.17918690  0.42969357  0.23678287  1
  O2-  O157  1  0.17834257  0.42926180  0.57910927  1
  O2-  O158  1  0.18107519  0.43323800  0.90052160  1
  O2-  O159  1  0.17811458  0.92829532  0.22997450  1
  O2-  O160  1  0.17760869  0.92749627  0.57068871  1
  O2-  O161  1  0.17941334  0.92833253  0.90851279  1
  O2-  O162  1  0.67749530  0.42733013  0.24449947  1
  O2-  O163  1  0.67767923  0.42587123  0.57831661  1
  O2-  O164  1  0.67691878  0.42891558  0.90901345  1
  O2-  O165  1  0.67671019  0.93110494  0.23118584  1
  O2-  O166  1  0.68125558  0.93097373  0.57030089  1
  O2-  O167  1  0.68052249  0.92893795  0.90883520  1
  O2-  O168  1  0.43312706  0.32589377  0.08857653  1
  O2-  O169  1  0.43223955  0.32948136  0.42129891  1
  O2-  O170  1  0.43112038  0.32327330  0.75743489  1
  O2-  O171  1  0.42820122  0.82156525  0.09579807  1
  O2-  O172  1  0.43332633  0.82023294  0.43457433  1
  O2-  O173  1  0.43103681  0.81995377  0.75431320  1
  O2-  O174  1  0.92866302  0.32170312  0.09667104  1
  O2-  O175  1  0.92953256  0.31922179  0.43453291  1
  O2-  O176  1  0.92861060  0.32232141  0.75680352  1
  O2-  O177  1  0.92324224  0.82057373  0.09757919  1
  O2-  O178  1  0.92452377  0.81796294  0.43457339  1
  O2-  O179  1  0.92607620  0.81801274  0.75697358  1
  O2-  O180  1  0.32532407  0.06569234  0.23015987  1
  O2-  O181  1  0.31863481  0.07274747  0.57127052  1
  O2-  O182  1  0.32205242  0.06710658  0.90907863  1
  O2-  O183  1  0.32273972  0.56911121  0.23466398  1
  O2-  O184  1  0.32677156  0.56631320  0.57779186  1
  O2-  O185  1  0.32441626  0.57199957  0.90898484  1
  O2-  O186  1  0.81910585  0.07468111  0.23173508  1
  O2-  O187  1  0.81919935  0.08148097  0.58145817  1
  O2-  O188  1  0.81735419  0.07042374  0.90763664  1
  O2-  O189  1  0.81753711  0.57031826  0.23424665  1
  O2-  O190  1  0.82136867  0.56694837  0.57966354  1
  O2-  O191  1  0.81732886  0.57062973  0.90910586  1
  O2-  O192  1  0.04667086  0.07959519  0.26830221  1
  O2-  O193  1  0.04718466  0.08661834  0.60923928  1
  O2-  O194  1  0.04242429  0.08311569  0.92614387  1
  O2-  O195  1  0.03890088  0.58201429  0.26753358  1
  O2-  O196  1  0.03500465  0.58498587  0.59906769  1
  O2-  O197  1  0.04176174  0.58678487  0.93765916  1
  O2-  O198  1  0.53821279  0.08325139  0.26520414  1
  O2-  O199  1  0.54461715  0.08536836  0.60702008  1
  O2-  O200  1  0.53819096  0.08426929  0.92689891  1
  O2-  O201  1  0.54979024  0.58034685  0.27103364  1
  O2-  O202  1  0.54245089  0.58112917  0.59892505  1
  O2-  O203  1  0.55038350  0.58092772  0.93899948  1
  O2-  O204  1  0.17414006  0.20539242  0.27083855  1
  O2-  O205  1  0.16250420  0.21288207  0.60703307  1
  O2-  O206  1  0.17418046  0.20709636  0.93137473  1
  O2-  O207  1  0.17225925  0.70032398  0.26655216  1
  O2-  O208  1  0.17130802  0.70224548  0.60260870  1
  O2-  O209  1  0.16426770  0.70223347  0.93673986  1
  O2-  O210  1  0.66257623  0.21233328  0.26587458  1
  O2-  O211  1  0.66046200  0.21157511  0.60392859  1
  O2-  O212  1  0.66480165  0.21081808  0.92553341  1
  O2-  O213  1  0.66672701  0.69943954  0.27116785  1
  O2-  O214  1  0.67017704  0.70573753  0.60312356  1
  O2-  O215  1  0.66389563  0.70453388  0.93507528  1
  O2-  O216  1  0.08208754  0.45955870  0.06704494  1
  O2-  O217  1  0.08016026  0.45654349  0.40457026  1
  O2-  O218  1  0.08615846  0.46040758  0.73042445  1
  O2-  O219  1  0.08264749  0.95445253  0.05607804  1
  O2-  O220  1  0.07804410  0.95049821  0.39953782  1
  O2-  O221  1  0.07770878  0.95450309  0.73631040  1
  O2-  O222  1  0.58791199  0.45355646  0.06419937  1
  O2-  O223  1  0.58409105  0.44998333  0.39690968  1
  O2-  O224  1  0.58604802  0.45652641  0.73110938  1
  O2-  O225  1  0.58532304  0.95763061  0.05659177  1
  O2-  O226  1  0.58339838  0.96210913  0.40100852  1
  O2-  O227  1  0.58674933  0.96130663  0.73908318  1
  O2-  O228  1  0.21148093  0.33324356  0.06721926  1
  O2-  O229  1  0.20995498  0.33288673  0.40621059  1
  O2-  O230  1  0.20783114  0.34101117  0.73289207  1
  O2-  O231  1  0.20717234  0.83699060  0.05840387  1
  O2-  O232  1  0.21133622  0.83274089  0.39732124  1
  O2-  O233  1  0.20729167  0.82832419  0.73736537  1
  O2-  O234  1  0.70574528  0.33303916  0.05840378  1
  O2-  O235  1  0.70409534  0.33418926  0.39795254  1
  O2-  O236  1  0.70628082  0.33696805  0.73182753  1
  O2-  O237  1  0.70448998  0.83563070  0.05931594  1
  O2-  O238  1  0.70111366  0.82907846  0.39910688  1
  O2-  O239  1  0.71164218  0.83193389  0.73824134  1
  O2-  O240  1  0.45885184  0.41597590  0.26617357  1
  O2-  O241  1  0.45996795  0.41038080  0.60297830  1
  O2-  O242  1  0.45670264  0.41737050  0.93638106  1
  O2-  O243  1  0.46407207  0.91315095  0.26401080  1
  O2-  O244  1  0.45857628  0.91761774  0.60726643  1
  O2-  O245  1  0.46270962  0.91210426  0.92424461  1
  O2-  O246  1  0.95604923  0.41958674  0.26903042  1
  O2-  O247  1  0.95747173  0.41276977  0.60571262  1
  O2-  O248  1  0.95718582  0.42205310  0.93056191  1
  O2-  O249  1  0.95006293  0.92091349  0.26783223  1
  O2-  O250  1  0.94324785  0.92172095  0.61159747  1
  O2-  O251  1  0.95352836  0.91660946  0.92758430  1
  O2-  O252  1  0.33271019  0.30581313  0.27226448  1
  O2-  O253  1  0.33398360  0.29828247  0.60704042  1
  O2-  O254  1  0.33654218  0.29857035  0.93722588  1
  O2-  O255  1  0.33572537  0.78873755  0.26464463  1
  O2-  O256  1  0.33552561  0.79806730  0.60521045  1
  O2-  O257  1  0.33254857  0.78982594  0.92543367  1
  O2-  O258  1  0.83036471  0.29562041  0.26726350  1
  O2-  O259  1  0.83445831  0.29699754  0.60630920  1
  O2-  O260  1  0.83340359  0.29302773  0.92787404  1
  O2-  O261  1  0.82934567  0.78775243  0.26789681  1
  O2-  O262  1  0.83648896  0.79061654  0.60600348  1
  O2-  O263  1  0.83181430  0.78522483  0.92954753  1
  O2-  O264  1  0.41397143  0.03489728  0.05780036  1
  O2-  O265  1  0.41647804  0.03423105  0.39999582  1
  O2-  O266  1  0.41872234  0.04502874  0.73769265  1
  O2-  O267  1  0.41726020  0.54989711  0.06095180  1
  O2-  O268  1  0.42059960  0.54167159  0.40178078  1
  O2-  O269  1  0.41368874  0.53691274  0.73152950  1
  O2-  O270  1  0.91420402  0.04529728  0.05617710  1
  O2-  O271  1  0.91930399  0.04813375  0.40137354  1
  O2-  O272  1  0.91645306  0.05660047  0.73188986  1
  O2-  O273  1  0.91172240  0.54589314  0.06131253  1
  O2-  O274  1  0.91471528  0.53843781  0.40516843  1
  O2-  O275  1  0.91152545  0.53781810  0.73302876  1
  O2-  O276  1  0.30385666  0.16337239  0.05896863  1
  O2-  O277  1  0.30908196  0.17309987  0.39497058  1
  O2-  O278  1  0.29256201  0.17174882  0.73788438  1
  O2-  O279  1  0.29740646  0.66905816  0.05798178  1
  O2-  O280  1  0.29819876  0.67057926  0.40258460  1
  O2-  O281  1  0.30091527  0.66351557  0.72790217  1
  O2-  O282  1  0.79012460  0.16342777  0.05721524  1
  O2-  O283  1  0.78824864  0.16926066  0.40058094  1
  O2-  O284  1  0.78938192  0.16833176  0.73419614  1
  O2-  O285  1  0.78773831  0.66104846  0.06224464  1
  O2-  O286  1  0.78855507  0.66404053  0.40603618  1
  O2-  O287  1  0.79374752  0.66023625  0.73262412  1
