# generated using pymatgen
data_Ca2Al2SiO7
_symmetry_space_group_name_H-M   'P 1'
_cell_length_a   15.46948013
_cell_length_b   15.47491536
_cell_length_c   15.29373203
_cell_angle_alpha   89.99711629
_cell_angle_beta   89.98668203
_cell_angle_gamma   89.98709497
_symmetry_Int_Tables_number   1
_chemical_formula_structural   Ca2Al2SiO7
_chemical_formula_sum   'Ca48 Al48 Si24 O168'
_cell_volume   3661.14942418
_cell_formula_units_Z   24
loop_
 _symmetry_equiv_pos_site_id
 _symmetry_equiv_pos_as_xyz
  1  'x, y, z'
loop_
 _atom_type_symbol
 _atom_type_oxidation_number
  Ca2+  2.0
  Al0+  0.0
  Si0+  0.0
  O2-  -2.0
loop_
 _atom_site_type_symbol
 _atom_site_label
 _atom_site_symmetry_multiplicity
 _atom_site_fract_x
 _atom_site_fract_y
 _atom_site_fract_z
 _atom_site_occupancy
  Ca2+  Ca0  1  0.16570021  0.06880581  0.17038619  1
  Ca2+  Ca1  1  0.16417771  0.07500680  0.50063667  1
  Ca2+  Ca2  1  0.16813205  0.07375088  0.84095125  1
  Ca2+  Ca3  1  0.18072611  0.59433075  0.16607753  1
  Ca2+  Ca4  1  0.18071834  0.58284424  0.50640662  1
  Ca2+  Ca5  1  0.17709939  0.58621540  0.83834805  1
  Ca2+  Ca6  1  0.66098495  0.07756870  0.17255317  1
  Ca2+  Ca7  1  0.65972556  0.07648019  0.49896833  1
  Ca2+  Ca8  1  0.66532473  0.08203493  0.83970033  1
  Ca2+  Ca9  1  0.67648218  0.59579801  0.17026863  1
  Ca2+  Ca10  1  0.67431764  0.58806081  0.50649424  1
  Ca2+  Ca11  1  0.67413305  0.59079834  0.83671839  1
  Ca2+  Ca12  1  0.07766432  0.33244765  0.15798607  1
  Ca2+  Ca13  1  0.07839148  0.34464015  0.50211481  1
  Ca2+  Ca14  1  0.07206921  0.34808633  0.82866438  1
  Ca2+  Ca15  1  0.07543611  0.83297124  0.15833455  1
  Ca2+  Ca16  1  0.07513098  0.83194747  0.49204680  1
  Ca2+  Ca17  1  0.08350222  0.82704308  0.83849183  1
  Ca2+  Ca18  1  0.58270100  0.32053919  0.15901435  1
  Ca2+  Ca19  1  0.58990436  0.32977225  0.49585640  1
  Ca2+  Ca20  1  0.58525814  0.33266122  0.83368616  1
  Ca2+  Ca21  1  0.58137162  0.82379651  0.16179335  1
  Ca2+  Ca22  1  0.57942779  0.82137222  0.49601722  1
  Ca2+  Ca23  1  0.57376434  0.81824210  0.83211395  1
  Ca2+  Ca24  1  0.34268144  0.42760807  0.16602571  1
  Ca2+  Ca25  1  0.33057756  0.42901818  0.50736455  1
  Ca2+  Ca26  1  0.33504990  0.42762875  0.83940165  1
  Ca2+  Ca27  1  0.32100395  0.90281117  0.16705232  1
  Ca2+  Ca28  1  0.33012029  0.91252701  0.50418267  1
  Ca2+  Ca29  1  0.33378629  0.91024967  0.84290147  1
  Ca2+  Ca30  1  0.83607257  0.42895004  0.16688456  1
  Ca2+  Ca31  1  0.82721411  0.42762192  0.51049523  1
  Ca2+  Ca32  1  0.83104432  0.42354006  0.83590911  1
  Ca2+  Ca33  1  0.82803206  0.91006833  0.17479406  1
  Ca2+  Ca34  1  0.82401610  0.90943467  0.49834666  1
  Ca2+  Ca35  1  0.83396799  0.91808882  0.84157368  1
  Ca2+  Ca36  1  0.42676760  0.17123918  0.15841086  1
  Ca2+  Ca37  1  0.42177243  0.17322574  0.49257614  1
  Ca2+  Ca38  1  0.41836738  0.17318913  0.83458716  1
  Ca2+  Ca39  1  0.42689922  0.66434368  0.15796504  1
  Ca2+  Ca40  1  0.42563859  0.65798894  0.49805312  1
  Ca2+  Ca41  1  0.41685365  0.67048758  0.82700160  1
  Ca2+  Ca42  1  0.91617441  0.17531008  0.15914130  1
  Ca2+  Ca43  1  0.91493030  0.17619099  0.49911894  1
  Ca2+  Ca44  1  0.91689150  0.18252073  0.83013155  1
  Ca2+  Ca45  1  0.91800853  0.67464613  0.15743373  1
  Ca2+  Ca46  1  0.91477233  0.66452192  0.49217867  1
  Ca2+  Ca47  1  0.91964751  0.65989486  0.83380734  1
  Al0+  Al48  1  -0.00012437  0.00174867  0.00104686  1
  Al0+  Al49  1  -0.00104126  0.00206611  0.33525846  1
  Al0+  Al50  1  0.00008015  0.00111989  0.66621810  1
  Al0+  Al51  1  -0.00008146  0.50098636  -0.00182925  1
  Al0+  Al52  1  0.00068311  0.50134494  0.33397257  1
  Al0+  Al53  1  -0.00111141  0.50145632  0.66479569  1
  Al0+  Al54  1  0.50109993  -0.00033028  -0.00541511  1
  Al0+  Al55  1  0.49844324  0.00053627  0.33422848  1
  Al0+  Al56  1  0.49874583  -0.00033393  0.66384875  1
  Al0+  Al57  1  0.50387836  0.49600904  -0.00163734  1
  Al0+  Al58  1  0.50157136  0.49926811  0.33301487  1
  Al0+  Al59  1  0.50112786  0.49788973  0.66922888  1
  Al0+  Al60  1  0.25168636  0.24830588  -0.00185188  1
  Al0+  Al61  1  0.24769540  0.24977282  0.33211887  1
  Al0+  Al62  1  0.24891158  0.24582866  0.66832467  1
  Al0+  Al63  1  0.24784149  0.74953816  0.00273774  1
  Al0+  Al64  1  0.24912412  0.74909210  0.34577875  1
  Al0+  Al65  1  0.24649585  0.75190697  0.66588871  1
  Al0+  Al66  1  0.75212165  0.24965129  -0.00621956  1
  Al0+  Al67  1  0.75050269  0.24951247  0.32801318  1
  Al0+  Al68  1  0.75246706  0.24984901  0.66429131  1
  Al0+  Al69  1  0.74981004  0.75303508  -0.00319395  1
  Al0+  Al70  1  0.74909919  0.75201568  0.33568261  1
  Al0+  Al71  1  0.74808588  0.75264613  0.66925038  1
  Al0+  Al72  1  0.92957337  0.82062638  0.32166996  1
  Al0+  Al73  1  0.57069218  0.67708038  0.65069188  1
  Al0+  Al74  1  0.93080952  0.32190499  0.65049150  1
  Al0+  Al75  1  0.42840481  0.32139740  0.98388338  1
  Al0+  Al76  1  0.57352814  0.67684153  0.98617993  1
  Al0+  Al77  1  0.93163491  0.32196631  0.98625973  1
  Al0+  Al78  1  0.42777691  0.81756870  0.98895750  1
  Al0+  Al79  1  0.17786307  0.92945338  0.34914523  1
  Al0+  Al80  1  0.57022103  0.67880891  0.31959758  1
  Al0+  Al81  1  0.57175087  0.17801884  0.98313098  1
  Al0+  Al82  1  0.56997061  0.17825021  0.32011422  1
  Al0+  Al83  1  0.81923698  0.57409267  0.68276208  1
  Al0+  Al84  1  0.17945341  0.92974484  0.01401950  1
  Al0+  Al85  1  0.32088373  0.57153252  0.68325695  1
  Al0+  Al86  1  0.67924314  0.42544869  0.68204479  1
  Al0+  Al87  1  0.67748041  0.93016779  0.34713515  1
  Al0+  Al88  1  0.32323105  0.56990487  0.01371469  1
  Al0+  Al89  1  0.81991060  0.57161215  0.01488697  1
  Al0+  Al90  1  0.82014781  0.57144313  0.34530572  1
  Al0+  Al91  1  0.42666599  0.82107138  0.65004329  1
  Al0+  Al92  1  0.07081357  0.67932329  0.98572662  1
  Al0+  Al93  1  0.17923381  0.42757279  0.68087429  1
  Al0+  Al94  1  0.32302204  0.56917757  0.34699709  1
  Al0+  Al95  1  0.92855851  0.82320158  0.98507038  1
  Si0+  Si96  1  0.07287145  0.17779812  0.98375032  1
  Si0+  Si97  1  0.67721556  0.93116608  0.68357873  1
  Si0+  Si98  1  0.07336573  0.67808029  0.31799023  1
  Si0+  Si99  1  0.92916917  0.82451526  0.65175194  1
  Si0+  Si100  1  0.42649646  0.31918185  0.65146380  1
  Si0+  Si101  1  0.17704030  0.42561316  0.34823956  1
  Si0+  Si102  1  0.07098097  0.17844370  0.31734240  1
  Si0+  Si103  1  0.32433452  0.07192982  0.01735727  1
  Si0+  Si104  1  0.32256154  0.06962573  0.68231484  1
  Si0+  Si105  1  0.93029376  0.32211305  0.31764732  1
  Si0+  Si106  1  0.82080222  0.07253772  0.01482941  1
  Si0+  Si107  1  0.82156627  0.07492402  0.35069913  1
  Si0+  Si108  1  0.17721688  0.93073602  0.68302025  1
  Si0+  Si109  1  0.82135877  0.06977915  0.68132900  1
  Si0+  Si110  1  0.42613722  0.32193490  0.31782898  1
  Si0+  Si111  1  0.68049110  0.42551983  0.34694870  1
  Si0+  Si112  1  0.67941925  0.93116785  0.01473196  1
  Si0+  Si113  1  0.07177963  0.17540733  0.64824638  1
  Si0+  Si114  1  0.57140372  0.17920430  0.65041970  1
  Si0+  Si115  1  0.68055652  0.42436350  0.01852165  1
  Si0+  Si116  1  0.17819849  0.42686690  0.01618398  1
  Si0+  Si117  1  0.32004714  0.07385885  0.35004348  1
  Si0+  Si118  1  0.06882693  0.68003435  0.64980261  1
  Si0+  Si119  1  0.42545736  0.82143083  0.31875920  1
  O2-  O120  1  0.25660409  0.00233917  0.06147961  1
  O2-  O121  1  0.25420522  0.00308103  0.39582726  1
  O2-  O122  1  0.25346404  -0.00346159  0.72396037  1
  O2-  O123  1  0.24901764  0.49299307  0.06075569  1
  O2-  O124  1  0.24772052  0.49285119  0.39038147  1
  O2-  O125  1  0.25124553  0.49709890  0.73319546  1
  O2-  O126  1  0.75127931  0.00134260  0.05790029  1
  O2-  O127  1  0.75277106  0.00582076  0.39410393  1
  O2-  O128  1  0.75026307  0.00049060  0.72538804  1
  O2-  O129  1  0.74323942  0.49872679  0.06263455  1
  O2-  O130  1  0.74585135  0.49652059  0.39163658  1
  O2-  O131  1  0.74565859  0.50284475  0.73152002  1
  O2-  O132  1  0.00191582  0.25132784  0.27573207  1
  O2-  O133  1  0.00891903  0.24949117  0.60395400  1
  O2-  O134  1  0.01065843  0.25148564  0.93916749  1
  O2-  O135  1  0.00467088  0.74705429  0.27485863  1
  O2-  O136  1  -0.00557317  0.74878810  0.60907141  1
  O2-  O137  1  -0.00335388  0.74872690  0.93401225  1
  O2-  O138  1  0.49502020  0.25268239  0.27491065  1
  O2-  O139  1  0.50225563  0.25240772  0.60879723  1
  O2-  O140  1  0.50077773  0.25008981  0.93275163  1
  O2-  O141  1  0.49294041  0.75210577  0.27473741  1
  O2-  O142  1  0.49505891  0.74589123  0.60018019  1
  O2-  O143  1  0.49342656  0.74084076  0.93780334  1
  O2-  O144  1  0.06933746  0.17692721  0.08979325  1
  O2-  O145  1  0.07102519  0.17705855  0.42226998  1
  O2-  O146  1  0.06763718  0.16744832  0.75297640  1
  O2-  O147  1  0.07146492  0.68208351  0.09962375  1
  O2-  O148  1  0.07180811  0.67826918  0.42398926  1
  O2-  O149  1  0.07132406  0.68201841  0.75444553  1
  O2-  O150  1  0.57129931  0.17763454  0.09690046  1
  O2-  O151  1  0.56918852  0.18040519  0.43375057  1
  O2-  O152  1  0.57054450  0.17672721  0.75494641  1
  O2-  O153  1  0.57501307  0.68303617  0.10009953  1
  O2-  O154  1  0.57087430  0.67871078  0.43237408  1
  O2-  O155  1  0.57282533  0.68211381  0.76363351  1
  O2-  O156  1  0.17484645  0.42208447  0.24307270  1
  O2-  O157  1  0.18238209  0.43021688  0.56658673  1
  O2-  O158  1  0.17827684  0.42775671  0.91095954  1
  O2-  O159  1  0.17707124  0.93105221  0.23644165  1
  O2-  O160  1  0.17373016  0.93468481  0.57787281  1
  O2-  O161  1  0.17827621  0.93348862  0.90073100  1
  O2-  O162  1  0.68389547  0.42093527  0.24188180  1
  O2-  O163  1  0.68432527  0.42015271  0.56801093  1
  O2-  O164  1  0.68525519  0.41910913  0.91352274  1
  O2-  O165  1  0.67900280  0.93163373  0.23413405  1
  O2-  O166  1  0.67792141  0.93273753  0.57822305  1
  O2-  O167  1  0.68080055  0.93436375  0.90950045  1
  O2-  O168  1  0.42903982  0.31793524  0.09802669  1
  O2-  O169  1  0.42518984  0.31959013  0.42375586  1
  O2-  O170  1  0.42337759  0.31387162  0.75573529  1
  O2-  O171  1  0.42953457  0.81879646  0.10281743  1
  O2-  O172  1  0.42732394  0.82197687  0.42428558  1
  O2-  O173  1  0.42873091  0.82402552  0.76320139  1
  O2-  O174  1  0.93227454  0.31893190  0.10010274  1
  O2-  O175  1  0.93075384  0.32067886  0.42259420  1
  O2-  O176  1  0.93103505  0.31829905  0.76313985  1
  O2-  O177  1  0.92904338  0.82416084  0.09878939  1
  O2-  O178  1  0.93031365  0.81961514  0.43540857  1
  O2-  O179  1  0.93359955  0.83087749  0.75605986  1
  O2-  O180  1  0.31697268  0.07733044  0.24508631  1
  O2-  O181  1  0.32202520  0.07102084  0.57706345  1
  O2-  O182  1  0.32214410  0.07205974  0.91148367  1
  O2-  O183  1  0.32280014  0.56979865  0.23395558  1
  O2-  O184  1  0.31933376  0.56943798  0.56923084  1
  O2-  O185  1  0.32010462  0.57135208  0.90128573  1
  O2-  O186  1  0.82240626  0.07774648  0.24528726  1
  O2-  O187  1  0.82181261  0.06889134  0.57618791  1
  O2-  O188  1  0.82069015  0.07185112  0.90945119  1
  O2-  O189  1  0.82236459  0.57025952  0.23237744  1
  O2-  O190  1  0.82004972  0.57295853  0.56850938  1
  O2-  O191  1  0.82021637  0.56964395  0.90234821  1
  O2-  O192  1  0.04070336  0.08819787  0.26882749  1
  O2-  O193  1  0.03802863  0.08541689  0.59780067  1
  O2-  O194  1  0.04074141  0.08754041  0.93550810  1
  O2-  O195  1  0.05027817  0.58404439  0.27228374  1
  O2-  O196  1  0.04367778  0.58862085  0.60083379  1
  O2-  O197  1  0.04555770  0.58102303  0.93234436  1
  O2-  O198  1  0.53878220  0.08202628  0.26590520  1
  O2-  O199  1  0.54011622  0.08879500  0.60199038  1
  O2-  O200  1  0.54323747  0.08100818  0.92798488  1
  O2-  O201  1  0.54449151  0.58043376  0.26652360  1
  O2-  O202  1  0.54809522  0.57571532  0.59994143  1
  O2-  O203  1  0.55973304  0.57417403  0.93972431  1
  O2-  O204  1  0.16283219  0.20386569  0.26877892  1
  O2-  O205  1  0.16772777  0.19374618  0.60377812  1
  O2-  O206  1  0.16888219  0.19383399  0.94015282  1
  O2-  O207  1  0.16798767  0.70561134  0.27592845  1
  O2-  O208  1  0.15857951  0.71212796  0.60053029  1
  O2-  O209  1  0.16667341  0.71256443  0.93130587  1
  O2-  O210  1  0.66691556  0.20688432  0.26527580  1
  O2-  O211  1  0.66411206  0.20378679  0.60321183  1
  O2-  O212  1  0.67023847  0.20496894  0.93011860  1
  O2-  O213  1  0.66540639  0.71535269  0.26721315  1
  O2-  O214  1  0.66863111  0.71334457  0.59885220  1
  O2-  O215  1  0.66624768  0.71633464  0.93043866  1
  O2-  O216  1  0.08482594  0.45282467  0.06247498  1
  O2-  O217  1  0.08461515  0.45378276  0.39557863  1
  O2-  O218  1  0.08036266  0.45789258  0.72977887  1
  O2-  O219  1  0.08388827  0.96553382  0.06854023  1
  O2-  O220  1  0.08250128  0.96544319  0.40390286  1
  O2-  O221  1  0.08773479  0.96518219  0.73091514  1
  O2-  O222  1  0.58426259  0.44020967  0.06205308  1
  O2-  O223  1  0.58516917  0.44567135  0.39121716  1
  O2-  O224  1  0.57769006  0.44259659  0.73131990  1
  O2-  O225  1  0.58785088  0.96055319  0.06169693  1
  O2-  O226  1  0.58160712  0.96244422  0.40258753  1
  O2-  O227  1  0.58651218  0.96345797  0.72966252  1
  O2-  O228  1  0.20006945  0.33068927  0.06023724  1
  O2-  O229  1  0.19877197  0.33120368  0.39553980  1
  O2-  O230  1  0.19931805  0.32531191  0.72968546  1
  O2-  O231  1  0.20704503  0.83387769  0.07032956  1
  O2-  O232  1  0.20495039  0.83431455  0.40732108  1
  O2-  O233  1  0.19887882  0.83748380  0.72855189  1
  O2-  O234  1  0.71356521  0.33222616  0.06512951  1
  O2-  O235  1  0.70929843  0.33288466  0.39464064  1
  O2-  O236  1  0.71333007  0.32803496  0.73496742  1
  O2-  O237  1  0.70731809  0.84015888  0.06272321  1
  O2-  O238  1  0.71175818  0.83665221  0.40472770  1
  O2-  O239  1  0.70419901  0.84037499  0.73158460  1
  O2-  O240  1  0.45308649  0.41436922  0.27166221  1
  O2-  O241  1  0.44960028  0.41224772  0.60544899  1
  O2-  O242  1  0.45673820  0.41838187  0.93003588  1
  O2-  O243  1  0.44844798  0.91617039  0.27458158  1
  O2-  O244  1  0.45794347  0.91948303  0.59657396  1
  O2-  O245  1  0.45813429  0.91495864  0.93492915  1
  O2-  O246  1  0.95862936  0.41367822  0.27040020  1
  O2-  O247  1  0.96003168  0.41833602  0.59477889  1
  O2-  O248  1  0.95928735  0.41784177  0.93135256  1
  O2-  O249  1  0.95685750  0.91979159  0.27068552  1
  O2-  O250  1  0.96233074  0.91383211  0.60158815  1
  O2-  O251  1  0.95902320  0.92180690  0.93280199  1
  O2-  O252  1  0.33230902  0.29694991  0.27204517  1
  O2-  O253  1  0.33691759  0.28490110  0.60230469  1
  O2-  O254  1  0.33025391  0.29150993  0.93034212  1
  O2-  O255  1  0.32972928  0.79576748  0.27782750  1
  O2-  O256  1  0.32463596  0.80039824  0.60060787  1
  O2-  O257  1  0.32786827  0.79615698  0.93729832  1
  O2-  O258  1  0.84012130  0.29212262  0.26908005  1
  O2-  O259  1  0.83684117  0.28398280  0.59498190  1
  O2-  O260  1  0.83891483  0.28505236  0.93038024  1
  O2-  O261  1  0.83289741  0.79162355  0.26858258  1
  O2-  O262  1  0.83417858  0.80287480  0.60869984  1
  O2-  O263  1  0.82971506  0.80067741  0.93228162  1
  O2-  O264  1  0.41912563  0.04775402  0.06109641  1
  O2-  O265  1  0.41428040  0.05125902  0.39600167  1
  O2-  O266  1  0.41506148  0.04467539  0.72938804  1
  O2-  O267  1  0.42104042  0.53831145  0.06634787  1
  O2-  O268  1  0.41894719  0.53640567  0.40191460  1
  O2-  O269  1  0.42047267  0.54587219  0.73299824  1
  O2-  O270  1  0.91319443  0.04831971  0.06279577  1
  O2-  O271  1  0.91504632  0.05146254  0.39770555  1
  O2-  O272  1  0.91271566  0.04088085  0.72904653  1
  O2-  O273  1  0.91706061  0.53888573  0.06789537  1
  O2-  O274  1  0.91764639  0.54125818  0.39887737  1
  O2-  O275  1  0.91832145  0.54385688  0.73178645  1
  O2-  O276  1  0.29830754  0.16531085  0.06405239  1
  O2-  O277  1  0.29134784  0.16641136  0.39837299  1
  O2-  O278  1  0.29253009  0.15944729  0.73187354  1
  O2-  O279  1  0.28894537  0.66487496  0.06899920  1
  O2-  O280  1  0.29135520  0.66300468  0.40570960  1
  O2-  O281  1  0.28710929  0.67042357  0.73229266  1
  O2-  O282  1  0.79255627  0.16407569  0.06258765  1
  O2-  O283  1  0.79373495  0.16796512  0.39758805  1
  O2-  O284  1  0.79415842  0.16151577  0.72808673  1
  O2-  O285  1  0.79012311  0.67072206  0.06564799  1
  O2-  O286  1  0.78971048  0.66710001  0.40032822  1
  O2-  O287  1  0.79497384  0.67409358  0.73495538  1
