# generated using pymatgen
data_Ca2Al2SiO7
_symmetry_space_group_name_H-M   'P 1'
_cell_length_a   15.46797221
_cell_length_b   15.46699421
_cell_length_c   15.29080503
_cell_angle_alpha   89.99664072
_cell_angle_beta   90.01996880
_cell_angle_gamma   90.03114898
_symmetry_Int_Tables_number   1
_chemical_formula_structural   Ca2Al2SiO7
_chemical_formula_sum   'Ca48 Al48 Si24 O168'
_cell_volume   3658.21786014
_cell_formula_units_Z   24
loop_
 _symmetry_equiv_pos_site_id
 _symmetry_equiv_pos_as_xyz
  1  'x, y, z'
loop_
 _atom_type_symbol
 _atom_type_oxidation_number
  Ca2+  2.0
  Al0+  0.0
  Si0+  0.0
  O2-  -2.0
loop_
 _atom_site_type_symbol
 _atom_site_label
 _atom_site_symmetry_multiplicity
 _atom_site_fract_x
 _atom_site_fract_y
 _atom_site_fract_z
 _atom_site_occupancy
  Ca2+  Ca0  1  0.16471533  0.07232969  0.17137226  1
  Ca2+  Ca1  1  0.16290868  0.07516742  0.50871445  1
  Ca2+  Ca2  1  0.17204416  0.08063863  0.83620571  1
  Ca2+  Ca3  1  0.16884683  0.58447397  0.17020613  1
  Ca2+  Ca4  1  0.16694535  0.58165469  0.51375722  1
  Ca2+  Ca5  1  0.17275134  0.57876557  0.83434563  1
  Ca2+  Ca6  1  0.67206169  0.07522667  0.17483080  1
  Ca2+  Ca7  1  0.66435792  0.07329129  0.50823391  1
  Ca2+  Ca8  1  0.66173182  0.07939439  0.83011269  1
  Ca2+  Ca9  1  0.67169122  0.57585824  0.17767365  1
  Ca2+  Ca10  1  0.67887980  0.58948068  0.50129183  1
  Ca2+  Ca11  1  0.67421387  0.57816428  0.83548639  1
  Ca2+  Ca12  1  0.08749136  0.32822507  0.16386619  1
  Ca2+  Ca13  1  0.09470390  0.32079614  0.49882006  1
  Ca2+  Ca14  1  0.09479631  0.33034053  0.82481504  1
  Ca2+  Ca15  1  0.08392635  0.83100710  0.16142161  1
  Ca2+  Ca16  1  0.08749820  0.82403841  0.49627046  1
  Ca2+  Ca17  1  0.07685575  0.83466183  0.82427551  1
  Ca2+  Ca18  1  0.58561675  0.33871929  0.16004230  1
  Ca2+  Ca19  1  0.57747453  0.33423639  0.49815904  1
  Ca2+  Ca20  1  0.57583934  0.32764031  0.82209853  1
  Ca2+  Ca21  1  0.58980351  0.82547693  0.16642562  1
  Ca2+  Ca22  1  0.58344301  0.83264404  0.49416731  1
  Ca2+  Ca23  1  0.57904009  0.83410828  0.82464862  1
  Ca2+  Ca24  1  0.32909589  0.42155682  0.16229544  1
  Ca2+  Ca25  1  0.32969237  0.42343299  0.51044786  1
  Ca2+  Ca26  1  0.32636357  0.42138059  0.83185866  1
  Ca2+  Ca27  1  0.32243153  0.92023392  0.16874259  1
  Ca2+  Ca28  1  0.31884965  0.92041204  0.50850998  1
  Ca2+  Ca29  1  0.31911728  0.92615352  0.83491810  1
  Ca2+  Ca30  1  0.82159432  0.42079435  0.17712147  1
  Ca2+  Ca31  1  0.83242514  0.42947092  0.50375503  1
  Ca2+  Ca32  1  0.83212246  0.42445943  0.83665706  1
  Ca2+  Ca33  1  0.83263877  0.91310890  0.17125325  1
  Ca2+  Ca34  1  0.82165709  0.90528077  0.50498675  1
  Ca2+  Ca35  1  0.83380028  0.91036686  0.83205169  1
  Ca2+  Ca36  1  0.41733727  0.16597576  0.16063487  1
  Ca2+  Ca37  1  0.41338660  0.16957496  0.50389944  1
  Ca2+  Ca38  1  0.41452332  0.16874040  0.82004602  1
  Ca2+  Ca39  1  0.42209894  0.66373055  0.16343708  1
  Ca2+  Ca40  1  0.42207818  0.66462550  0.49299880  1
  Ca2+  Ca41  1  0.41525098  0.66005675  0.82804416  1
  Ca2+  Ca42  1  0.92338880  0.16451365  0.16604631  1
  Ca2+  Ca43  1  0.92845842  0.16670138  0.49867079  1
  Ca2+  Ca44  1  0.92546629  0.17319839  0.82456109  1
  Ca2+  Ca45  1  0.91999830  0.66979676  0.16559501  1
  Ca2+  Ca46  1  0.92413033  0.66451043  0.50024481  1
  Ca2+  Ca47  1  0.92199042  0.67577315  0.82340490  1
  Al0+  Al48  1  -0.00120116  0.00049302  -0.00158763  1
  Al0+  Al49  1  0.00066203  0.00030640  0.33288038  1
  Al0+  Al50  1  -0.00673253  0.00085588  0.66150243  1
  Al0+  Al51  1  -0.00028634  0.49992859  0.00371714  1
  Al0+  Al52  1  -0.00044485  0.49904320  0.33156082  1
  Al0+  Al53  1  -0.00182127  0.50145021  0.67343026  1
  Al0+  Al54  1  0.50158524  -0.00199981  0.00385854  1
  Al0+  Al55  1  0.49870783  0.00270625  0.33453673  1
  Al0+  Al56  1  0.50026137  -0.00159002  0.66913736  1
  Al0+  Al57  1  0.50090713  0.49810763  0.00434450  1
  Al0+  Al58  1  0.49879112  0.49952826  0.33035024  1
  Al0+  Al59  1  0.50097912  0.49911176  0.66427445  1
  Al0+  Al60  1  0.25322237  0.25143673  0.00552193  1
  Al0+  Al61  1  0.25158989  0.25104093  0.32505321  1
  Al0+  Al62  1  0.25159631  0.25099374  0.66225859  1
  Al0+  Al63  1  0.25281822  0.75063303  0.00579429  1
  Al0+  Al64  1  0.25042082  0.75172955  0.33123468  1
  Al0+  Al65  1  0.25015070  0.75136529  0.67164364  1
  Al0+  Al66  1  0.75089863  0.24778556  0.00233096  1
  Al0+  Al67  1  0.74850155  0.24971198  0.33727372  1
  Al0+  Al68  1  0.74921733  0.24757962  0.66102179  1
  Al0+  Al69  1  0.75065736  0.74856989  -0.00477684  1
  Al0+  Al70  1  0.74949607  0.74911589  0.33521925  1
  Al0+  Al71  1  0.74886593  0.74948128  0.67374641  1
  Al0+  Al72  1  0.82238058  0.57065695  0.34911254  1
  Al0+  Al73  1  0.92990511  0.82037710  0.98599566  1
  Al0+  Al74  1  0.57090136  0.17625818  0.64993325  1
  Al0+  Al75  1  0.32183307  0.57145685  0.01658974  1
  Al0+  Al76  1  0.17847432  0.42912609  0.67788767  1
  Al0+  Al77  1  0.67543444  0.42778481  0.35104031  1
  Al0+  Al78  1  0.92610813  0.82114748  0.65009057  1
  Al0+  Al79  1  0.17319642  0.92877741  0.68054014  1
  Al0+  Al80  1  0.42930983  0.32196118  0.65009009  1
  Al0+  Al81  1  0.82050064  0.57080165  0.68308015  1
  Al0+  Al82  1  0.17629127  0.93087125  0.01515849  1
  Al0+  Al83  1  0.32334657  0.07111572  0.01525059  1
  Al0+  Al84  1  0.07287155  0.67738714  0.31921610  1
  Al0+  Al85  1  0.07080810  0.18075945  0.65489540  1
  Al0+  Al86  1  0.17723800  0.42902608  0.01673238  1
  Al0+  Al87  1  0.07095786  0.17895527  0.31742513  1
  Al0+  Al88  1  0.68235008  0.42818166  0.01122163  1
  Al0+  Al89  1  0.32392872  0.57325123  0.67868833  1
  Al0+  Al90  1  0.57046285  0.68072725  0.31986297  1
  Al0+  Al91  1  0.17903471  0.92925758  0.34831794  1
  Al0+  Al92  1  0.67973208  0.92947520  0.68151760  1
  Al0+  Al93  1  0.31918903  0.07038510  0.67852208  1
  Al0+  Al94  1  0.07190092  0.68035037  0.65446652  1
  Al0+  Al95  1  0.67937226  0.92997244  0.34563773  1
  Si0+  Si96  1  0.92856735  0.82035642  0.31777268  1
  Si0+  Si97  1  0.31946328  0.57103449  0.34667152  1
  Si0+  Si98  1  0.82080040  0.07493763  0.68442830  1
  Si0+  Si99  1  0.32111584  0.07478997  0.35031399  1
  Si0+  Si100  1  0.82109602  0.57356967  0.01785382  1
  Si0+  Si101  1  0.43050005  0.82209495  0.98440351  1
  Si0+  Si102  1  0.92691235  0.32094014  0.98709098  1
  Si0+  Si103  1  0.92572066  0.32422084  0.65076368  1
  Si0+  Si104  1  0.42801392  0.82444873  0.31549922  1
  Si0+  Si105  1  0.82050031  0.07064579  0.01470559  1
  Si0+  Si106  1  0.43127750  0.32012200  0.98400097  1
  Si0+  Si107  1  0.57044203  0.67868679  0.65327129  1
  Si0+  Si108  1  0.07479427  0.67690092  0.98395898  1
  Si0+  Si109  1  0.67862350  0.42607428  0.68186462  1
  Si0+  Si110  1  0.42897736  0.82082230  0.65334162  1
  Si0+  Si111  1  0.56988465  0.67774274  0.98378694  1
  Si0+  Si112  1  0.92654199  0.32097030  0.31654555  1
  Si0+  Si113  1  0.57147929  0.17824062  0.31626097  1
  Si0+  Si114  1  0.07107337  0.18207656  0.98591070  1
  Si0+  Si115  1  0.57275438  0.17674844  0.98602087  1
  Si0+  Si116  1  0.17968395  0.42847931  0.34689218  1
  Si0+  Si117  1  0.82291543  0.07232374  0.35096680  1
  Si0+  Si118  1  0.43030409  0.32120695  0.31329212  1
  Si0+  Si119  1  0.67977489  0.92706572  0.01505473  1
  O2-  O120  1  0.24876518  0.00259486  0.06593246  1
  O2-  O121  1  0.25255160  0.00598302  0.39300538  1
  O2-  O122  1  0.24264576  0.00405765  0.72918492  1
  O2-  O123  1  0.24460883  0.50528689  0.06740848  1
  O2-  O124  1  0.24428657  0.50510389  0.38873760  1
  O2-  O125  1  0.24907718  0.50322164  0.72665055  1
  O2-  O126  1  0.75183998  -0.00302827  0.05671133  1
  O2-  O127  1  0.75395386  0.00352675  0.39361746  1
  O2-  O128  1  0.75328600  0.00489661  0.72875649  1
  O2-  O129  1  0.75610121  0.50148800  0.06129443  1
  O2-  O130  1  0.74874569  0.49925558  0.39865522  1
  O2-  O131  1  0.74843064  0.49215737  0.72782215  1
  O2-  O132  1  -0.00494840  0.25277161  0.27046245  1
  O2-  O133  1  -0.00157317  0.25880533  0.60823559  1
  O2-  O134  1  0.00450691  0.25771351  0.94397465  1
  O2-  O135  1  -0.00151068  0.75326398  0.27312705  1
  O2-  O136  1  0.00297484  0.75395639  0.60133937  1
  O2-  O137  1  0.00690076  0.74715421  0.94128295  1
  O2-  O138  1  0.50364689  0.25122812  0.27204678  1
  O2-  O139  1  0.50101955  0.24964888  0.59932811  1
  O2-  O140  1  0.49969942  0.24529864  0.94388087  1
  O2-  O141  1  0.49854685  0.75730101  0.27076932  1
  O2-  O142  1  0.49515149  0.74503583  0.61136661  1
  O2-  O143  1  0.49862752  0.74814815  0.94113113  1
  O2-  O144  1  0.06697482  0.18093831  0.09111793  1
  O2-  O145  1  0.07174927  0.18091813  0.43015508  1
  O2-  O146  1  0.06918452  0.18242266  0.76864977  1
  O2-  O147  1  0.07169215  0.67738542  0.09001075  1
  O2-  O148  1  0.07568833  0.67659535  0.43158414  1
  O2-  O149  1  0.07051591  0.67943858  0.76813197  1
  O2-  O150  1  0.57422624  0.17741954  0.09136342  1
  O2-  O151  1  0.56922579  0.17551807  0.42050488  1
  O2-  O152  1  0.57051024  0.17826505  0.76444985  1
  O2-  O153  1  0.57164872  0.67989051  0.08894332  1
  O2-  O154  1  0.56817564  0.68193082  0.43297069  1
  O2-  O155  1  0.57046120  0.67931557  0.75892577  1
  O2-  O156  1  0.18303732  0.42753468  0.24179252  1
  O2-  O157  1  0.18049840  0.42939297  0.56373387  1
  O2-  O158  1  0.18061773  0.42569554  0.90389512  1
  O2-  O159  1  0.18013191  0.92986269  0.23511467  1
  O2-  O160  1  0.17802999  0.92787759  0.56681654  1
  O2-  O161  1  0.17487805  0.93463121  0.90216521  1
  O2-  O162  1  0.67791014  0.42893184  0.23676847  1
  O2-  O163  1  0.67917452  0.42875507  0.57665294  1
  O2-  O164  1  0.68417337  0.42895449  0.89832493  1
  O2-  O165  1  0.68215059  0.93097534  0.23173918  1
  O2-  O166  1  0.67944327  0.92880684  0.56843829  1
  O2-  O167  1  0.67722064  0.92842774  0.91046697  1
  O2-  O168  1  0.43395335  0.32073633  0.08950914  1
  O2-  O169  1  0.42777725  0.32134268  0.41776238  1
  O2-  O170  1  0.43193586  0.32255412  0.76412557  1
  O2-  O171  1  0.43516815  0.82357999  0.08946394  1
  O2-  O172  1  0.42780310  0.82256200  0.42111392  1
  O2-  O173  1  0.43284331  0.82217795  0.75865862  1
  O2-  O174  1  0.92303414  0.31557782  0.09183824  1
  O2-  O175  1  0.92716129  0.32036496  0.42173381  1
  O2-  O176  1  0.92144177  0.32041015  0.75682278  1
  O2-  O177  1  0.92601383  0.81861152  0.09934831  1
  O2-  O178  1  0.92739790  0.81974321  0.42264243  1
  O2-  O179  1  0.92606117  0.81738313  0.76404592  1
  O2-  O180  1  0.32190845  0.07356523  0.24443795  1
  O2-  O181  1  0.31913790  0.06704490  0.56483577  1
  O2-  O182  1  0.32317913  0.07092242  0.90220213  1
  O2-  O183  1  0.32079183  0.56849290  0.24164426  1
  O2-  O184  1  0.32610988  0.57181363  0.56462370  1
  O2-  O185  1  0.32520547  0.56769341  0.90373712  1
  O2-  O186  1  0.82135271  0.07222946  0.24441396  1
  O2-  O187  1  0.81989573  0.07813178  0.57921788  1
  O2-  O188  1  0.81895202  0.07484751  0.91031676  1
  O2-  O189  1  0.82041980  0.56958302  0.23493925  1
  O2-  O190  1  0.81900147  0.57141418  0.57032101  1
  O2-  O191  1  0.81841634  0.57369240  0.91241315  1
  O2-  O192  1  0.03785040  0.08291370  0.26244389  1
  O2-  O193  1  0.03549409  0.08668361  0.59881183  1
  O2-  O194  1  0.03819610  0.09226792  0.93863383  1
  O2-  O195  1  0.04244902  0.58055180  0.26419684  1
  O2-  O196  1  0.04047397  0.58099848  0.60390421  1
  O2-  O197  1  0.04883734  0.58208110  0.94021636  1
  O2-  O198  1  0.54183628  0.08721551  0.26642900  1
  O2-  O199  1  0.54101313  0.07759260  0.59835030  1
  O2-  O200  1  0.54825166  0.08291275  0.94098370  1
  O2-  O201  1  0.53725470  0.58479370  0.26479672  1
  O2-  O202  1  0.54885423  0.58634653  0.60487994  1
  O2-  O203  1  0.54214228  0.58516158  0.93810499  1
  O2-  O204  1  0.16635725  0.21166300  0.26137840  1
  O2-  O205  1  0.16614244  0.20944425  0.59788291  1
  O2-  O206  1  0.16535930  0.20704443  0.94270788  1
  O2-  O207  1  0.16915552  0.70932577  0.26394892  1
  O2-  O208  1  0.17232597  0.70525664  0.60273105  1
  O2-  O209  1  0.17080527  0.69954028  0.94249806  1
  O2-  O210  1  0.66559976  0.20193271  0.27029814  1
  O2-  O211  1  0.66997972  0.20079411  0.59641157  1
  O2-  O212  1  0.66423649  0.20576816  0.93855982  1
  O2-  O213  1  0.66698808  0.71102716  0.26433898  1
  O2-  O214  1  0.66017650  0.71274658  0.60714681  1
  O2-  O215  1  0.66119836  0.70609988  0.93560307  1
  O2-  O216  1  0.07616776  0.44921244  0.06915428  1
  O2-  O217  1  0.08503654  0.44710356  0.39033273  1
  O2-  O218  1  0.07989226  0.45079027  0.73303263  1
  O2-  O219  1  0.07805825  0.96096167  0.06870080  1
  O2-  O220  1  0.08157157  0.95879056  0.39972232  1
  O2-  O221  1  0.07219916  0.95415434  0.72797679  1
  O2-  O222  1  0.58691521  0.45881367  0.06652855  1
  O2-  O223  1  0.57602456  0.45648353  0.40003624  1
  O2-  O224  1  0.58617472  0.45431398  0.72825016  1
  O2-  O225  1  0.58984967  0.95503564  0.06532126  1
  O2-  O226  1  0.58189962  0.96024003  0.39777672  1
  O2-  O227  1  0.58428220  0.96061620  0.73777155  1
  O2-  O228  1  0.21150268  0.33312893  0.07197660  1
  O2-  O229  1  0.21473937  0.33787561  0.39183610  1
  O2-  O230  1  0.21111544  0.33231848  0.73100000  1
  O2-  O231  1  0.20567478  0.83261844  0.06754142  1
  O2-  O232  1  0.21316384  0.83304136  0.40086504  1
  O2-  O233  1  0.20618083  0.83349908  0.73616089  1
  O2-  O234  1  0.71167002  0.33137811  0.06696107  1
  O2-  O235  1  0.70017385  0.32775922  0.40141417  1
  O2-  O236  1  0.70122820  0.33056299  0.72506644  1
  O2-  O237  1  0.70794970  0.83429539  0.06051703  1
  O2-  O238  1  0.70765913  0.83344013  0.39955926  1
  O2-  O239  1  0.70912167  0.83454532  0.73914668  1
  O2-  O240  1  0.45713530  0.41273021  0.26442918  1
  O2-  O241  1  0.46003201  0.41942800  0.59505045  1
  O2-  O242  1  0.46329240  0.41088452  0.93761970  1
  O2-  O243  1  0.45184227  0.91926429  0.27063821  1
  O2-  O244  1  0.46293379  0.90907309  0.60369887  1
  O2-  O245  1  0.46365899  0.91219581  0.93641844  1
  O2-  O246  1  0.95152993  0.41382846  0.26875739  1
  O2-  O247  1  0.94703434  0.41956701  0.60838853  1
  O2-  O248  1  0.94597650  0.41644740  0.94329401  1
  O2-  O249  1  0.95160568  0.91516244  0.27207883  1
  O2-  O250  1  0.93998359  0.92276184  0.59915517  1
  O2-  O251  1  0.95513601  0.91921451  0.93276530  1
  O2-  O252  1  0.34049948  0.29122673  0.26251024  1
  O2-  O253  1  0.33259830  0.29396548  0.59376896  1
  O2-  O254  1  0.33799007  0.29529834  0.93868422  1
  O2-  O255  1  0.33653210  0.79554659  0.26712821  1
  O2-  O256  1  0.33586077  0.79846571  0.60679958  1
  O2-  O257  1  0.33673107  0.79844251  0.93965753  1
  O2-  O258  1  0.83222006  0.29383088  0.27079182  1
  O2-  O259  1  0.83488684  0.29499452  0.60119049  1
  O2-  O260  1  0.83860859  0.28560762  0.93686466  1
  O2-  O261  1  0.83535845  0.79338436  0.27059604  1
  O2-  O262  1  0.82782783  0.78552759  0.60068286  1
  O2-  O263  1  0.83321296  0.78912637  0.93082511  1
  O2-  O264  1  0.42113324  0.03990471  0.07006434  1
  O2-  O265  1  0.41540762  0.05142253  0.39513132  1
  O2-  O266  1  0.41583952  0.03864284  0.73254076  1
  O2-  O267  1  0.41812640  0.53641685  0.07136509  1
  O2-  O268  1  0.40983788  0.53867515  0.39313125  1
  O2-  O269  1  0.42197314  0.54244662  0.73215731  1
  O2-  O270  1  0.91185545  0.04410584  0.06327174  1
  O2-  O271  1  0.91667588  0.04797869  0.39549662  1
  O2-  O272  1  0.91362983  0.04998432  0.73180454  1
  O2-  O273  1  0.91619481  0.55289094  0.06183985  1
  O2-  O274  1  0.92058366  0.54011797  0.40151120  1
  O2-  O275  1  0.91517526  0.54199385  0.74124306  1
  O2-  O276  1  0.30060409  0.17051294  0.06793409  1
  O2-  O277  1  0.29537166  0.16965399  0.39253037  1
  O2-  O278  1  0.29610954  0.17053867  0.72901398  1
  O2-  O279  1  0.30265548  0.67165149  0.06997902  1
  O2-  O280  1  0.29932226  0.66543484  0.39098443  1
  O2-  O281  1  0.30022185  0.67114637  0.73400058  1
  O2-  O282  1  0.78995159  0.15962289  0.06656462  1
  O2-  O283  1  0.79812199  0.16558933  0.39652720  1
  O2-  O284  1  0.79386794  0.16793781  0.73229695  1
  O2-  O285  1  0.78998943  0.66557983  0.06385507  1
  O2-  O286  1  0.79178208  0.66801942  0.40164763  1
  O2-  O287  1  0.78311717  0.66325192  0.74010992  1
