# generated using pymatgen
data_Ca2Al2SiO7
_symmetry_space_group_name_H-M   'P 1'
_cell_length_a   15.46114759
_cell_length_b   15.46332865
_cell_length_c   15.28718124
_cell_angle_alpha   89.98769230
_cell_angle_beta   89.99978239
_cell_angle_gamma   90.00455259
_symmetry_Int_Tables_number   1
_chemical_formula_structural   Ca2Al2SiO7
_chemical_formula_sum   'Ca48 Al48 Si24 O168'
_cell_volume   3654.87152535
_cell_formula_units_Z   24
loop_
 _symmetry_equiv_pos_site_id
 _symmetry_equiv_pos_as_xyz
  1  'x, y, z'
loop_
 _atom_type_symbol
 _atom_type_oxidation_number
  Ca2+  2.0
  Al0+  0.0
  Si0+  0.0
  O2-  -2.0
loop_
 _atom_site_type_symbol
 _atom_site_label
 _atom_site_symmetry_multiplicity
 _atom_site_fract_x
 _atom_site_fract_y
 _atom_site_fract_z
 _atom_site_occupancy
  Ca2+  Ca0  1  0.17942290  0.08695567  0.17270792  1
  Ca2+  Ca1  1  0.17203638  0.09111400  0.49968979  1
  Ca2+  Ca2  1  0.17598892  0.08112446  0.84153277  1
  Ca2+  Ca3  1  0.16649416  0.57699642  0.16936560  1
  Ca2+  Ca4  1  0.17057774  0.58203588  0.51097200  1
  Ca2+  Ca5  1  0.16931094  0.57538542  0.83380825  1
  Ca2+  Ca6  1  0.66962658  0.08453697  0.16659442  1
  Ca2+  Ca7  1  0.67758500  0.08869472  0.50752181  1
  Ca2+  Ca8  1  0.67201521  0.08506211  0.84153847  1
  Ca2+  Ca9  1  0.67400337  0.58480261  0.17259067  1
  Ca2+  Ca10  1  0.66634453  0.56945651  0.50250734  1
  Ca2+  Ca11  1  0.66760853  0.58003983  0.83981313  1
  Ca2+  Ca12  1  0.08330043  0.32874303  0.16268388  1
  Ca2+  Ca13  1  0.08253407  0.33139208  0.49427447  1
  Ca2+  Ca14  1  0.08416758  0.33811344  0.83116469  1
  Ca2+  Ca15  1  0.08163831  0.82610816  0.16516961  1
  Ca2+  Ca16  1  0.07906821  0.82177245  0.49778400  1
  Ca2+  Ca17  1  0.07455730  0.82658308  0.82098710  1
  Ca2+  Ca18  1  0.57299139  0.33193770  0.15942794  1
  Ca2+  Ca19  1  0.57731012  0.33782110  0.49776451  1
  Ca2+  Ca20  1  0.57969271  0.32382786  0.82407015  1
  Ca2+  Ca21  1  0.58375244  0.83087816  0.15378510  1
  Ca2+  Ca22  1  0.58226545  0.83085221  0.49898554  1
  Ca2+  Ca23  1  0.58564702  0.83201957  0.83875770  1
  Ca2+  Ca24  1  0.33117406  0.40664180  0.16788679  1
  Ca2+  Ca25  1  0.33048487  0.41788593  0.51052673  1
  Ca2+  Ca26  1  0.32503240  0.40749682  0.83391223  1
  Ca2+  Ca27  1  0.34502335  0.93065715  0.16713929  1
  Ca2+  Ca28  1  0.33266581  0.92519029  0.50220333  1
  Ca2+  Ca29  1  0.33568959  0.92129120  0.84295806  1
  Ca2+  Ca30  1  0.82230853  0.42643844  0.17289292  1
  Ca2+  Ca31  1  0.82156547  0.41631380  0.50194807  1
  Ca2+  Ca32  1  0.82376541  0.42082432  0.83694974  1
  Ca2+  Ca33  1  0.82641598  0.92515197  0.16724834  1
  Ca2+  Ca34  1  0.84137077  0.92660978  0.50397130  1
  Ca2+  Ca35  1  0.83152567  0.92550313  0.83978531  1
  Ca2+  Ca36  1  0.41777932  0.17307984  0.15736862  1
  Ca2+  Ca37  1  0.41931095  0.17991128  0.49408968  1
  Ca2+  Ca38  1  0.42680368  0.17238183  0.83172819  1
  Ca2+  Ca39  1  0.42739239  0.67610750  0.15602339  1
  Ca2+  Ca40  1  0.41418425  0.66361062  0.49767629  1
  Ca2+  Ca41  1  0.41696238  0.66916985  0.83242962  1
  Ca2+  Ca42  1  0.91970489  0.15838202  0.16549816  1
  Ca2+  Ca43  1  0.91973232  0.16338514  0.49368097  1
  Ca2+  Ca44  1  0.91605259  0.16161050  0.82672286  1
  Ca2+  Ca45  1  0.91766050  0.65649527  0.16203705  1
  Ca2+  Ca46  1  0.92655510  0.66288827  0.49423590  1
  Ca2+  Ca47  1  0.91857404  0.67101888  0.82466828  1
  Al0+  Al48  1  0.00165518  -0.00176212  0.00306993  1
  Al0+  Al49  1  0.00073565  -0.00310990  0.33115740  1
  Al0+  Al50  1  0.00096297  -0.00034915  0.66610797  1
  Al0+  Al51  1  0.00105035  0.49709248  0.00665293  1
  Al0+  Al52  1  -0.00007627  0.49898360  0.33116533  1
  Al0+  Al53  1  0.00032043  0.49888367  0.66516347  1
  Al0+  Al54  1  0.50087279  0.00070717  -0.00006174  1
  Al0+  Al55  1  0.49926030  0.00207538  0.34116360  1
  Al0+  Al56  1  0.50299432  -0.00028267  0.66181345  1
  Al0+  Al57  1  0.49621118  0.50094857  -0.00823907  1
  Al0+  Al58  1  0.49783882  0.50141035  0.33029688  1
  Al0+  Al59  1  0.49926044  0.50117713  0.67207764  1
  Al0+  Al60  1  0.24735506  0.24809272  0.00345323  1
  Al0+  Al61  1  0.24978872  0.24937621  0.33080289  1
  Al0+  Al62  1  0.25132098  0.25013865  0.66825879  1
  Al0+  Al63  1  0.24895144  0.74721142  -0.00328025  1
  Al0+  Al64  1  0.24822053  0.75053230  0.32714105  1
  Al0+  Al65  1  0.24984764  0.75066968  0.66639963  1
  Al0+  Al66  1  0.75240056  0.25295782  0.00230927  1
  Al0+  Al67  1  0.74868205  0.24960307  0.33995408  1
  Al0+  Al68  1  0.75181775  0.24949943  0.67139483  1
  Al0+  Al69  1  0.75232621  0.75143868  0.00298951  1
  Al0+  Al70  1  0.75147214  0.75087915  0.33906691  1
  Al0+  Al71  1  0.74836452  0.75340810  0.65921803  1
  Al0+  Al72  1  0.67914562  0.42963458  0.68208802  1
  Al0+  Al73  1  0.57394875  0.18111788  0.98643158  1
  Al0+  Al74  1  0.18125378  0.42979294  0.01638660  1
  Al0+  Al75  1  0.32152360  0.57392507  0.68275114  1
  Al0+  Al76  1  0.32008623  0.06841917  0.01197063  1
  Al0+  Al77  1  0.81944846  0.57042849  0.01047185  1
  Al0+  Al78  1  0.06998534  0.67791317  0.65216623  1
  Al0+  Al79  1  0.57384349  0.17859030  0.64956296  1
  Al0+  Al80  1  0.82302255  0.57167148  0.35048512  1
  Al0+  Al81  1  0.07014062  0.67744406  0.31649635  1
  Al0+  Al82  1  0.17800454  0.42740702  0.68083783  1
  Al0+  Al83  1  0.42868657  0.82185607  0.98556304  1
  Al0+  Al84  1  0.42455023  0.32073205  0.98317201  1
  Al0+  Al85  1  0.67538711  0.43026589  0.34692218  1
  Al0+  Al86  1  0.68005559  0.93082414  0.01395501  1
  Al0+  Al87  1  0.82144503  0.06860022  0.68071065  1
  Al0+  Al88  1  0.06951391  0.17862600  0.31949847  1
  Al0+  Al89  1  0.42941853  0.32086900  0.65107324  1
  Al0+  Al90  1  0.82377208  0.07448118  0.01611143  1
  Al0+  Al91  1  0.32029719  0.07225339  0.34951581  1
  Al0+  Al92  1  0.92740230  0.82287180  0.65055337  1
  Al0+  Al93  1  0.57443861  0.67918798  0.98515280  1
  Al0+  Al94  1  0.82142183  0.06896132  0.34795096  1
  Al0+  Al95  1  0.42995775  0.32180763  0.31888403  1
  Si0+  Si96  1  0.42792035  0.82186188  0.65035043  1
  Si0+  Si97  1  0.07174478  0.17860766  0.65376296  1
  Si0+  Si98  1  0.92704600  0.82091521  0.31347598  1
  Si0+  Si99  1  0.42916876  0.82306627  0.32018669  1
  Si0+  Si100  1  0.67661646  0.92762266  0.35270046  1
  Si0+  Si101  1  0.92900400  0.32075184  0.65271118  1
  Si0+  Si102  1  0.92572788  0.32121031  0.31614360  1
  Si0+  Si103  1  0.67558188  0.92632702  0.68429358  1
  Si0+  Si104  1  0.57084058  0.67854234  0.65031762  1
  Si0+  Si105  1  0.06880329  0.17740964  0.98493322  1
  Si0+  Si106  1  0.57292358  0.17710576  0.31761660  1
  Si0+  Si107  1  0.32235184  0.57439558  0.01885068  1
  Si0+  Si108  1  0.31860828  0.57296439  0.34508010  1
  Si0+  Si109  1  0.57061958  0.68106526  0.32073707  1
  Si0+  Si110  1  0.18068275  0.93031924  0.68038052  1
  Si0+  Si111  1  0.06966020  0.67528171  0.98422413  1
  Si0+  Si112  1  0.82100598  0.57335015  0.68026792  1
  Si0+  Si113  1  0.18009705  0.42857772  0.34712842  1
  Si0+  Si114  1  0.93114852  0.32205612  0.98607152  1
  Si0+  Si115  1  0.32280948  0.07060535  0.68145387  1
  Si0+  Si116  1  0.93160147  0.82118155  0.98560539  1
  Si0+  Si117  1  0.17735063  0.92419419  0.01645624  1
  Si0+  Si118  1  0.17908633  0.92614509  0.35033965  1
  Si0+  Si119  1  0.67453793  0.42882949  0.01475264  1
  O2-  O120  1  0.24945218  -0.01055249  0.05972989  1
  O2-  O121  1  0.24490401  -0.00270259  0.39576224  1
  O2-  O122  1  0.25268852  -0.00101396  0.72416935  1
  O2-  O123  1  0.25869767  0.50134104  0.06389305  1
  O2-  O124  1  0.24827551  0.50220787  0.38849593  1
  O2-  O125  1  0.25080603  0.49904606  0.73042085  1
  O2-  O126  1  0.74784061  0.00626577  0.06484274  1
  O2-  O127  1  0.74547408  -0.00367598  0.39608203  1
  O2-  O128  1  0.74540460  -0.00501187  0.72579366  1
  O2-  O129  1  0.73843453  0.50277610  0.05777398  1
  O2-  O130  1  0.75001262  0.49969481  0.39808343  1
  O2-  O131  1  0.75171655  0.50756467  0.72719679  1
  O2-  O132  1  -0.00791996  0.24998268  0.27158078  1
  O2-  O133  1  0.00217239  0.25086793  0.61191000  1
  O2-  O134  1  -0.00534607  0.24440593  0.94241214  1
  O2-  O135  1  -0.00882152  0.74764301  0.26892087  1
  O2-  O136  1  -0.00502651  0.74632372  0.60105987  1
  O2-  O137  1  0.00139282  0.74903707  0.94291328  1
  O2-  O138  1  0.50548178  0.24704444  0.27405658  1
  O2-  O139  1  0.50212942  0.25075771  0.59913062  1
  O2-  O140  1  0.50370715  0.25495022  0.93584339  1
  O2-  O141  1  0.50413243  0.75634818  0.27866177  1
  O2-  O142  1  0.49746467  0.74872497  0.60884362  1
  O2-  O143  1  0.49973195  0.74911229  0.93503419  1
  O2-  O144  1  0.06966748  0.17817407  0.08993944  1
  O2-  O145  1  0.07042535  0.18256876  0.43321336  1
  O2-  O146  1  0.07094161  0.17593703  0.75897458  1
  O2-  O147  1  0.06864255  0.67598322  0.08951510  1
  O2-  O148  1  0.07390125  0.67990551  0.42912117  1
  O2-  O149  1  0.06854521  0.68027039  0.76616445  1
  O2-  O150  1  0.57324704  0.18255604  0.10051968  1
  O2-  O151  1  0.57131278  0.17613254  0.42302072  1
  O2-  O152  1  0.57241659  0.17726028  0.76297951  1
  O2-  O153  1  0.57396563  0.68185393  0.09961056  1
  O2-  O154  1  0.56631414  0.68031835  0.42596493  1
  O2-  O155  1  0.57462819  0.68100858  0.75480068  1
  O2-  O156  1  0.18137712  0.42860184  0.24205474  1
  O2-  O157  1  0.17794150  0.42617355  0.56683120  1
  O2-  O158  1  0.17740035  0.43172032  0.90374426  1
  O2-  O159  1  0.18160280  0.92459344  0.24484810  1
  O2-  O160  1  0.18202511  0.93127898  0.57527405  1
  O2-  O161  1  0.17394519  0.92774162  0.91056551  1
  O2-  O162  1  0.67431775  0.43415156  0.23324178  1
  O2-  O163  1  0.68013801  0.43110156  0.56897412  1
  O2-  O164  1  0.68042618  0.42715826  0.90927068  1
  O2-  O165  1  0.67495292  0.92621182  0.24754802  1
  O2-  O166  1  0.67314901  0.92618719  0.57850549  1
  O2-  O167  1  0.68460274  0.92842362  0.90060485  1
  O2-  O168  1  0.42507464  0.31666134  0.09727084  1
  O2-  O169  1  0.42819785  0.32336514  0.43169204  1
  O2-  O170  1  0.42704885  0.31511556  0.76396174  1
  O2-  O171  1  0.42957775  0.82038821  0.09982193  1
  O2-  O172  1  0.42774596  0.82053942  0.42565479  1
  O2-  O173  1  0.42708775  0.82434889  0.75471832  1
  O2-  O174  1  0.93486172  0.32415953  0.09082152  1
  O2-  O175  1  0.92886242  0.32180443  0.42213008  1
  O2-  O176  1  0.92921537  0.32091014  0.75804471  1
  O2-  O177  1  0.93398849  0.82220744  0.09052056  1
  O2-  O178  1  0.93111287  0.82281836  0.41877455  1
  O2-  O179  1  0.93089961  0.82297419  0.76470387  1
  O2-  O180  1  0.32118966  0.07014250  0.23664756  1
  O2-  O181  1  0.31927543  0.07013443  0.57618530  1
  O2-  O182  1  0.31572476  0.06752240  0.89849094  1
  O2-  O183  1  0.31820328  0.57456452  0.24036039  1
  O2-  O184  1  0.31900360  0.57534430  0.56801927  1
  O2-  O185  1  0.31669932  0.58027690  0.91410131  1
  O2-  O186  1  0.82119583  0.06656736  0.23537348  1
  O2-  O187  1  0.82416616  0.06783224  0.56751362  1
  O2-  O188  1  0.82828251  0.06934048  0.90278327  1
  O2-  O189  1  0.82004746  0.57044326  0.23663283  1
  O2-  O190  1  0.82036085  0.56940851  0.57495262  1
  O2-  O191  1  0.82219146  0.56796111  0.89717181  1
  O2-  O192  1  0.04399088  0.08006189  0.26659555  1
  O2-  O193  1  0.04368836  0.08810266  0.60438067  1
  O2-  O194  1  0.04572265  0.08368412  0.93793869  1
  O2-  O195  1  0.04308116  0.57942834  0.26285789  1
  O2-  O196  1  0.04523831  0.57859790  0.59870991  1
  O2-  O197  1  0.03804390  0.58415518  0.93883145  1
  O2-  O198  1  0.54522727  0.08263502  0.27401181  1
  O2-  O199  1  0.54755931  0.07931317  0.59645717  1
  O2-  O200  1  0.54518647  0.08265281  0.93468939  1
  O2-  O201  1  0.53895160  0.59237707  0.27050161  1
  O2-  O202  1  0.54267243  0.58702913  0.60308689  1
  O2-  O203  1  0.54814249  0.58106534  0.93125527  1
  O2-  O204  1  0.16441650  0.21246424  0.26423177  1
  O2-  O205  1  0.16377469  0.20525261  0.60630838  1
  O2-  O206  1  0.15884557  0.20861126  0.93682958  1
  O2-  O207  1  0.16484907  0.71288118  0.25998307  1
  O2-  O208  1  0.16752270  0.71141611  0.59936790  1
  O2-  O209  1  0.16215037  0.69964030  0.93750041  1
  O2-  O210  1  0.66810854  0.19990748  0.27389825  1
  O2-  O211  1  0.67358495  0.20829788  0.60013818  1
  O2-  O212  1  0.67436144  0.20717979  0.93495697  1
  O2-  O213  1  0.66501757  0.70509943  0.27694745  1
  O2-  O214  1  0.66028125  0.70793597  0.59852805  1
  O2-  O215  1  0.67247469  0.71049980  0.93231017  1
  O2-  O216  1  0.08676717  0.46312794  0.07328274  1
  O2-  O217  1  0.08645638  0.45224286  0.39206389  1
  O2-  O218  1  0.07883540  0.45497604  0.73396382  1
  O2-  O219  1  0.08638601  0.95307338  0.06574577  1
  O2-  O220  1  0.08451552  0.94843948  0.39474541  1
  O2-  O221  1  0.09014541  0.95995910  0.72901190  1
  O2-  O222  1  0.57754476  0.44857695  0.05545709  1
  O2-  O223  1  0.57861559  0.46505806  0.40083204  1
  O2-  O224  1  0.58313057  0.45855330  0.73615417  1
  O2-  O225  1  0.58053849  0.95359503  0.06696197  1
  O2-  O226  1  0.58323669  0.95173568  0.40068177  1
  O2-  O227  1  0.58153750  0.95111776  0.72988449  1
  O2-  O228  1  0.20740963  0.33183361  0.07010066  1
  O2-  O229  1  0.20911371  0.33774849  0.39473382  1
  O2-  O230  1  0.20574502  0.32876006  0.73552003  1
  O2-  O231  1  0.19774571  0.82851085  0.06008407  1
  O2-  O232  1  0.20970029  0.83391477  0.39713962  1
  O2-  O233  1  0.20625273  0.83864084  0.72837216  1
  O2-  O234  1  0.70638261  0.33890691  0.06419716  1
  O2-  O235  1  0.70115645  0.33179860  0.40103446  1
  O2-  O236  1  0.71522763  0.33552731  0.73683757  1
  O2-  O237  1  0.71306010  0.83471213  0.06996497  1
  O2-  O238  1  0.70135624  0.83421537  0.40009370  1
  O2-  O239  1  0.70031781  0.83163076  0.72837375  1
  O2-  O240  1  0.45732315  0.41922422  0.26351441  1
  O2-  O241  1  0.45468487  0.42241202  0.60277263  1
  O2-  O242  1  0.43929099  0.42303496  0.93433545  1
  O2-  O243  1  0.45481430  0.91700642  0.27641822  1
  O2-  O244  1  0.45800326  0.91177431  0.59958945  1
  O2-  O245  1  0.45615515  0.91965149  0.93195477  1
  O2-  O246  1  0.95434708  0.41320141  0.26868128  1
  O2-  O247  1  0.95486500  0.41188552  0.60307673  1
  O2-  O248  1  0.96735418  0.41028778  0.93664872  1
  O2-  O249  1  0.95824821  0.91178119  0.26499950  1
  O2-  O250  1  0.96514132  0.91832691  0.59641860  1
  O2-  O251  1  0.96204242  0.91219667  0.93718688  1
  O2-  O252  1  0.33398957  0.28824140  0.26564072  1
  O2-  O253  1  0.33043029  0.29021023  0.59841313  1
  O2-  O254  1  0.32740965  0.28428552  0.93237002  1
  O2-  O255  1  0.33937453  0.79359175  0.27097373  1
  O2-  O256  1  0.33601099  0.79619729  0.60168883  1
  O2-  O257  1  0.32885178  0.79463834  0.93288704  1
  O2-  O258  1  0.83030075  0.29835509  0.27303872  1
  O2-  O259  1  0.83908626  0.29028920  0.60427589  1
  O2-  O260  1  0.83716109  0.30292067  0.93977985  1
  O2-  O261  1  0.83044156  0.80055570  0.27141667  1
  O2-  O262  1  0.82731016  0.80417293  0.59720868  1
  O2-  O263  1  0.83999109  0.79474992  0.93865931  1
  O2-  O264  1  0.41658719  0.04126300  0.06725055  1
  O2-  O265  1  0.41512726  0.04078125  0.40677728  1
  O2-  O266  1  0.41532840  0.04119263  0.72498995  1
  O2-  O267  1  0.41911658  0.55475047  0.06088556  1
  O2-  O268  1  0.41062005  0.54671408  0.39245421  1
  O2-  O269  1  0.42065679  0.55217277  0.73529943  1
  O2-  O270  1  0.92099697  0.03982317  0.06901829  1
  O2-  O271  1  0.91909666  0.03624775  0.40010065  1
  O2-  O272  1  0.91878597  0.03738644  0.73432874  1
  O2-  O273  1  0.91254198  0.53290304  0.06734821  1
  O2-  O274  1  0.92199596  0.54125148  0.40098473  1
  O2-  O275  1  0.91454501  0.54693760  0.72565031  1
  O2-  O276  1  0.28259047  0.16130949  0.06822808  1
  O2-  O277  1  0.28487045  0.16758967  0.40319958  1
  O2-  O278  1  0.29287868  0.16078797  0.72934588  1
  O2-  O279  1  0.29191548  0.66632477  0.06717767  1
  O2-  O280  1  0.29075357  0.66505412  0.39253852  1
  O2-  O281  1  0.29156817  0.67234807  0.73565225  1
  O2-  O282  1  0.80223943  0.17498370  0.06772600  1
  O2-  O283  1  0.79572057  0.16678824  0.40215601  1
  O2-  O284  1  0.79517276  0.16564971  0.73507006  1
  O2-  O285  1  0.79705223  0.66787985  0.06628809  1
  O2-  O286  1  0.79840898  0.67112332  0.40265060  1
  O2-  O287  1  0.79703302  0.66957369  0.72142558  1
