# generated using pymatgen
data_Ca2Al2SiO7
_symmetry_space_group_name_H-M   'P 1'
_cell_length_a   15.46358983
_cell_length_b   15.46348519
_cell_length_c   15.28762696
_cell_angle_alpha   90.00600989
_cell_angle_beta   89.98035987
_cell_angle_gamma   90.00961326
_symmetry_Int_Tables_number   1
_chemical_formula_structural   Ca2Al2SiO7
_chemical_formula_sum   'Ca48 Al48 Si24 O168'
_cell_volume   3655.59224383
_cell_formula_units_Z   24
loop_
 _symmetry_equiv_pos_site_id
 _symmetry_equiv_pos_as_xyz
  1  'x, y, z'
loop_
 _atom_type_symbol
 _atom_type_oxidation_number
  Ca2+  2.0
  Al0+  0.0
  Si0+  0.0
  O2-  -2.0
loop_
 _atom_site_type_symbol
 _atom_site_label
 _atom_site_symmetry_multiplicity
 _atom_site_fract_x
 _atom_site_fract_y
 _atom_site_fract_z
 _atom_site_occupancy
  Ca2+  Ca0  1  0.17601952  0.09178422  0.16730156  1
  Ca2+  Ca1  1  0.17482520  0.08749592  0.50042762  1
  Ca2+  Ca2  1  0.17163738  0.08924989  0.84042592  1
  Ca2+  Ca3  1  0.17556564  0.57310352  0.17553928  1
  Ca2+  Ca4  1  0.17603644  0.57517392  0.50810124  1
  Ca2+  Ca5  1  0.16461566  0.57861610  0.82851062  1
  Ca2+  Ca6  1  0.67421154  0.07689071  0.17049632  1
  Ca2+  Ca7  1  0.66258132  0.07430949  0.50552962  1
  Ca2+  Ca8  1  0.66587070  0.07647496  0.83838069  1
  Ca2+  Ca9  1  0.67228270  0.58317058  0.16499305  1
  Ca2+  Ca10  1  0.67128239  0.57478223  0.51085996  1
  Ca2+  Ca11  1  0.67731584  0.57527798  0.83264511  1
  Ca2+  Ca12  1  0.08065576  0.32791522  0.15874396  1
  Ca2+  Ca13  1  0.08006121  0.34555022  0.50140343  1
  Ca2+  Ca14  1  0.07506745  0.33062839  0.83105280  1
  Ca2+  Ca15  1  0.08363727  0.82926801  0.16147958  1
  Ca2+  Ca16  1  0.07884993  0.82662457  0.50184140  1
  Ca2+  Ca17  1  0.07345779  0.82528154  0.82011536  1
  Ca2+  Ca18  1  0.56759770  0.33293920  0.16034099  1
  Ca2+  Ca19  1  0.57471710  0.33662110  0.49778470  1
  Ca2+  Ca20  1  0.57585444  0.32923617  0.82118239  1
  Ca2+  Ca21  1  0.58347147  0.83850773  0.16198271  1
  Ca2+  Ca22  1  0.59027193  0.83280897  0.49834144  1
  Ca2+  Ca23  1  0.58174952  0.84077687  0.83055503  1
  Ca2+  Ca24  1  0.32880174  0.41438166  0.17785837  1
  Ca2+  Ca25  1  0.32755869  0.41812788  0.50834433  1
  Ca2+  Ca26  1  0.33321595  0.41387309  0.83294230  1
  Ca2+  Ca27  1  0.33952580  0.92954256  0.16754963  1
  Ca2+  Ca28  1  0.33752624  0.92643751  0.50279330  1
  Ca2+  Ca29  1  0.33279755  0.92339689  0.84273842  1
  Ca2+  Ca30  1  0.83973995  0.42060465  0.16574156  1
  Ca2+  Ca31  1  0.82822015  0.42008246  0.51552013  1
  Ca2+  Ca32  1  0.84229217  0.42165016  0.83519083  1
  Ca2+  Ca33  1  0.82542685  0.92837274  0.17199516  1
  Ca2+  Ca34  1  0.82589042  0.92097906  0.50658723  1
  Ca2+  Ca35  1  0.82366103  0.91847436  0.84028578  1
  Ca2+  Ca36  1  0.40887934  0.17390105  0.16032001  1
  Ca2+  Ca37  1  0.42071161  0.17635263  0.49825374  1
  Ca2+  Ca38  1  0.42049239  0.17490045  0.82834609  1
  Ca2+  Ca39  1  0.41773189  0.67270269  0.15997869  1
  Ca2+  Ca40  1  0.41287902  0.66241968  0.49602142  1
  Ca2+  Ca41  1  0.41532328  0.67314777  0.82807625  1
  Ca2+  Ca42  1  0.92075092  0.16669111  0.15617188  1
  Ca2+  Ca43  1  0.91308702  0.17247268  0.49671968  1
  Ca2+  Ca44  1  0.91560235  0.17219982  0.82934923  1
  Ca2+  Ca45  1  0.91774254  0.66628845  0.15911638  1
  Ca2+  Ca46  1  0.91661932  0.66592162  0.50373789  1
  Ca2+  Ca47  1  0.91625736  0.66754060  0.82178458  1
  Al0+  Al48  1  0.00102248  -0.00290136  -0.00105538  1
  Al0+  Al49  1  -0.00111563  0.00039747  0.33503460  1
  Al0+  Al50  1  0.00041684  -0.00066288  0.66068790  1
  Al0+  Al51  1  0.00154555  0.49921559  0.00269669  1
  Al0+  Al52  1  0.00169253  0.50156127  0.33409366  1
  Al0+  Al53  1  0.00384596  0.49982108  0.66541253  1
  Al0+  Al54  1  0.49734778  0.00011321  0.00438310  1
  Al0+  Al55  1  0.50057086  -0.00062071  0.34068351  1
  Al0+  Al56  1  0.50004943  0.00126279  0.66695672  1
  Al0+  Al57  1  0.50064824  0.50248586  -0.00464504  1
  Al0+  Al58  1  0.50185084  0.50209511  0.32830533  1
  Al0+  Al59  1  0.49941488  0.50268321  0.67141545  1
  Al0+  Al60  1  0.24821941  0.25044509  -0.00441570  1
  Al0+  Al61  1  0.24763058  0.24944783  0.33927297  1
  Al0+  Al62  1  0.25054011  0.25094676  0.66765902  1
  Al0+  Al63  1  0.25123702  0.74885392  -0.00410322  1
  Al0+  Al64  1  0.24954390  0.74990325  0.33326299  1
  Al0+  Al65  1  0.24921456  0.75118294  0.66455386  1
  Al0+  Al66  1  0.74814408  0.25142375  0.00122961  1
  Al0+  Al67  1  0.74943837  0.25042296  0.33256495  1
  Al0+  Al68  1  0.74944729  0.24634048  0.66109333  1
  Al0+  Al69  1  0.74989819  0.74655501  0.00812774  1
  Al0+  Al70  1  0.75026197  0.75051799  0.33357305  1
  Al0+  Al71  1  0.74759461  0.75152401  0.67020092  1
  Al0+  Al72  1  0.07017489  0.17655641  0.98597701  1
  Al0+  Al73  1  0.82254489  0.07351761  0.35007500  1
  Al0+  Al74  1  0.17913194  0.42839738  0.34870006  1
  Al0+  Al75  1  0.92524881  0.82134996  0.65116611  1
  Al0+  Al76  1  0.43086306  0.82125301  0.98694939  1
  Al0+  Al77  1  0.82203933  0.56726371  0.01442043  1
  Al0+  Al78  1  0.68032026  0.92919288  0.35078798  1
  Al0+  Al79  1  0.07189842  0.67847230  0.64949451  1
  Al0+  Al80  1  0.42971707  0.32329339  0.65087794  1
  Al0+  Al81  1  0.31732137  0.07136745  0.01206914  1
  Al0+  Al82  1  0.67835624  0.92906682  0.01607491  1
  Al0+  Al83  1  0.93043829  0.31937683  0.65282470  1
  Al0+  Al84  1  0.67813069  0.42475077  0.68034886  1
  Al0+  Al85  1  0.67909574  0.93050722  0.68247596  1
  Al0+  Al86  1  0.32007947  0.07075866  0.34823302  1
  Al0+  Al87  1  0.42793137  0.32257108  0.98601475  1
  Al0+  Al88  1  0.82320293  0.07319029  0.01324199  1
  Al0+  Al89  1  0.42901253  0.31985032  0.32001080  1
  Al0+  Al90  1  0.32341027  0.57182347  0.34572321  1
  Al0+  Al91  1  0.32169583  0.57364131  0.68430022  1
  Al0+  Al92  1  0.92745609  0.32140748  0.98651628  1
  Al0+  Al93  1  0.57123576  0.17700096  0.65139445  1
  Al0+  Al94  1  0.82118977  0.56915403  0.67968169  1
  Al0+  Al95  1  0.17996446  0.42756855  0.68590314  1
  Si0+  Si96  1  0.07093326  0.67941002  0.31570959  1
  Si0+  Si97  1  0.57124412  0.17640808  0.31520484  1
  Si0+  Si98  1  0.17820612  0.92953966  0.68037246  1
  Si0+  Si99  1  0.32252387  0.57306306  0.01463838  1
  Si0+  Si100  1  0.82166437  0.57039696  0.34767611  1
  Si0+  Si101  1  0.57437696  0.67851938  0.98088546  1
  Si0+  Si102  1  0.17661808  0.92621794  0.34995190  1
  Si0+  Si103  1  0.67423671  0.42783248  0.01742955  1
  Si0+  Si104  1  0.82498578  0.07144672  0.68275097  1
  Si0+  Si105  1  0.42849036  0.82202778  0.65091225  1
  Si0+  Si106  1  0.07344643  0.17669414  0.64783030  1
  Si0+  Si107  1  0.17803823  0.92372758  0.01495941  1
  Si0+  Si108  1  0.07144657  0.67850296  0.98555349  1
  Si0+  Si109  1  0.31981939  0.06973014  0.68263410  1
  Si0+  Si110  1  0.57079047  0.17812598  0.98617190  1
  Si0+  Si111  1  0.18160069  0.43070417  0.01521546  1
  Si0+  Si112  1  0.42837162  0.82197640  0.31917967  1
  Si0+  Si113  1  0.06944736  0.17798390  0.31899092  1
  Si0+  Si114  1  0.92867581  0.82018601  0.31627705  1
  Si0+  Si115  1  0.57307528  0.67991167  0.31703095  1
  Si0+  Si116  1  0.56984814  0.68064899  0.65266147  1
  Si0+  Si117  1  0.67906692  0.43011454  0.34506468  1
  Si0+  Si118  1  0.92798028  0.32317119  0.31864743  1
  Si0+  Si119  1  0.92817150  0.81854088  0.98732332  1
  O2-  O120  1  0.24283445  -0.00414690  0.05946253  1
  O2-  O121  1  0.24631228  -0.00607391  0.39406568  1
  O2-  O122  1  0.24612185  0.00164527  0.72465695  1
  O2-  O123  1  0.25661663  0.49789684  0.05742282  1
  O2-  O124  1  0.25534628  0.49725697  0.39608177  1
  O2-  O125  1  0.25318664  0.49911651  0.73545414  1
  O2-  O126  1  0.75089889  0.00154594  0.06415758  1
  O2-  O127  1  0.74968347  0.00316255  0.40061390  1
  O2-  O128  1  0.75610919  0.00315381  0.72709029  1
  O2-  O129  1  0.74812729  0.49183570  0.06198512  1
  O2-  O130  1  0.75444392  0.49598913  0.38804408  1
  O2-  O131  1  0.75548065  0.49153898  0.73027543  1
  O2-  O132  1  -0.00291524  0.24909917  0.27822135  1
  O2-  O133  1  0.00450813  0.24491016  0.60343251  1
  O2-  O134  1  -0.00790209  0.24237987  0.93734072  1
  O2-  O135  1  0.00053023  0.75045608  0.27193199  1
  O2-  O136  1  -0.00397344  0.74776001  0.60052207  1
  O2-  O137  1  0.00052084  0.74962274  0.94455005  1
  O2-  O138  1  0.50102109  0.24348521  0.27035732  1
  O2-  O139  1  0.50504070  0.25453338  0.60114610  1
  O2-  O140  1  0.50607285  0.25057028  0.94205776  1
  O2-  O141  1  0.49964266  0.75042406  0.27753233  1
  O2-  O142  1  0.49683430  0.74897400  0.60852381  1
  O2-  O143  1  0.50736519  0.74974414  0.93827847  1
  O2-  O144  1  0.07399061  0.18169028  0.10006253  1
  O2-  O145  1  0.06930957  0.17571975  0.42373508  1
  O2-  O146  1  0.07238790  0.17426212  0.75322091  1
  O2-  O147  1  0.07176702  0.67957535  0.09139074  1
  O2-  O148  1  0.07004533  0.67977251  0.41982748  1
  O2-  O149  1  0.07228023  0.68318008  0.76373305  1
  O2-  O150  1  0.56815224  0.17881442  0.09211172  1
  O2-  O151  1  0.57052975  0.17838999  0.42037267  1
  O2-  O152  1  0.56525900  0.17269713  0.76518590  1
  O2-  O153  1  0.57204545  0.67634036  0.08711293  1
  O2-  O154  1  0.57623158  0.67891155  0.42182216  1
  O2-  O155  1  0.57063628  0.68360099  0.75748518  1
  O2-  O156  1  0.17765398  0.43014194  0.23423452  1
  O2-  O157  1  0.18130956  0.42894821  0.57236886  1
  O2-  O158  1  0.17936479  0.43295195  0.91096260  1
  O2-  O159  1  0.17663299  0.92440111  0.24418775  1
  O2-  O160  1  0.18120165  0.93015190  0.57508139  1
  O2-  O161  1  0.18064655  0.92004080  0.90961289  1
  O2-  O162  1  0.67874341  0.43297647  0.23983508  1
  O2-  O163  1  0.67829099  0.43109855  0.56578710  1
  O2-  O164  1  0.67060903  0.43136390  0.91273950  1
  O2-  O165  1  0.68176642  0.92825154  0.23733075  1
  O2-  O166  1  0.67814595  0.93035528  0.56964328  1
  O2-  O167  1  0.67910289  0.92941023  0.90263551  1
  O2-  O168  1  0.42612663  0.32172958  0.09989312  1
  O2-  O169  1  0.43209045  0.32190810  0.43223936  1
  O2-  O170  1  0.42923688  0.31839737  0.76462579  1
  O2-  O171  1  0.42895726  0.81842252  0.10045738  1
  O2-  O172  1  0.42724687  0.82129328  0.42425132  1
  O2-  O173  1  0.42886145  0.82360708  0.75603446  1
  O2-  O174  1  0.93446346  0.32509200  0.10071214  1
  O2-  O175  1  0.92832397  0.32574108  0.42338478  1
  O2-  O176  1  0.93156130  0.31801168  0.76563314  1
  O2-  O177  1  0.93100696  0.81640818  0.09298607  1
  O2-  O178  1  0.92852741  0.81735909  0.42071663  1
  O2-  O179  1  0.92807244  0.82136835  0.76541696  1
  O2-  O180  1  0.31829127  0.07062213  0.23495040  1
  O2-  O181  1  0.31936206  0.06724468  0.57725512  1
  O2-  O182  1  0.31680729  0.06917774  0.89903807  1
  O2-  O183  1  0.32062233  0.57334200  0.23144947  1
  O2-  O184  1  0.32056177  0.57524706  0.57063555  1
  O2-  O185  1  0.31943925  0.57675299  0.91044239  1
  O2-  O186  1  0.82392435  0.07144535  0.23643632  1
  O2-  O187  1  0.82612670  0.06899151  0.57723753  1
  O2-  O188  1  0.82289783  0.06964927  0.89993973  1
  O2-  O189  1  0.82200750  0.57059428  0.24219133  1
  O2-  O190  1  0.81672220  0.56967115  0.56529177  1
  O2-  O191  1  0.82328949  0.56933696  0.90227110  1
  O2-  O192  1  0.04435184  0.08550565  0.27045625  1
  O2-  O193  1  0.05093396  0.08293676  0.60007298  1
  O2-  O194  1  0.05352124  0.07426676  0.93535195  1
  O2-  O195  1  0.04156496  0.58809016  0.26691698  1
  O2-  O196  1  0.04789958  0.57994540  0.59634381  1
  O2-  O197  1  0.04247090  0.58713145  0.93990832  1
  O2-  O198  1  0.54654594  0.08095012  0.27266916  1
  O2-  O199  1  0.53356187  0.08181655  0.59568547  1
  O2-  O200  1  0.54044455  0.08591035  0.94070968  1
  O2-  O201  1  0.54745515  0.58955995  0.26514459  1
  O2-  O202  1  0.54483983  0.58850550  0.60466297  1
  O2-  O203  1  0.54661410  0.58690765  0.93295611  1
  O2-  O204  1  0.16117446  0.20723604  0.27209155  1
  O2-  O205  1  0.16747771  0.20269975  0.60322489  1
  O2-  O206  1  0.16453112  0.21194869  0.92972153  1
  O2-  O207  1  0.16277205  0.70772607  0.26716944  1
  O2-  O208  1  0.16779678  0.71443671  0.59483497  1
  O2-  O209  1  0.16257283  0.70541565  0.93737680  1
  O2-  O210  1  0.66501977  0.20349816  0.26916902  1
  O2-  O211  1  0.67145943  0.19358667  0.59813730  1
  O2-  O212  1  0.66570152  0.19807066  0.94094781  1
  O2-  O213  1  0.66404749  0.70974202  0.26741576  1
  O2-  O214  1  0.65990525  0.71099578  0.60314682  1
  O2-  O215  1  0.66970772  0.70162018  0.93830583  1
  O2-  O216  1  0.09231883  0.46267961  0.06545333  1
  O2-  O217  1  0.08210980  0.46308330  0.40106983  1
  O2-  O218  1  0.08245151  0.45904894  0.73828377  1
  O2-  O219  1  0.08316367  0.94335206  0.06079015  1
  O2-  O220  1  0.08374250  0.95257790  0.39602477  1
  O2-  O221  1  0.08481921  0.95397659  0.72620061  1
  O2-  O222  1  0.58312555  0.46195383  0.06593306  1
  O2-  O223  1  0.58975778  0.46368694  0.39286718  1
  O2-  O224  1  0.58303360  0.45943412  0.73488567  1
  O2-  O225  1  0.57988894  0.95697871  0.06915584  1
  O2-  O226  1  0.58098012  0.95226693  0.40383334  1
  O2-  O227  1  0.58202512  0.96303629  0.73533674  1
  O2-  O228  1  0.20701125  0.33791037  0.06135616  1
  O2-  O229  1  0.19986825  0.32975065  0.40223528  1
  O2-  O230  1  0.20652790  0.32801988  0.73787663  1
  O2-  O231  1  0.20741917  0.83152077  0.06338350  1
  O2-  O232  1  0.20149080  0.83275715  0.39609063  1
  O2-  O233  1  0.20732112  0.83900398  0.72841834  1
  O2-  O234  1  0.69244064  0.33285374  0.06319326  1
  O2-  O235  1  0.70022871  0.33657047  0.39065033  1
  O2-  O236  1  0.69873796  0.32294104  0.72800989  1
  O2-  O237  1  0.70555089  0.83020682  0.06916557  1
  O2-  O238  1  0.71127155  0.83020229  0.40189911  1
  O2-  O239  1  0.70600865  0.83377885  0.73726874  1
  O2-  O240  1  0.46195857  0.41632946  0.26471131  1
  O2-  O241  1  0.45438942  0.42445886  0.60197784  1
  O2-  O242  1  0.45480324  0.42070355  0.93374352  1
  O2-  O243  1  0.45761642  0.91411035  0.27286611  1
  O2-  O244  1  0.45921938  0.91252278  0.60297043  1
  O2-  O245  1  0.45752755  0.91910166  0.93342439  1
  O2-  O246  1  0.95853074  0.41485637  0.27095982  1
  O2-  O247  1  0.96117707  0.41607805  0.59864873  1
  O2-  O248  1  0.96509095  0.41762622  0.93427608  1
  O2-  O249  1  0.95666615  0.91272075  0.27011778  1
  O2-  O250  1  0.95786331  0.91764213  0.59548431  1
  O2-  O251  1  0.95278661  0.91022556  0.93928631  1
  O2-  O252  1  0.32983658  0.28945014  0.27005696  1
  O2-  O253  1  0.33201171  0.28962791  0.59943035  1
  O2-  O254  1  0.33329231  0.28936279  0.93168024  1
  O2-  O255  1  0.33609610  0.79596392  0.27101565  1
  O2-  O256  1  0.33632078  0.79805193  0.60266247  1
  O2-  O257  1  0.33501571  0.78877890  0.93141035  1
  O2-  O258  1  0.83474220  0.30041062  0.27109559  1
  O2-  O259  1  0.83377057  0.29096201  0.59706676  1
  O2-  O260  1  0.82491215  0.30517893  0.93789440  1
  O2-  O261  1  0.83786094  0.78946285  0.26813356  1
  O2-  O262  1  0.82655241  0.79309549  0.59906530  1
  O2-  O263  1  0.83623948  0.78796707  0.94301055  1
  O2-  O264  1  0.41199479  0.04011485  0.06916654  1
  O2-  O265  1  0.41504782  0.03925848  0.40397497  1
  O2-  O266  1  0.40953816  0.03733090  0.72988968  1
  O2-  O267  1  0.41721402  0.55180221  0.05916023  1
  O2-  O268  1  0.42494268  0.55060974  0.39437117  1
  O2-  O269  1  0.42107369  0.55180542  0.73736601  1
  O2-  O270  1  0.92225720  0.04278952  0.06596767  1
  O2-  O271  1  0.92063416  0.04392301  0.40260112  1
  O2-  O272  1  0.91976028  0.04644111  0.72695520  1
  O2-  O273  1  0.91857403  0.53778964  0.07164334  1
  O2-  O274  1  0.91470747  0.54721111  0.39348428  1
  O2-  O275  1  0.92200888  0.54769504  0.72901961  1
  O2-  O276  1  0.28425209  0.16763032  0.06648009  1
  O2-  O277  1  0.28625772  0.16427346  0.40497589  1
  O2-  O278  1  0.29405720  0.16192718  0.72885136  1
  O2-  O279  1  0.28999913  0.66316226  0.06364993  1
  O2-  O280  1  0.29292106  0.66985628  0.39809396  1
  O2-  O281  1  0.29041882  0.67308839  0.73516182  1
  O2-  O282  1  0.79743852  0.17271362  0.06648410  1
  O2-  O283  1  0.79748454  0.17426507  0.39943679  1
  O2-  O284  1  0.80035035  0.16545802  0.72671339  1
  O2-  O285  1  0.79013502  0.66174546  0.07330092  1
  O2-  O286  1  0.79075844  0.66119227  0.39366535  1
  O2-  O287  1  0.78734573  0.66561825  0.73284231  1
