# generated using pymatgen
data_Ca2Al2SiO7
_symmetry_space_group_name_H-M   'P 1'
_cell_length_a   15.45636377
_cell_length_b   15.45595870
_cell_length_c   15.28263694
_cell_angle_alpha   89.98722159
_cell_angle_beta   90.01254882
_cell_angle_gamma   90.01351906
_symmetry_Int_Tables_number   1
_chemical_formula_structural   Ca2Al2SiO7
_chemical_formula_sum   'Ca48 Al48 Si24 O168'
_cell_volume   3650.91348451
_cell_formula_units_Z   24
loop_
 _symmetry_equiv_pos_site_id
 _symmetry_equiv_pos_as_xyz
  1  'x, y, z'
loop_
 _atom_type_symbol
 _atom_type_oxidation_number
  Ca2+  2.0
  Al0+  0.0
  Si0+  0.0
  O2-  -2.0
loop_
 _atom_site_type_symbol
 _atom_site_label
 _atom_site_symmetry_multiplicity
 _atom_site_fract_x
 _atom_site_fract_y
 _atom_site_fract_z
 _atom_site_occupancy
  Ca2+  Ca0  1  0.16468183  0.07535216  0.17642790  1
  Ca2+  Ca1  1  0.16714660  0.08230235  0.49880617  1
  Ca2+  Ca2  1  0.16453598  0.07646924  0.84509006  1
  Ca2+  Ca3  1  0.16642296  0.58230105  0.18020182  1
  Ca2+  Ca4  1  0.16831141  0.57852240  0.50377597  1
  Ca2+  Ca5  1  0.16445485  0.58351970  0.83236833  1
  Ca2+  Ca6  1  0.66204276  0.07778684  0.17142461  1
  Ca2+  Ca7  1  0.66887758  0.08338067  0.50999677  1
  Ca2+  Ca8  1  0.66860873  0.07644102  0.83178849  1
  Ca2+  Ca9  1  0.67849537  0.59081194  0.17009850  1
  Ca2+  Ca10  1  0.68079651  0.57756143  0.50896178  1
  Ca2+  Ca11  1  0.67731450  0.58707614  0.84113055  1
  Ca2+  Ca12  1  0.08538721  0.32788038  0.16781869  1
  Ca2+  Ca13  1  0.08043403  0.33517899  0.48989550  1
  Ca2+  Ca14  1  0.08460184  0.32913048  0.82878099  1
  Ca2+  Ca15  1  0.09025000  0.82465837  0.16269063  1
  Ca2+  Ca16  1  0.08596227  0.82172509  0.49319384  1
  Ca2+  Ca17  1  0.08608758  0.82233214  0.82968503  1
  Ca2+  Ca18  1  0.58247830  0.32711587  0.16578775  1
  Ca2+  Ca19  1  0.59207555  0.32326471  0.49671236  1
  Ca2+  Ca20  1  0.58568080  0.32994922  0.82303219  1
  Ca2+  Ca21  1  0.57591638  0.83023454  0.16162782  1
  Ca2+  Ca22  1  0.57655400  0.83585418  0.49349694  1
  Ca2+  Ca23  1  0.59039568  0.83209923  0.83162314  1
  Ca2+  Ca24  1  0.32535584  0.42553083  0.17766819  1
  Ca2+  Ca25  1  0.32172791  0.42510798  0.50406014  1
  Ca2+  Ca26  1  0.32984041  0.42174960  0.83082574  1
  Ca2+  Ca27  1  0.32253223  0.91765908  0.17634060  1
  Ca2+  Ca28  1  0.33030106  0.91622947  0.49299275  1
  Ca2+  Ca29  1  0.32649072  0.91882388  0.83747864  1
  Ca2+  Ca30  1  0.83956769  0.42601256  0.17174954  1
  Ca2+  Ca31  1  0.83638560  0.42350595  0.50356597  1
  Ca2+  Ca32  1  0.82973431  0.42629782  0.83083647  1
  Ca2+  Ca33  1  0.82614052  0.91362914  0.16764063  1
  Ca2+  Ca34  1  0.82687206  0.92616381  0.50890369  1
  Ca2+  Ca35  1  0.82444295  0.91806240  0.83481103  1
  Ca2+  Ca36  1  0.41579697  0.16265767  0.16989108  1
  Ca2+  Ca37  1  0.42829616  0.16204245  0.49208994  1
  Ca2+  Ca38  1  0.42309255  0.16997110  0.82513457  1
  Ca2+  Ca39  1  0.41523703  0.67220540  0.16387341  1
  Ca2+  Ca40  1  0.41140623  0.66926675  0.49303460  1
  Ca2+  Ca41  1  0.42124792  0.66652879  0.82804272  1
  Ca2+  Ca42  1  0.92802174  0.17330552  0.16587404  1
  Ca2+  Ca43  1  0.91840022  0.17524731  0.48938878  1
  Ca2+  Ca44  1  0.91994535  0.16285844  0.82874855  1
  Ca2+  Ca45  1  0.92670926  0.65947183  0.16355254  1
  Ca2+  Ca46  1  0.92436195  0.65747541  0.49591771  1
  Ca2+  Ca47  1  0.92389095  0.65864329  0.82975858  1
  Al0+  Al48  1  -0.00104646  -0.00029415  0.00103285  1
  Al0+  Al49  1  -0.00288405  -0.00154411  0.33434466  1
  Al0+  Al50  1  -0.00000348  -0.00200954  0.66957535  1
  Al0+  Al51  1  -0.00042856  0.49867639  -0.00167931  1
  Al0+  Al52  1  -0.00135845  0.50041098  0.33258720  1
  Al0+  Al53  1  0.00139657  0.49735070  0.67066204  1
  Al0+  Al54  1  0.49968705  0.00128508  0.00193816  1
  Al0+  Al55  1  0.49774739  -0.00254116  0.32660537  1
  Al0+  Al56  1  0.49890741  -0.00000820  0.66687754  1
  Al0+  Al57  1  0.50026379  0.49987078  -0.00359396  1
  Al0+  Al58  1  0.50262817  0.49806763  0.33634211  1
  Al0+  Al59  1  0.49772115  0.49993046  0.67002214  1
  Al0+  Al60  1  0.25075167  0.25136434  -0.00508265  1
  Al0+  Al61  1  0.25261024  0.24863469  0.33761749  1
  Al0+  Al62  1  0.25126968  0.25041986  0.66947638  1
  Al0+  Al63  1  0.25042497  0.75106019  -0.00266900  1
  Al0+  Al64  1  0.25046062  0.75186871  0.33181968  1
  Al0+  Al65  1  0.25077948  0.74993717  0.66581265  1
  Al0+  Al66  1  0.75000672  0.25107180  -0.00090394  1
  Al0+  Al67  1  0.75030981  0.24941731  0.32001002  1
  Al0+  Al68  1  0.75247244  0.24988119  0.67092878  1
  Al0+  Al69  1  0.74980619  0.75100800  0.00581562  1
  Al0+  Al70  1  0.75039520  0.74993945  0.33995218  1
  Al0+  Al71  1  0.75103669  0.75155105  0.67142235  1
  Al0+  Al72  1  0.82166533  0.57153844  0.68280813  1
  Al0+  Al73  1  0.17831488  0.42894356  0.34661774  1
  Al0+  Al74  1  0.17882266  0.42774097  0.68393554  1
  Al0+  Al75  1  0.07135426  0.67882920  0.98550350  1
  Al0+  Al76  1  0.42980908  0.81798945  0.31857456  1
  Al0+  Al77  1  0.57011423  0.18121734  0.65416212  1
  Al0+  Al78  1  0.92963629  0.32236364  0.31705215  1
  Al0+  Al79  1  0.32350683  0.57300582  0.34621472  1
  Al0+  Al80  1  0.17531625  0.92874070  0.34957563  1
  Al0+  Al81  1  0.06865933  0.68162496  0.32107063  1
  Al0+  Al82  1  0.32006493  0.57412482  0.68360310  1
  Al0+  Al83  1  0.82004561  0.57050591  0.34761803  1
  Al0+  Al84  1  0.82077480  0.56923570  0.01575587  1
  Al0+  Al85  1  0.07008429  0.17928524  0.98607826  1
  Al0+  Al86  1  0.07376766  0.17689836  0.32084170  1
  Al0+  Al87  1  0.57104982  0.68089756  0.98720762  1
  Al0+  Al88  1  0.67613857  0.92991101  0.68072432  1
  Al0+  Al89  1  0.17886412  0.92871685  0.01324971  1
  Al0+  Al90  1  0.57032447  0.17838068  0.31801691  1
  Al0+  Al91  1  0.06930263  0.67917967  0.65172122  1
  Al0+  Al92  1  0.82308146  0.07213649  0.68076719  1
  Al0+  Al93  1  0.67898468  0.93074791  0.01641321  1
  Al0+  Al94  1  0.32186949  0.07022198  0.34864638  1
  Al0+  Al95  1  0.67863931  0.42844704  0.67990947  1
  Si0+  Si96  1  0.42937011  0.32180689  0.98317521  1
  Si0+  Si97  1  0.17946196  0.92915091  0.68158053  1
  Si0+  Si98  1  0.42954428  0.82069168  0.65121435  1
  Si0+  Si99  1  0.93169267  0.31816431  0.65294277  1
  Si0+  Si100  1  0.42605787  0.32337782  0.64769070  1
  Si0+  Si101  1  0.18019605  0.42875469  0.01473513  1
  Si0+  Si102  1  0.92755162  0.32203485  0.97962192  1
  Si0+  Si103  1  0.92407497  0.82315856  0.31740271  1
  Si0+  Si104  1  0.82195801  0.07440470  0.01966607  1
  Si0+  Si105  1  0.32095016  0.07064491  0.68161131  1
  Si0+  Si106  1  0.57485655  0.67631485  0.32001125  1
  Si0+  Si107  1  0.67867600  0.42439462  0.34758656  1
  Si0+  Si108  1  0.67555816  0.42706798  0.01801895  1
  Si0+  Si109  1  0.67808154  0.93025864  0.34769011  1
  Si0+  Si110  1  0.32095143  0.07424661  0.01548222  1
  Si0+  Si111  1  0.92681384  0.82322493  0.64954126  1
  Si0+  Si112  1  0.57315969  0.67826858  0.65268864  1
  Si0+  Si113  1  0.32209347  0.57058810  0.01402776  1
  Si0+  Si114  1  0.42839015  0.32349943  0.31752029  1
  Si0+  Si115  1  0.92670370  0.82216466  0.98371239  1
  Si0+  Si116  1  0.42846764  0.82307946  0.98132964  1
  Si0+  Si117  1  0.81888508  0.07222520  0.34513283  1
  Si0+  Si118  1  0.57104219  0.17844311  0.98297048  1
  Si0+  Si119  1  0.07350065  0.17548944  0.65277837  1
  O2-  O120  1  0.25136201  0.00638836  0.05812273  1
  O2-  O121  1  0.24495229  0.00380088  0.39945565  1
  O2-  O122  1  0.24569489  0.00470795  0.72433462  1
  O2-  O123  1  0.24730540  0.50379881  0.05627834  1
  O2-  O124  1  0.25063742  0.50157622  0.39518860  1
  O2-  O125  1  0.24891838  0.50167458  0.73452254  1
  O2-  O126  1  0.75175666  0.00705367  0.06404765  1
  O2-  O127  1  0.74795454  0.00216214  0.38915415  1
  O2-  O128  1  0.75049435  0.00010500  0.72993723  1
  O2-  O129  1  0.74436618  0.49518094  0.06206107  1
  O2-  O130  1  0.74442398  0.49541450  0.39160294  1
  O2-  O131  1  0.74279368  0.50623271  0.73220245  1
  O2-  O132  1  0.00507917  0.25173210  0.26983457  1
  O2-  O133  1  0.00256835  0.24628222  0.61124885  1
  O2-  O134  1  -0.00571001  0.25089073  0.93584187  1
  O2-  O135  1  -0.00498687  0.75710090  0.27323858  1
  O2-  O136  1  -0.00778502  0.75186214  0.60520220  1
  O2-  O137  1  -0.00342579  0.75445857  0.93936597  1
  O2-  O138  1  0.49570237  0.25371710  0.27160730  1
  O2-  O139  1  0.49861781  0.25779087  0.60493711  1
  O2-  O140  1  0.50162988  0.25121046  0.94158607  1
  O2-  O141  1  0.50156869  0.73916472  0.27433924  1
  O2-  O142  1  0.50166236  0.74930022  0.61068242  1
  O2-  O143  1  0.49803478  0.75572441  0.93668208  1
  O2-  O144  1  0.07204433  0.18176776  0.09847819  1
  O2-  O145  1  0.06794382  0.17655634  0.43486983  1
  O2-  O146  1  0.07288768  0.17546793  0.75824605  1
  O2-  O147  1  0.07261524  0.67792973  0.09836723  1
  O2-  O148  1  0.06737247  0.68061860  0.43413261  1
  O2-  O149  1  0.06959681  0.68255648  0.76525749  1
  O2-  O150  1  0.56954957  0.17802593  0.08801711  1
  O2-  O151  1  0.57313624  0.17841804  0.43112542  1
  O2-  O152  1  0.56582263  0.18043684  0.76771594  1
  O2-  O153  1  0.56788595  0.68157421  0.10036026  1
  O2-  O154  1  0.57738364  0.68091184  0.42559491  1
  O2-  O155  1  0.57235944  0.68070729  0.75804333  1
  O2-  O156  1  0.18046050  0.43063500  0.23205211  1
  O2-  O157  1  0.17906693  0.42588298  0.57098047  1
  O2-  O158  1  0.18307042  0.42682548  0.90980637  1
  O2-  O159  1  0.17802681  0.92779384  0.23584434  1
  O2-  O160  1  0.18009113  0.92914851  0.57705077  1
  O2-  O161  1  0.18262736  0.92953183  0.89925869  1
  O2-  O162  1  0.67752149  0.42492442  0.24184090  1
  O2-  O163  1  0.68360395  0.42702456  0.56627222  1
  O2-  O164  1  0.67501843  0.42640099  0.91259961  1
  O2-  O165  1  0.67953404  0.92974352  0.24245525  1
  O2-  O166  1  0.67476348  0.93267622  0.56675502  1
  O2-  O167  1  0.67910945  0.93315326  0.90362622  1
  O2-  O168  1  0.42833014  0.32220323  0.08809317  1
  O2-  O169  1  0.43117039  0.32438752  0.42260919  1
  O2-  O170  1  0.42448810  0.31892304  0.75397710  1
  O2-  O171  1  0.42805924  0.82155880  0.08657749  1
  O2-  O172  1  0.43363789  0.82074181  0.43203804  1
  O2-  O173  1  0.42814478  0.82202503  0.75656148  1
  O2-  O174  1  0.92880140  0.32218821  0.08490180  1
  O2-  O175  1  0.92595912  0.31955774  0.43100652  1
  O2-  O176  1  0.93261732  0.31704253  0.75824365  1
  O2-  O177  1  0.92673148  0.82139561  0.08936074  1
  O2-  O178  1  0.92116653  0.82329818  0.42284917  1
  O2-  O179  1  0.92948962  0.82661861  0.75511272  1
  O2-  O180  1  0.32333344  0.06626980  0.23478371  1
  O2-  O181  1  0.32322788  0.06937511  0.57728415  1
  O2-  O182  1  0.32163537  0.07353148  0.90915756  1
  O2-  O183  1  0.32291783  0.57115091  0.23166204  1
  O2-  O184  1  0.31858854  0.57526692  0.57052077  1
  O2-  O185  1  0.32361226  0.56836586  0.90914011  1
  O2-  O186  1  0.81720015  0.07014878  0.24005807  1
  O2-  O187  1  0.82233024  0.07251286  0.56670512  1
  O2-  O188  1  0.82088266  0.07433912  0.91408113  1
  O2-  O189  1  0.81884721  0.57176803  0.23438253  1
  O2-  O190  1  0.82252280  0.56830676  0.56929797  1
  O2-  O191  1  0.82003337  0.56755736  0.90291730  1
  O2-  O192  1  0.04035030  0.07935014  0.26787575  1
  O2-  O193  1  0.04761496  0.08248203  0.60713103  1
  O2-  O194  1  0.04044721  0.08145856  0.93262915  1
  O2-  O195  1  0.03671777  0.58598395  0.26635651  1
  O2-  O196  1  0.04073864  0.57999774  0.60220687  1
  O2-  O197  1  0.04031615  0.58167158  0.93222318  1
  O2-  O198  1  0.53703886  0.08344536  0.26211207  1
  O2-  O199  1  0.53604384  0.08489030  0.60097205  1
  O2-  O200  1  0.54103692  0.08715558  0.93564843  1
  O2-  O201  1  0.55785748  0.57988347  0.27646686  1
  O2-  O202  1  0.54658376  0.58542399  0.60702081  1
  O2-  O203  1  0.54167729  0.58371891  0.93279032  1
  O2-  O204  1  0.17469165  0.19960970  0.27035500  1
  O2-  O205  1  0.16672844  0.20202508  0.60806020  1
  O2-  O206  1  0.16690179  0.21026062  0.93067418  1
  O2-  O207  1  0.16551261  0.71096155  0.26700654  1
  O2-  O208  1  0.16575694  0.71419841  0.59990826  1
  O2-  O209  1  0.16792569  0.71047044  0.93071590  1
  O2-  O210  1  0.66403168  0.20830119  0.25784594  1
  O2-  O211  1  0.66910477  0.20917889  0.60309429  1
  O2-  O212  1  0.66418120  0.20450792  0.93739818  1
  O2-  O213  1  0.66603455  0.70944120  0.27263939  1
  O2-  O214  1  0.66573754  0.70557938  0.60622943  1
  O2-  O215  1  0.66801713  0.71323337  0.93486870  1
  O2-  O216  1  0.08634149  0.45126494  0.05883941  1
  O2-  O217  1  0.08031851  0.45739619  0.39875759  1
  O2-  O218  1  0.08137603  0.45380819  0.73901864  1
  O2-  O219  1  0.08077573  0.95518126  0.06537896  1
  O2-  O220  1  0.07525629  0.95175682  0.40215096  1
  O2-  O221  1  0.08695668  0.95189035  0.72980678  1
  O2-  O222  1  0.58106331  0.45161530  0.06307305  1
  O2-  O223  1  0.58472513  0.44389849  0.39515174  1
  O2-  O224  1  0.57680615  0.44626623  0.72969719  1
  O2-  O225  1  0.58127227  0.96135768  0.06943184  1
  O2-  O226  1  0.58590847  0.95820066  0.39243843  1
  O2-  O227  1  0.57901689  0.96013886  0.73587883  1
  O2-  O228  1  0.21328815  0.33802899  0.06131116  1
  O2-  O229  1  0.20519065  0.33058930  0.39970281  1
  O2-  O230  1  0.21043333  0.32961946  0.73852145  1
  O2-  O231  1  0.21329852  0.83281454  0.06653710  1
  O2-  O232  1  0.21141130  0.83307700  0.40276810  1
  O2-  O233  1  0.21354979  0.84006661  0.72989476  1
  O2-  O234  1  0.70051900  0.33229103  0.06285147  1
  O2-  O235  1  0.70760154  0.33022315  0.39049636  1
  O2-  O236  1  0.71252321  0.33349456  0.73678009  1
  O2-  O237  1  0.71009305  0.83562589  0.07251105  1
  O2-  O238  1  0.70535398  0.83958032  0.39722195  1
  O2-  O239  1  0.70413720  0.83225924  0.73493993  1
  O2-  O240  1  0.45578679  0.41621387  0.26851440  1
  O2-  O241  1  0.44560453  0.41937742  0.60498314  1
  O2-  O242  1  0.45672848  0.41274493  0.93370360  1
  O2-  O243  1  0.46421563  0.91111655  0.26018332  1
  O2-  O244  1  0.45779423  0.91214242  0.60333744  1
  O2-  O245  1  0.45261562  0.91841910  0.93712592  1
  O2-  O246  1  0.95753316  0.41985712  0.26284740  1
  O2-  O247  1  0.96033358  0.40947151  0.60555068  1
  O2-  O248  1  0.95642259  0.41385053  0.93240010  1
  O2-  O249  1  0.94462997  0.91752928  0.27072207  1
  O2-  O250  1  0.95544233  0.91622133  0.60233431  1
  O2-  O251  1  0.94939202  0.91674972  0.93798601  1
  O2-  O252  1  0.33513625  0.29811135  0.27059248  1
  O2-  O253  1  0.33371163  0.29292849  0.60202887  1
  O2-  O254  1  0.33926176  0.29270253  0.93256159  1
  O2-  O255  1  0.33353235  0.79109134  0.26233459  1
  O2-  O256  1  0.33854839  0.79262908  0.60269014  1
  O2-  O257  1  0.33616431  0.79593325  0.93324604  1
  O2-  O258  1  0.83459884  0.29143619  0.25792712  1
  O2-  O259  1  0.84002988  0.29081907  0.60551857  1
  O2-  O260  1  0.83217979  0.29865386  0.93520067  1
  O2-  O261  1  0.83081461  0.79468410  0.27101884  1
  O2-  O262  1  0.83093044  0.80279078  0.60536517  1
  O2-  O263  1  0.83309512  0.79567628  0.93850426  1
  O2-  O264  1  0.41465432  0.04935707  0.06115194  1
  O2-  O265  1  0.41897915  0.03349261  0.40064797  1
  O2-  O266  1  0.40980781  0.03791813  0.73213264  1
  O2-  O267  1  0.41288506  0.53927755  0.06140493  1
  O2-  O268  1  0.42290081  0.54625923  0.39906620  1
  O2-  O269  1  0.41874172  0.54603858  0.73700732  1
  O2-  O270  1  0.91489395  0.04702599  0.06540033  1
  O2-  O271  1  0.90958904  0.04579013  0.39459880  1
  O2-  O272  1  0.92066823  0.04208080  0.73610303  1
  O2-  O273  1  0.91762095  0.53550958  0.06814113  1
  O2-  O274  1  0.91502783  0.53749087  0.40169219  1
  O2-  O275  1  0.91672139  0.53530290  0.73654783  1
  O2-  O276  1  0.29746566  0.16904288  0.05970270  1
  O2-  O277  1  0.30399422  0.17013942  0.40219880  1
  O2-  O278  1  0.29864881  0.16348768  0.72966402  1
  O2-  O279  1  0.29877609  0.66490503  0.05751953  1
  O2-  O280  1  0.29691926  0.67166086  0.39732197  1
  O2-  O281  1  0.29222093  0.67261340  0.73759609  1
  O2-  O282  1  0.79692637  0.16915538  0.06370873  1
  O2-  O283  1  0.79013526  0.16499081  0.38949469  1
  O2-  O284  1  0.79546846  0.16826704  0.73735451  1
  O2-  O285  1  0.79058724  0.66574815  0.06956863  1
  O2-  O286  1  0.79010564  0.66626283  0.40442218  1
  O2-  O287  1  0.80016727  0.67190203  0.73423361  1
