# generated using pymatgen
data_Ca2Al2SiO7
_symmetry_space_group_name_H-M   'P 1'
_cell_length_a   15.46089531
_cell_length_b   15.46075122
_cell_length_c   15.28615084
_cell_angle_alpha   90.00291073
_cell_angle_beta   90.00647608
_cell_angle_gamma   90.00156544
_symmetry_Int_Tables_number   1
_chemical_formula_structural   Ca2Al2SiO7
_chemical_formula_sum   'Ca48 Al48 Si24 O168'
_cell_volume   3653.95646376
_cell_formula_units_Z   24
loop_
 _symmetry_equiv_pos_site_id
 _symmetry_equiv_pos_as_xyz
  1  'x, y, z'
loop_
 _atom_type_symbol
 _atom_type_oxidation_number
  Ca2+  2.0
  Al0+  0.0
  Si0+  0.0
  O2-  -2.0
loop_
 _atom_site_type_symbol
 _atom_site_label
 _atom_site_symmetry_multiplicity
 _atom_site_fract_x
 _atom_site_fract_y
 _atom_site_fract_z
 _atom_site_occupancy
  Ca2+  Ca0  1  0.15846851  0.07378180  0.16866451  1
  Ca2+  Ca1  1  0.17436642  0.07133375  0.50619882  1
  Ca2+  Ca2  1  0.16670586  0.07275805  0.83800152  1
  Ca2+  Ca3  1  0.17606611  0.58447185  0.17256956  1
  Ca2+  Ca4  1  0.17757563  0.58200046  0.50616295  1
  Ca2+  Ca5  1  0.17510351  0.59278212  0.83684301  1
  Ca2+  Ca6  1  0.67289672  0.07818327  0.17426552  1
  Ca2+  Ca7  1  0.66482457  0.07748653  0.50810953  1
  Ca2+  Ca8  1  0.67190402  0.08152888  0.83207193  1
  Ca2+  Ca9  1  0.66609618  0.57988782  0.17889533  1
  Ca2+  Ca10  1  0.65643251  0.57820957  0.49761293  1
  Ca2+  Ca11  1  0.66668262  0.58053915  0.83687538  1
  Ca2+  Ca12  1  0.08974164  0.32687943  0.16284669  1
  Ca2+  Ca13  1  0.08511954  0.33253644  0.49376137  1
  Ca2+  Ca14  1  0.08433422  0.32403723  0.83066457  1
  Ca2+  Ca15  1  0.07611859  0.83737696  0.15853507  1
  Ca2+  Ca16  1  0.08420727  0.83422339  0.49677387  1
  Ca2+  Ca17  1  0.09067903  0.82875031  0.83086386  1
  Ca2+  Ca18  1  0.57981357  0.33398168  0.17086143  1
  Ca2+  Ca19  1  0.57415982  0.32263544  0.49308062  1
  Ca2+  Ca20  1  0.57590938  0.32483059  0.82218395  1
  Ca2+  Ca21  1  0.58566813  0.82914439  0.16908121  1
  Ca2+  Ca22  1  0.57911496  0.83590525  0.49344847  1
  Ca2+  Ca23  1  0.57561181  0.83433460  0.82293970  1
  Ca2+  Ca24  1  0.32956798  0.42535350  0.17758593  1
  Ca2+  Ca25  1  0.34391280  0.42482615  0.50001541  1
  Ca2+  Ca26  1  0.33935469  0.42760129  0.83528720  1
  Ca2+  Ca27  1  0.31738486  0.91542587  0.17195942  1
  Ca2+  Ca28  1  0.32674617  0.91621834  0.51057813  1
  Ca2+  Ca29  1  0.32629578  0.91641965  0.83067236  1
  Ca2+  Ca30  1  0.82694706  0.42032853  0.17481226  1
  Ca2+  Ca31  1  0.82409704  0.41462737  0.50245695  1
  Ca2+  Ca32  1  0.83145020  0.41791436  0.83553337  1
  Ca2+  Ca33  1  0.83716727  0.91867099  0.17256152  1
  Ca2+  Ca34  1  0.82175325  0.91657733  0.50340226  1
  Ca2+  Ca35  1  0.83178083  0.92343427  0.83556196  1
  Ca2+  Ca36  1  0.41993330  0.17071322  0.16738818  1
  Ca2+  Ca37  1  0.42351098  0.16776947  0.49442695  1
  Ca2+  Ca38  1  0.42013593  0.17109484  0.81649290  1
  Ca2+  Ca39  1  0.41731034  0.65869330  0.16850119  1
  Ca2+  Ca40  1  0.41534056  0.66932563  0.49842537  1
  Ca2+  Ca41  1  0.40959055  0.67131697  0.82679056  1
  Ca2+  Ca42  1  0.92086728  0.16624595  0.15887584  1
  Ca2+  Ca43  1  0.91590160  0.16129525  0.49971070  1
  Ca2+  Ca44  1  0.91807664  0.15539879  0.83385298  1
  Ca2+  Ca45  1  0.92365352  0.68180938  0.15891024  1
  Ca2+  Ca46  1  0.92538143  0.67451772  0.49287145  1
  Ca2+  Ca47  1  0.93081501  0.67445477  0.82851981  1
  Al0+  Al48  1  -0.00219711  0.00219251  -0.00058697  1
  Al0+  Al49  1  0.00022041  0.00054654  0.33514870  1
  Al0+  Al50  1  -0.00185439  -0.00159865  0.67150423  1
  Al0+  Al51  1  -0.00066403  0.50006794  -0.00247383  1
  Al0+  Al52  1  0.00102165  0.50076975  0.33440633  1
  Al0+  Al53  1  0.00050694  0.49956761  0.66275360  1
  Al0+  Al54  1  0.50097455  -0.00011305  0.00054052  1
  Al0+  Al55  1  0.50090507  -0.00023486  0.32786364  1
  Al0+  Al56  1  0.49907942  -0.00145856  0.66632139  1
  Al0+  Al57  1  0.49956761  0.49950026  0.00301840  1
  Al0+  Al58  1  0.50126126  0.49970890  0.33367207  1
  Al0+  Al59  1  0.49987968  0.49953161  0.66967313  1
  Al0+  Al60  1  0.25103433  0.25126519  -0.00623454  1
  Al0+  Al61  1  0.24969409  0.24987122  0.33081427  1
  Al0+  Al62  1  0.24790271  0.25223219  0.66349306  1
  Al0+  Al63  1  0.25176369  0.75078701  0.00772292  1
  Al0+  Al64  1  0.25002741  0.74938837  0.34043530  1
  Al0+  Al65  1  0.25104236  0.74719905  0.66473510  1
  Al0+  Al66  1  0.74844740  0.24902949  0.00401862  1
  Al0+  Al67  1  0.75133214  0.25089685  0.33303162  1
  Al0+  Al68  1  0.75000220  0.25021462  0.66791546  1
  Al0+  Al69  1  0.74926601  0.74901075  -0.00532956  1
  Al0+  Al70  1  0.75130176  0.75265715  0.32864055  1
  Al0+  Al71  1  0.75172635  0.74811545  0.67106146  1
  Al0+  Al72  1  0.17783987  0.93011496  0.34741702  1
  Al0+  Al73  1  0.17764760  0.42676487  0.34797949  1
  Al0+  Al74  1  0.18096357  0.93201242  0.01398663  1
  Al0+  Al75  1  0.57359055  0.17659182  0.31560431  1
  Al0+  Al76  1  0.67692846  0.92590804  0.68144643  1
  Al0+  Al77  1  0.32009355  0.57049412  0.01548563  1
  Al0+  Al78  1  0.42884882  0.32036575  0.31613722  1
  Al0+  Al79  1  0.93131663  0.82135795  0.32058369  1
  Al0+  Al80  1  0.92742872  0.82319440  0.98198023  1
  Al0+  Al81  1  0.42670130  0.32327245  0.65110530  1
  Al0+  Al82  1  0.81842268  0.06922906  0.01586862  1
  Al0+  Al83  1  0.67917032  0.92894633  0.34506645  1
  Al0+  Al84  1  0.07330143  0.67995481  0.98632464  1
  Al0+  Al85  1  0.81938234  0.07204079  0.68201233  1
  Al0+  Al86  1  0.68079091  0.42897143  0.34820875  1
  Al0+  Al87  1  0.17961976  0.92794678  0.68217579  1
  Al0+  Al88  1  0.07146121  0.67936836  0.65080247  1
  Al0+  Al89  1  0.32095599  0.07349354  0.67915137  1
  Al0+  Al90  1  0.32024475  0.56740676  0.68192727  1
  Al0+  Al91  1  0.07043950  0.18044031  0.98576854  1
  Al0+  Al92  1  0.43043018  0.81924963  0.65426957  1
  Al0+  Al93  1  0.57121515  0.17842149  0.65215516  1
  Al0+  Al94  1  0.56940153  0.68118276  0.32135821  1
  Al0+  Al95  1  0.32169995  0.56983174  0.35135764  1
  Si0+  Si96  1  0.32453379  0.07550826  0.01607938  1
  Si0+  Si97  1  0.06949409  0.17683980  0.65092013  1
  Si0+  Si98  1  0.43010434  0.82103661  0.98706254  1
  Si0+  Si99  1  0.17703740  0.42585792  0.01437178  1
  Si0+  Si100  1  0.43092064  0.32175479  0.98412738  1
  Si0+  Si101  1  0.67985815  0.43042272  0.01551229  1
  Si0+  Si102  1  0.67585293  0.92548695  0.01787030  1
  Si0+  Si103  1  0.42496086  0.82282470  0.31528607  1
  Si0+  Si104  1  0.82206583  0.07233841  0.34942003  1
  Si0+  Si105  1  0.92910489  0.32142421  0.65124798  1
  Si0+  Si106  1  0.17325187  0.42783778  0.68513030  1
  Si0+  Si107  1  0.57006203  0.67661911  0.98517335  1
  Si0+  Si108  1  0.32249323  0.07140901  0.34667022  1
  Si0+  Si109  1  0.68053788  0.43089255  0.68252755  1
  Si0+  Si110  1  0.92843380  0.32345745  0.31884863  1
  Si0+  Si111  1  0.06943789  0.18000910  0.31965539  1
  Si0+  Si112  1  0.82475235  0.57030755  0.68211922  1
  Si0+  Si113  1  0.57127652  0.17894011  0.98442196  1
  Si0+  Si114  1  0.57536498  0.67709585  0.65212329  1
  Si0+  Si115  1  0.07363654  0.67742753  0.31671183  1
  Si0+  Si116  1  0.82170114  0.57193625  0.01454799  1
  Si0+  Si117  1  0.92464138  0.32218508  0.98397723  1
  Si0+  Si118  1  0.92715841  0.82232321  0.64869439  1
  Si0+  Si119  1  0.82214754  0.57383540  0.34915249  1
  O2-  O120  1  0.25418949  0.00893277  0.06091597  1
  O2-  O121  1  0.25829186  -0.00073517  0.39150825  1
  O2-  O122  1  0.24891483  0.00306472  0.73181149  1
  O2-  O123  1  0.24182805  0.49771680  0.05854059  1
  O2-  O124  1  0.24906792  0.49738133  0.39991515  1
  O2-  O125  1  0.24549820  0.49265593  0.72926045  1
  O2-  O126  1  0.74726752  -0.00871128  0.06194525  1
  O2-  O127  1  0.74895430  0.00803410  0.39159850  1
  O2-  O128  1  0.74776605  -0.00073505  0.73133937  1
  O2-  O129  1  0.75101586  0.50119524  0.05774503  1
  O2-  O130  1  0.75518711  0.50426598  0.39537245  1
  O2-  O131  1  0.75027698  0.50285164  0.72551649  1
  O2-  O132  1  0.00172047  0.25483755  0.27749869  1
  O2-  O133  1  -0.00118044  0.24919348  0.60914913  1
  O2-  O134  1  -0.00450796  0.25614979  0.93951121  1
  O2-  O135  1  0.00696873  0.74800439  0.27299957  1
  O2-  O136  1  -0.00222148  0.75546791  0.60482827  1
  O2-  O137  1  0.00252174  0.75260260  0.93439317  1
  O2-  O138  1  0.50086275  0.24822953  0.26504853  1
  O2-  O139  1  0.49416670  0.24583699  0.60347959  1
  O2-  O140  1  0.49641072  0.24570027  0.94211418  1
  O2-  O141  1  0.49404229  0.75366734  0.27154838  1
  O2-  O142  1  0.51100462  0.74963049  0.60930042  1
  O2-  O143  1  0.50228411  0.75057887  0.94451383  1
  O2-  O144  1  0.06905070  0.18266351  0.09932523  1
  O2-  O145  1  0.06659597  0.17879102  0.42473755  1
  O2-  O146  1  0.06872335  0.17864192  0.75605799  1
  O2-  O147  1  0.07039378  0.67959416  0.09984795  1
  O2-  O148  1  0.07034360  0.67621468  0.42225261  1
  O2-  O149  1  0.06979289  0.67876541  0.76398996  1
  O2-  O150  1  0.57215098  0.18084538  0.08916377  1
  O2-  O151  1  0.57391328  0.17695225  0.42869930  1
  O2-  O152  1  0.57347437  0.18408769  0.76667381  1
  O2-  O153  1  0.57112361  0.67390750  0.09000990  1
  O2-  O154  1  0.56991873  0.68283682  0.43421265  1
  O2-  O155  1  0.57429148  0.67460107  0.75837504  1
  O2-  O156  1  0.17711827  0.42770054  0.23385502  1
  O2-  O157  1  0.16723828  0.43090441  0.58016362  1
  O2-  O158  1  0.17913766  0.42239349  0.90903582  1
  O2-  O159  1  0.17534837  0.93347498  0.23394229  1
  O2-  O160  1  0.17958577  0.93056664  0.56847785  1
  O2-  O161  1  0.18494298  0.93050775  0.90147230  1
  O2-  O162  1  0.68386650  0.43094352  0.23441603  1
  O2-  O163  1  0.68232629  0.43107029  0.57781244  1
  O2-  O164  1  0.68007401  0.43160586  0.91002423  1
  O2-  O165  1  0.68331966  0.92791213  0.23175470  1
  O2-  O166  1  0.68018607  0.92366886  0.56782860  1
  O2-  O167  1  0.67198860  0.92724477  0.91271159  1
  O2-  O168  1  0.43291257  0.32359292  0.08883310  1
  O2-  O169  1  0.43094278  0.31846646  0.42907760  1
  O2-  O170  1  0.43332713  0.32551495  0.76574133  1
  O2-  O171  1  0.43166236  0.82164790  0.09204408  1
  O2-  O172  1  0.42541649  0.82404145  0.42060863  1
  O2-  O173  1  0.42940801  0.81541572  0.76819184  1
  O2-  O174  1  0.92273584  0.32215159  0.08956733  1
  O2-  O175  1  0.92627886  0.32224725  0.42397093  1
  O2-  O176  1  0.92949365  0.32488739  0.75638479  1
  O2-  O177  1  0.92743468  0.82083593  0.09599996  1
  O2-  O178  1  0.93105898  0.81989701  0.43356705  1
  O2-  O179  1  0.92544764  0.81986569  0.75407346  1
  O2-  O180  1  0.31912736  0.07147699  0.24051343  1
  O2-  O181  1  0.31824141  0.07199434  0.56540201  1
  O2-  O182  1  0.32585548  0.07498650  0.91089868  1
  O2-  O183  1  0.31969294  0.56912373  0.23723433  1
  O2-  O184  1  0.32192507  0.56727358  0.56974547  1
  O2-  O185  1  0.32353817  0.56879852  0.90250780  1
  O2-  O186  1  0.82471480  0.07137105  0.24371421  1
  O2-  O187  1  0.81999251  0.07260664  0.56835649  1
  O2-  O188  1  0.81360260  0.07256108  0.90346363  1
  O2-  O189  1  0.82076583  0.57062195  0.24307348  1
  O2-  O190  1  0.82609828  0.56763717  0.57735814  1
  O2-  O191  1  0.81958140  0.56923319  0.90921605  1
  O2-  O192  1  0.03632989  0.09058481  0.27072956  1
  O2-  O193  1  0.03920763  0.08547537  0.60405416  1
  O2-  O194  1  0.03740604  0.08582881  0.93099196  1
  O2-  O195  1  0.04700982  0.58394492  0.27017440  1
  O2-  O196  1  0.03747971  0.58337832  0.59714977  1
  O2-  O197  1  0.04516597  0.58042365  0.93371107  1
  O2-  O198  1  0.54613370  0.07871688  0.25959100  1
  O2-  O199  1  0.54827524  0.07844503  0.60192393  1
  O2-  O200  1  0.54861352  0.08486679  0.93911483  1
  O2-  O201  1  0.54190028  0.58400553  0.26612302  1
  O2-  O202  1  0.54509076  0.58470829  0.60684191  1
  O2-  O203  1  0.54043545  0.58524295  0.93686575  1
  O2-  O204  1  0.16110350  0.20335294  0.27003657  1
  O2-  O205  1  0.16032644  0.20428513  0.60203350  1
  O2-  O206  1  0.16691709  0.20997070  0.92973712  1
  O2-  O207  1  0.16870127  0.70145745  0.27404616  1
  O2-  O208  1  0.16746150  0.70842263  0.59661036  1
  O2-  O209  1  0.17317769  0.70938978  0.93647400  1
  O2-  O210  1  0.67246069  0.20832546  0.26397480  1
  O2-  O211  1  0.66852504  0.21266603  0.60016636  1
  O2-  O212  1  0.66146312  0.21265089  0.93747846  1
  O2-  O213  1  0.66540135  0.71166201  0.26438486  1
  O2-  O214  1  0.67157569  0.69438592  0.60826540  1
  O2-  O215  1  0.66265136  0.69903089  0.93640278  1
  O2-  O216  1  0.08042266  0.44500473  0.05761629  1
  O2-  O217  1  0.07740293  0.45168806  0.40009031  1
  O2-  O218  1  0.08045273  0.45507253  0.73279513  1
  O2-  O219  1  0.08353809  0.96390971  0.06552689  1
  O2-  O220  1  0.08425786  0.96684697  0.40308278  1
  O2-  O221  1  0.08047217  0.95367158  0.73415905  1
  O2-  O222  1  0.58921686  0.45993405  0.06349838  1
  O2-  O223  1  0.58558807  0.46068506  0.40200744  1
  O2-  O224  1  0.59029620  0.45912649  0.73271018  1
  O2-  O225  1  0.58335406  0.95379111  0.06555858  1
  O2-  O226  1  0.57963433  0.95409445  0.39540528  1
  O2-  O227  1  0.57856215  0.95247473  0.73469369  1
  O2-  O228  1  0.20661770  0.33334677  0.06135319  1
  O2-  O229  1  0.20159702  0.32622948  0.39864439  1
  O2-  O230  1  0.19445418  0.33201039  0.72804775  1
  O2-  O231  1  0.21323885  0.83752932  0.07108734  1
  O2-  O232  1  0.20307018  0.83255978  0.40047091  1
  O2-  O233  1  0.21270163  0.83044135  0.73317733  1
  O2-  O234  1  0.70711065  0.33914277  0.06347930  1
  O2-  O235  1  0.71481652  0.33364610  0.40239735  1
  O2-  O236  1  0.71162986  0.34093845  0.73160208  1
  O2-  O237  1  0.69820821  0.82887688  0.05953095  1
  O2-  O238  1  0.71373589  0.83390740  0.39916120  1
  O2-  O239  1  0.70489398  0.82707838  0.73606271  1
  O2-  O240  1  0.46126967  0.41805812  0.26369724  1
  O2-  O241  1  0.46456772  0.41920579  0.59947393  1
  O2-  O242  1  0.46567926  0.41170644  0.93641001  1
  O2-  O243  1  0.44955965  0.91541878  0.26671403  1
  O2-  O244  1  0.45471917  0.91650159  0.59945115  1
  O2-  O245  1  0.45645578  0.91337537  0.93906881  1
  O2-  O246  1  0.95191444  0.41654577  0.27098020  1
  O2-  O247  1  0.95617035  0.41186459  0.60102891  1
  O2-  O248  1  0.94644386  0.41661757  0.93739468  1
  O2-  O249  1  0.96238616  0.91847046  0.26674604  1
  O2-  O250  1  0.95065256  0.91702617  0.60439429  1
  O2-  O251  1  0.95170702  0.92295929  0.93235074  1
  O2-  O252  1  0.32995727  0.29215665  0.26209035  1
  O2-  O253  1  0.32479636  0.30653150  0.60160724  1
  O2-  O254  1  0.33768649  0.30148129  0.93671772  1
  O2-  O255  1  0.33111161  0.79468198  0.27039483  1
  O2-  O256  1  0.33707685  0.78333017  0.59822167  1
  O2-  O257  1  0.33914728  0.79062332  0.94088598  1
  O2-  O258  1  0.83851526  0.29450946  0.26838174  1
  O2-  O259  1  0.83704982  0.29421099  0.60406940  1
  O2-  O260  1  0.83137161  0.29443128  0.93749985  1
  O2-  O261  1  0.83675427  0.79000984  0.26304676  1
  O2-  O262  1  0.83407474  0.79185933  0.60360641  1
  O2-  O263  1  0.82942159  0.79161539  0.92889064  1
  O2-  O264  1  0.41786201  0.04839260  0.06271154  1
  O2-  O265  1  0.41814515  0.05047369  0.38904961  1
  O2-  O266  1  0.41887954  0.04568140  0.73273067  1
  O2-  O267  1  0.41629066  0.53597109  0.06909726  1
  O2-  O268  1  0.42053573  0.54144602  0.40206386  1
  O2-  O269  1  0.41751385  0.53846202  0.73784440  1
  O2-  O270  1  0.91646638  0.04404882  0.06936344  1
  O2-  O271  1  0.91331933  0.04270727  0.39756329  1
  O2-  O272  1  0.91704037  0.04302809  0.73609261  1
  O2-  O273  1  0.91325022  0.54430716  0.06248763  1
  O2-  O274  1  0.91606984  0.54931100  0.39451738  1
  O2-  O275  1  0.91365072  0.53627280  0.73144905  1
  O2-  O276  1  0.30042638  0.17074531  0.05961345  1
  O2-  O277  1  0.29321981  0.16339255  0.39248490  1
  O2-  O278  1  0.29443545  0.17386108  0.73036379  1
  O2-  O279  1  0.29400638  0.66656601  0.07208849  1
  O2-  O280  1  0.29510422  0.66840054  0.40413848  1
  O2-  O281  1  0.28741832  0.66347201  0.73522203  1
  O2-  O282  1  0.78692492  0.16627996  0.07066453  1
  O2-  O283  1  0.80285700  0.16794137  0.39333717  1
  O2-  O284  1  0.79353191  0.17143821  0.73602056  1
  O2-  O285  1  0.79281992  0.66386160  0.06069323  1
  O2-  O286  1  0.79533227  0.66677987  0.39392706  1
  O2-  O287  1  0.80029423  0.66167060  0.73160001  1
