# generated using pymatgen
data_Ca2Al2SiO7
_symmetry_space_group_name_H-M   'P 1'
_cell_length_a   15.45978478
_cell_length_b   15.46022323
_cell_length_c   15.28540066
_cell_angle_alpha   90.00033381
_cell_angle_beta   90.00765195
_cell_angle_gamma   90.00910311
_symmetry_Int_Tables_number   1
_chemical_formula_structural   Ca2Al2SiO7
_chemical_formula_sum   'Ca48 Al48 Si24 O168'
_cell_volume   3653.38988292
_cell_formula_units_Z   24
loop_
 _symmetry_equiv_pos_site_id
 _symmetry_equiv_pos_as_xyz
  1  'x, y, z'
loop_
 _atom_type_symbol
 _atom_type_oxidation_number
  Ca2+  2.0
  Al0+  0.0
  Si0+  0.0
  O2-  -2.0
loop_
 _atom_site_type_symbol
 _atom_site_label
 _atom_site_symmetry_multiplicity
 _atom_site_fract_x
 _atom_site_fract_y
 _atom_site_fract_z
 _atom_site_occupancy
  Ca2+  Ca0  1  0.15913485  0.07177306  0.16819276  1
  Ca2+  Ca1  1  0.17045173  0.08260730  0.50560712  1
  Ca2+  Ca2  1  0.16945887  0.08952994  0.83791576  1
  Ca2+  Ca3  1  0.16301620  0.57024456  0.17294667  1
  Ca2+  Ca4  1  0.16273805  0.57693602  0.49890573  1
  Ca2+  Ca5  1  0.16963752  0.57269774  0.84253291  1
  Ca2+  Ca6  1  0.68097613  0.08556683  0.16898155  1
  Ca2+  Ca7  1  0.67481524  0.08269795  0.51041400  1
  Ca2+  Ca8  1  0.67367672  0.08334744  0.83909136  1
  Ca2+  Ca9  1  0.66418382  0.57905783  0.16719996  1
  Ca2+  Ca10  1  0.65695803  0.57669726  0.49880133  1
  Ca2+  Ca11  1  0.67305059  0.57489242  0.84603221  1
  Ca2+  Ca12  1  0.07900763  0.32902400  0.15509434  1
  Ca2+  Ca13  1  0.07868118  0.32692236  0.49856690  1
  Ca2+  Ca14  1  0.07337758  0.32523055  0.83074424  1
  Ca2+  Ca15  1  0.08972394  0.83011402  0.16246228  1
  Ca2+  Ca16  1  0.08521320  0.82921242  0.48986192  1
  Ca2+  Ca17  1  0.08350290  0.83548071  0.83356223  1
  Ca2+  Ca18  1  0.58003702  0.34241589  0.16409177  1
  Ca2+  Ca19  1  0.57525659  0.32901347  0.49439382  1
  Ca2+  Ca20  1  0.58227279  0.32695281  0.82505116  1
  Ca2+  Ca21  1  0.58331426  0.82494040  0.15387643  1
  Ca2+  Ca22  1  0.58805947  0.82878403  0.49404637  1
  Ca2+  Ca23  1  0.59284154  0.83330386  0.83301531  1
  Ca2+  Ca24  1  0.32120324  0.41098599  0.17383155  1
  Ca2+  Ca25  1  0.33201915  0.40768722  0.50034389  1
  Ca2+  Ca26  1  0.32868264  0.41190218  0.83814347  1
  Ca2+  Ca27  1  0.32633248  0.91153219  0.16568226  1
  Ca2+  Ca28  1  0.32690928  0.92142501  0.50525872  1
  Ca2+  Ca29  1  0.33052387  0.92356438  0.84022402  1
  Ca2+  Ca30  1  0.82332324  0.41615690  0.16555031  1
  Ca2+  Ca31  1  0.82891799  0.41507804  0.50214476  1
  Ca2+  Ca32  1  0.83422022  0.41656256  0.84449876  1
  Ca2+  Ca33  1  0.83451334  0.92938406  0.16716854  1
  Ca2+  Ca34  1  0.82949425  0.92976508  0.50638444  1
  Ca2+  Ca35  1  0.82368384  0.92942660  0.83805829  1
  Ca2+  Ca36  1  0.41699271  0.17270082  0.16477938  1
  Ca2+  Ca37  1  0.41780235  0.17120485  0.50199135  1
  Ca2+  Ca38  1  0.42247017  0.16960563  0.82196254  1
  Ca2+  Ca39  1  0.42808408  0.67170924  0.15934373  1
  Ca2+  Ca40  1  0.42265943  0.67070156  0.49079552  1
  Ca2+  Ca41  1  0.42160259  0.67480510  0.83701858  1
  Ca2+  Ca42  1  0.91857034  0.16913784  0.15671839  1
  Ca2+  Ca43  1  0.91402148  0.16502812  0.50100758  1
  Ca2+  Ca44  1  0.92040157  0.16902840  0.82931581  1
  Ca2+  Ca45  1  0.92102260  0.66258426  0.16179476  1
  Ca2+  Ca46  1  0.92319015  0.67206363  0.49262198  1
  Ca2+  Ca47  1  0.91234973  0.66645304  0.83270857  1
  Al0+  Al48  1  0.00283640  -0.00171086  0.00229863  1
  Al0+  Al49  1  0.00041069  -0.00004402  0.34265838  1
  Al0+  Al50  1  -0.00167135  -0.00221746  0.66588446  1
  Al0+  Al51  1  0.00076418  0.49910897  0.00349990  1
  Al0+  Al52  1  -0.00052472  0.49968546  0.33481311  1
  Al0+  Al53  1  0.00019731  0.49978644  0.66288587  1
  Al0+  Al54  1  0.49846068  0.00094960  0.00164284  1
  Al0+  Al55  1  0.50045559  0.00164256  0.33142775  1
  Al0+  Al56  1  0.49694223  -0.00232440  0.66850054  1
  Al0+  Al57  1  0.49951338  0.50306891  -0.00294599  1
  Al0+  Al58  1  0.49860901  0.50048657  0.32912575  1
  Al0+  Al59  1  0.49808081  0.50224510  0.66538854  1
  Al0+  Al60  1  0.25028456  0.24926828  0.00115075  1
  Al0+  Al61  1  0.24914245  0.24919997  0.33340272  1
  Al0+  Al62  1  0.24740397  0.24934415  0.66425215  1
  Al0+  Al63  1  0.25251186  0.75051907  -0.00212160  1
  Al0+  Al64  1  0.24964269  0.74827340  0.33279201  1
  Al0+  Al65  1  0.25199700  0.74715515  0.66673441  1
  Al0+  Al66  1  0.74919727  0.25218092  0.00468893  1
  Al0+  Al67  1  0.75005542  0.25166548  0.34192299  1
  Al0+  Al68  1  0.74990422  0.25088088  0.66278363  1
  Al0+  Al69  1  0.75244414  0.74903590  0.00225998  1
  Al0+  Al70  1  0.75213745  0.75126269  0.32752127  1
  Al0+  Al71  1  0.75120062  0.74852677  0.66673032  1
  Al0+  Al72  1  0.67739452  0.92949525  0.01571636  1
  Al0+  Al73  1  0.07158996  0.17626383  0.98631570  1
  Al0+  Al74  1  0.57172022  0.68048836  0.31857240  1
  Al0+  Al75  1  0.18132001  0.42817685  0.01263764  1
  Al0+  Al76  1  0.82182642  0.07182007  0.01437919  1
  Al0+  Al77  1  0.07062460  0.67855252  0.31852225  1
  Al0+  Al78  1  0.67813348  0.92672469  0.68005737  1
  Al0+  Al79  1  0.57102170  0.17618740  0.65253033  1
  Al0+  Al80  1  0.92814504  0.32317683  0.64947887  1
  Al0+  Al81  1  0.82084394  0.07361679  0.68412264  1
  Al0+  Al82  1  0.57395496  0.67977539  0.98170641  1
  Al0+  Al83  1  0.42898694  0.31867741  0.31805189  1
  Al0+  Al84  1  0.06939665  0.17660145  0.64993249  1
  Al0+  Al85  1  0.92809907  0.32090497  0.98758212  1
  Al0+  Al86  1  0.42924622  0.82290668  0.98320718  1
  Al0+  Al87  1  0.67738057  0.43258047  0.34924562  1
  Al0+  Al88  1  0.67632493  0.42869539  0.01347900  1
  Al0+  Al89  1  0.42857188  0.32280330  0.65220202  1
  Al0+  Al90  1  0.18067598  0.92876846  0.01243582  1
  Al0+  Al91  1  0.82040888  0.07136293  0.34943551  1
  Al0+  Al92  1  0.31807645  0.07123899  0.67997461  1
  Al0+  Al93  1  0.17697096  0.42704416  0.34950270  1
  Al0+  Al94  1  0.82304812  0.57151696  0.01534955  1
  Al0+  Al95  1  0.18164534  0.92797827  0.34748509  1
  Si0+  Si96  1  0.32035264  0.56957347  0.34985938  1
  Si0+  Si97  1  0.57058478  0.18035594  0.98787940  1
  Si0+  Si98  1  0.17831991  0.92447363  0.68277933  1
  Si0+  Si99  1  0.92783803  0.32073561  0.31806061  1
  Si0+  Si100  1  0.06987347  0.17832139  0.31878606  1
  Si0+  Si101  1  0.42632735  0.82002557  0.65015733  1
  Si0+  Si102  1  0.32292551  0.07361029  0.01804809  1
  Si0+  Si103  1  0.93080605  0.82408549  0.31552262  1
  Si0+  Si104  1  0.67718057  0.43127352  0.67934214  1
  Si0+  Si105  1  0.42785458  0.32172121  0.98629699  1
  Si0+  Si106  1  0.67750369  0.92733406  0.34769977  1
  Si0+  Si107  1  0.17846950  0.43055835  0.68147412  1
  Si0+  Si108  1  0.07186103  0.67801482  0.98490499  1
  Si0+  Si109  1  0.57453333  0.17851111  0.31584218  1
  Si0+  Si110  1  0.93038783  0.82118534  0.98478061  1
  Si0+  Si111  1  0.57129306  0.68094335  0.65139304  1
  Si0+  Si112  1  0.07296034  0.67898140  0.65230467  1
  Si0+  Si113  1  0.32219445  0.57244007  0.68324521  1
  Si0+  Si114  1  0.42766264  0.82408048  0.31726629  1
  Si0+  Si115  1  0.82206883  0.57390033  0.35114475  1
  Si0+  Si116  1  0.92884053  0.81849345  0.65192175  1
  Si0+  Si117  1  0.32128751  0.57258945  0.01712975  1
  Si0+  Si118  1  0.82217230  0.56968112  0.67939641  1
  Si0+  Si119  1  0.32372681  0.07283238  0.35016055  1
  O2-  O120  1  0.25354693  0.00439016  0.06034119  1
  O2-  O121  1  0.25788171  0.00066400  0.39343991  1
  O2-  O122  1  0.24183967  -0.00238427  0.72652393  1
  O2-  O123  1  0.25571119  0.50174367  0.06192043  1
  O2-  O124  1  0.25218772  0.50163069  0.39664763  1
  O2-  O125  1  0.25272815  0.49891523  0.72349694  1
  O2-  O126  1  0.74896563  0.00127171  0.06611103  1
  O2-  O127  1  0.74278792  -0.00213475  0.39340097  1
  O2-  O128  1  0.74355071  0.00464426  0.73019483  1
  O2-  O129  1  0.74794267  0.50177056  0.06306255  1
  O2-  O130  1  0.75063314  0.50905853  0.39699598  1
  O2-  O131  1  0.75354269  0.49661505  0.72092654  1
  O2-  O132  1  -0.00083287  0.24953267  0.27677355  1
  O2-  O133  1  -0.00422421  0.24687264  0.59896255  1
  O2-  O134  1  -0.00255011  0.24656688  0.93743579  1
  O2-  O135  1  -0.00256015  0.75369477  0.27054309  1
  O2-  O136  1  0.00477656  0.75223700  0.60989270  1
  O2-  O137  1  0.00015001  0.74787570  0.94202639  1
  O2-  O138  1  0.50504922  0.24593221  0.27041055  1
  O2-  O139  1  0.50059742  0.25057515  0.60262021  1
  O2-  O140  1  0.50086186  0.25293484  0.94529231  1
  O2-  O141  1  0.50122310  0.76017217  0.27437628  1
  O2-  O142  1  0.50260185  0.75411132  0.60862720  1
  O2-  O143  1  0.50611912  0.75634543  0.93171324  1
  O2-  O144  1  0.07139727  0.17722315  0.10059211  1
  O2-  O145  1  0.07010320  0.17902707  0.42380678  1
  O2-  O146  1  0.07131583  0.18016742  0.76309918  1
  O2-  O147  1  0.07221790  0.67877815  0.08985044  1
  O2-  O148  1  0.06859674  0.68032324  0.43248465  1
  O2-  O149  1  0.07296803  0.67750631  0.75743693  1
  O2-  O150  1  0.56876048  0.18046754  0.09310007  1
  O2-  O151  1  0.57298225  0.17800366  0.42121719  1
  O2-  O152  1  0.56972941  0.17950569  0.76674988  1
  O2-  O153  1  0.56958517  0.67853205  0.09525103  1
  O2-  O154  1  0.56846085  0.68165696  0.43281959  1
  O2-  O155  1  0.57140117  0.67928238  0.75567635  1
  O2-  O156  1  0.17764732  0.42721198  0.23653312  1
  O2-  O157  1  0.17753403  0.43426279  0.57635753  1
  O2-  O158  1  0.18325125  0.43047390  0.89900806  1
  O2-  O159  1  0.18154030  0.92844118  0.23458037  1
  O2-  O160  1  0.18283299  0.91964244  0.57710761  1
  O2-  O161  1  0.18191672  0.92659163  0.89944009  1
  O2-  O162  1  0.67839672  0.43293907  0.23680400  1
  O2-  O163  1  0.67433734  0.43684252  0.57422199  1
  O2-  O164  1  0.67573391  0.42827659  0.89932949  1
  O2-  O165  1  0.67889658  0.92790427  0.24267051  1
  O2-  O166  1  0.68401450  0.92122094  0.56618893  1
  O2-  O167  1  0.68016085  0.93282835  0.90216979  1
  O2-  O168  1  0.42592789  0.31977737  0.09142717  1
  O2-  O169  1  0.42956104  0.31655122  0.43091717  1
  O2-  O170  1  0.43103528  0.32446192  0.76623725  1
  O2-  O171  1  0.42630221  0.81708163  0.09694362  1
  O2-  O172  1  0.42675517  0.82223320  0.42344271  1
  O2-  O173  1  0.41959327  0.81540641  0.75416609  1
  O2-  O174  1  0.93014794  0.32078578  0.10164912  1
  O2-  O175  1  0.92907266  0.32081058  0.42322089  1
  O2-  O176  1  0.93250334  0.33105034  0.76220068  1
  O2-  O177  1  0.93345798  0.82227862  0.08977591  1
  O2-  O178  1  0.93172205  0.82157142  0.42170111  1
  O2-  O179  1  0.92811255  0.81518721  0.75699356  1
  O2-  O180  1  0.32332806  0.07408060  0.24473293  1
  O2-  O181  1  0.31733139  0.06769777  0.56658366  1
  O2-  O182  1  0.32273919  0.07555749  0.91248019  1
  O2-  O183  1  0.31828426  0.56894134  0.24460137  1
  O2-  O184  1  0.32182121  0.57776022  0.57849667  1
  O2-  O185  1  0.31843457  0.57189509  0.91081838  1
  O2-  O186  1  0.82250243  0.07087887  0.23658566  1
  O2-  O187  1  0.82084310  0.06819934  0.57028623  1
  O2-  O188  1  0.82098669  0.07145808  0.90130079  1
  O2-  O189  1  0.82415635  0.57164076  0.24621830  1
  O2-  O190  1  0.82194628  0.57276563  0.57437406  1
  O2-  O191  1  0.82383643  0.56973183  0.90075529  1
  O2-  O192  1  0.04084332  0.08521050  0.27484168  1
  O2-  O193  1  0.04581963  0.07556617  0.59862750  1
  O2-  O194  1  0.04835550  0.07650969  0.93404303  1
  O2-  O195  1  0.03855611  0.58163974  0.26584492  1
  O2-  O196  1  0.04236697  0.58933816  0.60260571  1
  O2-  O197  1  0.04437098  0.58641339  0.93697250  1
  O2-  O198  1  0.55052091  0.08428928  0.26948839  1
  O2-  O199  1  0.54122771  0.07746475  0.60007580  1
  O2-  O200  1  0.54188386  0.08932884  0.94029948  1
  O2-  O201  1  0.53616206  0.58622812  0.26446694  1
  O2-  O202  1  0.53862664  0.59096430  0.60289347  1
  O2-  O203  1  0.53979476  0.58298386  0.92693694  1
  O2-  O204  1  0.16197678  0.20413398  0.27191300  1
  O2-  O205  1  0.16640224  0.20848650  0.59566125  1
  O2-  O206  1  0.16992982  0.20792537  0.93426696  1
  O2-  O207  1  0.16799465  0.70702940  0.26530229  1
  O2-  O208  1  0.16543591  0.70415785  0.60435803  1
  O2-  O209  1  0.16296005  0.70653686  0.93641996  1
  O2-  O210  1  0.66847409  0.20699115  0.27256239  1
  O2-  O211  1  0.66877706  0.20389684  0.59885684  1
  O2-  O212  1  0.66226473  0.20777931  0.94072131  1
  O2-  O213  1  0.67024452  0.70492134  0.26570198  1
  O2-  O214  1  0.66387054  0.70557454  0.60315518  1
  O2-  O215  1  0.67508314  0.70298568  0.93151055  1
  O2-  O216  1  0.08652559  0.46061820  0.06764264  1
  O2-  O217  1  0.08164433  0.46123840  0.40422463  1
  O2-  O218  1  0.08858027  0.46464453  0.72875862  1
  O2-  O219  1  0.08499989  0.95573674  0.06975754  1
  O2-  O220  1  0.08659012  0.95853329  0.40423257  1
  O2-  O221  1  0.08177952  0.94272422  0.72416827  1
  O2-  O222  1  0.57737759  0.45854436  0.06537981  1
  O2-  O223  1  0.58006634  0.46445370  0.40198344  1
  O2-  O224  1  0.58720409  0.46401574  0.72753846  1
  O2-  O225  1  0.57754302  0.95416289  0.06713756  1
  O2-  O226  1  0.58166949  0.94833466  0.39221990  1
  O2-  O227  1  0.57562363  0.94248488  0.72797097  1
  O2-  O228  1  0.21217978  0.33252779  0.06814544  1
  O2-  O229  1  0.20931697  0.33070402  0.40273140  1
  O2-  O230  1  0.20364362  0.33805832  0.72718682  1
  O2-  O231  1  0.21330442  0.83215056  0.06635368  1
  O2-  O232  1  0.21033097  0.83030831  0.40159653  1
  O2-  O233  1  0.20821310  0.83184162  0.72932057  1
  O2-  O234  1  0.70311468  0.33238768  0.07081707  1
  O2-  O235  1  0.70875030  0.33713776  0.40471953  1
  O2-  O236  1  0.69868438  0.33701100  0.72297299  1
  O2-  O237  1  0.70669412  0.83067821  0.06577493  1
  O2-  O238  1  0.70536081  0.83355572  0.39314372  1
  O2-  O239  1  0.71441331  0.83015993  0.73388201  1
  O2-  O240  1  0.45679539  0.41602006  0.26471891  1
  O2-  O241  1  0.45522079  0.42233570  0.59908580  1
  O2-  O242  1  0.44968839  0.41526326  0.93991279  1
  O2-  O243  1  0.44606148  0.91972634  0.27257322  1
  O2-  O244  1  0.44692508  0.91314247  0.60323072  1
  O2-  O245  1  0.44888400  0.92469723  0.93391818  1
  O2-  O246  1  0.95526863  0.41308979  0.27280390  1
  O2-  O247  1  0.96131564  0.42030274  0.59361279  1
  O2-  O248  1  0.96007814  0.41894969  0.93486995  1
  O2-  O249  1  0.96067035  0.91729514  0.27179693  1
  O2-  O250  1  0.95198016  0.91058532  0.60359073  1
  O2-  O251  1  0.96230457  0.91052701  0.93539188  1
  O2-  O252  1  0.33213030  0.28612481  0.26437638  1
  O2-  O253  1  0.32990348  0.29464029  0.60057841  1
  O2-  O254  1  0.33763317  0.29136645  0.93733819  1
  O2-  O255  1  0.33602052  0.79260286  0.27109232  1
  O2-  O256  1  0.33751577  0.78499540  0.59933047  1
  O2-  O257  1  0.33332954  0.78730560  0.92746601  1
  O2-  O258  1  0.83490919  0.29282007  0.27368797  1
  O2-  O259  1  0.82822048  0.30084070  0.59733529  1
  O2-  O260  1  0.82780973  0.29718741  0.93635418  1
  O2-  O261  1  0.83681397  0.80235573  0.26931228  1
  O2-  O262  1  0.84048733  0.78389483  0.60153773  1
  O2-  O263  1  0.83924462  0.79383426  0.93652308  1
  O2-  O264  1  0.41511619  0.04848610  0.06672159  1
  O2-  O265  1  0.41892692  0.05092793  0.39541460  1
  O2-  O266  1  0.41372933  0.03984987  0.73502995  1
  O2-  O267  1  0.41599737  0.55030828  0.06060010  1
  O2-  O268  1  0.41362349  0.54400048  0.39641709  1
  O2-  O269  1  0.41404194  0.54639809  0.73157539  1
  O2-  O270  1  0.91936948  0.03984917  0.06705765  1
  O2-  O271  1  0.91461038  0.03719475  0.40613695  1
  O2-  O272  1  0.91860790  0.03857481  0.73470408  1
  O2-  O273  1  0.92038257  0.54275460  0.06991637  1
  O2-  O274  1  0.91415987  0.54498295  0.39918569  1
  O2-  O275  1  0.91558704  0.54605697  0.72608119  1
  O2-  O276  1  0.29722585  0.16635077  0.06556284  1
  O2-  O277  1  0.29276540  0.16388929  0.39755840  1
  O2-  O278  1  0.28905123  0.16868706  0.73396705  1
  O2-  O279  1  0.29352345  0.66489395  0.06294786  1
  O2-  O280  1  0.29494169  0.66324001  0.39692890  1
  O2-  O281  1  0.29068411  0.66194403  0.73350602  1
  O2-  O282  1  0.79270531  0.16914654  0.06889023  1
  O2-  O283  1  0.79149085  0.16730171  0.40487376  1
  O2-  O284  1  0.79717955  0.17489219  0.73279288  1
  O2-  O285  1  0.80059410  0.67065124  0.06853157  1
  O2-  O286  1  0.80120069  0.67039616  0.39424411  1
  O2-  O287  1  0.79220616  0.65999987  0.72824081  1
