# generated using pymatgen
data_Ca2Al2SiO7
_symmetry_space_group_name_H-M   'P 1'
_cell_length_a   15.46131491
_cell_length_b   15.46012360
_cell_length_c   15.28450162
_cell_angle_alpha   89.99699075
_cell_angle_beta   90.01630700
_cell_angle_gamma   89.99876446
_symmetry_Int_Tables_number   1
_chemical_formula_structural   Ca2Al2SiO7
_chemical_formula_sum   'Ca48 Al48 Si24 O168'
_cell_volume   3653.51295432
_cell_formula_units_Z   24
loop_
 _symmetry_equiv_pos_site_id
 _symmetry_equiv_pos_as_xyz
  1  'x, y, z'
loop_
 _atom_type_symbol
 _atom_type_oxidation_number
  Ca2+  2.0
  Al0+  0.0
  Si0+  0.0
  O2-  -2.0
loop_
 _atom_site_type_symbol
 _atom_site_label
 _atom_site_symmetry_multiplicity
 _atom_site_fract_x
 _atom_site_fract_y
 _atom_site_fract_z
 _atom_site_occupancy
  Ca2+  Ca0  1  0.16181951  0.07091751  0.17569266  1
  Ca2+  Ca1  1  0.15617542  0.08123222  0.50176661  1
  Ca2+  Ca2  1  0.16542918  0.08019332  0.83895051  1
  Ca2+  Ca3  1  0.17118149  0.58844595  0.17569883  1
  Ca2+  Ca4  1  0.17525484  0.59110046  0.50445842  1
  Ca2+  Ca5  1  0.17023015  0.59278543  0.83396051  1
  Ca2+  Ca6  1  0.66503503  0.07812678  0.17606316  1
  Ca2+  Ca7  1  0.66440918  0.07682492  0.49956681  1
  Ca2+  Ca8  1  0.66389071  0.07326599  0.84050746  1
  Ca2+  Ca9  1  0.66656421  0.57482462  0.17462174  1
  Ca2+  Ca10  1  0.68032427  0.57914191  0.50140488  1
  Ca2+  Ca11  1  0.67502242  0.57863873  0.83948129  1
  Ca2+  Ca12  1  0.08194953  0.32686049  0.16689230  1
  Ca2+  Ca13  1  0.07834128  0.32365424  0.49696793  1
  Ca2+  Ca14  1  0.07673137  0.32616869  0.82093520  1
  Ca2+  Ca15  1  0.08742316  0.82571691  0.16292291  1
  Ca2+  Ca16  1  0.07752140  0.82537121  0.49420626  1
  Ca2+  Ca17  1  0.07746279  0.82746225  0.82704828  1
  Ca2+  Ca18  1  0.58999655  0.32786809  0.16426491  1
  Ca2+  Ca19  1  0.57468967  0.33611841  0.48937585  1
  Ca2+  Ca20  1  0.58379216  0.33046024  0.83120074  1
  Ca2+  Ca21  1  0.58773120  0.82996877  0.15939766  1
  Ca2+  Ca22  1  0.58567454  0.83615108  0.49587856  1
  Ca2+  Ca23  1  0.59202363  0.82974605  0.83075549  1
  Ca2+  Ca24  1  0.33448749  0.42304903  0.17529955  1
  Ca2+  Ca25  1  0.33925548  0.42384997  0.50488483  1
  Ca2+  Ca26  1  0.33630728  0.41937722  0.83001193  1
  Ca2+  Ca27  1  0.32119172  0.91415074  0.17159341  1
  Ca2+  Ca28  1  0.32430902  0.91781426  0.50092619  1
  Ca2+  Ca29  1  0.32469164  0.91895959  0.83952630  1
  Ca2+  Ca30  1  0.82128675  0.42222999  0.17485730  1
  Ca2+  Ca31  1  0.83667892  0.42396742  0.50322375  1
  Ca2+  Ca32  1  0.83676944  0.42065006  0.83598781  1
  Ca2+  Ca33  1  0.82115743  0.92180372  0.17531009  1
  Ca2+  Ca34  1  0.82609493  0.91798996  0.50281576  1
  Ca2+  Ca35  1  0.82747653  0.91318762  0.83278676  1
  Ca2+  Ca36  1  0.42953533  0.17087863  0.16695045  1
  Ca2+  Ca37  1  0.42150479  0.18067783  0.49092616  1
  Ca2+  Ca38  1  0.42368532  0.17219399  0.82760380  1
  Ca2+  Ca39  1  0.42240344  0.66583200  0.16402487  1
  Ca2+  Ca40  1  0.41411868  0.66389072  0.49472997  1
  Ca2+  Ca41  1  0.42456214  0.66421576  0.83127477  1
  Ca2+  Ca42  1  0.91452962  0.16065137  0.17081710  1
  Ca2+  Ca43  1  0.92089502  0.16549670  0.49582246  1
  Ca2+  Ca44  1  0.92222359  0.17341654  0.82401169  1
  Ca2+  Ca45  1  0.92636701  0.66094193  0.16446658  1
  Ca2+  Ca46  1  0.91933009  0.66601341  0.49640621  1
  Ca2+  Ca47  1  0.92672944  0.66947958  0.82091526  1
  Al0+  Al48  1  0.00032421  -0.00064696  0.00350753  1
  Al0+  Al49  1  -0.00297633  -0.00209883  0.33637550  1
  Al0+  Al50  1  -0.00298078  -0.00311735  0.66254451  1
  Al0+  Al51  1  0.00317465  0.49987488  -0.00375885  1
  Al0+  Al52  1  0.00184679  0.49927472  0.33107296  1
  Al0+  Al53  1  0.00290432  0.49826183  0.66364319  1
  Al0+  Al54  1  0.49873501  0.00180912  -0.00050062  1
  Al0+  Al55  1  0.49538770  0.00115568  0.33280322  1
  Al0+  Al56  1  0.49811330  -0.00184112  0.67199220  1
  Al0+  Al57  1  0.50023315  0.50124430  -0.00129629  1
  Al0+  Al58  1  0.49836668  0.50273020  0.33670775  1
  Al0+  Al59  1  0.50025554  0.50071194  0.66915855  1
  Al0+  Al60  1  0.25104004  0.25197651  0.00054219  1
  Al0+  Al61  1  0.24926220  0.25013777  0.32223437  1
  Al0+  Al62  1  0.25293214  0.24992593  0.66052149  1
  Al0+  Al63  1  0.25085813  0.75073259  -0.00047717  1
  Al0+  Al64  1  0.24914184  0.75063938  0.33732231  1
  Al0+  Al65  1  0.25270615  0.75076658  0.67038199  1
  Al0+  Al66  1  0.74998246  0.25137039  -0.00216608  1
  Al0+  Al67  1  0.74889192  0.24888156  0.33775007  1
  Al0+  Al68  1  0.74999804  0.24750825  0.66296134  1
  Al0+  Al69  1  0.75229494  0.75082324  0.00019503  1
  Al0+  Al70  1  0.74969600  0.74974354  0.33849415  1
  Al0+  Al71  1  0.75044805  0.74744143  0.67111782  1
  Al0+  Al72  1  0.92684150  0.32176821  0.65070181  1
  Al0+  Al73  1  0.82407615  0.57039829  0.34719484  1
  Al0+  Al74  1  0.67459203  0.92871927  0.34792303  1
  Al0+  Al75  1  0.82362098  0.56785585  0.68174612  1
  Al0+  Al76  1  0.31859779  0.56986986  0.34596964  1
  Al0+  Al77  1  0.06855649  0.17685864  0.31736124  1
  Al0+  Al78  1  0.67771943  0.42895732  0.34861060  1
  Al0+  Al79  1  0.07155172  0.17729894  0.65297032  1
  Al0+  Al80  1  0.67883286  0.92873355  0.01368041  1
  Al0+  Al81  1  0.57168774  0.17928792  0.98489420  1
  Al0+  Al82  1  0.17850349  0.92927328  0.34875327  1
  Al0+  Al83  1  0.07200919  0.67948468  0.98504952  1
  Al0+  Al84  1  0.57249007  0.67918166  0.98696264  1
  Al0+  Al85  1  0.32170317  0.57198226  0.68368184  1
  Al0+  Al86  1  0.17987665  0.93032442  0.01340610  1
  Al0+  Al87  1  0.92563333  0.81859999  0.64989635  1
  Al0+  Al88  1  0.07424474  0.67975831  0.65060474  1
  Al0+  Al89  1  0.67809125  0.92994375  0.68244341  1
  Al0+  Al90  1  0.67978979  0.43056308  0.01247937  1
  Al0+  Al91  1  0.43295452  0.32138656  0.65318559  1
  Al0+  Al92  1  0.82020557  0.07109171  0.34987357  1
  Al0+  Al93  1  0.57145597  0.17904685  0.31901395  1
  Al0+  Al94  1  0.07098525  0.68008428  0.31928930  1
  Al0+  Al95  1  0.42940059  0.32542775  0.31573442  1
  Si0+  Si96  1  0.57094152  0.17420345  0.65077840  1
  Si0+  Si97  1  0.42696683  0.82149416  0.31954176  1
  Si0+  Si98  1  0.17798325  0.92979741  0.68203465  1
  Si0+  Si99  1  0.17775903  0.42739132  0.01490609  1
  Si0+  Si100  1  0.82537029  0.57179648  0.01542238  1
  Si0+  Si101  1  0.31973044  0.56999939  0.01474972  1
  Si0+  Si102  1  0.82260861  0.07196369  0.68493984  1
  Si0+  Si103  1  0.42824996  0.82184294  0.98356717  1
  Si0+  Si104  1  0.57120337  0.68183498  0.32072867  1
  Si0+  Si105  1  0.17787634  0.42467004  0.34900910  1
  Si0+  Si106  1  0.18122222  0.42609300  0.68245822  1
  Si0+  Si107  1  0.93009975  0.32089656  0.98627734  1
  Si0+  Si108  1  0.92892949  0.82370382  0.98385644  1
  Si0+  Si109  1  0.42738206  0.32337846  0.98158451  1
  Si0+  Si110  1  0.67791310  0.42692909  0.68301302  1
  Si0+  Si111  1  0.57035323  0.67957252  0.65204299  1
  Si0+  Si112  1  0.42944662  0.82201881  0.65246203  1
  Si0+  Si113  1  0.92557375  0.82048400  0.31496715  1
  Si0+  Si114  1  0.07138544  0.17826154  0.98693798  1
  Si0+  Si115  1  0.82161034  0.07328134  0.01502810  1
  Si0+  Si116  1  0.32180930  0.07549851  0.01794257  1
  Si0+  Si117  1  0.31923466  0.07339510  0.34946548  1
  Si0+  Si118  1  0.92728972  0.32257343  0.31491996  1
  Si0+  Si119  1  0.32007529  0.07188541  0.68162543  1
  O2-  O120  1  0.25274149  0.00658961  0.06098085  1
  O2-  O121  1  0.24768402  0.00905843  0.39601049  1
  O2-  O122  1  0.24479520  0.00518653  0.72428575  1
  O2-  O123  1  0.24803717  0.49954627  0.05629848  1
  O2-  O124  1  0.24625165  0.49336124  0.39301730  1
  O2-  O125  1  0.24505615  0.49853245  0.72961918  1
  O2-  O126  1  0.75114307  0.00604627  0.05849929  1
  O2-  O127  1  0.74531373  0.00120238  0.39829981  1
  O2-  O128  1  0.75144391  0.00608514  0.72964045  1
  O2-  O129  1  0.75241167  0.50760507  0.05899765  1
  O2-  O130  1  0.75438716  0.49627816  0.39751409  1
  O2-  O131  1  0.75188565  0.48953712  0.72815907  1
  O2-  O132  1  -0.00605301  0.25159325  0.26955999  1
  O2-  O133  1  -0.00213125  0.24739249  0.60324675  1
  O2-  O134  1  0.00134006  0.24926971  0.94443327  1
  O2-  O135  1  -0.00608785  0.75131299  0.27032734  1
  O2-  O136  1  -0.00125179  0.74743162  0.60045876  1
  O2-  O137  1  -0.00444569  0.75256367  0.94000177  1
  O2-  O138  1  0.50429471  0.25544876  0.26741342  1
  O2-  O139  1  0.50989257  0.24937184  0.60707748  1
  O2-  O140  1  0.49600892  0.25387390  0.93873610  1
  O2-  O141  1  0.50329916  0.75604794  0.27812281  1
  O2-  O142  1  0.50039058  0.75177869  0.60979595  1
  O2-  O143  1  0.50183009  0.75826183  0.93919478  1
  O2-  O144  1  0.07069542  0.17840572  0.09169087  1
  O2-  O145  1  0.06871848  0.17953436  0.42998551  1
  O2-  O146  1  0.07176479  0.17877701  0.76788146  1
  O2-  O147  1  0.07285765  0.67915072  0.09810699  1
  O2-  O148  1  0.07413821  0.68313349  0.43154769  1
  O2-  O149  1  0.07458138  0.68493355  0.76486942  1
  O2-  O150  1  0.57162111  0.17966141  0.09728728  1
  O2-  O151  1  0.56506129  0.17601390  0.43251272  1
  O2-  O152  1  0.56729415  0.17296966  0.75681596  1
  O2-  O153  1  0.56816494  0.67808994  0.10022739  1
  O2-  O154  1  0.56952588  0.68207818  0.42600628  1
  O2-  O155  1  0.56880175  0.68017887  0.75756374  1
  O2-  O156  1  0.17823826  0.42658497  0.24256251  1
  O2-  O157  1  0.18552357  0.42299071  0.57738827  1
  O2-  O158  1  0.17771842  0.42324363  0.91017840  1
  O2-  O159  1  0.18239549  0.92760664  0.23531579  1
  O2-  O160  1  0.18179145  0.92856806  0.57721017  1
  O2-  O161  1  0.18067618  0.93322327  0.89985782  1
  O2-  O162  1  0.67830343  0.43258409  0.23438636  1
  O2-  O163  1  0.67456280  0.43197892  0.57804943  1
  O2-  O164  1  0.68249435  0.43030405  0.89921195  1
  O2-  O165  1  0.67602300  0.92747997  0.23403188  1
  O2-  O166  1  0.67404521  0.93266087  0.57006914  1
  O2-  O167  1  0.68126478  0.92925217  0.90052421  1
  O2-  O168  1  0.42494351  0.32422273  0.08650893  1
  O2-  O169  1  0.42977768  0.32448027  0.42953760  1
  O2-  O170  1  0.43285746  0.31877562  0.76685471  1
  O2-  O171  1  0.42483969  0.81804999  0.08915385  1
  O2-  O172  1  0.42500707  0.81982394  0.42491903  1
  O2-  O173  1  0.42840043  0.82270234  0.75766560  1
  O2-  O174  1  0.93136708  0.32199906  0.09103696  1
  O2-  O175  1  0.93106024  0.32436234  0.42000612  1
  O2-  O176  1  0.92967479  0.31956821  0.76561510  1
  O2-  O177  1  0.93009701  0.82530501  0.08915945  1
  O2-  O178  1  0.92606466  0.81933490  0.42034880  1
  O2-  O179  1  0.92877909  0.81937079  0.76433833  1
  O2-  O180  1  0.31971283  0.06859086  0.24374622  1
  O2-  O181  1  0.32305217  0.06877429  0.57703091  1
  O2-  O182  1  0.31915948  0.07664766  0.91172390  1
  O2-  O183  1  0.31785162  0.57205793  0.23219005  1
  O2-  O184  1  0.32244630  0.57228538  0.57108864  1
  O2-  O185  1  0.31981773  0.56953477  0.90968981  1
  O2-  O186  1  0.82041031  0.06711603  0.23543299  1
  O2-  O187  1  0.82307866  0.07121961  0.58009215  1
  O2-  O188  1  0.82387357  0.07323553  0.90946505  1
  O2-  O189  1  0.82193266  0.57034240  0.23291089  1
  O2-  O190  1  0.82004582  0.56935484  0.56918904  1
  O2-  O191  1  0.82684975  0.56821704  0.90980016  1
  O2-  O192  1  0.03669745  0.07934525  0.26478256  1
  O2-  O193  1  0.04462721  0.07859586  0.60160448  1
  O2-  O194  1  0.04397925  0.08630349  0.93957245  1
  O2-  O195  1  0.04602183  0.58137478  0.26503389  1
  O2-  O196  1  0.05467491  0.57824756  0.60278114  1
  O2-  O197  1  0.04594187  0.58134316  0.93102346  1
  O2-  O198  1  0.53587584  0.08203869  0.26469459  1
  O2-  O199  1  0.53645282  0.08308003  0.60576239  1
  O2-  O200  1  0.53890101  0.08293048  0.93021474  1
  O2-  O201  1  0.53836483  0.59217620  0.27258602  1
  O2-  O202  1  0.53989498  0.58886774  0.60543061  1
  O2-  O203  1  0.53680806  0.58510852  0.93039434  1
  O2-  O204  1  0.16419094  0.20617711  0.25997139  1
  O2-  O205  1  0.16962148  0.20469884  0.59969737  1
  O2-  O206  1  0.16405492  0.20579754  0.94046298  1
  O2-  O207  1  0.16705502  0.71593023  0.26562829  1
  O2-  O208  1  0.17296699  0.71259001  0.60108132  1
  O2-  O209  1  0.16861249  0.71226633  0.93208491  1
  O2-  O210  1  0.67220648  0.20108336  0.26777416  1
  O2-  O211  1  0.66757462  0.18950539  0.60880302  1
  O2-  O212  1  0.66797507  0.21042430  0.92961634  1
  O2-  O213  1  0.66361596  0.70573500  0.27270996  1
  O2-  O214  1  0.66210924  0.70643396  0.60604429  1
  O2-  O215  1  0.67089652  0.70594136  0.93382302  1
  O2-  O216  1  0.08603406  0.45417181  0.06279735  1
  O2-  O217  1  0.08410528  0.44860536  0.39369336  1
  O2-  O218  1  0.08602039  0.44622508  0.72733590  1
  O2-  O219  1  0.08357822  0.95929891  0.06868662  1
  O2-  O220  1  0.08094291  0.95507390  0.40100573  1
  O2-  O221  1  0.08434485  0.95314471  0.72784579  1
  O2-  O222  1  0.58206736  0.45987815  0.06475115  1
  O2-  O223  1  0.58204136  0.46398826  0.40197175  1
  O2-  O224  1  0.58739834  0.45880921  0.73229517  1
  O2-  O225  1  0.57915126  0.95478741  0.06375364  1
  O2-  O226  1  0.57426953  0.95431278  0.39880851  1
  O2-  O227  1  0.58063804  0.95837224  0.73829159  1
  O2-  O228  1  0.20592454  0.33619096  0.06436553  1
  O2-  O229  1  0.20289532  0.32988750  0.39199690  1
  O2-  O230  1  0.21234393  0.33384251  0.73063253  1
  O2-  O231  1  0.21446908  0.83442094  0.06708261  1
  O2-  O232  1  0.21676498  0.83684678  0.40467549  1
  O2-  O233  1  0.21270057  0.84133298  0.73177079  1
  O2-  O234  1  0.71288464  0.33438715  0.06593539  1
  O2-  O235  1  0.69757587  0.32878966  0.39942566  1
  O2-  O236  1  0.69625456  0.32929780  0.72452361  1
  O2-  O237  1  0.70977069  0.83184682  0.06769463  1
  O2-  O238  1  0.70332047  0.83103297  0.40158819  1
  O2-  O239  1  0.70975709  0.83298298  0.73566460  1
  O2-  O240  1  0.45514954  0.42579537  0.26504053  1
  O2-  O241  1  0.46105127  0.41942657  0.60109209  1
  O2-  O242  1  0.45368449  0.41652548  0.93521709  1
  O2-  O243  1  0.44661231  0.91462246  0.27155273  1
  O2-  O244  1  0.45599165  0.91397370  0.60471232  1
  O2-  O245  1  0.44577872  0.91799535  0.93955516  1
  O2-  O246  1  0.95580886  0.41433131  0.26586365  1
  O2-  O247  1  0.95801746  0.41816746  0.59706974  1
  O2-  O248  1  0.96000673  0.41121612  0.93677824  1
  O2-  O249  1  0.95194926  0.91383359  0.26964962  1
  O2-  O250  1  0.95205980  0.91708838  0.59754126  1
  O2-  O251  1  0.95767697  0.91654491  0.93647364  1
  O2-  O252  1  0.33215065  0.29610843  0.26039195  1
  O2-  O253  1  0.33813534  0.28949678  0.59776705  1
  O2-  O254  1  0.33329431  0.29719739  0.93481171  1
  O2-  O255  1  0.33835088  0.78685226  0.27007158  1
  O2-  O256  1  0.33826037  0.79388690  0.60474880  1
  O2-  O257  1  0.33754649  0.79051816  0.93427605  1
  O2-  O258  1  0.83259124  0.29783535  0.27119567  1
  O2-  O259  1  0.82749641  0.29696184  0.59842560  1
  O2-  O260  1  0.83942597  0.29409299  0.93672617  1
  O2-  O261  1  0.83115764  0.79512664  0.26968928  1
  O2-  O262  1  0.82704887  0.78936066  0.59892847  1
  O2-  O263  1  0.83494515  0.80066340  0.93769524  1
  O2-  O264  1  0.41510078  0.04934114  0.06310244  1
  O2-  O265  1  0.41010523  0.04398175  0.39826556  1
  O2-  O266  1  0.40834638  0.03870929  0.73358304  1
  O2-  O267  1  0.41136507  0.54194044  0.06195692  1
  O2-  O268  1  0.41490184  0.54387038  0.40216264  1
  O2-  O269  1  0.41749829  0.53821540  0.73895395  1
  O2-  O270  1  0.91448466  0.04630186  0.06249027  1
  O2-  O271  1  0.91686922  0.03996444  0.40404659  1
  O2-  O272  1  0.91565828  0.04318609  0.73207126  1
  O2-  O273  1  0.91803431  0.54103049  0.06125894  1
  O2-  O274  1  0.92349613  0.54392530  0.39868637  1
  O2-  O275  1  0.92227883  0.53995262  0.73456414  1
  O2-  O276  1  0.29710993  0.16928303  0.06380834  1
  O2-  O277  1  0.29682856  0.16958144  0.39050819  1
  O2-  O278  1  0.29579518  0.16467111  0.72920351  1
  O2-  O279  1  0.29313010  0.66227266  0.06147532  1
  O2-  O280  1  0.28727645  0.66527098  0.40173469  1
  O2-  O281  1  0.29395649  0.66943189  0.73918408  1
  O2-  O282  1  0.79845819  0.16752555  0.06022207  1
  O2-  O283  1  0.79814092  0.17033970  0.40282172  1
  O2-  O284  1  0.80034292  0.16731698  0.73026265  1
  O2-  O285  1  0.80592933  0.66744491  0.05855200  1
  O2-  O286  1  0.79266608  0.66686463  0.40137092  1
  O2-  O287  1  0.78872845  0.66235338  0.73778980  1
