# generated using pymatgen
data_Ca2Al2SiO7
_symmetry_space_group_name_H-M   'P 1'
_cell_length_a   15.45506667
_cell_length_b   15.45549419
_cell_length_c   15.28154735
_cell_angle_alpha   89.98917952
_cell_angle_beta   90.00220194
_cell_angle_gamma   89.99433377
_symmetry_Int_Tables_number   1
_chemical_formula_structural   Ca2Al2SiO7
_chemical_formula_sum   'Ca48 Al48 Si24 O168'
_cell_volume   3650.23731210
_cell_formula_units_Z   24
loop_
 _symmetry_equiv_pos_site_id
 _symmetry_equiv_pos_as_xyz
  1  'x, y, z'
loop_
 _atom_type_symbol
 _atom_type_oxidation_number
  Ca2+  2.0
  Al0+  0.0
  Si0+  0.0
  O2-  -2.0
loop_
 _atom_site_type_symbol
 _atom_site_label
 _atom_site_symmetry_multiplicity
 _atom_site_fract_x
 _atom_site_fract_y
 _atom_site_fract_z
 _atom_site_occupancy
  Ca2+  Ca0  1  0.16693937  0.07699997  0.17743565  1
  Ca2+  Ca1  1  0.16997579  0.08819445  0.49648913  1
  Ca2+  Ca2  1  0.16623362  0.07230221  0.84297343  1
  Ca2+  Ca3  1  0.15658672  0.57348437  0.17049081  1
  Ca2+  Ca4  1  0.16509733  0.58155698  0.50348607  1
  Ca2+  Ca5  1  0.16686862  0.58507128  0.83909981  1
  Ca2+  Ca6  1  0.67719242  0.08458879  0.17381830  1
  Ca2+  Ca7  1  0.66755021  0.08972252  0.50054055  1
  Ca2+  Ca8  1  0.67022858  0.08474743  0.83849078  1
  Ca2+  Ca9  1  0.67523293  0.59235232  0.17252166  1
  Ca2+  Ca10  1  0.67633688  0.58075611  0.50646678  1
  Ca2+  Ca11  1  0.67802709  0.58010788  0.83943240  1
  Ca2+  Ca12  1  0.08323658  0.33108786  0.16266701  1
  Ca2+  Ca13  1  0.07825266  0.33387680  0.49316545  1
  Ca2+  Ca14  1  0.07051203  0.34344202  0.83450029  1
  Ca2+  Ca15  1  0.08191250  0.82357594  0.16301430  1
  Ca2+  Ca16  1  0.07623356  0.81892853  0.49197811  1
  Ca2+  Ca17  1  0.08732118  0.82223258  0.83184499  1
  Ca2+  Ca18  1  0.57846922  0.33113162  0.16808540  1
  Ca2+  Ca19  1  0.58163599  0.32855318  0.49394080  1
  Ca2+  Ca20  1  0.58965415  0.32796244  0.82440237  1
  Ca2+  Ca21  1  0.58012729  0.82303781  0.16247531  1
  Ca2+  Ca22  1  0.58253232  0.82482927  0.49124910  1
  Ca2+  Ca23  1  0.58127156  0.82722167  0.83681403  1
  Ca2+  Ca24  1  0.32122074  0.41154108  0.17494837  1
  Ca2+  Ca25  1  0.32879941  0.41784381  0.50017215  1
  Ca2+  Ca26  1  0.32621775  0.42549606  0.83822506  1
  Ca2+  Ca27  1  0.33053145  0.91695202  0.16825656  1
  Ca2+  Ca28  1  0.33557721  0.92389649  0.50078595  1
  Ca2+  Ca29  1  0.32895613  0.91511059  0.84299978  1
  Ca2+  Ca30  1  0.83873759  0.42833243  0.16891865  1
  Ca2+  Ca31  1  0.83215416  0.42686598  0.50724459  1
  Ca2+  Ca32  1  0.83519377  0.42082380  0.83546115  1
  Ca2+  Ca33  1  0.83974376  0.92617443  0.17473874  1
  Ca2+  Ca34  1  0.84045098  0.92103935  0.49518512  1
  Ca2+  Ca35  1  0.83362524  0.92689142  0.84114712  1
  Ca2+  Ca36  1  0.41499618  0.16800310  0.17113714  1
  Ca2+  Ca37  1  0.42621284  0.17196706  0.48711160  1
  Ca2+  Ca38  1  0.42434052  0.16997680  0.82626895  1
  Ca2+  Ca39  1  0.43061617  0.66681158  0.15898759  1
  Ca2+  Ca40  1  0.42180578  0.66169103  0.49472009  1
  Ca2+  Ca41  1  0.41493039  0.66938872  0.83223483  1
  Ca2+  Ca42  1  0.91645092  0.16972270  0.16214208  1
  Ca2+  Ca43  1  0.91903787  0.17550715  0.49198044  1
  Ca2+  Ca44  1  0.91023964  0.17972035  0.83110425  1
  Ca2+  Ca45  1  0.92092562  0.66517144  0.16418671  1
  Ca2+  Ca46  1  0.92091806  0.66455331  0.49142854  1
  Ca2+  Ca47  1  0.92683966  0.65284857  0.83145011  1
  Al0+  Al48  1  0.00201236  -0.00066317  0.00785925  1
  Al0+  Al49  1  -0.00016434  -0.00004812  0.33430475  1
  Al0+  Al50  1  0.00071567  -0.00114025  0.66791218  1
  Al0+  Al51  1  -0.00088769  0.49917598  0.00069439  1
  Al0+  Al52  1  -0.00044211  0.49944578  0.33996379  1
  Al0+  Al53  1  0.00063235  0.49916335  0.66022298  1
  Al0+  Al54  1  0.50045292  -0.00029371  -0.00324079  1
  Al0+  Al55  1  0.50054852  0.00020227  0.33335304  1
  Al0+  Al56  1  0.50076893  0.00000916  0.66434682  1
  Al0+  Al57  1  0.50118549  0.49836299  -0.00538903  1
  Al0+  Al58  1  0.49862834  0.49888751  0.32384850  1
  Al0+  Al59  1  0.49844210  0.49987334  0.67545561  1
  Al0+  Al60  1  0.25075871  0.24951751  -0.00039441  1
  Al0+  Al61  1  0.24870831  0.24927767  0.33614597  1
  Al0+  Al62  1  0.25048677  0.24939615  0.67025198  1
  Al0+  Al63  1  0.25111574  0.75049177  -0.00083622  1
  Al0+  Al64  1  0.24901481  0.74886716  0.33078389  1
  Al0+  Al65  1  0.24974545  0.75052415  0.66401030  1
  Al0+  Al66  1  0.74979304  0.25110305  0.00111403  1
  Al0+  Al67  1  0.74933039  0.25046270  0.33311244  1
  Al0+  Al68  1  0.75095951  0.25025395  0.66025366  1
  Al0+  Al69  1  0.75000950  0.75132219  -0.00186522  1
  Al0+  Al70  1  0.75032712  0.75249228  0.33089317  1
  Al0+  Al71  1  0.75055021  0.75270410  0.67198444  1
  Al0+  Al72  1  0.57266343  0.17779645  0.31577156  1
  Al0+  Al73  1  0.92969445  0.31923391  0.98788702  1
  Al0+  Al74  1  0.81986156  0.07196233  0.01327338  1
  Al0+  Al75  1  0.81972493  0.57044720  0.01454883  1
  Al0+  Al76  1  0.57066215  0.67843319  0.32239846  1
  Al0+  Al77  1  0.82198755  0.07272282  0.34900775  1
  Al0+  Al78  1  0.57433149  0.67662542  0.98117119  1
  Al0+  Al79  1  0.93097851  0.31972559  0.65116382  1
  Al0+  Al80  1  0.92911519  0.82077644  0.31778771  1
  Al0+  Al81  1  0.42764019  0.32055272  0.31822581  1
  Al0+  Al82  1  0.07028548  0.68043050  0.65234579  1
  Al0+  Al83  1  0.82274522  0.57239590  0.68251641  1
  Al0+  Al84  1  0.67976030  0.42780656  0.68042579  1
  Al0+  Al85  1  0.81892365  0.57204052  0.34697802  1
  Al0+  Al86  1  0.17909067  0.42926519  0.34833245  1
  Al0+  Al87  1  0.07010651  0.18028146  0.32103050  1
  Al0+  Al88  1  0.17984763  0.43043505  0.01316649  1
  Al0+  Al89  1  0.07107623  0.67605804  0.31692341  1
  Al0+  Al90  1  0.18035813  0.92718371  0.01537243  1
  Al0+  Al91  1  0.42995744  0.82031196  0.98480711  1
  Al0+  Al92  1  0.06823123  0.67938514  0.98649886  1
  Al0+  Al93  1  0.31989577  0.57230353  0.68011447  1
  Al0+  Al94  1  0.56975550  0.17950963  0.65226712  1
  Al0+  Al95  1  0.32051974  0.06909979  0.34737990  1
  Si0+  Si96  1  0.57149683  0.67912206  0.65360910  1
  Si0+  Si97  1  0.67596457  0.92904052  0.68318837  1
  Si0+  Si98  1  0.82088200  0.07006776  0.68026692  1
  Si0+  Si99  1  0.32371920  0.07207970  0.01598584  1
  Si0+  Si100  1  0.42705236  0.82291160  0.31817108  1
  Si0+  Si101  1  0.67517103  0.42878136  0.34791151  1
  Si0+  Si102  1  0.17779390  0.42663711  0.68408421  1
  Si0+  Si103  1  0.07337207  0.17415653  0.65185817  1
  Si0+  Si104  1  0.42908657  0.82062220  0.65025613  1
  Si0+  Si105  1  0.32303290  0.07058476  0.68216871  1
  Si0+  Si106  1  0.42562910  0.32069770  0.98210889  1
  Si0+  Si107  1  0.67841837  0.92961212  0.35046339  1
  Si0+  Si108  1  0.57019193  0.18121997  0.98492530  1
  Si0+  Si109  1  0.92749950  0.32235297  0.31644755  1
  Si0+  Si110  1  0.32357037  0.57180200  0.01745937  1
  Si0+  Si111  1  0.17761743  0.92551539  0.35276673  1
  Si0+  Si112  1  0.18062046  0.93015217  0.68070208  1
  Si0+  Si113  1  0.07362834  0.17613614  0.98405288  1
  Si0+  Si114  1  0.67711022  0.92910289  0.01704115  1
  Si0+  Si115  1  0.32372892  0.57244605  0.34680671  1
  Si0+  Si116  1  0.67606780  0.42684764  0.01814041  1
  Si0+  Si117  1  0.92852556  0.82535041  0.98279637  1
  Si0+  Si118  1  0.92633171  0.82558610  0.65113827  1
  Si0+  Si119  1  0.42590469  0.32357042  0.65140981  1
  O2-  O120  1  0.25352113  0.00491500  0.05921032  1
  O2-  O121  1  0.24779755  -0.00662134  0.39695431  1
  O2-  O122  1  0.24919609  0.00321342  0.72463729  1
  O2-  O123  1  0.25581106  0.50293905  0.06184204  1
  O2-  O124  1  0.25288626  0.50677603  0.39225804  1
  O2-  O125  1  0.24556786  0.49706105  0.72687059  1
  O2-  O126  1  0.74865118  -0.00556949  0.06079834  1
  O2-  O127  1  0.74525462  -0.00028996  0.39607176  1
  O2-  O128  1  0.74911561  -0.00038797  0.72305216  1
  O2-  O129  1  0.74015008  0.50012616  0.06112837  1
  O2-  O130  1  0.74253216  0.49824802  0.39252667  1
  O2-  O131  1  0.74992795  0.50060711  0.73206608  1
  O2-  O132  1  -0.00581681  0.25185857  0.27230155  1
  O2-  O133  1  0.00786010  0.24526200  0.60791799  1
  O2-  O134  1  0.00427339  0.24376322  0.93950478  1
  O2-  O135  1  -0.00038960  0.74834384  0.26707985  1
  O2-  O136  1  -0.01028565  0.75108037  0.60946659  1
  O2-  O137  1  -0.00630463  0.75406949  0.93742192  1
  O2-  O138  1  0.50008550  0.24935123  0.26663109  1
  O2-  O139  1  0.49514972  0.25521801  0.60794146  1
  O2-  O140  1  0.49920907  0.25143599  0.94092278  1
  O2-  O141  1  0.49259254  0.75053920  0.27645727  1
  O2-  O142  1  0.49988442  0.74900492  0.60919529  1
  O2-  O143  1  0.49921841  0.74687352  0.93237816  1
  O2-  O144  1  0.07528023  0.17709381  0.08934406  1
  O2-  O145  1  0.06916915  0.18294533  0.43477815  1
  O2-  O146  1  0.07187759  0.16903841  0.75735798  1
  O2-  O147  1  0.06662583  0.67884025  0.09882313  1
  O2-  O148  1  0.07131355  0.67822306  0.43091057  1
  O2-  O149  1  0.07275819  0.68296772  0.76569333  1
  O2-  O150  1  0.56968987  0.18133957  0.08933011  1
  O2-  O151  1  0.57077297  0.17952122  0.42956151  1
  O2-  O152  1  0.56790514  0.17764871  0.76620444  1
  O2-  O153  1  0.57334130  0.67942908  0.09487578  1
  O2-  O154  1  0.56939362  0.67947451  0.43643674  1
  O2-  O155  1  0.57087573  0.68304127  0.75815853  1
  O2-  O156  1  0.17918990  0.42844352  0.23511533  1
  O2-  O157  1  0.18015092  0.42378427  0.57873897  1
  O2-  O158  1  0.18141224  0.43182438  0.89968822  1
  O2-  O159  1  0.17914281  0.92597644  0.24729542  1
  O2-  O160  1  0.18240906  0.93119956  0.57602493  1
  O2-  O161  1  0.18128152  0.92935591  0.90109632  1
  O2-  O162  1  0.67602593  0.42887032  0.24226667  1
  O2-  O163  1  0.67882675  0.43026740  0.56682714  1
  O2-  O164  1  0.67807610  0.42278502  0.91255533  1
  O2-  O165  1  0.67791734  0.93019815  0.24509319  1
  O2-  O166  1  0.67204421  0.92683609  0.57860672  1
  O2-  O167  1  0.67608169  0.93292372  0.91071458  1
  O2-  O168  1  0.42335369  0.31914931  0.08664834  1
  O2-  O169  1  0.42945002  0.32085697  0.43226873  1
  O2-  O170  1  0.42383723  0.31920230  0.75735228  1
  O2-  O171  1  0.43284917  0.82151575  0.09824213  1
  O2-  O172  1  0.42901600  0.82387562  0.42449127  1
  O2-  O173  1  0.42867056  0.82277687  0.75495781  1
  O2-  O174  1  0.93065558  0.31817663  0.10055936  1
  O2-  O175  1  0.92872105  0.32103846  0.42232688  1
  O2-  O176  1  0.93087952  0.31795693  0.76469606  1
  O2-  O177  1  0.93044328  0.82698659  0.08786383  1
  O2-  O178  1  0.93077834  0.81975438  0.43215073  1
  O2-  O179  1  0.92974733  0.83514836  0.75614119  1
  O2-  O180  1  0.31892327  0.06643676  0.23429508  1
  O2-  O181  1  0.32426260  0.06927676  0.57744281  1
  O2-  O182  1  0.32377542  0.07175702  0.90958289  1
  O2-  O183  1  0.32578972  0.57143443  0.24159557  1
  O2-  O184  1  0.32109321  0.57225466  0.56701174  1
  O2-  O185  1  0.32131485  0.57061664  0.91130945  1
  O2-  O186  1  0.82083504  0.07152881  0.23597726  1
  O2-  O187  1  0.82176590  0.06789984  0.57556985  1
  O2-  O188  1  0.81613296  0.07225498  0.89910199  1
  O2-  O189  1  0.81905709  0.57050683  0.23375381  1
  O2-  O190  1  0.81964452  0.57352607  0.56888961  1
  O2-  O191  1  0.82157712  0.56592243  0.90151984  1
  O2-  O192  1  0.04321569  0.08234108  0.26902433  1
  O2-  O193  1  0.04656579  0.08163060  0.60384141  1
  O2-  O194  1  0.04818460  0.08145358  0.93978477  1
  O2-  O195  1  0.04031864  0.57705532  0.26781678  1
  O2-  O196  1  0.04570025  0.58288352  0.59855024  1
  O2-  O197  1  0.03722739  0.58315877  0.93173536  1
  O2-  O198  1  0.54405828  0.07887251  0.26458219  1
  O2-  O199  1  0.53847463  0.08283835  0.59840038  1
  O2-  O200  1  0.54360932  0.08913052  0.93655825  1
  O2-  O201  1  0.54346022  0.58381026  0.26391587  1
  O2-  O202  1  0.54311526  0.58607830  0.60970038  1
  O2-  O203  1  0.54889451  0.57681486  0.92935441  1
  O2-  O204  1  0.16606864  0.20997278  0.26698985  1
  O2-  O205  1  0.16947855  0.19735358  0.60908788  1
  O2-  O206  1  0.16766916  0.20016548  0.93680536  1
  O2-  O207  1  0.17072448  0.70232660  0.26517115  1
  O2-  O208  1  0.16502136  0.71635547  0.59714074  1
  O2-  O209  1  0.16593338  0.71031137  0.93423685  1
  O2-  O210  1  0.67092543  0.20708266  0.26335257  1
  O2-  O211  1  0.66613945  0.20741713  0.59785706  1
  O2-  O212  1  0.66135032  0.21005328  0.93645204  1
  O2-  O213  1  0.66395276  0.71470539  0.26681072  1
  O2-  O214  1  0.66347364  0.70955873  0.60758840  1
  O2-  O215  1  0.67101111  0.71048287  0.92692327  1
  O2-  O216  1  0.08397986  0.46076726  0.06730152  1
  O2-  O217  1  0.08382379  0.45879808  0.40542592  1
  O2-  O218  1  0.08389137  0.45353129  0.72742586  1
  O2-  O219  1  0.08501386  0.95625635  0.07151936  1
  O2-  O220  1  0.08538431  0.95377276  0.39947748  1
  O2-  O221  1  0.08836843  0.95580893  0.72937323  1
  O2-  O222  1  0.57948999  0.44673531  0.06073978  1
  O2-  O223  1  0.58005999  0.45266082  0.39181951  1
  O2-  O224  1  0.58053274  0.45054219  0.73500687  1
  O2-  O225  1  0.58442341  0.95807918  0.06288006  1
  O2-  O226  1  0.58436323  0.95256644  0.39776897  1
  O2-  O227  1  0.58536779  0.95977216  0.73230153  1
  O2-  O228  1  0.20963775  0.33181725  0.06453198  1
  O2-  O229  1  0.21182286  0.33434371  0.40433582  1
  O2-  O230  1  0.20277458  0.33300039  0.73216849  1
  O2-  O231  1  0.21402434  0.83217668  0.07005012  1
  O2-  O232  1  0.20370269  0.83143302  0.39858753  1
  O2-  O233  1  0.21195385  0.83982178  0.72839131  1
  O2-  O234  1  0.70505100  0.33509768  0.06571968  1
  O2-  O235  1  0.70057893  0.33508231  0.39388732  1
  O2-  O236  1  0.71036644  0.32846432  0.73214544  1
  O2-  O237  1  0.69841477  0.83402665  0.06049201  1
  O2-  O238  1  0.70629176  0.83731633  0.39856925  1
  O2-  O239  1  0.70283276  0.83865592  0.73392387  1
  O2-  O240  1  0.45323413  0.41710663  0.26029818  1
  O2-  O241  1  0.44939024  0.41867507  0.60837942  1
  O2-  O242  1  0.45076408  0.41304323  0.93471842  1
  O2-  O243  1  0.45587891  0.91443264  0.27082195  1
  O2-  O244  1  0.45882684  0.91193864  0.60249754  1
  O2-  O245  1  0.45928252  0.91882621  0.92931486  1
  O2-  O246  1  0.95661334  0.41524230  0.27269328  1
  O2-  O247  1  0.96097327  0.41486309  0.59478145  1
  O2-  O248  1  0.96296285  0.41403537  0.93211585  1
  O2-  O249  1  0.95848994  0.91938556  0.26670872  1
  O2-  O250  1  0.95836024  0.91626815  0.60127250  1
  O2-  O251  1  0.95785650  0.91873354  0.93664983  1
  O2-  O252  1  0.33077939  0.28706203  0.26602845  1
  O2-  O253  1  0.33209533  0.29659432  0.60592600  1
  O2-  O254  1  0.33577914  0.29019464  0.93139956  1
  O2-  O255  1  0.33231703  0.80239496  0.27328381  1
  O2-  O256  1  0.33797495  0.79426018  0.60134462  1
  O2-  O257  1  0.33173410  0.79329466  0.93024506  1
  O2-  O258  1  0.83325938  0.29941193  0.27152177  1
  O2-  O259  1  0.83641049  0.28722574  0.59507958  1
  O2-  O260  1  0.83307112  0.28766992  0.93272198  1
  O2-  O261  1  0.82993349  0.79817741  0.26474337  1
  O2-  O262  1  0.82978342  0.80665443  0.60818213  1
  O2-  O263  1  0.83266381  0.80634350  0.93871457  1
  O2-  O264  1  0.41709693  0.04491719  0.06136909  1
  O2-  O265  1  0.41767159  0.03881807  0.40225066  1
  O2-  O266  1  0.41360571  0.03900305  0.73044115  1
  O2-  O267  1  0.41899163  0.54576524  0.05938650  1
  O2-  O268  1  0.41674291  0.54343231  0.39354309  1
  O2-  O269  1  0.41476034  0.54352939  0.73895730  1
  O2-  O270  1  0.91737439  0.04556305  0.06663486  1
  O2-  O271  1  0.91762082  0.03989682  0.40456225  1
  O2-  O272  1  0.91255983  0.04211411  0.72893192  1
  O2-  O273  1  0.91424719  0.53487316  0.06887159  1
  O2-  O274  1  0.91360796  0.53916551  0.40316629  1
  O2-  O275  1  0.92185215  0.53964948  0.73151551  1
  O2-  O276  1  0.30036063  0.16628885  0.06071197  1
  O2-  O277  1  0.28801167  0.16390641  0.40368525  1
  O2-  O278  1  0.29983270  0.16359453  0.73030567  1
  O2-  O279  1  0.30102205  0.66627568  0.06118647  1
  O2-  O280  1  0.30266705  0.66780712  0.39260544  1
  O2-  O281  1  0.28887386  0.66965359  0.73355779  1
  O2-  O282  1  0.78560783  0.16676293  0.06777747  1
  O2-  O283  1  0.79153308  0.17000301  0.40249385  1
  O2-  O284  1  0.79185512  0.16179369  0.72623207  1
  O2-  O285  1  0.79349236  0.67033296  0.06442965  1
  O2-  O286  1  0.78930729  0.66983054  0.39944500  1
  O2-  O287  1  0.79785251  0.67245105  0.73493583  1
