# generated using pymatgen
data_Ca2Al2SiO7
_symmetry_space_group_name_H-M   'P 1'
_cell_length_a   15.46516609
_cell_length_b   15.46697460
_cell_length_c   15.28910304
_cell_angle_alpha   90.00495295
_cell_angle_beta   89.99307872
_cell_angle_gamma   90.00520027
_symmetry_Int_Tables_number   1
_chemical_formula_structural   Ca2Al2SiO7
_chemical_formula_sum   'Ca48 Al48 Si24 O168'
_cell_volume   3657.14316575
_cell_formula_units_Z   24
loop_
 _symmetry_equiv_pos_site_id
 _symmetry_equiv_pos_as_xyz
  1  'x, y, z'
loop_
 _atom_type_symbol
 _atom_type_oxidation_number
  Ca2+  2.0
  Al0+  0.0
  Si0+  0.0
  O2-  -2.0
loop_
 _atom_site_type_symbol
 _atom_site_label
 _atom_site_symmetry_multiplicity
 _atom_site_fract_x
 _atom_site_fract_y
 _atom_site_fract_z
 _atom_site_occupancy
  Ca2+  Ca0  1  0.17713110  0.07828643  0.16557770  1
  Ca2+  Ca1  1  0.17864796  0.08462243  0.50273027  1
  Ca2+  Ca2  1  0.17506160  0.07809139  0.84292892  1
  Ca2+  Ca3  1  0.17354151  0.57629112  0.17113847  1
  Ca2+  Ca4  1  0.17067958  0.59280360  0.50164835  1
  Ca2+  Ca5  1  0.17337633  0.58448215  0.83990568  1
  Ca2+  Ca6  1  0.67197541  0.08931037  0.16392005  1
  Ca2+  Ca7  1  0.67059852  0.07290170  0.50906259  1
  Ca2+  Ca8  1  0.67217050  0.07884544  0.84014031  1
  Ca2+  Ca9  1  0.66467374  0.57973338  0.17084828  1
  Ca2+  Ca10  1  0.66807846  0.57101641  0.50582746  1
  Ca2+  Ca11  1  0.66724708  0.57960486  0.83750944  1
  Ca2+  Ca12  1  0.08445337  0.33691988  0.15824292  1
  Ca2+  Ca13  1  0.08111600  0.33680444  0.49646621  1
  Ca2+  Ca14  1  0.07330871  0.34085657  0.83125410  1
  Ca2+  Ca15  1  0.07966721  0.83253117  0.16113438  1
  Ca2+  Ca16  1  0.07766469  0.82351487  0.49418985  1
  Ca2+  Ca17  1  0.07717086  0.83600590  0.82767744  1
  Ca2+  Ca18  1  0.57437243  0.33045710  0.15509081  1
  Ca2+  Ca19  1  0.58398438  0.33664644  0.49656855  1
  Ca2+  Ca20  1  0.57788307  0.32797313  0.83445938  1
  Ca2+  Ca21  1  0.57320865  0.82277966  0.15472188  1
  Ca2+  Ca22  1  0.58404542  0.83318102  0.49808941  1
  Ca2+  Ca23  1  0.57997481  0.83094401  0.83492742  1
  Ca2+  Ca24  1  0.32759278  0.42215758  0.16878581  1
  Ca2+  Ca25  1  0.32379025  0.43029315  0.50262831  1
  Ca2+  Ca26  1  0.32772556  0.42582273  0.84334198  1
  Ca2+  Ca27  1  0.33571672  0.92164361  0.16416697  1
  Ca2+  Ca28  1  0.33625207  0.92921321  0.50703396  1
  Ca2+  Ca29  1  0.32862870  0.92377024  0.84421731  1
  Ca2+  Ca30  1  0.82626987  0.41458726  0.16982662  1
  Ca2+  Ca31  1  0.82325448  0.41251396  0.50760225  1
  Ca2+  Ca32  1  0.83024188  0.40817430  0.83759878  1
  Ca2+  Ca33  1  0.84000990  0.91796658  0.16623883  1
  Ca2+  Ca34  1  0.83089977  0.90823586  0.50678385  1
  Ca2+  Ca35  1  0.83258818  0.91409447  0.84183856  1
  Ca2+  Ca36  1  0.41912206  0.16922652  0.15512546  1
  Ca2+  Ca37  1  0.41462724  0.16550299  0.49403928  1
  Ca2+  Ca38  1  0.41023436  0.16951210  0.83252727  1
  Ca2+  Ca39  1  0.41918731  0.66213744  0.15593727  1
  Ca2+  Ca40  1  0.41244139  0.66283177  0.49729407  1
  Ca2+  Ca41  1  0.41427489  0.66552246  0.83435922  1
  Ca2+  Ca42  1  0.91848808  0.17264148  0.15524581  1
  Ca2+  Ca43  1  0.91618128  0.17292718  0.50034940  1
  Ca2+  Ca44  1  0.91379040  0.17387222  0.83421488  1
  Ca2+  Ca45  1  0.92306302  0.67588319  0.16186351  1
  Ca2+  Ca46  1  0.92739117  0.67442853  0.49453161  1
  Ca2+  Ca47  1  0.92680315  0.67707086  0.82569313  1
  Al0+  Al48  1  -0.00087700  0.00180520  0.00414305  1
  Al0+  Al49  1  0.00078654  0.00406438  0.33163493  1
  Al0+  Al50  1  0.00038414  0.00331405  0.65973234  1
  Al0+  Al51  1  -0.00264742  0.50141056  -0.00078044  1
  Al0+  Al52  1  -0.00242963  0.50105808  0.33160493  1
  Al0+  Al53  1  -0.00139915  0.50076980  0.65558413  1
  Al0+  Al54  1  0.50341010  -0.00321733  -0.00292390  1
  Al0+  Al55  1  0.50314262  0.00026261  0.33590568  1
  Al0+  Al56  1  0.50292506  0.00054056  0.67470941  1
  Al0+  Al57  1  0.50108258  0.49677946  -0.00582373  1
  Al0+  Al58  1  0.49878919  0.49846530  0.34078461  1
  Al0+  Al59  1  0.49956185  0.49840386  0.67384380  1
  Al0+  Al60  1  0.24937804  0.24927921  0.00174011  1
  Al0+  Al61  1  0.25016487  0.25122641  0.34023150  1
  Al0+  Al62  1  0.25076017  0.25350053  0.66820907  1
  Al0+  Al63  1  0.25058178  0.74961441  0.00499125  1
  Al0+  Al64  1  0.24907008  0.75215011  0.33176837  1
  Al0+  Al65  1  0.25204369  0.75298353  0.66604353  1
  Al0+  Al66  1  0.74982847  0.24850531  -0.00267471  1
  Al0+  Al67  1  0.74951131  0.24721884  0.33846944  1
  Al0+  Al68  1  0.74806196  0.24743306  0.66602629  1
  Al0+  Al69  1  0.75080189  0.74857248  -0.00585232  1
  Al0+  Al70  1  0.74851941  0.75026235  0.32961436  1
  Al0+  Al71  1  0.74739202  0.74719047  0.66743807  1
  Al0+  Al72  1  0.68011645  0.42677927  0.68390121  1
  Al0+  Al73  1  0.68018526  0.42816060  0.34581304  1
  Al0+  Al74  1  0.92988489  0.32231057  0.98844633  1
  Al0+  Al75  1  0.31917739  0.57290765  0.68222183  1
  Al0+  Al76  1  0.31997040  0.57312648  0.34830491  1
  Al0+  Al77  1  0.92669044  0.82277914  0.65220039  1
  Al0+  Al78  1  0.32121935  0.07330667  0.68130484  1
  Al0+  Al79  1  0.57204823  0.17765621  0.98492237  1
  Al0+  Al80  1  0.92769077  0.31926126  0.65145494  1
  Al0+  Al81  1  0.17748786  0.92805836  0.01472672  1
  Al0+  Al82  1  0.81898544  0.07054015  0.01356820  1
  Al0+  Al83  1  0.32249704  0.06873765  0.34649659  1
  Al0+  Al84  1  0.42668839  0.81971689  0.98468511  1
  Al0+  Al85  1  0.42588402  0.31896325  0.98442099  1
  Al0+  Al86  1  0.93183999  0.82283904  0.98603280  1
  Al0+  Al87  1  0.17564590  0.42919158  0.34919382  1
  Al0+  Al88  1  0.32471664  0.07048196  0.01455217  1
  Al0+  Al89  1  0.32299372  0.56962571  0.01455729  1
  Al0+  Al90  1  0.17537556  0.42969488  0.01244946  1
  Al0+  Al91  1  0.68142535  0.92586476  0.68202383  1
  Al0+  Al92  1  0.57156858  0.67599312  0.98404350  1
  Al0+  Al93  1  0.92797793  0.82251447  0.31617793  1
  Al0+  Al94  1  0.07298954  0.67799887  0.31387304  1
  Al0+  Al95  1  0.07410681  0.68085246  0.65173662  1
  Si0+  Si96  1  0.57155339  0.17750773  0.31969347  1
  Si0+  Si97  1  0.81971490  0.57416131  0.34971212  1
  Si0+  Si98  1  0.82251110  0.07169430  0.34986523  1
  Si0+  Si99  1  0.07539379  0.17995383  0.64835450  1
  Si0+  Si100  1  0.68103969  0.42820052  0.01393103  1
  Si0+  Si101  1  0.42905901  0.32201331  0.64906592  1
  Si0+  Si102  1  0.17602242  0.93006026  0.35118674  1
  Si0+  Si103  1  0.92572454  0.31925454  0.31898403  1
  Si0+  Si104  1  0.56782327  0.67734587  0.32162647  1
  Si0+  Si105  1  0.43222424  0.82263205  0.65158273  1
  Si0+  Si106  1  0.68008283  0.92419763  0.01872346  1
  Si0+  Si107  1  0.07296143  0.18244935  0.31747826  1
  Si0+  Si108  1  0.68116010  0.92936560  0.34681923  1
  Si0+  Si109  1  0.82225524  0.56981759  0.68287841  1
  Si0+  Si110  1  0.56916700  0.67605204  0.65022365  1
  Si0+  Si111  1  0.82009807  0.57266312  0.01447845  1
  Si0+  Si112  1  0.17837598  0.93059987  0.68007247  1
  Si0+  Si113  1  0.43010555  0.32001706  0.32103132  1
  Si0+  Si114  1  0.56866117  0.17844554  0.64976673  1
  Si0+  Si115  1  0.82310178  0.07084830  0.68236591  1
  Si0+  Si116  1  0.07141473  0.67795896  0.98448719  1
  Si0+  Si117  1  0.43060853  0.82432379  0.32147370  1
  Si0+  Si118  1  0.07175010  0.17825519  0.98464101  1
  Si0+  Si119  1  0.17530961  0.42965436  0.68251903  1
  O2-  O120  1  0.25386121  -0.00305840  0.06394787  1
  O2-  O121  1  0.24947025  -0.00611272  0.39573862  1
  O2-  O122  1  0.24390121  0.00127439  0.72522324  1
  O2-  O123  1  0.25012021  0.49805220  0.06325629  1
  O2-  O124  1  0.24246565  0.50668727  0.39849401  1
  O2-  O125  1  0.24027466  0.50155007  0.72589658  1
  O2-  O126  1  0.74639019  -0.00488969  0.06343466  1
  O2-  O127  1  0.75679782  -0.00500963  0.39006750  1
  O2-  O128  1  0.76353080  -0.00601665  0.72529442  1
  O2-  O129  1  0.74854162  0.50180277  0.05706060  1
  O2-  O130  1  0.75531109  0.50129770  0.39438128  1
  O2-  O131  1  0.75797994  0.49825338  0.72975603  1
  O2-  O132  1  0.00262147  0.25525529  0.27655098  1
  O2-  O133  1  0.00510686  0.24765364  0.60395904  1
  O2-  O134  1  0.00791197  0.25186292  0.94098916  1
  O2-  O135  1  0.00132651  0.75221497  0.26617967  1
  O2-  O136  1  0.00033640  0.75255620  0.60280694  1
  O2-  O137  1  0.00916697  0.75201520  0.93943345  1
  O2-  O138  1  0.50124882  0.24897543  0.27872585  1
  O2-  O139  1  0.49774961  0.24853940  0.60529777  1
  O2-  O140  1  0.49381409  0.24231242  0.93412513  1
  O2-  O141  1  0.49350559  0.74522047  0.28088067  1
  O2-  O142  1  0.49989679  0.74884182  0.60736250  1
  O2-  O143  1  0.49727943  0.74596500  0.93442331  1
  O2-  O144  1  0.06879748  0.17770252  0.09065283  1
  O2-  O145  1  0.07152097  0.18127584  0.42284724  1
  O2-  O146  1  0.07637481  0.17887562  0.75334633  1
  O2-  O147  1  0.06578184  0.67526660  0.08966878  1
  O2-  O148  1  0.07126955  0.68165302  0.42761494  1
  O2-  O149  1  0.07346351  0.68194833  0.76535990  1
  O2-  O150  1  0.57492589  0.18451361  0.09938253  1
  O2-  O151  1  0.57157796  0.17559409  0.42505458  1
  O2-  O152  1  0.56917977  0.17949330  0.75403104  1
  O2-  O153  1  0.57303546  0.67688127  0.09877486  1
  O2-  O154  1  0.57036131  0.67917124  0.42696328  1
  O2-  O155  1  0.56941554  0.67562097  0.75455291  1
  O2-  O156  1  0.18063301  0.42503411  0.23628934  1
  O2-  O157  1  0.17901484  0.42639041  0.57697794  1
  O2-  O158  1  0.17174058  0.43458729  0.89873962  1
  O2-  O159  1  0.17442964  0.93402742  0.24616750  1
  O2-  O160  1  0.18200326  0.93145933  0.57419732  1
  O2-  O161  1  0.17486963  0.93238096  0.90064743  1
  O2-  O162  1  0.68007949  0.42792741  0.23275105  1
  O2-  O163  1  0.67998714  0.42871719  0.57013545  1
  O2-  O164  1  0.68418428  0.42718951  0.90903773  1
  O2-  O165  1  0.67751078  0.93152968  0.24261500  1
  O2-  O166  1  0.67849262  0.92950417  0.56776050  1
  O2-  O167  1  0.68342443  0.92310318  0.91316200  1
  O2-  O168  1  0.43035054  0.32101879  0.09887817  1
  O2-  O169  1  0.43278019  0.31881848  0.42648071  1
  O2-  O170  1  0.42927561  0.32083860  0.75350041  1
  O2-  O171  1  0.43166422  0.82023446  0.09924958  1
  O2-  O172  1  0.43671286  0.82898142  0.42688149  1
  O2-  O173  1  0.43290490  0.82289423  0.75579023  1
  O2-  O174  1  0.92676905  0.31966771  0.10190682  1
  O2-  O175  1  0.92224038  0.31334377  0.42401806  1
  O2-  O176  1  0.92726488  0.31652097  0.76429922  1
  O2-  O177  1  0.93081647  0.81990833  0.09898131  1
  O2-  O178  1  0.92593710  0.81995866  0.42974796  1
  O2-  O179  1  0.92875014  0.82214339  0.76561368  1
  O2-  O180  1  0.32450125  0.06769476  0.23444470  1
  O2-  O181  1  0.32225592  0.07088882  0.56746815  1
  O2-  O182  1  0.31948744  0.07021106  0.90099732  1
  O2-  O183  1  0.32747348  0.56747105  0.23591365  1
  O2-  O184  1  0.32078496  0.57073950  0.56900795  1
  O2-  O185  1  0.32042625  0.56870315  0.90086130  1
  O2-  O186  1  0.81954739  0.07744301  0.24540100  1
  O2-  O187  1  0.81810679  0.07397353  0.57619785  1
  O2-  O188  1  0.81774640  0.07082673  0.90058920  1
  O2-  O189  1  0.81525255  0.57500069  0.24400794  1
  O2-  O190  1  0.81710824  0.56931391  0.57701935  1
  O2-  O191  1  0.82048516  0.57191062  0.90955740  1
  O2-  O192  1  0.04352913  0.09168244  0.26960215  1
  O2-  O193  1  0.05109987  0.08729656  0.59859065  1
  O2-  O194  1  0.03903600  0.08800378  0.93685268  1
  O2-  O195  1  0.04273413  0.57885266  0.26303492  1
  O2-  O196  1  0.04705517  0.58313255  0.59591784  1
  O2-  O197  1  0.03816584  0.58811196  0.93547939  1
  O2-  O198  1  0.54445499  0.08616772  0.27144244  1
  O2-  O199  1  0.54150320  0.08549878  0.60305499  1
  O2-  O200  1  0.55749899  0.07544550  0.93643617  1
  O2-  O201  1  0.54271259  0.58416981  0.27554657  1
  O2-  O202  1  0.53926894  0.58411225  0.60347500  1
  O2-  O203  1  0.54865749  0.57729638  0.93033350  1
  O2-  O204  1  0.16560864  0.20929403  0.27163756  1
  O2-  O205  1  0.16808257  0.20879885  0.60063125  1
  O2-  O206  1  0.16646074  0.19727197  0.93960474  1
  O2-  O207  1  0.17283729  0.70478577  0.26288055  1
  O2-  O208  1  0.17158889  0.71297827  0.59728853  1
  O2-  O209  1  0.16768680  0.69712340  0.94342607  1
  O2-  O210  1  0.66437049  0.20477271  0.27414572  1
  O2-  O211  1  0.66030367  0.20591654  0.60101126  1
  O2-  O212  1  0.66645080  0.21395919  0.92899118  1
  O2-  O213  1  0.65803213  0.70697051  0.27229941  1
  O2-  O214  1  0.66109873  0.70244879  0.60185542  1
  O2-  O215  1  0.66841790  0.70678257  0.92919243  1
  O2-  O216  1  0.07717655  0.45895311  0.06674758  1
  O2-  O217  1  0.07297190  0.44868079  0.39758675  1
  O2-  O218  1  0.07826252  0.45045209  0.72249580  1
  O2-  O219  1  0.08208347  0.96202733  0.07054252  1
  O2-  O220  1  0.08454721  0.96206947  0.39866183  1
  O2-  O221  1  0.08266172  0.95429436  0.72254905  1
  O2-  O222  1  0.58818846  0.45306160  0.05974720  1
  O2-  O223  1  0.58549183  0.45933422  0.40323649  1
  O2-  O224  1  0.58491071  0.45930050  0.73752421  1
  O2-  O225  1  0.58554255  0.94656329  0.06336345  1
  O2-  O226  1  0.59274480  0.96238027  0.39874349  1
  O2-  O227  1  0.58889127  0.96336092  0.73799896  1
  O2-  O228  1  0.19882151  0.32944471  0.06344498  1
  O2-  O229  1  0.20906098  0.33347772  0.40599172  1
  O2-  O230  1  0.20378035  0.33759838  0.72959428  1
  O2-  O231  1  0.20190496  0.82977100  0.06911673  1
  O2-  O232  1  0.19745426  0.83483855  0.39437355  1
  O2-  O233  1  0.20637189  0.83898168  0.72719403  1
  O2-  O234  1  0.71267846  0.33842977  0.06255168  1
  O2-  O235  1  0.71004316  0.33159800  0.40195078  1
  O2-  O236  1  0.70938005  0.32874488  0.73477821  1
  O2-  O237  1  0.70847234  0.83104533  0.06450067  1
  O2-  O238  1  0.70360798  0.83572701  0.39420044  1
  O2-  O239  1  0.70267535  0.82679790  0.73454691  1
  O2-  O240  1  0.46002889  0.41154604  0.27479423  1
  O2-  O241  1  0.46212903  0.41284849  0.60281183  1
  O2-  O242  1  0.46074892  0.41353923  0.92855606  1
  O2-  O243  1  0.46814708  0.91173760  0.27171759  1
  O2-  O244  1  0.46548966  0.91377063  0.60456710  1
  O2-  O245  1  0.45799668  0.91670244  0.93061722  1
  O2-  O246  1  0.94192026  0.41478675  0.27555255  1
  O2-  O247  1  0.95183975  0.41609908  0.59475354  1
  O2-  O248  1  0.95461006  0.41948355  0.93237496  1
  O2-  O249  1  0.95391374  0.92413960  0.26815275  1
  O2-  O250  1  0.94937453  0.92321407  0.59920579  1
  O2-  O251  1  0.95763711  0.92154607  0.93437031  1
  O2-  O252  1  0.33792344  0.29175440  0.27602086  1
  O2-  O253  1  0.33622221  0.29675014  0.60188170  1
  O2-  O254  1  0.32631473  0.29528103  0.93141112  1
  O2-  O255  1  0.33549611  0.80808844  0.27803447  1
  O2-  O256  1  0.33981728  0.79928506  0.60315494  1
  O2-  O257  1  0.32667785  0.79571841  0.93325492  1
  O2-  O258  1  0.83587449  0.28389556  0.27157226  1
  O2-  O259  1  0.83194076  0.28301252  0.59701705  1
  O2-  O260  1  0.83621970  0.28561102  0.93313217  1
  O2-  O261  1  0.82846535  0.79407226  0.26400695  1
  O2-  O262  1  0.82764129  0.79104268  0.60087426  1
  O2-  O263  1  0.83643335  0.78900910  0.93247307  1
  O2-  O264  1  0.42503436  0.04394606  0.06505768  1
  O2-  O265  1  0.41958559  0.03835668  0.40199657  1
  O2-  O266  1  0.41683349  0.04157164  0.73424611  1
  O2-  O267  1  0.42288474  0.53949003  0.06429905  1
  O2-  O268  1  0.41589545  0.53939709  0.40532568  1
  O2-  O269  1  0.41421565  0.53822957  0.73553244  1
  O2-  O270  1  0.91485873  0.04346101  0.07016477  1
  O2-  O271  1  0.91641403  0.05139836  0.39627335  1
  O2-  O272  1  0.92101881  0.05777870  0.72297861  1
  O2-  O273  1  0.91002651  0.54349022  0.06398699  1
  O2-  O274  1  0.91455928  0.55270262  0.39350767  1
  O2-  O275  1  0.91840370  0.54849940  0.72427479  1
  O2-  O276  1  0.29527388  0.16850283  0.06772675  1
  O2-  O277  1  0.29054585  0.16433492  0.40210741  1
  O2-  O278  1  0.29277091  0.17138017  0.73243649  1
  O2-  O279  1  0.29902253  0.66835971  0.06764204  1
  O2-  O280  1  0.29867537  0.67506687  0.39891325  1
  O2-  O281  1  0.29433939  0.67222574  0.73322329  1
  O2-  O282  1  0.78487154  0.16625058  0.06928053  1
  O2-  O283  1  0.78800164  0.15911693  0.40236847  1
  O2-  O284  1  0.78758327  0.16027869  0.72974078  1
  O2-  O285  1  0.79105527  0.66343935  0.06311660  1
  O2-  O286  1  0.78839800  0.66579763  0.39689859  1
  O2-  O287  1  0.79243229  0.66152940  0.72980083  1
