# generated using pymatgen
data_Ca2Al2SiO7
_symmetry_space_group_name_H-M   'P 1'
_cell_length_a   15.45339511
_cell_length_b   15.45405371
_cell_length_c   15.28021607
_cell_angle_alpha   90.00456137
_cell_angle_beta   90.00280441
_cell_angle_gamma   89.98972888
_symmetry_Int_Tables_number   1
_chemical_formula_structural   Ca2Al2SiO7
_chemical_formula_sum   'Ca48 Al48 Si24 O168'
_cell_volume   3649.18442476
_cell_formula_units_Z   24
loop_
 _symmetry_equiv_pos_site_id
 _symmetry_equiv_pos_as_xyz
  1  'x, y, z'
loop_
 _atom_type_symbol
 _atom_type_oxidation_number
  Ca2+  2.0
  Al0+  0.0
  Si0+  0.0
  O2-  -2.0
loop_
 _atom_site_type_symbol
 _atom_site_label
 _atom_site_symmetry_multiplicity
 _atom_site_fract_x
 _atom_site_fract_y
 _atom_site_fract_z
 _atom_site_occupancy
  Ca2+  Ca0  1  0.17278756  0.08326109  0.16723685  1
  Ca2+  Ca1  1  0.17038460  0.07979520  0.50562483  1
  Ca2+  Ca2  1  0.17541071  0.09471388  0.83803038  1
  Ca2+  Ca3  1  0.16653890  0.57761248  0.16994608  1
  Ca2+  Ca4  1  0.16864890  0.57602104  0.50732495  1
  Ca2+  Ca5  1  0.16706362  0.56816431  0.84030345  1
  Ca2+  Ca6  1  0.67692138  0.09406673  0.17275693  1
  Ca2+  Ca7  1  0.67082195  0.07939388  0.50209236  1
  Ca2+  Ca8  1  0.67119139  0.07667351  0.84248658  1
  Ca2+  Ca9  1  0.65467872  0.57311883  0.16821370  1
  Ca2+  Ca10  1  0.66026453  0.58267040  0.50136311  1
  Ca2+  Ca11  1  0.66089225  0.58103936  0.83960859  1
  Ca2+  Ca12  1  0.07623568  0.32933840  0.15911404  1
  Ca2+  Ca13  1  0.08001765  0.32839374  0.49901681  1
  Ca2+  Ca14  1  0.09387811  0.32410091  0.83008696  1
  Ca2+  Ca15  1  0.07477772  0.84364794  0.16549667  1
  Ca2+  Ca16  1  0.07451581  0.84055287  0.49298849  1
  Ca2+  Ca17  1  0.06970055  0.83884666  0.83063638  1
  Ca2+  Ca18  1  0.58515174  0.32592078  0.15930544  1
  Ca2+  Ca19  1  0.57846289  0.32917080  0.49137738  1
  Ca2+  Ca20  1  0.57448553  0.32980993  0.83399068  1
  Ca2+  Ca21  1  0.58385506  0.82249899  0.16381150  1
  Ca2+  Ca22  1  0.58351659  0.82605122  0.49443815  1
  Ca2+  Ca23  1  0.59075008  0.82366978  0.82673156  1
  Ca2+  Ca24  1  0.33113155  0.41045616  0.16347240  1
  Ca2+  Ca25  1  0.32970482  0.41447849  0.50918159  1
  Ca2+  Ca26  1  0.32743511  0.40476826  0.83801395  1
  Ca2+  Ca27  1  0.33055887  0.91968347  0.17496731  1
  Ca2+  Ca28  1  0.33250304  0.91990773  0.50368378  1
  Ca2+  Ca29  1  0.33432220  0.93289091  0.83923173  1
  Ca2+  Ca30  1  0.82013426  0.41115103  0.17458769  1
  Ca2+  Ca31  1  0.82757024  0.41371431  0.49807230  1
  Ca2+  Ca32  1  0.82466276  0.42094890  0.84280254  1
  Ca2+  Ca33  1  0.83959760  0.92723776  0.17052149  1
  Ca2+  Ca34  1  0.83162966  0.91712074  0.50357930  1
  Ca2+  Ca35  1  0.83216189  0.91658595  0.83709329  1
  Ca2+  Ca36  1  0.43068875  0.16747298  0.15703502  1
  Ca2+  Ca37  1  0.42034862  0.16761938  0.49946168  1
  Ca2+  Ca38  1  0.41066481  0.17359360  0.83136446  1
  Ca2+  Ca39  1  0.42340162  0.67156000  0.16561864  1
  Ca2+  Ca40  1  0.42736471  0.67204055  0.49147084  1
  Ca2+  Ca41  1  0.42892649  0.66439708  0.83010769  1
  Ca2+  Ca42  1  0.91754966  0.16592342  0.16161673  1
  Ca2+  Ca43  1  0.92095677  0.16757752  0.49265609  1
  Ca2+  Ca44  1  0.92889167  0.16035386  0.83282957  1
  Ca2+  Ca45  1  0.91241168  0.68155244  0.16331831  1
  Ca2+  Ca46  1  0.91587334  0.67979931  0.49574506  1
  Ca2+  Ca47  1  0.91176419  0.67918636  0.82965702  1
  Al0+  Al48  1  -0.00072431  0.00072568  -0.00541129  1
  Al0+  Al49  1  0.00226201  0.00122235  0.33807989  1
  Al0+  Al50  1  0.00042275  0.00121876  0.65792119  1
  Al0+  Al51  1  -0.00073085  0.50193335  0.00596417  1
  Al0+  Al52  1  -0.00203907  0.49964296  0.33133425  1
  Al0+  Al53  1  -0.00120743  0.49998438  0.67231556  1
  Al0+  Al54  1  0.50137192  -0.00168858  0.00249630  1
  Al0+  Al55  1  0.50155392  0.00067805  0.32679398  1
  Al0+  Al56  1  0.50132187  -0.00048528  0.67650372  1
  Al0+  Al57  1  0.49808068  0.50065299  -0.00324615  1
  Al0+  Al58  1  0.49778749  0.49904792  0.33515903  1
  Al0+  Al59  1  0.49938055  0.49929169  0.65852791  1
  Al0+  Al60  1  0.24941016  0.24916140  0.00630152  1
  Al0+  Al61  1  0.24975961  0.24928203  0.33521475  1
  Al0+  Al62  1  0.24973018  0.24956433  0.66225947  1
  Al0+  Al63  1  0.24871179  0.74890432  -0.00139711  1
  Al0+  Al64  1  0.24937901  0.74928636  0.33585095  1
  Al0+  Al65  1  0.24983737  0.74956856  0.67050670  1
  Al0+  Al66  1  0.75010515  0.25009076  0.00123898  1
  Al0+  Al67  1  0.75084373  0.25120802  0.33817870  1
  Al0+  Al68  1  0.75070885  0.25010406  0.66965655  1
  Al0+  Al69  1  0.74984286  0.75038536  -0.00690702  1
  Al0+  Al70  1  0.75146219  0.74897488  0.32413348  1
  Al0+  Al71  1  0.75031631  0.74981467  0.66108030  1
  Al0+  Al72  1  0.57128167  0.18037809  0.32202491  1
  Al0+  Al73  1  0.42693461  0.82196499  0.31950627  1
  Al0+  Al74  1  0.67851365  0.43111520  0.01224937  1
  Al0+  Al75  1  0.92982948  0.32083778  0.32033629  1
  Al0+  Al76  1  0.93104312  0.82261950  0.31860491  1
  Al0+  Al77  1  0.18088767  0.92941625  0.34710425  1
  Al0+  Al78  1  0.42966326  0.31838748  0.98618635  1
  Al0+  Al79  1  0.32228553  0.07077948  0.01606728  1
  Al0+  Al80  1  0.43042701  0.31792595  0.65163433  1
  Al0+  Al81  1  0.07037092  0.18162966  0.65117428  1
  Al0+  Al82  1  0.17875599  0.42831428  0.01645112  1
  Al0+  Al83  1  0.57520933  0.17640766  0.98357562  1
  Al0+  Al84  1  0.31966698  0.06953787  0.67988815  1
  Al0+  Al85  1  0.56955666  0.67991639  0.65099202  1
  Al0+  Al86  1  0.68144048  0.92843286  0.67905829  1
  Al0+  Al87  1  0.57117896  0.67737563  0.31638995  1
  Al0+  Al88  1  0.82085241  0.06883681  0.01239263  1
  Al0+  Al89  1  0.06910056  0.18170252  0.98808787  1
  Al0+  Al90  1  0.82093874  0.07091243  0.34829253  1
  Al0+  Al91  1  0.56782243  0.68082303  0.98499594  1
  Al0+  Al92  1  0.93108540  0.81994323  0.65053546  1
  Al0+  Al93  1  0.93133921  0.82046958  0.98536214  1
  Al0+  Al94  1  0.17984953  0.43019492  0.67981200  1
  Al0+  Al95  1  0.67815237  0.43054822  0.34847390  1
  Si0+  Si96  1  0.17535893  0.92694628  0.68395802  1
  Si0+  Si97  1  0.82279938  0.57363005  0.35025833  1
  Si0+  Si98  1  0.07248090  0.67658808  0.31761906  1
  Si0+  Si99  1  0.17822843  0.92749920  0.01424038  1
  Si0+  Si100  1  0.07269507  0.67557627  0.65212433  1
  Si0+  Si101  1  0.92693840  0.32489998  0.98410748  1
  Si0+  Si102  1  0.42433081  0.82308167  0.98204641  1
  Si0+  Si103  1  0.81913088  0.57098336  0.68088317  1
  Si0+  Si104  1  0.42553942  0.32165863  0.31689856  1
  Si0+  Si105  1  0.92493813  0.32495373  0.65131683  1
  Si0+  Si106  1  0.07357829  0.67520754  0.98265000  1
  Si0+  Si107  1  0.32506528  0.07205107  0.35034311  1
  Si0+  Si108  1  0.57479186  0.17576428  0.65148503  1
  Si0+  Si109  1  0.82385369  0.07300496  0.68342376  1
  Si0+  Si110  1  0.67831675  0.92594670  0.34711894  1
  Si0+  Si111  1  0.42687992  0.82471121  0.65312038  1
  Si0+  Si112  1  0.67880622  0.92493460  0.01784766  1
  Si0+  Si113  1  0.07283817  0.17862423  0.31585660  1
  Si0+  Si114  1  0.67697055  0.42837751  0.68136423  1
  Si0+  Si115  1  0.82151578  0.57475938  0.01750846  1
  Si0+  Si116  1  0.32398837  0.57260906  0.68334018  1
  Si0+  Si117  1  0.17663017  0.42837435  0.34935522  1
  Si0+  Si118  1  0.31938107  0.57012355  0.34968574  1
  Si0+  Si119  1  0.32119950  0.57360033  0.01778398  1
  O2-  O120  1  0.25123307  -0.00933925  0.05961507  1
  O2-  O121  1  0.25787066  0.00160936  0.39423387  1
  O2-  O122  1  0.24597622  -0.00662500  0.72767609  1
  O2-  O123  1  0.25134394  0.50579188  0.06237783  1
  O2-  O124  1  0.24888170  0.49795135  0.39173506  1
  O2-  O125  1  0.25328178  0.50607488  0.72745136  1
  O2-  O126  1  0.74257938  -0.00144766  0.06119629  1
  O2-  O127  1  0.74699712  -0.00591719  0.39282594  1
  O2-  O128  1  0.75392723  0.00525876  0.72643125  1
  O2-  O129  1  0.75513133  0.50371459  0.06069514  1
  O2-  O130  1  0.75130777  0.50778275  0.39510076  1
  O2-  O131  1  0.74926363  0.49860391  0.72287891  1
  O2-  O132  1  0.00493506  0.24788573  0.27218081  1
  O2-  O133  1  -0.00796236  0.25438406  0.60766015  1
  O2-  O134  1  -0.00274517  0.25869158  0.93908734  1
  O2-  O135  1  0.00609723  0.74721767  0.27311063  1
  O2-  O136  1  0.01001139  0.74813138  0.60551168  1
  O2-  O137  1  0.00536767  0.74436421  0.93882233  1
  O2-  O138  1  0.49444051  0.25291486  0.27504843  1
  O2-  O139  1  0.50774196  0.24553376  0.60604071  1
  O2-  O140  1  0.49961053  0.24512703  0.93415976  1
  O2-  O141  1  0.50083161  0.75226862  0.26869398  1
  O2-  O142  1  0.49291598  0.75423203  0.60762263  1
  O2-  O143  1  0.49511152  0.75685508  0.93719374  1
  O2-  O144  1  0.06749423  0.18121817  0.10116117  1
  O2-  O145  1  0.07412681  0.18106608  0.42168554  1
  O2-  O146  1  0.07081381  0.18272183  0.76441759  1
  O2-  O147  1  0.07435924  0.67451533  0.08822615  1
  O2-  O148  1  0.07093365  0.67419792  0.42345348  1
  O2-  O149  1  0.06891886  0.67361400  0.75746010  1
  O2-  O150  1  0.57638871  0.18110355  0.09731154  1
  O2-  O151  1  0.56913707  0.18069514  0.43576004  1
  O2-  O152  1  0.57636676  0.17780476  0.75661441  1
  O2-  O153  1  0.56603172  0.68039306  0.09763751  1
  O2-  O154  1  0.56917138  0.67877633  0.43023023  1
  O2-  O155  1  0.56992552  0.67916127  0.76416139  1
  O2-  O156  1  0.17702899  0.42912888  0.24446609  1
  O2-  O157  1  0.18029151  0.43257940  0.56611867  1
  O2-  O158  1  0.18055502  0.42865442  0.90318820  1
  O2-  O159  1  0.18005463  0.93241316  0.23382104  1
  O2-  O160  1  0.17626093  0.92731739  0.57828584  1
  O2-  O161  1  0.17841417  0.92812416  0.90851045  1
  O2-  O162  1  0.67848410  0.43068060  0.23551261  1
  O2-  O163  1  0.67821831  0.42804346  0.57627577  1
  O2-  O164  1  0.67945768  0.43402321  0.89839771  1
  O2-  O165  1  0.67950983  0.92572139  0.24176823  1
  O2-  O166  1  0.68215841  0.92840935  0.56566206  1
  O2-  O167  1  0.68280210  0.92234099  0.91185721  1
  O2-  O168  1  0.43120763  0.31818060  0.09999417  1
  O2-  O169  1  0.42430171  0.32121356  0.42286051  1
  O2-  O170  1  0.43003349  0.31838583  0.76423602  1
  O2-  O171  1  0.42212835  0.81987646  0.08750788  1
  O2-  O172  1  0.42672788  0.81952856  0.43358862  1
  O2-  O173  1  0.42779572  0.82322937  0.75862410  1
  O2-  O174  1  0.92780068  0.32345623  0.08978990  1
  O2-  O175  1  0.93288597  0.32094371  0.43391034  1
  O2-  O176  1  0.92234186  0.32707963  0.75664702  1
  O2-  O177  1  0.93361453  0.82166760  0.09839816  1
  O2-  O178  1  0.93136174  0.82012000  0.43173676  1
  O2-  O179  1  0.93063000  0.81830448  0.76371478  1
  O2-  O180  1  0.32238619  0.07392515  0.24506351  1
  O2-  O181  1  0.31955752  0.06744513  0.56653759  1
  O2-  O182  1  0.31786785  0.07257158  0.90266210  1
  O2-  O183  1  0.31815613  0.57029710  0.24467152  1
  O2-  O184  1  0.32209313  0.57221548  0.57745583  1
  O2-  O185  1  0.31994840  0.57570492  0.91221797  1
  O2-  O186  1  0.82188326  0.07050076  0.23513642  1
  O2-  O187  1  0.82283416  0.07396110  0.57775013  1
  O2-  O188  1  0.82321769  0.06466782  0.89911398  1
  O2-  O189  1  0.82629800  0.57223599  0.24510149  1
  O2-  O190  1  0.82040742  0.57086805  0.57589709  1
  O2-  O191  1  0.82133014  0.57431696  0.91120357  1
  O2-  O192  1  0.04658482  0.08526419  0.27170862  1
  O2-  O193  1  0.04255743  0.08544665  0.59494288  1
  O2-  O194  1  0.03823038  0.08685345  0.93087706  1
  O2-  O195  1  0.04554443  0.58409134  0.26990526  1
  O2-  O196  1  0.04277022  0.58326456  0.60494537  1
  O2-  O197  1  0.04628793  0.58153169  0.93701477  1
  O2-  O198  1  0.54638068  0.08414116  0.26519495  1
  O2-  O199  1  0.54685503  0.08171397  0.60784461  1
  O2-  O200  1  0.55226553  0.07430267  0.93621593  1
  O2-  O201  1  0.53605851  0.57972835  0.26595710  1
  O2-  O202  1  0.53945233  0.58417493  0.59515660  1
  O2-  O203  1  0.53493157  0.58571652  0.92928503  1
  O2-  O204  1  0.16711588  0.20435001  0.27092738  1
  O2-  O205  1  0.16390580  0.21564736  0.59392518  1
  O2-  O206  1  0.16581163  0.21364917  0.93578740  1
  O2-  O207  1  0.16674108  0.69909809  0.27248937  1
  O2-  O208  1  0.16948151  0.69467046  0.60912094  1
  O2-  O209  1  0.16743719  0.69807319  0.93551167  1
  O2-  O210  1  0.66690106  0.21495947  0.26997646  1
  O2-  O211  1  0.66948280  0.20036269  0.60625891  1
  O2-  O212  1  0.67253928  0.20750746  0.92975431  1
  O2-  O213  1  0.67012043  0.70017321  0.26287593  1
  O2-  O214  1  0.66528827  0.71078753  0.59624963  1
  O2-  O215  1  0.66497123  0.70901951  0.93008910  1
  O2-  O216  1  0.08155420  0.45874944  0.07084363  1
  O2-  O217  1  0.08515698  0.45781691  0.39665415  1
  O2-  O218  1  0.08286507  0.45806301  0.73555911  1
  O2-  O219  1  0.08639067  0.95948235  0.05967347  1
  O2-  O220  1  0.08708364  0.96369683  0.40457502  1
  O2-  O221  1  0.08149142  0.95599883  0.72734786  1
  O2-  O222  1  0.58206384  0.46411492  0.06516291  1
  O2-  O223  1  0.58019097  0.45853175  0.40267772  1
  O2-  O224  1  0.58503792  0.45900226  0.72626175  1
  O2-  O225  1  0.58252399  0.94129932  0.06124181  1
  O2-  O226  1  0.58414437  0.95183620  0.39255495  1
  O2-  O227  1  0.58563530  0.95383883  0.73725057  1
  O2-  O228  1  0.21120742  0.33453056  0.07383481  1
  O2-  O229  1  0.20364916  0.33578178  0.39640828  1
  O2-  O230  1  0.21410386  0.33420217  0.73142125  1
  O2-  O231  1  0.19646586  0.83123267  0.05887542  1
  O2-  O232  1  0.20529013  0.83083818  0.40187742  1
  O2-  O233  1  0.19511223  0.83137492  0.72958435  1
  O2-  O234  1  0.70909166  0.33463312  0.06626066  1
  O2-  O235  1  0.71313454  0.33687650  0.40565204  1
  O2-  O236  1  0.70305961  0.33634153  0.72956151  1
  O2-  O237  1  0.71007561  0.83262986  0.06345137  1
  O2-  O238  1  0.70507162  0.83134699  0.39142660  1
  O2-  O239  1  0.71595474  0.83208027  0.73242324  1
  O2-  O240  1  0.44893115  0.41591635  0.27265427  1
  O2-  O241  1  0.45813000  0.41457517  0.59564491  1
  O2-  O242  1  0.45524286  0.41728955  0.93283512  1
  O2-  O243  1  0.45108399  0.92043523  0.26570705  1
  O2-  O244  1  0.45442084  0.91805678  0.60808890  1
  O2-  O245  1  0.44865194  0.91769232  0.93856799  1
  O2-  O246  1  0.95803400  0.41756936  0.26520276  1
  O2-  O247  1  0.95280219  0.41824275  0.60539264  1
  O2-  O248  1  0.94932311  0.42102075  0.94139892  1
  O2-  O249  1  0.96562453  0.91917442  0.26706579  1
  O2-  O250  1  0.95836130  0.91656372  0.59550754  1
  O2-  O251  1  0.96393514  0.91457114  0.92808864  1
  O2-  O252  1  0.33111822  0.29710804  0.27168996  1
  O2-  O253  1  0.33553228  0.28587434  0.59534405  1
  O2-  O254  1  0.33028639  0.28876545  0.93603555  1
  O2-  O255  1  0.32905518  0.79014078  0.26668538  1
  O2-  O256  1  0.33094770  0.80218915  0.60917599  1
  O2-  O257  1  0.33095501  0.79697018  0.93502393  1
  O2-  O258  1  0.83334857  0.28953435  0.26829886  1
  O2-  O259  1  0.83075037  0.30043115  0.60482970  1
  O2-  O260  1  0.83430602  0.29890530  0.93739475  1
  O2-  O261  1  0.83604193  0.79261190  0.26196264  1
  O2-  O262  1  0.83710583  0.78405961  0.59546652  1
  O2-  O263  1  0.83599546  0.78850009  0.92936184  1
  O2-  O264  1  0.42053080  0.04318252  0.06877119  1
  O2-  O265  1  0.41959296  0.04793452  0.39526141  1
  O2-  O266  1  0.41561490  0.04254775  0.73742143  1
  O2-  O267  1  0.41361749  0.54541577  0.06394894  1
  O2-  O268  1  0.41029717  0.54207433  0.39876131  1
  O2-  O269  1  0.41757354  0.54370665  0.72733886  1
  O2-  O270  1  0.91699058  0.03466242  0.06628896  1
  O2-  O271  1  0.91761194  0.04146717  0.40277699  1
  O2-  O272  1  0.91800035  0.04419736  0.72651788  1
  O2-  O273  1  0.91616126  0.55531021  0.06385300  1
  O2-  O274  1  0.91546923  0.54525289  0.39837815  1
  O2-  O275  1  0.91037612  0.54578077  0.73140513  1
  O2-  O276  1  0.28669362  0.16368589  0.07309466  1
  O2-  O277  1  0.29663470  0.16533641  0.39730151  1
  O2-  O278  1  0.28442220  0.16547659  0.73174096  1
  O2-  O279  1  0.29524045  0.66718355  0.06507057  1
  O2-  O280  1  0.29142569  0.66074363  0.39955047  1
  O2-  O281  1  0.30292872  0.66722634  0.73031576  1
  O2-  O282  1  0.79556071  0.16745916  0.06535676  1
  O2-  O283  1  0.78931155  0.16588781  0.40482097  1
  O2-  O284  1  0.80236785  0.16766765  0.72994102  1
  O2-  O285  1  0.79281022  0.66811106  0.06189291  1
  O2-  O286  1  0.79876202  0.66884462  0.39444753  1
  O2-  O287  1  0.78885457  0.66185820  0.72841553  1
