# generated using pymatgen
data_Ca2Al2SiO7
_symmetry_space_group_name_H-M   'P 1'
_cell_length_a   15.46993363
_cell_length_b   15.46847316
_cell_length_c   15.29254060
_cell_angle_alpha   90.00629185
_cell_angle_beta   90.01434807
_cell_angle_gamma   89.98392939
_symmetry_Int_Tables_number   1
_chemical_formula_structural   Ca2Al2SiO7
_chemical_formula_sum   'Ca48 Al48 Si24 O168'
_cell_volume   3659.44738448
_cell_formula_units_Z   24
loop_
 _symmetry_equiv_pos_site_id
 _symmetry_equiv_pos_as_xyz
  1  'x, y, z'
loop_
 _atom_type_symbol
 _atom_type_oxidation_number
  Ca2+  2.0
  Al0+  0.0
  Si0+  0.0
  O2-  -2.0
loop_
 _atom_site_type_symbol
 _atom_site_label
 _atom_site_symmetry_multiplicity
 _atom_site_fract_x
 _atom_site_fract_y
 _atom_site_fract_z
 _atom_site_occupancy
  Ca2+  Ca0  1  0.15630986  0.07989981  0.17389749  1
  Ca2+  Ca1  1  0.14831234  0.07357985  0.50264894  1
  Ca2+  Ca2  1  0.15553820  0.08320667  0.83622117  1
  Ca2+  Ca3  1  0.16559131  0.58040329  0.16856250  1
  Ca2+  Ca4  1  0.17934225  0.58464281  0.50457740  1
  Ca2+  Ca5  1  0.17096384  0.57675851  0.84092398  1
  Ca2+  Ca6  1  0.67343870  0.08169255  0.17887844  1
  Ca2+  Ca7  1  0.67185261  0.09177454  0.49873806  1
  Ca2+  Ca8  1  0.66617849  0.08928729  0.83996292  1
  Ca2+  Ca9  1  0.67128296  0.57316909  0.17266965  1
  Ca2+  Ca10  1  0.67653989  0.57706977  0.49609221  1
  Ca2+  Ca11  1  0.66830967  0.57407233  0.84371581  1
  Ca2+  Ca12  1  0.07234192  0.32970762  0.15680950  1
  Ca2+  Ca13  1  0.07322110  0.32464516  0.48929569  1
  Ca2+  Ca14  1  0.07952410  0.32993058  0.82530317  1
  Ca2+  Ca15  1  0.07343834  0.82863371  0.16355591  1
  Ca2+  Ca16  1  0.08170435  0.83624181  0.49147357  1
  Ca2+  Ca17  1  0.08187414  0.83175237  0.83309912  1
  Ca2+  Ca18  1  0.59302332  0.32623095  0.16409505  1
  Ca2+  Ca19  1  0.58027460  0.32711892  0.49551661  1
  Ca2+  Ca20  1  0.58418211  0.32524662  0.82770522  1
  Ca2+  Ca21  1  0.58756257  0.82635027  0.16092250  1
  Ca2+  Ca22  1  0.58330672  0.83258614  0.49134572  1
  Ca2+  Ca23  1  0.58233552  0.82414380  0.83228763  1
  Ca2+  Ca24  1  0.32482483  0.42123749  0.17057151  1
  Ca2+  Ca25  1  0.33886613  0.42505553  0.50519101  1
  Ca2+  Ca26  1  0.33263127  0.41691327  0.83764655  1
  Ca2+  Ca27  1  0.32420748  0.92024405  0.17479115  1
  Ca2+  Ca28  1  0.31974150  0.92093440  0.50393476  1
  Ca2+  Ca29  1  0.32672217  0.92173948  0.83475143  1
  Ca2+  Ca30  1  0.82674720  0.41212292  0.17384381  1
  Ca2+  Ca31  1  0.83000089  0.40425817  0.49884653  1
  Ca2+  Ca32  1  0.83088149  0.40878684  0.84197765  1
  Ca2+  Ca33  1  0.83350979  0.92105229  0.17849247  1
  Ca2+  Ca34  1  0.83294318  0.92341751  0.49556238  1
  Ca2+  Ca35  1  0.83480545  0.92048453  0.83982849  1
  Ca2+  Ca36  1  0.43096198  0.16349941  0.16322792  1
  Ca2+  Ca37  1  0.42725083  0.16623386  0.49692663  1
  Ca2+  Ca38  1  0.42760053  0.17470946  0.82666679  1
  Ca2+  Ca39  1  0.42127425  0.66498130  0.16403713  1
  Ca2+  Ca40  1  0.41324327  0.66387054  0.49374263  1
  Ca2+  Ca41  1  0.42230679  0.65932617  0.82975941  1
  Ca2+  Ca42  1  0.92172582  0.17222268  0.16795499  1
  Ca2+  Ca43  1  0.92145284  0.17301671  0.49487158  1
  Ca2+  Ca44  1  0.92530120  0.18051948  0.83331650  1
  Ca2+  Ca45  1  0.90774851  0.67870175  0.16345739  1
  Ca2+  Ca46  1  0.91396029  0.67420353  0.48942962  1
  Ca2+  Ca47  1  0.92314986  0.66913341  0.83615004  1
  Al0+  Al48  1  -0.00209616  0.00137574  -0.00501317  1
  Al0+  Al49  1  -0.00316123  -0.00168657  0.33434195  1
  Al0+  Al50  1  -0.00455436  -0.00128684  0.67134908  1
  Al0+  Al51  1  -0.00075690  0.50456483  -0.00160427  1
  Al0+  Al52  1  0.00126507  0.50117422  0.33358282  1
  Al0+  Al53  1  0.00056921  0.50338671  0.66232387  1
  Al0+  Al54  1  0.49918492  -0.00031971  -0.00359660  1
  Al0+  Al55  1  0.49684244  -0.00163146  0.33219828  1
  Al0+  Al56  1  0.49885370  -0.00390098  0.66477974  1
  Al0+  Al57  1  0.50116248  0.50001380  0.00194066  1
  Al0+  Al58  1  0.50021023  0.50034137  0.33945650  1
  Al0+  Al59  1  0.50393473  0.49983835  0.66684567  1
  Al0+  Al60  1  0.25218308  0.24909887  0.00327195  1
  Al0+  Al61  1  0.25272089  0.24937876  0.33048659  1
  Al0+  Al62  1  0.25168616  0.24788588  0.65808136  1
  Al0+  Al63  1  0.24969986  0.75302010  -0.00165462  1
  Al0+  Al64  1  0.25017314  0.75170183  0.33930001  1
  Al0+  Al65  1  0.25115502  0.75069647  0.67708915  1
  Al0+  Al66  1  0.75178494  0.24767853  -0.00168979  1
  Al0+  Al67  1  0.74950235  0.24854666  0.33534392  1
  Al0+  Al68  1  0.75153669  0.24832165  0.66338868  1
  Al0+  Al69  1  0.74678373  0.75028708  -0.01031333  1
  Al0+  Al70  1  0.74819330  0.74807828  0.33596586  1
  Al0+  Al71  1  0.75015850  0.74920167  0.66840319  1
  Al0+  Al72  1  0.57156928  0.17919704  0.98778776  1
  Al0+  Al73  1  0.57106320  0.17636930  0.65067610  1
  Al0+  Al74  1  0.81977532  0.07037494  0.34938719  1
  Al0+  Al75  1  0.56886935  0.17864631  0.31875995  1
  Al0+  Al76  1  0.93083786  0.32408371  0.65083846  1
  Al0+  Al77  1  0.17739706  0.93209293  0.68329790  1
  Al0+  Al78  1  0.42950046  0.32304314  0.65166480  1
  Al0+  Al79  1  0.17769936  0.42868328  0.01181446  1
  Al0+  Al80  1  0.92940644  0.32301495  0.98732425  1
  Al0+  Al81  1  0.07371258  0.18056718  0.98591748  1
  Al0+  Al82  1  0.92774805  0.82170753  0.98424919  1
  Al0+  Al83  1  0.56822705  0.67797655  0.98662598  1
  Al0+  Al84  1  0.67601780  0.92717032  0.34633949  1
  Al0+  Al85  1  0.92902617  0.32334601  0.31671619  1
  Al0+  Al86  1  0.07149859  0.17780389  0.31867133  1
  Al0+  Al87  1  0.32321193  0.56905019  0.68258895  1
  Al0+  Al88  1  0.68046107  0.42751300  0.34990318  1
  Al0+  Al89  1  0.82338205  0.57131515  0.34642999  1
  Al0+  Al90  1  0.68079555  0.42723608  0.01278128  1
  Al0+  Al91  1  0.07377129  0.67979307  0.98478791  1
  Al0+  Al92  1  0.17904298  0.93279719  0.34516722  1
  Al0+  Al93  1  0.07102704  0.17661334  0.65188469  1
  Al0+  Al94  1  0.92764435  0.81804649  0.32166439  1
  Al0+  Al95  1  0.31842008  0.56965657  0.34537908  1
  Si0+  Si96  1  0.17746105  0.42531025  0.34957355  1
  Si0+  Si97  1  0.42734814  0.82302937  0.98219720  1
  Si0+  Si98  1  0.68428086  0.42940827  0.68234070  1
  Si0+  Si99  1  0.32349064  0.07345627  0.34992533  1
  Si0+  Si100  1  0.42949985  0.32580906  0.31457913  1
  Si0+  Si101  1  0.32342639  0.07048992  0.01544377  1
  Si0+  Si102  1  0.92806297  0.81924062  0.65064800  1
  Si0+  Si103  1  0.57199467  0.67906048  0.64926271  1
  Si0+  Si104  1  0.32245106  0.57322204  0.01652891  1
  Si0+  Si105  1  0.67709846  0.92588541  0.68371940  1
  Si0+  Si106  1  0.17826585  0.42795099  0.67922326  1
  Si0+  Si107  1  0.81717365  0.07006244  0.68546415  1
  Si0+  Si108  1  0.82005756  0.06857038  0.01548234  1
  Si0+  Si109  1  0.42848720  0.32208301  0.98612478  1
  Si0+  Si110  1  0.42818666  0.81818792  0.65081044  1
  Si0+  Si111  1  0.82280404  0.57482813  0.68377740  1
  Si0+  Si112  1  0.67703004  0.92830912  0.01262233  1
  Si0+  Si113  1  0.32519379  0.07193062  0.68399021  1
  Si0+  Si114  1  0.82068954  0.57521139  0.01471844  1
  Si0+  Si115  1  0.17752117  0.93152706  0.01623186  1
  Si0+  Si116  1  0.07544532  0.67931742  0.31954361  1
  Si0+  Si117  1  0.56949020  0.67897955  0.31902353  1
  Si0+  Si118  1  0.42647180  0.81992870  0.31896418  1
  Si0+  Si119  1  0.07355690  0.68185444  0.65140405  1
  O2-  O120  1  0.24751838  0.00402336  0.05752759  1
  O2-  O121  1  0.24741959  0.01276652  0.39343286  1
  O2-  O122  1  0.24934784  0.01087537  0.72904349  1
  O2-  O123  1  0.25112856  0.50646071  0.05863750  1
  O2-  O124  1  0.24574264  0.49461816  0.39403845  1
  O2-  O125  1  0.25062512  0.49157196  0.72675041  1
  O2-  O126  1  0.74874743  -0.00340844  0.05583432  1
  O2-  O127  1  0.74419483  0.00063208  0.39925284  1
  O2-  O128  1  0.74231981  0.00143024  0.72677445  1
  O2-  O129  1  0.75754828  0.50103786  0.05760845  1
  O2-  O130  1  0.75844634  0.49428134  0.39940622  1
  O2-  O131  1  0.75783694  0.49788023  0.72489990  1
  O2-  O132  1  0.00539037  0.25478422  0.26859467  1
  O2-  O133  1  0.00698302  0.25564294  0.60283083  1
  O2-  O134  1  0.00938494  0.25992820  0.93705592  1
  O2-  O135  1  -0.00044951  0.74016996  0.27598721  1
  O2-  O136  1  0.00130448  0.75094423  0.60839019  1
  O2-  O137  1  0.00113658  0.75119625  0.93391393  1
  O2-  O138  1  0.49608665  0.25487984  0.27079818  1
  O2-  O139  1  0.49755178  0.24721515  0.60190269  1
  O2-  O140  1  0.49930675  0.25591120  0.94147209  1
  O2-  O141  1  0.50056968  0.75240658  0.27676538  1
  O2-  O142  1  0.49935225  0.74821750  0.60689908  1
  O2-  O143  1  0.49160146  0.75009039  0.93792424  1
  O2-  O144  1  0.06973830  0.17671467  0.09876916  1
  O2-  O145  1  0.06796485  0.17790719  0.43205210  1
  O2-  O146  1  0.06694420  0.17801589  0.76553210  1
  O2-  O147  1  0.07806425  0.68396056  0.09807070  1
  O2-  O148  1  0.07947741  0.68496738  0.42538720  1
  O2-  O149  1  0.07207122  0.68251274  0.75632269  1
  O2-  O150  1  0.56988445  0.17555595  0.10035476  1
  O2-  O151  1  0.56536391  0.17772232  0.43152922  1
  O2-  O152  1  0.57115384  0.17876999  0.76474415  1
  O2-  O153  1  0.56777660  0.68037057  0.09966669  1
  O2-  O154  1  0.56797381  0.68015454  0.42439079  1
  O2-  O155  1  0.57151903  0.68026695  0.75459310  1
  O2-  O156  1  0.17963790  0.42708774  0.24381143  1
  O2-  O157  1  0.17745804  0.43512396  0.57407964  1
  O2-  O158  1  0.18293366  0.42838526  0.89844079  1
  O2-  O159  1  0.18228345  0.92949512  0.23190658  1
  O2-  O160  1  0.17866651  0.92941802  0.57028302  1
  O2-  O161  1  0.17921945  0.93141502  0.91098430  1
  O2-  O162  1  0.67783815  0.43066021  0.23622403  1
  O2-  O163  1  0.68340364  0.43124402  0.57769793  1
  O2-  O164  1  0.68030971  0.42879978  0.89901325  1
  O2-  O165  1  0.67769040  0.92615901  0.23227292  1
  O2-  O166  1  0.67965782  0.92054650  0.57939046  1
  O2-  O167  1  0.67621661  0.92997720  0.90708263  1
  O2-  O168  1  0.42796514  0.32081949  0.09144455  1
  O2-  O169  1  0.43132229  0.32720544  0.42002240  1
  O2-  O170  1  0.43372615  0.32426829  0.76582557  1
  O2-  O171  1  0.42839206  0.82456442  0.08780195  1
  O2-  O172  1  0.42479881  0.81690839  0.42410250  1
  O2-  O173  1  0.43078930  0.81834000  0.75604646  1
  O2-  O174  1  0.92630031  0.31813465  0.10004404  1
  O2-  O175  1  0.93062174  0.32073406  0.43026280  1
  O2-  O176  1  0.92963722  0.32387406  0.76455086  1
  O2-  O177  1  0.92648431  0.82148125  0.09761520  1
  O2-  O178  1  0.92963739  0.81829997  0.43516592  1
  O2-  O179  1  0.92670150  0.81761120  0.75569504  1
  O2-  O180  1  0.32843487  0.06734502  0.24430007  1
  O2-  O181  1  0.33282657  0.06423658  0.57926810  1
  O2-  O182  1  0.32771020  0.06668748  0.91062453  1
  O2-  O183  1  0.31814259  0.57093535  0.23225430  1
  O2-  O184  1  0.32106385  0.57234999  0.56958568  1
  O2-  O185  1  0.32439134  0.57113833  0.91092208  1
  O2-  O186  1  0.81988530  0.06777071  0.23538720  1
  O2-  O187  1  0.81822861  0.06837732  0.58083493  1
  O2-  O188  1  0.81819137  0.06784007  0.90990596  1
  O2-  O189  1  0.81560293  0.57730115  0.23332855  1
  O2-  O190  1  0.81834086  0.58261506  0.57959669  1
  O2-  O191  1  0.81682569  0.57734391  0.90863455  1
  O2-  O192  1  0.03743920  0.08058409  0.26693143  1
  O2-  O193  1  0.03163546  0.07976596  0.60235152  1
  O2-  O194  1  0.03741575  0.08535002  0.93130934  1
  O2-  O195  1  0.06049339  0.58272928  0.27723754  1
  O2-  O196  1  0.04939816  0.59010377  0.60308745  1
  O2-  O197  1  0.04613177  0.58255314  0.92905037  1
  O2-  O198  1  0.53586652  0.08156073  0.26538898  1
  O2-  O199  1  0.54537899  0.07573606  0.60099434  1
  O2-  O200  1  0.53894064  0.08342863  0.93246354  1
  O2-  O201  1  0.53767629  0.58836042  0.27231013  1
  O2-  O202  1  0.54688856  0.58711323  0.60259580  1
  O2-  O203  1  0.53886570  0.58141489  0.93105147  1
  O2-  O204  1  0.17479309  0.19517948  0.27037375  1
  O2-  O205  1  0.17392745  0.18788848  0.60282054  1
  O2-  O206  1  0.17636415  0.19776935  0.93702937  1
  O2-  O207  1  0.16531134  0.71403858  0.27150710  1
  O2-  O208  1  0.16609920  0.71239799  0.60729204  1
  O2-  O209  1  0.17173337  0.70938609  0.93020915  1
  O2-  O210  1  0.66661176  0.20660129  0.26716692  1
  O2-  O211  1  0.66871503  0.20672807  0.59954796  1
  O2-  O212  1  0.66732439  0.20810439  0.93241092  1
  O2-  O213  1  0.66048597  0.70575659  0.27093368  1
  O2-  O214  1  0.66329926  0.71067877  0.60358230  1
  O2-  O215  1  0.66077746  0.71102417  0.92617245  1
  O2-  O216  1  0.08100236  0.46023880  0.06555766  1
  O2-  O217  1  0.08394648  0.44926331  0.39539776  1
  O2-  O218  1  0.08595755  0.45904634  0.72611684  1
  O2-  O219  1  0.08443126  0.95845420  0.06086608  1
  O2-  O220  1  0.08188554  0.95744650  0.40018175  1
  O2-  O221  1  0.07920519  0.95792946  0.73743556  1
  O2-  O222  1  0.58437856  0.45901583  0.06660464  1
  O2-  O223  1  0.58500828  0.46359234  0.40446760  1
  O2-  O224  1  0.59371056  0.46122247  0.72973863  1
  O2-  O225  1  0.58445544  0.95428025  0.05916168  1
  O2-  O226  1  0.57485196  0.94915983  0.39697603  1
  O2-  O227  1  0.58246813  0.94657067  0.72903928  1
  O2-  O228  1  0.21026258  0.33329785  0.06784482  1
  O2-  O229  1  0.20387785  0.33149589  0.39462605  1
  O2-  O230  1  0.19793272  0.33073998  0.72021160  1
  O2-  O231  1  0.20741078  0.83993163  0.06289209  1
  O2-  O232  1  0.21633419  0.83965387  0.40238934  1
  O2-  O233  1  0.21394176  0.83815222  0.73969771  1
  O2-  O234  1  0.71106852  0.33009818  0.06571858  1
  O2-  O235  1  0.70337903  0.32859851  0.40319017  1
  O2-  O236  1  0.70953415  0.33598375  0.72834595  1
  O2-  O237  1  0.70216533  0.83418862  0.05618930  1
  O2-  O238  1  0.70465553  0.82998045  0.40132287  1
  O2-  O239  1  0.71013157  0.83587387  0.73335287  1
  O2-  O240  1  0.45684189  0.41923347  0.26913518  1
  O2-  O241  1  0.46389874  0.42002663  0.59824164  1
  O2-  O242  1  0.45097977  0.41666216  0.94125665  1
  O2-  O243  1  0.44861224  0.91209361  0.27032542  1
  O2-  O244  1  0.45454526  0.90935645  0.60227186  1
  O2-  O245  1  0.45820444  0.91329151  0.93239004  1
  O2-  O246  1  0.95209625  0.42468893  0.26640481  1
  O2-  O247  1  0.95058483  0.42535876  0.59931213  1
  O2-  O248  1  0.94431385  0.42560883  0.93890809  1
  O2-  O249  1  0.95991204  0.91295360  0.26710507  1
  O2-  O250  1  0.95338249  0.91221725  0.60622935  1
  O2-  O251  1  0.95720912  0.91868502  0.92922729  1
  O2-  O252  1  0.33478009  0.30297270  0.26966099  1
  O2-  O253  1  0.33008337  0.30263733  0.59762381  1
  O2-  O254  1  0.33679910  0.29372427  0.93814961  1
  O2-  O255  1  0.33689336  0.78753158  0.26962149  1
  O2-  O256  1  0.33565877  0.78917286  0.60603753  1
  O2-  O257  1  0.33274105  0.80302756  0.93658367  1
  O2-  O258  1  0.83032025  0.29156366  0.26759718  1
  O2-  O259  1  0.83436369  0.28864162  0.59942718  1
  O2-  O260  1  0.83561625  0.28399353  0.93117336  1
  O2-  O261  1  0.83038064  0.78824319  0.26790730  1
  O2-  O262  1  0.83656207  0.78853278  0.60443687  1
  O2-  O263  1  0.83032769  0.79438312  0.92798117  1
  O2-  O264  1  0.41282406  0.03529665  0.06461816  1
  O2-  O265  1  0.41202162  0.03788228  0.39982585  1
  O2-  O266  1  0.41513448  0.03654597  0.73395106  1
  O2-  O267  1  0.41491429  0.54610127  0.06409787  1
  O2-  O268  1  0.41479919  0.54206335  0.40156889  1
  O2-  O269  1  0.42204131  0.54103719  0.73468712  1
  O2-  O270  1  0.91166728  0.03964763  0.06196837  1
  O2-  O271  1  0.91489799  0.03576602  0.40471797  1
  O2-  O272  1  0.90575369  0.03620971  0.73516856  1
  O2-  O273  1  0.91719719  0.56206847  0.05768492  1
  O2-  O274  1  0.92575915  0.55686982  0.39683643  1
  O2-  O275  1  0.91808172  0.55418509  0.72729608  1
  O2-  O276  1  0.30431372  0.16345838  0.06331553  1
  O2-  O277  1  0.31007551  0.17065247  0.39195645  1
  O2-  O278  1  0.30886280  0.16964736  0.72469487  1
  O2-  O279  1  0.30070825  0.66948170  0.05932812  1
  O2-  O280  1  0.28776424  0.66528213  0.40252115  1
  O2-  O281  1  0.29229368  0.66457814  0.73863775  1
  O2-  O282  1  0.79070988  0.15913649  0.06279200  1
  O2-  O283  1  0.79188712  0.16747476  0.40403429  1
  O2-  O284  1  0.79075007  0.16253733  0.73284122  1
  O2-  O285  1  0.78558792  0.66716061  0.05905375  1
  O2-  O286  1  0.78555722  0.66520497  0.40418037  1
  O2-  O287  1  0.78842937  0.66334937  0.73470134  1
