# generated using pymatgen
data_Ca2Al2SiO7
_symmetry_space_group_name_H-M   'P 1'
_cell_length_a   15.45400150
_cell_length_b   15.45393849
_cell_length_c   15.28075374
_cell_angle_alpha   90.00364915
_cell_angle_beta   89.99272545
_cell_angle_gamma   90.00832999
_symmetry_Int_Tables_number   1
_chemical_formula_structural   Ca2Al2SiO7
_chemical_formula_sum   'Ca48 Al48 Si24 O168'
_cell_volume   3649.42881870
_cell_formula_units_Z   24
loop_
 _symmetry_equiv_pos_site_id
 _symmetry_equiv_pos_as_xyz
  1  'x, y, z'
loop_
 _atom_type_symbol
 _atom_type_oxidation_number
  Ca2+  2.0
  Al0+  0.0
  Si0+  0.0
  O2-  -2.0
loop_
 _atom_site_type_symbol
 _atom_site_label
 _atom_site_symmetry_multiplicity
 _atom_site_fract_x
 _atom_site_fract_y
 _atom_site_fract_z
 _atom_site_occupancy
  Ca2+  Ca0  1  0.16636638  0.07655910  0.16821975  1
  Ca2+  Ca1  1  0.16599042  0.07619655  0.50571501  1
  Ca2+  Ca2  1  0.17696818  0.07268167  0.83791398  1
  Ca2+  Ca3  1  0.17280798  0.57661690  0.17147819  1
  Ca2+  Ca4  1  0.17719878  0.58225977  0.50333090  1
  Ca2+  Ca5  1  0.17245805  0.57900819  0.83621732  1
  Ca2+  Ca6  1  0.66401135  0.07878245  0.16831757  1
  Ca2+  Ca7  1  0.67155562  0.09090647  0.50820666  1
  Ca2+  Ca8  1  0.66961235  0.07938569  0.83423446  1
  Ca2+  Ca9  1  0.67059368  0.58798098  0.16575297  1
  Ca2+  Ca10  1  0.67397576  0.57126172  0.51052421  1
  Ca2+  Ca11  1  0.67435805  0.58808386  0.83662602  1
  Ca2+  Ca12  1  0.08793488  0.32966923  0.16275497  1
  Ca2+  Ca13  1  0.07540400  0.32439186  0.49005339  1
  Ca2+  Ca14  1  0.08546792  0.33398368  0.83188136  1
  Ca2+  Ca15  1  0.07494955  0.84208649  0.16340703  1
  Ca2+  Ca16  1  0.07461203  0.84287492  0.49624616  1
  Ca2+  Ca17  1  0.07675205  0.84203740  0.82872764  1
  Ca2+  Ca18  1  0.57095916  0.32805338  0.16411711  1
  Ca2+  Ca19  1  0.58505930  0.32274488  0.49482939  1
  Ca2+  Ca20  1  0.57937492  0.32862738  0.82709566  1
  Ca2+  Ca21  1  0.58464484  0.82744576  0.15513079  1
  Ca2+  Ca22  1  0.57243337  0.83409268  0.50083631  1
  Ca2+  Ca23  1  0.58128117  0.83140370  0.83092345  1
  Ca2+  Ca24  1  0.33630624  0.41668580  0.16939020  1
  Ca2+  Ca25  1  0.34393272  0.42631158  0.50076652  1
  Ca2+  Ca26  1  0.33160160  0.41807733  0.83945312  1
  Ca2+  Ca27  1  0.32172960  0.92055807  0.17239882  1
  Ca2+  Ca28  1  0.32042696  0.91988072  0.51243459  1
  Ca2+  Ca29  1  0.33081095  0.92373080  0.83727688  1
  Ca2+  Ca30  1  0.83729813  0.42359062  0.17125591  1
  Ca2+  Ca31  1  0.82867173  0.41613730  0.51094111  1
  Ca2+  Ca32  1  0.82560689  0.42829766  0.83622969  1
  Ca2+  Ca33  1  0.82900557  0.90795634  0.16752278  1
  Ca2+  Ca34  1  0.83601551  0.92084199  0.50619344  1
  Ca2+  Ca35  1  0.83330113  0.91685764  0.83793188  1
  Ca2+  Ca36  1  0.41144476  0.17460554  0.16092171  1
  Ca2+  Ca37  1  0.42765812  0.16612065  0.49485404  1
  Ca2+  Ca38  1  0.41589101  0.16577582  0.82721656  1
  Ca2+  Ca39  1  0.42254539  0.66442547  0.16144229  1
  Ca2+  Ca40  1  0.40725219  0.66961427  0.49910512  1
  Ca2+  Ca41  1  0.42016469  0.67061665  0.82593615  1
  Ca2+  Ca42  1  0.92400285  0.17180880  0.16908536  1
  Ca2+  Ca43  1  0.91972506  0.16926747  0.49126647  1
  Ca2+  Ca44  1  0.91749406  0.16329112  0.82608905  1
  Ca2+  Ca45  1  0.91553352  0.67662669  0.15735071  1
  Ca2+  Ca46  1  0.91490619  0.67612525  0.49843610  1
  Ca2+  Ca47  1  0.91190132  0.67513142  0.82893698  1
  Al0+  Al48  1  -0.00006058  0.00269204  -0.00124273  1
  Al0+  Al49  1  -0.00283270  0.00044195  0.32760920  1
  Al0+  Al50  1  -0.00117651  0.00014898  0.66984515  1
  Al0+  Al51  1  0.00042258  0.50112159  0.00765912  1
  Al0+  Al52  1  0.00154306  0.50307154  0.33344996  1
  Al0+  Al53  1  -0.00018437  0.50155043  0.66840769  1
  Al0+  Al54  1  0.50165330  0.00076552  0.00881356  1
  Al0+  Al55  1  0.49973904  -0.00293054  0.32990962  1
  Al0+  Al56  1  0.49992499  -0.00030261  0.65969695  1
  Al0+  Al57  1  0.50230487  0.49851884  -0.01000722  1
  Al0+  Al58  1  0.50289652  0.49983727  0.33478690  1
  Al0+  Al59  1  0.50026427  0.49913366  0.67464836  1
  Al0+  Al60  1  0.24967484  0.25096128  0.00127304  1
  Al0+  Al61  1  0.25056414  0.24920662  0.32841155  1
  Al0+  Al62  1  0.25015607  0.24982440  0.66579991  1
  Al0+  Al63  1  0.24903580  0.74968205  0.00422931  1
  Al0+  Al64  1  0.24803993  0.75011553  0.34067612  1
  Al0+  Al65  1  0.24788303  0.74765671  0.67151654  1
  Al0+  Al66  1  0.74952382  0.25123297  0.00068657  1
  Al0+  Al67  1  0.74975944  0.24962985  0.32266974  1
  Al0+  Al68  1  0.74925278  0.24970389  0.67355125  1
  Al0+  Al69  1  0.75060602  0.75063806  -0.00117772  1
  Al0+  Al70  1  0.74930746  0.75047519  0.33358872  1
  Al0+  Al71  1  0.74985847  0.74983087  0.66195993  1
  Al0+  Al72  1  0.92950842  0.82101840  0.65225883  1
  Al0+  Al73  1  0.17726836  0.92898174  0.68242119  1
  Al0+  Al74  1  0.17724355  0.93218263  0.34890249  1
  Al0+  Al75  1  0.07119472  0.17849222  0.31785351  1
  Al0+  Al76  1  0.32173860  0.07104496  0.01639233  1
  Al0+  Al77  1  0.57062389  0.68031518  0.98543406  1
  Al0+  Al78  1  0.92907409  0.81897803  0.31852106  1
  Al0+  Al79  1  0.32352820  0.07152399  0.67902440  1
  Al0+  Al80  1  0.57078892  0.17971906  0.65459136  1
  Al0+  Al81  1  0.82038312  0.07028379  0.67805603  1
  Al0+  Al82  1  0.93167853  0.82057561  0.98492998  1
  Al0+  Al83  1  0.82165410  0.57281111  0.68094257  1
  Al0+  Al84  1  0.57197803  0.17559115  0.31549220  1
  Al0+  Al85  1  0.42751428  0.81939670  0.65422383  1
  Al0+  Al86  1  0.68211639  0.93040155  0.01212874  1
  Al0+  Al87  1  0.81863365  0.57069390  0.01522517  1
  Al0+  Al88  1  0.92882389  0.32441010  0.31879737  1
  Al0+  Al89  1  0.32243291  0.56865885  0.34622030  1
  Al0+  Al90  1  0.67887095  0.42688498  0.68301276  1
  Al0+  Al91  1  0.17727108  0.92772885  0.01650627  1
  Al0+  Al92  1  0.32083665  0.57056418  0.68194744  1
  Al0+  Al93  1  0.18007059  0.43036237  0.01374857  1
  Al0+  Al94  1  0.42837098  0.31838682  0.98319501  1
  Al0+  Al95  1  0.43105985  0.32241228  0.31927042  1
  Si0+  Si96  1  0.07326936  0.67555974  0.98410214  1
  Si0+  Si97  1  0.17723378  0.42693251  0.68110251  1
  Si0+  Si98  1  0.42645102  0.32311705  0.65000845  1
  Si0+  Si99  1  0.81674512  0.07014927  0.34563238  1
  Si0+  Si100  1  0.57161514  0.67645496  0.64846080  1
  Si0+  Si101  1  0.57283239  0.17599588  0.98191321  1
  Si0+  Si102  1  0.82216970  0.57345357  0.34856064  1
  Si0+  Si103  1  0.07190333  0.67524066  0.64901814  1
  Si0+  Si104  1  0.67698592  0.42706189  0.01919113  1
  Si0+  Si105  1  0.82329540  0.07555613  0.01890169  1
  Si0+  Si106  1  0.07457310  0.67882669  0.31629663  1
  Si0+  Si107  1  0.67694947  0.92730532  0.67972357  1
  Si0+  Si108  1  0.92823244  0.32380884  0.98383414  1
  Si0+  Si109  1  0.42579903  0.81913006  0.31881397  1
  Si0+  Si110  1  0.67725097  0.92584437  0.34997765  1
  Si0+  Si111  1  0.17732900  0.42594081  0.35075210  1
  Si0+  Si112  1  0.32377298  0.07274188  0.35087744  1
  Si0+  Si113  1  0.07094781  0.17935845  0.65362466  1
  Si0+  Si114  1  0.06956305  0.18138408  0.98209248  1
  Si0+  Si115  1  0.68231929  0.42938517  0.34605748  1
  Si0+  Si116  1  0.32523658  0.57131227  0.01529531  1
  Si0+  Si117  1  0.92979291  0.32140143  0.65586500  1
  Si0+  Si118  1  0.57016595  0.68047243  0.32031017  1
  Si0+  Si119  1  0.42649902  0.82312471  0.98640259  1
  O2-  O120  1  0.25209627  -0.00334259  0.06645216  1
  O2-  O121  1  0.25275116  0.00652369  0.39519844  1
  O2-  O122  1  0.25373532  -0.00220544  0.72948051  1
  O2-  O123  1  0.25561434  0.50437200  0.06030451  1
  O2-  O124  1  0.24937318  0.49175796  0.39388321  1
  O2-  O125  1  0.24796627  0.49305570  0.72571021  1
  O2-  O126  1  0.75503192  0.00577533  0.06174682  1
  O2-  O127  1  0.74343516  0.00224266  0.38991076  1
  O2-  O128  1  0.74729716  -0.00597488  0.72381082  1
  O2-  O129  1  0.74621529  0.49472375  0.06451169  1
  O2-  O130  1  0.75840205  0.49518635  0.38905356  1
  O2-  O131  1  0.74727500  0.50355271  0.73096043  1
  O2-  O132  1  0.00547088  0.25749595  0.26817309  1
  O2-  O133  1  0.00084104  0.25174787  0.61201772  1
  O2-  O134  1  -0.00337933  0.25122836  0.93981793  1
  O2-  O135  1  0.00376864  0.74472202  0.27161158  1
  O2-  O136  1  0.00461006  0.74625823  0.60562008  1
  O2-  O137  1  0.00953363  0.74842790  0.93903254  1
  O2-  O138  1  0.49548787  0.24406782  0.26781878  1
  O2-  O139  1  0.49507978  0.25359188  0.60730231  1
  O2-  O140  1  0.50281915  0.24278865  0.93755817  1
  O2-  O141  1  0.49842864  0.74986553  0.27670886  1
  O2-  O142  1  0.49996449  0.74238289  0.60434966  1
  O2-  O143  1  0.49264868  0.75258313  0.94097565  1
  O2-  O144  1  0.06820418  0.18208599  0.08709376  1
  O2-  O145  1  0.06597294  0.17805584  0.43222510  1
  O2-  O146  1  0.07058288  0.18145278  0.75880682  1
  O2-  O147  1  0.07066135  0.67321244  0.08976237  1
  O2-  O148  1  0.07389315  0.67802993  0.42190112  1
  O2-  O149  1  0.07048671  0.67070202  0.75433710  1
  O2-  O150  1  0.57372616  0.17848972  0.08739649  1
  O2-  O151  1  0.57596498  0.17908914  0.42933049  1
  O2-  O152  1  0.57164647  0.17999860  0.76741534  1
  O2-  O153  1  0.56958896  0.68116744  0.09959174  1
  O2-  O154  1  0.57156265  0.68168656  0.42513556  1
  O2-  O155  1  0.57297608  0.68003277  0.75388796  1
  O2-  O156  1  0.17568834  0.42969523  0.24530679  1
  O2-  O157  1  0.17429828  0.42690974  0.57566482  1
  O2-  O158  1  0.17972056  0.43153766  0.90031976  1
  O2-  O159  1  0.17892015  0.93169100  0.23608714  1
  O2-  O160  1  0.17489464  0.93362150  0.56845309  1
  O2-  O161  1  0.17670807  0.93089386  0.90334493  1
  O2-  O162  1  0.68021845  0.43382140  0.24114814  1
  O2-  O163  1  0.68292455  0.42526411  0.56832748  1
  O2-  O164  1  0.67994928  0.42582316  0.91398299  1
  O2-  O165  1  0.67968868  0.92098101  0.24506779  1
  O2-  O166  1  0.67768393  0.92815768  0.57363036  1
  O2-  O167  1  0.68263985  0.93123068  0.89897616  1
  O2-  O168  1  0.43043944  0.32008250  0.09633912  1
  O2-  O169  1  0.43760669  0.32602645  0.43272404  1
  O2-  O170  1  0.42490860  0.32140091  0.75549337  1
  O2-  O171  1  0.42821084  0.82010135  0.09256268  1
  O2-  O172  1  0.42657763  0.81865554  0.42393365  1
  O2-  O173  1  0.43134397  0.81944948  0.76733051  1
  O2-  O174  1  0.92953643  0.32274804  0.08880605  1
  O2-  O175  1  0.92643512  0.32092534  0.43320233  1
  O2-  O176  1  0.93236391  0.32132115  0.76107198  1
  O2-  O177  1  0.93019840  0.81789840  0.09827326  1
  O2-  O178  1  0.92751717  0.81894374  0.43161920  1
  O2-  O179  1  0.92954372  0.82116162  0.76512195  1
  O2-  O180  1  0.32431805  0.06922027  0.24544549  1
  O2-  O181  1  0.32125447  0.07213488  0.56528863  1
  O2-  O182  1  0.32113690  0.06997730  0.90264125  1
  O2-  O183  1  0.32286633  0.56880952  0.23311361  1
  O2-  O184  1  0.31974551  0.56911996  0.56845057  1
  O2-  O185  1  0.32327324  0.57075213  0.90989065  1
  O2-  O186  1  0.81626558  0.06830404  0.24064811  1
  O2-  O187  1  0.82101153  0.07240175  0.56447469  1
  O2-  O188  1  0.82268207  0.07668563  0.91311033  1
  O2-  O189  1  0.81811801  0.57626947  0.24353516  1
  O2-  O190  1  0.82114851  0.56923418  0.56656917  1
  O2-  O191  1  0.81755170  0.57019793  0.90252373  1
  O2-  O192  1  0.03333237  0.08525773  0.26108069  1
  O2-  O193  1  0.03972240  0.08907378  0.60626091  1
  O2-  O194  1  0.04145204  0.09021113  0.93379992  1
  O2-  O195  1  0.05232395  0.58413008  0.27075834  1
  O2-  O196  1  0.04413711  0.58277550  0.59961741  1
  O2-  O197  1  0.04378045  0.58287172  0.93787582  1
  O2-  O198  1  0.54949236  0.07413636  0.26562636  1
  O2-  O199  1  0.54462189  0.08379787  0.59637996  1
  O2-  O200  1  0.55015679  0.08026171  0.93942259  1
  O2-  O201  1  0.54420332  0.58879687  0.27222223  1
  O2-  O202  1  0.54816265  0.58040039  0.60631038  1
  O2-  O203  1  0.54559703  0.58381151  0.92921663  1
  O2-  O204  1  0.17105162  0.19948592  0.26505286  1
  O2-  O205  1  0.16228014  0.20568413  0.60408476  1
  O2-  O206  1  0.16023894  0.21223849  0.93521225  1
  O2-  O207  1  0.16780792  0.70570034  0.27040177  1
  O2-  O208  1  0.16642936  0.69850214  0.60428467  1
  O2-  O209  1  0.16969741  0.69544427  0.94067772  1
  O2-  O210  1  0.66745990  0.20669906  0.25876925  1
  O2-  O211  1  0.66812327  0.21356734  0.60150068  1
  O2-  O212  1  0.66730090  0.20317184  0.93714641  1
  O2-  O213  1  0.66084593  0.71052735  0.27148030  1
  O2-  O214  1  0.66368944  0.70331839  0.59937653  1
  O2-  O215  1  0.66488672  0.71613738  0.93099170  1
  O2-  O216  1  0.08483546  0.45971410  0.07135815  1
  O2-  O217  1  0.08456231  0.45516311  0.39827108  1
  O2-  O218  1  0.08499378  0.45443201  0.72935300  1
  O2-  O219  1  0.07973262  0.96285942  0.06810481  1
  O2-  O220  1  0.07880403  0.96429496  0.39916642  1
  O2-  O221  1  0.08177349  0.96317375  0.73665691  1
  O2-  O222  1  0.58309326  0.45587687  0.06229327  1
  O2-  O223  1  0.59396562  0.46228853  0.39677698  1
  O2-  O224  1  0.58022198  0.45023186  0.73621855  1
  O2-  O225  1  0.58640316  0.95663110  0.07095033  1
  O2-  O226  1  0.58257374  0.94773462  0.39475976  1
  O2-  O227  1  0.58440962  0.95451063  0.72559919  1
  O2-  O228  1  0.21007153  0.33449750  0.06827008  1
  O2-  O229  1  0.19752034  0.32991788  0.39389648  1
  O2-  O230  1  0.20059778  0.33306977  0.72774994  1
  O2-  O231  1  0.19971883  0.82732253  0.06934665  1
  O2-  O232  1  0.20671527  0.83524107  0.40301890  1
  O2-  O233  1  0.19883769  0.82870931  0.73268161  1
  O2-  O234  1  0.70161028  0.33297451  0.06510747  1
  O2-  O235  1  0.70728626  0.33505914  0.38996788  1
  O2-  O236  1  0.71191177  0.33275743  0.74064484  1
  O2-  O237  1  0.71474222  0.83512118  0.06826458  1
  O2-  O238  1  0.70959769  0.83647216  0.39987100  1
  O2-  O239  1  0.70036768  0.83286769  0.72402948  1
  O2-  O240  1  0.46672053  0.41870858  0.26471717  1
  O2-  O241  1  0.45374761  0.41776963  0.60698131  1
  O2-  O242  1  0.45955689  0.41409359  0.92767069  1
  O2-  O243  1  0.45191610  0.91066878  0.27069690  1
  O2-  O244  1  0.46001319  0.91326712  0.59515846  1
  O2-  O245  1  0.45621791  0.91664786  0.94314631  1
  O2-  O246  1  0.95179496  0.42571524  0.26898534  1
  O2-  O247  1  0.95571071  0.41331649  0.60709944  1
  O2-  O248  1  0.95889690  0.41559984  0.93848996  1
  O2-  O249  1  0.95696585  0.91518979  0.26350048  1
  O2-  O250  1  0.96072593  0.91866958  0.59895149  1
  O2-  O251  1  0.95703947  0.92021383  0.93351545  1
  O2-  O252  1  0.32985198  0.30271069  0.26854404  1
  O2-  O253  1  0.33216431  0.30092884  0.60292290  1
  O2-  O254  1  0.33056794  0.28982600  0.93027773  1
  O2-  O255  1  0.33444746  0.78911555  0.27251190  1
  O2-  O256  1  0.32988341  0.78809369  0.60159131  1
  O2-  O257  1  0.33154763  0.80051611  0.94186950  1
  O2-  O258  1  0.83395209  0.29311525  0.26098253  1
  O2-  O259  1  0.83812481  0.29199757  0.60989853  1
  O2-  O260  1  0.83476543  0.29817027  0.93821795  1
  O2-  O261  1  0.83195434  0.78602869  0.26565730  1
  O2-  O262  1  0.83260914  0.79203034  0.59616511  1
  O2-  O263  1  0.83608878  0.78659815  0.93177018  1
  O2-  O264  1  0.42060165  0.04832558  0.07086095  1
  O2-  O265  1  0.41796414  0.04407984  0.39503396  1
  O2-  O266  1  0.42263085  0.04365252  0.73018244  1
  O2-  O267  1  0.41948605  0.54325634  0.05856912  1
  O2-  O268  1  0.41976336  0.54006174  0.40157348  1
  O2-  O269  1  0.41760088  0.54458211  0.73693023  1
  O2-  O270  1  0.91719138  0.05112525  0.06338461  1
  O2-  O271  1  0.90785846  0.04009576  0.39270225  1
  O2-  O272  1  0.91517621  0.04092556  0.73544288  1
  O2-  O273  1  0.91478471  0.54133806  0.07088420  1
  O2-  O274  1  0.91715625  0.55498446  0.39338898  1
  O2-  O275  1  0.91923125  0.54363020  0.73453608  1
  O2-  O276  1  0.28773035  0.16792680  0.06832374  1
  O2-  O277  1  0.30290903  0.16896743  0.39343867  1
  O2-  O278  1  0.29404923  0.17009871  0.73142906  1
  O2-  O279  1  0.30268340  0.66540745  0.06208550  1
  O2-  O280  1  0.28877254  0.66356702  0.40250496  1
  O2-  O281  1  0.28867850  0.66475005  0.73882863  1
  O2-  O282  1  0.79711287  0.16922619  0.06515855  1
  O2-  O283  1  0.79180818  0.16427074  0.39082473  1
  O2-  O284  1  0.79035592  0.16435781  0.73666984  1
  O2-  O285  1  0.78433959  0.66587870  0.06950669  1
  O2-  O286  1  0.78623931  0.66190192  0.39779411  1
  O2-  O287  1  0.79260171  0.67194404  0.73169711  1
