# generated using pymatgen
data_Ca2Al2SiO7
_symmetry_space_group_name_H-M   'P 1'
_cell_length_a   15.46407896
_cell_length_b   15.46589710
_cell_length_c   15.28938148
_cell_angle_alpha   89.98771158
_cell_angle_beta   89.99025591
_cell_angle_gamma   89.99656645
_symmetry_Int_Tables_number   1
_chemical_formula_structural   Ca2Al2SiO7
_chemical_formula_sum   'Ca48 Al48 Si24 O168'
_cell_volume   3656.69783639
_cell_formula_units_Z   24
loop_
 _symmetry_equiv_pos_site_id
 _symmetry_equiv_pos_as_xyz
  1  'x, y, z'
loop_
 _atom_type_symbol
 _atom_type_oxidation_number
  Ca2+  2.0
  Al0+  0.0
  Si0+  0.0
  O2-  -2.0
loop_
 _atom_site_type_symbol
 _atom_site_label
 _atom_site_symmetry_multiplicity
 _atom_site_fract_x
 _atom_site_fract_y
 _atom_site_fract_z
 _atom_site_occupancy
  Ca2+  Ca0  1  0.17201151  0.07856068  0.17634017  1
  Ca2+  Ca1  1  0.17078845  0.06831072  0.50057235  1
  Ca2+  Ca2  1  0.16483738  0.07592105  0.83779202  1
  Ca2+  Ca3  1  0.16929489  0.57718617  0.17997308  1
  Ca2+  Ca4  1  0.17164526  0.58577480  0.50390027  1
  Ca2+  Ca5  1  0.16889764  0.58702627  0.82996132  1
  Ca2+  Ca6  1  0.67456205  0.09038260  0.17257550  1
  Ca2+  Ca7  1  0.66971368  0.08170232  0.49793965  1
  Ca2+  Ca8  1  0.67220168  0.08017725  0.84328109  1
  Ca2+  Ca9  1  0.67720765  0.59231321  0.16822705  1
  Ca2+  Ca10  1  0.67323892  0.59570622  0.50198910  1
  Ca2+  Ca11  1  0.66955564  0.59022024  0.84199672  1
  Ca2+  Ca12  1  0.08088901  0.32755265  0.15879059  1
  Ca2+  Ca13  1  0.08931666  0.33713177  0.49603916  1
  Ca2+  Ca14  1  0.08207965  0.33041493  0.83254208  1
  Ca2+  Ca15  1  0.08276866  0.83151422  0.17167429  1
  Ca2+  Ca16  1  0.08436848  0.82731077  0.49404693  1
  Ca2+  Ca17  1  0.07638603  0.82827522  0.82107764  1
  Ca2+  Ca18  1  0.58550169  0.32248005  0.16497567  1
  Ca2+  Ca19  1  0.58074964  0.32616674  0.49264268  1
  Ca2+  Ca20  1  0.58758404  0.32618904  0.83337242  1
  Ca2+  Ca21  1  0.56863000  0.83104814  0.16065704  1
  Ca2+  Ca22  1  0.57027626  0.82896842  0.49782129  1
  Ca2+  Ca23  1  0.57446484  0.82344365  0.82853722  1
  Ca2+  Ca24  1  0.32602530  0.42347529  0.17808712  1
  Ca2+  Ca25  1  0.32174506  0.42784314  0.50516394  1
  Ca2+  Ca26  1  0.32954759  0.42314298  0.83231947  1
  Ca2+  Ca27  1  0.33037256  0.91653548  0.17684746  1
  Ca2+  Ca28  1  0.32574203  0.90762072  0.50053176  1
  Ca2+  Ca29  1  0.32840855  0.90270258  0.83153985  1
  Ca2+  Ca30  1  0.83779132  0.42690545  0.16882588  1
  Ca2+  Ca31  1  0.83372124  0.42647017  0.49872096  1
  Ca2+  Ca32  1  0.83411950  0.42450532  0.84310804  1
  Ca2+  Ca33  1  0.83472806  0.92850863  0.17597066  1
  Ca2+  Ca34  1  0.84390589  0.91890326  0.50182747  1
  Ca2+  Ca35  1  0.83297571  0.91864232  0.84050121  1
  Ca2+  Ca36  1  0.42818772  0.15801318  0.16462508  1
  Ca2+  Ca37  1  0.42024295  0.16405716  0.48952977  1
  Ca2+  Ca38  1  0.42276141  0.16610201  0.83167120  1
  Ca2+  Ca39  1  0.41272553  0.67683530  0.16186671  1
  Ca2+  Ca40  1  0.40982342  0.67056266  0.49519463  1
  Ca2+  Ca41  1  0.42325351  0.67232873  0.82446919  1
  Ca2+  Ca42  1  0.91922749  0.17011677  0.15729174  1
  Ca2+  Ca43  1  0.91805267  0.16868282  0.49265721  1
  Ca2+  Ca44  1  0.91774276  0.16935815  0.83714432  1
  Ca2+  Ca45  1  0.91889650  0.66482978  0.16733197  1
  Ca2+  Ca46  1  0.92783984  0.67612545  0.49146035  1
  Ca2+  Ca47  1  0.92024668  0.67039959  0.82302410  1
  Al0+  Al48  1  0.00053316  -0.00036129  0.00127855  1
  Al0+  Al49  1  0.00029798  0.00171913  0.33752795  1
  Al0+  Al50  1  0.00191217  0.00461035  0.66957712  1
  Al0+  Al51  1  -0.00046586  0.49944446  0.00001594  1
  Al0+  Al52  1  -0.00298857  0.50022950  0.33760050  1
  Al0+  Al53  1  -0.00180221  0.49834831  0.66740761  1
  Al0+  Al54  1  0.49746726  -0.00049533  -0.01039815  1
  Al0+  Al55  1  0.50333102  -0.00038677  0.32757390  1
  Al0+  Al56  1  0.50322526  -0.00071330  0.66431039  1
  Al0+  Al57  1  0.49994976  0.49932542  -0.00003475  1
  Al0+  Al58  1  0.50105376  0.49780773  0.33460599  1
  Al0+  Al59  1  0.50208697  0.49638523  0.66708796  1
  Al0+  Al60  1  0.25008619  0.24810724  -0.00370734  1
  Al0+  Al61  1  0.25111058  0.24992605  0.33931204  1
  Al0+  Al62  1  0.25077540  0.25013249  0.67116477  1
  Al0+  Al63  1  0.24738458  0.74952359  -0.00178484  1
  Al0+  Al64  1  0.24864825  0.74878651  0.32992709  1
  Al0+  Al65  1  0.24944075  0.74974297  0.67027461  1
  Al0+  Al66  1  0.75025644  0.25147430  -0.00447239  1
  Al0+  Al67  1  0.75063755  0.24969924  0.33476010  1
  Al0+  Al68  1  0.75169693  0.25100270  0.66684843  1
  Al0+  Al69  1  0.74879269  0.75163080  0.00403051  1
  Al0+  Al70  1  0.74962137  0.75302351  0.33434208  1
  Al0+  Al71  1  0.74865482  0.75388712  0.66161265  1
  Al0+  Al72  1  0.92837989  0.82402255  0.31654268  1
  Al0+  Al73  1  0.57100368  0.18003563  0.98501134  1
  Al0+  Al74  1  0.32225452  0.57123863  0.68357052  1
  Al0+  Al75  1  0.17660128  0.42791656  0.68574483  1
  Al0+  Al76  1  0.57158209  0.67518566  0.65075235  1
  Al0+  Al77  1  0.17674422  0.42774924  0.34652140  1
  Al0+  Al78  1  0.82120539  0.57260337  0.01315409  1
  Al0+  Al79  1  0.17970060  0.93005034  0.68180270  1
  Al0+  Al80  1  0.57096374  0.17929398  0.31988507  1
  Al0+  Al81  1  0.32526304  0.07010518  0.34596319  1
  Al0+  Al82  1  0.07238796  0.17680145  0.98501817  1
  Al0+  Al83  1  0.06948121  0.67792093  0.31700496  1
  Al0+  Al84  1  0.93005446  0.32226651  0.98509803  1
  Al0+  Al85  1  0.17966485  0.92907634  0.34732197  1
  Al0+  Al86  1  0.92879498  0.82507136  0.65328656  1
  Al0+  Al87  1  0.81905398  0.57362190  0.34870777  1
  Al0+  Al88  1  0.06955816  0.67763147  0.65202254  1
  Al0+  Al89  1  0.32204487  0.57138379  0.34611918  1
  Al0+  Al90  1  0.57175838  0.67897758  0.98717911  1
  Al0+  Al91  1  0.42905664  0.81945870  0.64950516  1
  Al0+  Al92  1  0.81985932  0.07052236  0.01359904  1
  Al0+  Al93  1  0.82080138  0.07162391  0.34774532  1
  Al0+  Al94  1  0.42545080  0.82039006  0.98268982  1
  Al0+  Al95  1  0.42889580  0.81835330  0.31912787  1
  Si0+  Si96  1  0.17898527  0.92818430  0.01562947  1
  Si0+  Si97  1  0.92834922  0.31947045  0.64995679  1
  Si0+  Si98  1  0.42722374  0.32158345  0.31712563  1
  Si0+  Si99  1  0.67969192  0.42714295  0.34997531  1
  Si0+  Si100  1  0.67655283  0.42774148  0.01716298  1
  Si0+  Si101  1  0.67910824  0.93066052  0.68290343  1
  Si0+  Si102  1  0.42669350  0.32277923  0.98277105  1
  Si0+  Si103  1  0.68010377  0.42528649  0.68249743  1
  Si0+  Si104  1  0.06892029  0.67794269  0.98531413  1
  Si0+  Si105  1  0.92837827  0.32060128  0.31938452  1
  Si0+  Si106  1  0.32119778  0.07175382  0.01334284  1
  Si0+  Si107  1  0.57261584  0.17980206  0.65087553  1
  Si0+  Si108  1  0.67564122  0.92947357  0.01682590  1
  Si0+  Si109  1  0.07216355  0.18040148  0.32092976  1
  Si0+  Si110  1  0.67784949  0.92875700  0.35057285  1
  Si0+  Si111  1  0.82109824  0.07340516  0.68347137  1
  Si0+  Si112  1  0.07290446  0.18077366  0.65033371  1
  Si0+  Si113  1  0.32026791  0.57072121  0.01464387  1
  Si0+  Si114  1  0.17988630  0.42796651  0.01437344  1
  Si0+  Si115  1  0.92921632  0.82160930  0.98783786  1
  Si0+  Si116  1  0.81695783  0.57135341  0.68028639  1
  Si0+  Si117  1  0.32489767  0.07155382  0.68434880  1
  Si0+  Si118  1  0.42837579  0.31915395  0.65117756  1
  Si0+  Si119  1  0.57299595  0.67524811  0.31623274  1
  O2-  O120  1  0.25129109  -0.00046607  0.05512177  1
  O2-  O121  1  0.25584641  -0.00280850  0.39729485  1
  O2-  O122  1  0.25805346  0.00160693  0.72942652  1
  O2-  O123  1  0.25110001  0.49796400  0.05675768  1
  O2-  O124  1  0.24751642  0.50135211  0.39514266  1
  O2-  O125  1  0.24732414  0.50171178  0.73492599  1
  O2-  O126  1  0.74270692  -0.00055540  0.06181894  1
  O2-  O127  1  0.75068292  -0.00651031  0.39554935  1
  O2-  O128  1  0.75370373  -0.00116206  0.72466776  1
  O2-  O129  1  0.74381790  0.49901809  0.05914554  1
  O2-  O130  1  0.74088465  0.50185155  0.39540949  1
  O2-  O131  1  0.74373689  0.50310910  0.72375265  1
  O2-  O132  1  0.00327936  0.25332755  0.27860466  1
  O2-  O133  1  0.00307826  0.25287890  0.60759362  1
  O2-  O134  1  0.00074540  0.24919049  0.93425076  1
  O2-  O135  1  -0.00270422  0.74964100  0.26549324  1
  O2-  O136  1  0.00071325  0.75347006  0.60363099  1
  O2-  O137  1  -0.00411886  0.74745686  0.94462360  1
  O2-  O138  1  0.49373387  0.25103306  0.27240668  1
  O2-  O139  1  0.49846222  0.24687042  0.60875180  1
  O2-  O140  1  0.49657777  0.25501666  0.93791417  1
  O2-  O141  1  0.50054432  0.74000062  0.27272458  1
  O2-  O142  1  0.49487382  0.74132880  0.60007655  1
  O2-  O143  1  0.49823073  0.74770169  0.93572379  1
  O2-  O144  1  0.07374479  0.17862466  0.09885752  1
  O2-  O145  1  0.06976184  0.18096101  0.42630607  1
  O2-  O146  1  0.07026198  0.17957790  0.75532683  1
  O2-  O147  1  0.07089474  0.67710934  0.08994144  1
  O2-  O148  1  0.06910333  0.67744928  0.43008598  1
  O2-  O149  1  0.06446078  0.67829101  0.76677648  1
  O2-  O150  1  0.57077898  0.18132056  0.09778321  1
  O2-  O151  1  0.57270796  0.18307206  0.43345099  1
  O2-  O152  1  0.57400421  0.18202806  0.75601944  1
  O2-  O153  1  0.57072140  0.68131955  0.10061053  1
  O2-  O154  1  0.57315125  0.67752070  0.42168291  1
  O2-  O155  1  0.57469048  0.67916084  0.76428091  1
  O2-  O156  1  0.17890790  0.42578842  0.23206937  1
  O2-  O157  1  0.17983965  0.42489418  0.57293174  1
  O2-  O158  1  0.18030826  0.42875543  0.90963019  1
  O2-  O159  1  0.17902266  0.93308482  0.23313918  1
  O2-  O160  1  0.17725646  0.93317855  0.56946428  1
  O2-  O161  1  0.17799817  0.92796108  0.91052277  1
  O2-  O162  1  0.68310565  0.42291706  0.24471202  1
  O2-  O163  1  0.68514899  0.41601147  0.57816820  1
  O2-  O164  1  0.67748880  0.42681568  0.91119357  1
  O2-  O165  1  0.67701500  0.93172702  0.24498936  1
  O2-  O166  1  0.67555979  0.93429515  0.57826595  1
  O2-  O167  1  0.67969504  0.92996447  0.91078180  1
  O2-  O168  1  0.42527669  0.32211597  0.08809837  1
  O2-  O169  1  0.43019644  0.32110831  0.42277409  1
  O2-  O170  1  0.43026631  0.31731143  0.75656061  1
  O2-  O171  1  0.42403470  0.82040591  0.09637195  1
  O2-  O172  1  0.43058695  0.81971599  0.43168696  1
  O2-  O173  1  0.43389091  0.82070553  0.76296074  1
  O2-  O174  1  0.93317880  0.32315054  0.09886898  1
  O2-  O175  1  0.92534313  0.31806037  0.42491013  1
  O2-  O176  1  0.92436088  0.31714494  0.75461620  1
  O2-  O177  1  0.93179338  0.82375205  0.09231021  1
  O2-  O178  1  0.93141900  0.82343136  0.42982067  1
  O2-  O179  1  0.92718099  0.82211864  0.76796820  1
  O2-  O180  1  0.32271453  0.07014350  0.23179177  1
  O2-  O181  1  0.32405772  0.07419455  0.57913647  1
  O2-  O182  1  0.32005160  0.07455359  0.90832218  1
  O2-  O183  1  0.32152167  0.56798584  0.23154102  1
  O2-  O184  1  0.32306802  0.56762306  0.57048294  1
  O2-  O185  1  0.31931559  0.57005803  0.90989672  1
  O2-  O186  1  0.81918839  0.07500091  0.23474276  1
  O2-  O187  1  0.81874609  0.07731982  0.57851933  1
  O2-  O188  1  0.81923247  0.06699173  0.89992688  1
  O2-  O189  1  0.81936585  0.56982710  0.23545694  1
  O2-  O190  1  0.81617650  0.56780166  0.57541846  1
  O2-  O191  1  0.82139811  0.57181979  0.89953019  1
  O2-  O192  1  0.04254115  0.08993208  0.27327116  1
  O2-  O193  1  0.04198889  0.09060393  0.60248389  1
  O2-  O194  1  0.04139530  0.07909198  0.93144581  1
  O2-  O195  1  0.03818322  0.57857766  0.26564878  1
  O2-  O196  1  0.03888647  0.57923198  0.60099228  1
  O2-  O197  1  0.04314463  0.58626657  0.93758668  1
  O2-  O198  1  0.54538168  0.08379272  0.26205997  1
  O2-  O199  1  0.54931497  0.08722574  0.60409047  1
  O2-  O200  1  0.54014541  0.08523973  0.92760095  1
  O2-  O201  1  0.55508996  0.57859385  0.27308387  1
  O2-  O202  1  0.55616909  0.57184555  0.60270206  1
  O2-  O203  1  0.54923846  0.57781874  0.93679954  1
  O2-  O204  1  0.16508220  0.20594521  0.27420520  1
  O2-  O205  1  0.16598432  0.20672157  0.60530924  1
  O2-  O206  1  0.17004124  0.20465191  0.92997376  1
  O2-  O207  1  0.16705277  0.70556879  0.26182348  1
  O2-  O208  1  0.16982886  0.70270466  0.60425727  1
  O2-  O209  1  0.15921744  0.70835964  0.93687876  1
  O2-  O210  1  0.66643018  0.21581694  0.26650501  1
  O2-  O211  1  0.66344184  0.21243639  0.60422985  1
  O2-  O212  1  0.66615267  0.21151119  0.92854337  1
  O2-  O213  1  0.66554690  0.70541075  0.27090613  1
  O2-  O214  1  0.66668369  0.71225004  0.59653445  1
  O2-  O215  1  0.67038657  0.70958569  0.93445040  1
  O2-  O216  1  0.08814602  0.45601723  0.06106835  1
  O2-  O217  1  0.07744125  0.45054141  0.39895079  1
  O2-  O218  1  0.07583207  0.45277961  0.73659088  1
  O2-  O219  1  0.08804854  0.95673572  0.06355585  1
  O2-  O220  1  0.08431251  0.96271005  0.40241676  1
  O2-  O221  1  0.08460255  0.96640742  0.73790493  1
  O2-  O222  1  0.58169967  0.44805046  0.06350715  1
  O2-  O223  1  0.58364384  0.44393334  0.39424653  1
  O2-  O224  1  0.58600588  0.44284825  0.72883860  1
  O2-  O225  1  0.57973005  0.95483592  0.05748488  1
  O2-  O226  1  0.58746297  0.96178527  0.39826705  1
  O2-  O227  1  0.58971201  0.96283378  0.73310959  1
  O2-  O228  1  0.20713590  0.33488768  0.05992222  1
  O2-  O229  1  0.20652804  0.33126300  0.40256519  1
  O2-  O230  1  0.20911571  0.32991749  0.73937599  1
  O2-  O231  1  0.20607032  0.83593038  0.06279260  1
  O2-  O232  1  0.20528299  0.82971480  0.39733207  1
  O2-  O233  1  0.20561493  0.83313531  0.73766571  1
  O2-  O234  1  0.70517831  0.33487520  0.06270470  1
  O2-  O235  1  0.71290534  0.33742755  0.39998241  1
  O2-  O236  1  0.71565660  0.33704019  0.73408919  1
  O2-  O237  1  0.70084140  0.83712999  0.06461189  1
  O2-  O238  1  0.69714670  0.83436292  0.39674174  1
  O2-  O239  1  0.70552833  0.83838717  0.73034672  1
  O2-  O240  1  0.45546057  0.41378896  0.26891380  1
  O2-  O241  1  0.45849660  0.40919265  0.60300670  1
  O2-  O242  1  0.45194834  0.41611699  0.93610414  1
  O2-  O243  1  0.46398865  0.91351444  0.26404462  1
  O2-  O244  1  0.46384921  0.91745400  0.59840578  1
  O2-  O245  1  0.45092391  0.91817872  0.92771026  1
  O2-  O246  1  0.95126517  0.41365245  0.27340325  1
  O2-  O247  1  0.95133870  0.41253540  0.60353354  1
  O2-  O248  1  0.96013375  0.41955664  0.93005350  1
  O2-  O249  1  0.95914375  0.92340520  0.26563908  1
  O2-  O250  1  0.95501840  0.92598107  0.60491437  1
  O2-  O251  1  0.95973059  0.91143194  0.93820098  1
  O2-  O252  1  0.33260355  0.29816455  0.27234524  1
  O2-  O253  1  0.33613932  0.29186884  0.60510411  1
  O2-  O254  1  0.33495768  0.29477745  0.93427632  1
  O2-  O255  1  0.33233597  0.79130211  0.26337908  1
  O2-  O256  1  0.32759650  0.79743733  0.60256120  1
  O2-  O257  1  0.32729404  0.78910080  0.93061096  1
  O2-  O258  1  0.83890628  0.28837535  0.27091952  1
  O2-  O259  1  0.83870565  0.28629217  0.60070017  1
  O2-  O260  1  0.83182557  0.29635063  0.93062344  1
  O2-  O261  1  0.82740699  0.79999501  0.26660260  1
  O2-  O262  1  0.83026030  0.80061216  0.60036745  1
  O2-  O263  1  0.83522929  0.79865968  0.94281366  1
  O2-  O264  1  0.41471130  0.04473753  0.05757782  1
  O2-  O265  1  0.42594868  0.04696720  0.39583543  1
  O2-  O266  1  0.42070515  0.04871156  0.72805493  1
  O2-  O267  1  0.41297655  0.54515997  0.06117179  1
  O2-  O268  1  0.42076133  0.54281102  0.39858074  1
  O2-  O269  1  0.42082800  0.53693002  0.73541699  1
  O2-  O270  1  0.91665893  0.03924902  0.06684647  1
  O2-  O271  1  0.91740476  0.04546815  0.40345744  1
  O2-  O272  1  0.91418375  0.05149755  0.73040026  1
  O2-  O273  1  0.91689225  0.53832086  0.06775004  1
  O2-  O274  1  0.91231136  0.53771743  0.40487942  1
  O2-  O275  1  0.90745432  0.54005885  0.72798401  1
  O2-  O276  1  0.29440488  0.16356638  0.06164050  1
  O2-  O277  1  0.29712317  0.16755583  0.40074006  1
  O2-  O278  1  0.29778009  0.16421612  0.73200734  1
  O2-  O279  1  0.28857570  0.66184401  0.06103704  1
  O2-  O280  1  0.29389726  0.66939802  0.39744239  1
  O2-  O281  1  0.29555229  0.66934342  0.73790866  1
  O2-  O282  1  0.79175442  0.16976171  0.06332333  1
  O2-  O283  1  0.78598089  0.16636836  0.40398723  1
  O2-  O284  1  0.78755891  0.16336362  0.73179079  1
  O2-  O285  1  0.79230389  0.66901776  0.06901586  1
  O2-  O286  1  0.79092600  0.67098359  0.40224831  1
  O2-  O287  1  0.79230830  0.66531714  0.72506084  1
