# generated using pymatgen
data_Ca2Al2SiO7
_symmetry_space_group_name_H-M   'P 1'
_cell_length_a   15.45293805
_cell_length_b   15.45340950
_cell_length_c   15.28007343
_cell_angle_alpha   90.00198297
_cell_angle_beta   89.99927158
_cell_angle_gamma   89.99833362
_symmetry_Int_Tables_number   1
_chemical_formula_structural   Ca2Al2SiO7
_chemical_formula_sum   'Ca48 Al48 Si24 O168'
_cell_volume   3648.89038803
_cell_formula_units_Z   24
loop_
 _symmetry_equiv_pos_site_id
 _symmetry_equiv_pos_as_xyz
  1  'x, y, z'
loop_
 _atom_type_symbol
 _atom_type_oxidation_number
  Ca2+  2.0
  Al0+  0.0
  Si0+  0.0
  O2-  -2.0
loop_
 _atom_site_type_symbol
 _atom_site_label
 _atom_site_symmetry_multiplicity
 _atom_site_fract_x
 _atom_site_fract_y
 _atom_site_fract_z
 _atom_site_occupancy
  Ca2+  Ca0  1  0.17195950  0.07773563  0.17255917  1
  Ca2+  Ca1  1  0.17163001  0.07602025  0.50457264  1
  Ca2+  Ca2  1  0.15758356  0.07479274  0.83638839  1
  Ca2+  Ca3  1  0.17361972  0.57355193  0.17797826  1
  Ca2+  Ca4  1  0.17272851  0.57953860  0.49651736  1
  Ca2+  Ca5  1  0.16848385  0.58169052  0.83758911  1
  Ca2+  Ca6  1  0.66130624  0.07944500  0.16912880  1
  Ca2+  Ca7  1  0.66920887  0.08554423  0.50673905  1
  Ca2+  Ca8  1  0.67083578  0.08341470  0.83600758  1
  Ca2+  Ca9  1  0.67575061  0.57757192  0.16820758  1
  Ca2+  Ca10  1  0.67424770  0.58874722  0.50575852  1
  Ca2+  Ca11  1  0.67561184  0.58436968  0.84055545  1
  Ca2+  Ca12  1  0.08294107  0.32958622  0.15702215  1
  Ca2+  Ca13  1  0.08580838  0.32930972  0.49663529  1
  Ca2+  Ca14  1  0.07744414  0.32014202  0.83129016  1
  Ca2+  Ca15  1  0.08102372  0.83878597  0.16473607  1
  Ca2+  Ca16  1  0.07442739  0.84293249  0.49635255  1
  Ca2+  Ca17  1  0.07972731  0.83689535  0.82658768  1
  Ca2+  Ca18  1  0.57549529  0.33261335  0.16263367  1
  Ca2+  Ca19  1  0.58155830  0.31954128  0.49182581  1
  Ca2+  Ca20  1  0.58183961  0.33553302  0.83080458  1
  Ca2+  Ca21  1  0.56915066  0.83692254  0.16117833  1
  Ca2+  Ca22  1  0.57988677  0.82570372  0.49325035  1
  Ca2+  Ca23  1  0.58186685  0.83291203  0.83145756  1
  Ca2+  Ca24  1  0.33173355  0.41535850  0.17751759  1
  Ca2+  Ca25  1  0.33359507  0.41299060  0.49472589  1
  Ca2+  Ca26  1  0.33698996  0.41702135  0.83868731  1
  Ca2+  Ca27  1  0.32484920  0.91663219  0.17708856  1
  Ca2+  Ca28  1  0.32572199  0.91536247  0.49945821  1
  Ca2+  Ca29  1  0.32273749  0.91658114  0.84203648  1
  Ca2+  Ca30  1  0.83573748  0.42373002  0.16963055  1
  Ca2+  Ca31  1  0.83460263  0.43126696  0.50626572  1
  Ca2+  Ca32  1  0.82869411  0.42616046  0.84474346  1
  Ca2+  Ca33  1  0.82592926  0.91389820  0.16973289  1
  Ca2+  Ca34  1  0.83704250  0.91873177  0.50761835  1
  Ca2+  Ca35  1  0.83045022  0.92053658  0.83474828  1
  Ca2+  Ca36  1  0.41429545  0.17351474  0.16641120  1
  Ca2+  Ca37  1  0.42718213  0.16432996  0.48900918  1
  Ca2+  Ca38  1  0.42358240  0.17326765  0.82967612  1
  Ca2+  Ca39  1  0.40651778  0.67721180  0.16355689  1
  Ca2+  Ca40  1  0.42025931  0.66915699  0.49325431  1
  Ca2+  Ca41  1  0.42466939  0.67427283  0.82865776  1
  Ca2+  Ca42  1  0.92705774  0.17532236  0.15620935  1
  Ca2+  Ca43  1  0.92367441  0.15889740  0.49877223  1
  Ca2+  Ca44  1  0.92316890  0.16397699  0.82854503  1
  Ca2+  Ca45  1  0.91303740  0.66634816  0.16683648  1
  Ca2+  Ca46  1  0.91049740  0.67712887  0.49465883  1
  Ca2+  Ca47  1  0.91067922  0.67112863  0.82696749  1
  Al0+  Al48  1  -0.00020526  -0.00183933  0.00193894  1
  Al0+  Al49  1  -0.00197334  -0.00055048  0.32843849  1
  Al0+  Al50  1  -0.00057065  0.00040496  0.66701925  1
  Al0+  Al51  1  0.00186005  0.50081924  -0.00086339  1
  Al0+  Al52  1  -0.00028023  0.50095264  0.34311752  1
  Al0+  Al53  1  0.00174927  0.50083621  0.67199125  1
  Al0+  Al54  1  0.49858924  0.00116019  -0.00234881  1
  Al0+  Al55  1  0.50079244  -0.00324052  0.32995262  1
  Al0+  Al56  1  0.49740546  0.00185493  0.66352928  1
  Al0+  Al57  1  0.50244200  0.50165628  -0.00030487  1
  Al0+  Al58  1  0.50236329  0.49775855  0.33452765  1
  Al0+  Al59  1  0.49921844  0.50192338  0.66167032  1
  Al0+  Al60  1  0.25140257  0.24864088  -0.01133272  1
  Al0+  Al61  1  0.25148193  0.24726135  0.33876001  1
  Al0+  Al62  1  0.24868697  0.24973296  0.66406867  1
  Al0+  Al63  1  0.24835205  0.75148794  -0.00192293  1
  Al0+  Al64  1  0.24764727  0.74717654  0.33893388  1
  Al0+  Al65  1  0.24854854  0.74869239  0.67129689  1
  Al0+  Al66  1  0.75006669  0.25206323  0.00121874  1
  Al0+  Al67  1  0.75170254  0.24874325  0.32838811  1
  Al0+  Al68  1  0.74981755  0.25182773  0.66718555  1
  Al0+  Al69  1  0.74990996  0.75149210  0.00920468  1
  Al0+  Al70  1  0.75012612  0.75058611  0.33141367  1
  Al0+  Al71  1  0.74892093  0.75085777  0.66339170  1
  Al0+  Al72  1  0.67780708  0.93098572  0.01342830  1
  Al0+  Al73  1  0.42924071  0.31963286  0.31862258  1
  Al0+  Al74  1  0.92914418  0.82147444  0.31697346  1
  Al0+  Al75  1  0.82000933  0.07148427  0.67916276  1
  Al0+  Al76  1  0.17875498  0.92893085  0.01521228  1
  Al0+  Al77  1  0.43055492  0.32282476  0.98578624  1
  Al0+  Al78  1  0.17615763  0.92876618  0.34895331  1
  Al0+  Al79  1  0.42752778  0.81677651  0.32099745  1
  Al0+  Al80  1  0.92789368  0.32384017  0.98481800  1
  Al0+  Al81  1  0.32314281  0.06923976  0.34836702  1
  Al0+  Al82  1  0.67738444  0.42751483  0.01627828  1
  Al0+  Al83  1  0.42677787  0.82239415  0.98553788  1
  Al0+  Al84  1  0.81884383  0.57087898  0.34992876  1
  Al0+  Al85  1  0.93131368  0.81878737  0.65521766  1
  Al0+  Al86  1  0.57170876  0.17976055  0.65381246  1
  Al0+  Al87  1  0.82362532  0.57129649  0.01700803  1
  Al0+  Al88  1  0.57388051  0.17660217  0.31543912  1
  Al0+  Al89  1  0.81993432  0.57292109  0.68112976  1
  Al0+  Al90  1  0.06856431  0.17889215  0.65027332  1
  Al0+  Al91  1  0.07044602  0.17727329  0.98448003  1
  Al0+  Al92  1  0.32407075  0.57090613  0.34788535  1
  Al0+  Al93  1  0.17866091  0.42607483  0.34814144  1
  Al0+  Al94  1  0.18024437  0.93051775  0.68150900  1
  Al0+  Al95  1  0.57024490  0.68103211  0.65371412  1
  Si0+  Si96  1  0.07158938  0.67934522  0.98556246  1
  Si0+  Si97  1  0.93088812  0.32330487  0.32069945  1
  Si0+  Si98  1  0.67937719  0.92948552  0.34861486  1
  Si0+  Si99  1  0.67716264  0.42923937  0.68186020  1
  Si0+  Si100  1  0.42742832  0.32294788  0.64833092  1
  Si0+  Si101  1  0.67930260  0.42510853  0.35146061  1
  Si0+  Si102  1  0.32124204  0.57140275  0.01182355  1
  Si0+  Si103  1  0.57288438  0.17752061  0.98247532  1
  Si0+  Si104  1  0.07005414  0.67632278  0.31776295  1
  Si0+  Si105  1  0.07441159  0.67505187  0.64926179  1
  Si0+  Si106  1  0.32174597  0.07328869  0.01485573  1
  Si0+  Si107  1  0.82257965  0.07221030  0.01729473  1
  Si0+  Si108  1  0.18240404  0.42797702  0.01072971  1
  Si0+  Si109  1  0.57240064  0.68099272  0.98531107  1
  Si0+  Si110  1  0.67527177  0.92855558  0.68092492  1
  Si0+  Si111  1  0.42486051  0.82187481  0.65056038  1
  Si0+  Si112  1  0.07059836  0.17892481  0.31918091  1
  Si0+  Si113  1  0.92848822  0.32426084  0.64974703  1
  Si0+  Si114  1  0.32183720  0.57010340  0.68374629  1
  Si0+  Si115  1  0.82049756  0.07140876  0.34612608  1
  Si0+  Si116  1  0.57365870  0.67683050  0.31482378  1
  Si0+  Si117  1  0.32316136  0.07368047  0.68519749  1
  Si0+  Si118  1  0.17982691  0.42713265  0.68513068  1
  Si0+  Si119  1  0.92735791  0.81920363  0.98553494  1
  O2-  O120  1  0.25426929  0.00350761  0.05923415  1
  O2-  O121  1  0.25032430  -0.00178852  0.39902832  1
  O2-  O122  1  0.25601424  0.00369856  0.72982997  1
  O2-  O123  1  0.25500755  0.49620739  0.05415513  1
  O2-  O124  1  0.25402185  0.49599607  0.39729136  1
  O2-  O125  1  0.25183137  0.49810531  0.72661636  1
  O2-  O126  1  0.75022844  0.00754960  0.06174682  1
  O2-  O127  1  0.74874675  0.00218261  0.38989929  1
  O2-  O128  1  0.74162384  -0.00018693  0.72494256  1
  O2-  O129  1  0.75415501  0.49560329  0.06514856  1
  O2-  O130  1  0.74407632  0.49666692  0.39726691  1
  O2-  O131  1  0.74594645  0.49741964  0.72692366  1
  O2-  O132  1  0.00383429  0.25449768  0.27801953  1
  O2-  O133  1  -0.00569872  0.25416472  0.60291379  1
  O2-  O134  1  -0.00485534  0.24708180  0.93520298  1
  O2-  O135  1  0.00475636  0.74706304  0.27124057  1
  O2-  O136  1  0.00454425  0.74295896  0.60690504  1
  O2-  O137  1  -0.00195365  0.74792159  0.94360570  1
  O2-  O138  1  0.50129468  0.24881926  0.26705530  1
  O2-  O139  1  0.49574339  0.25304726  0.60687640  1
  O2-  O140  1  0.50777466  0.25049357  0.93921050  1
  O2-  O141  1  0.49841588  0.73890839  0.27174276  1
  O2-  O142  1  0.49621853  0.75617946  0.60666077  1
  O2-  O143  1  0.50405865  0.74973090  0.93981470  1
  O2-  O144  1  0.07215462  0.18071286  0.09862778  1
  O2-  O145  1  0.06660785  0.17713441  0.42438577  1
  O2-  O146  1  0.06683264  0.17930972  0.76313121  1
  O2-  O147  1  0.07471098  0.67846110  0.09026384  1
  O2-  O148  1  0.06752132  0.67479158  0.42327537  1
  O2-  O149  1  0.07583595  0.67496362  0.75534084  1
  O2-  O150  1  0.56981845  0.17515003  0.08758625  1
  O2-  O151  1  0.57645777  0.17839292  0.42937311  1
  O2-  O152  1  0.57073918  0.18087339  0.76697149  1
  O2-  O153  1  0.57040637  0.68120739  0.09062317  1
  O2-  O154  1  0.57608373  0.68215792  0.42083155  1
  O2-  O155  1  0.56877707  0.68146331  0.76706282  1
  O2-  O156  1  0.17642351  0.42782916  0.23381768  1
  O2-  O157  1  0.17952454  0.42695921  0.58041150  1
  O2-  O158  1  0.18308332  0.43130596  0.90534393  1
  O2-  O159  1  0.17621847  0.93221594  0.23514200  1
  O2-  O160  1  0.18059284  0.93145327  0.56887243  1
  O2-  O161  1  0.17851597  0.92777095  0.90187296  1
  O2-  O162  1  0.68183173  0.42538811  0.24608924  1
  O2-  O163  1  0.67864055  0.42952125  0.57634591  1
  O2-  O164  1  0.67544663  0.43283819  0.90218464  1
  O2-  O165  1  0.68023921  0.92926353  0.24339422  1
  O2-  O166  1  0.67608357  0.92797260  0.57521107  1
  O2-  O167  1  0.68075442  0.92986702  0.89998536  1
  O2-  O168  1  0.42632813  0.32180320  0.09801232  1
  O2-  O169  1  0.43255158  0.31770741  0.43237380  1
  O2-  O170  1  0.42879988  0.32451364  0.75435645  1
  O2-  O171  1  0.42462190  0.81937294  0.09848596  1
  O2-  O172  1  0.43199985  0.81675119  0.43437059  1
  O2-  O173  1  0.42464900  0.81939678  0.75643289  1
  O2-  O174  1  0.93458568  0.32442158  0.09913413  1
  O2-  O175  1  0.92973529  0.32156216  0.42589255  1
  O2-  O176  1  0.93139919  0.32455338  0.75509739  1
  O2-  O177  1  0.92823837  0.81919055  0.09056683  1
  O2-  O178  1  0.92804779  0.82237101  0.43012356  1
  O2-  O179  1  0.93113873  0.81794944  0.76882116  1
  O2-  O180  1  0.31951146  0.07060994  0.23443506  1
  O2-  O181  1  0.32357956  0.07285628  0.57996756  1
  O2-  O182  1  0.32218312  0.07197725  0.90901457  1
  O2-  O183  1  0.31882125  0.57209610  0.23371621  1
  O2-  O184  1  0.32163218  0.57070415  0.57925467  1
  O2-  O185  1  0.31858503  0.57116850  0.90616248  1
  O2-  O186  1  0.82130934  0.07066174  0.24113598  1
  O2-  O187  1  0.82039483  0.06849260  0.56565692  1
  O2-  O188  1  0.82342552  0.06878675  0.91149582  1
  O2-  O189  1  0.82001191  0.56837657  0.23711894  1
  O2-  O190  1  0.81825847  0.57291971  0.56811013  1
  O2-  O191  1  0.82052423  0.57424479  0.90316945  1
  O2-  O192  1  0.03753587  0.09048044  0.26866520  1
  O2-  O193  1  0.03542049  0.08370508  0.59610963  1
  O2-  O194  1  0.04011045  0.07814990  0.93318544  1
  O2-  O195  1  0.04098453  0.58296164  0.27190620  1
  O2-  O196  1  0.05112787  0.58020829  0.60497381  1
  O2-  O197  1  0.04777457  0.58710622  0.93633277  1
  O2-  O198  1  0.54601564  0.07768253  0.26436786  1
  O2-  O199  1  0.54318679  0.08243496  0.59887275  1
  O2-  O200  1  0.54393776  0.08610246  0.93328874  1
  O2-  O201  1  0.55721481  0.57962373  0.27408590  1
  O2-  O202  1  0.53956592  0.58538723  0.59724185  1
  O2-  O203  1  0.54726226  0.58824750  0.93737059  1
  O2-  O204  1  0.16413751  0.20257401  0.27477506  1
  O2-  O205  1  0.16603472  0.20979229  0.59787307  1
  O2-  O206  1  0.16626029  0.20687235  0.92713112  1
  O2-  O207  1  0.16518265  0.69731454  0.27327848  1
  O2-  O208  1  0.16848825  0.70080776  0.60441029  1
  O2-  O209  1  0.16109326  0.70929500  0.93404730  1
  O2-  O210  1  0.67252394  0.20456307  0.26169051  1
  O2-  O211  1  0.66841526  0.21048985  0.59906855  1
  O2-  O212  1  0.66873333  0.19835796  0.93917404  1
  O2-  O213  1  0.66385503  0.70974075  0.26689158  1
  O2-  O214  1  0.66483514  0.71242317  0.59661391  1
  O2-  O215  1  0.66638775  0.70933600  0.94108187  1
  O2-  O216  1  0.09161071  0.45717173  0.05863477  1
  O2-  O217  1  0.08337865  0.45792947  0.40614044  1
  O2-  O218  1  0.08921214  0.45636844  0.73426967  1
  O2-  O219  1  0.08155463  0.95773726  0.06890030  1
  O2-  O220  1  0.07745157  0.96164109  0.39921422  1
  O2-  O221  1  0.08417975  0.96366275  0.73513022  1
  O2-  O222  1  0.58063127  0.46122981  0.07069936  1
  O2-  O223  1  0.58463341  0.44570166  0.39696413  1
  O2-  O224  1  0.58221998  0.45524506  0.72564924  1
  O2-  O225  1  0.57990353  0.96016444  0.06637084  1
  O2-  O226  1  0.58756262  0.95390723  0.39655742  1
  O2-  O227  1  0.58014636  0.95138175  0.72593706  1
  O2-  O228  1  0.20828689  0.33457059  0.05485358  1
  O2-  O229  1  0.20506837  0.32863438  0.40363888  1
  O2-  O230  1  0.20760501  0.33499278  0.73217193  1
  O2-  O231  1  0.20926749  0.83149909  0.06786006  1
  O2-  O232  1  0.19922410  0.82900937  0.40068173  1
  O2-  O233  1  0.20689574  0.83186297  0.73545610  1
  O2-  O234  1  0.69899353  0.32715934  0.06829850  1
  O2-  O235  1  0.70952005  0.33181056  0.39625559  1
  O2-  O236  1  0.70126404  0.33605522  0.72932819  1
  O2-  O237  1  0.70989564  0.83727620  0.07170466  1
  O2-  O238  1  0.70968200  0.83838109  0.39591696  1
  O2-  O239  1  0.70438952  0.83662738  0.72782599  1
  O2-  O240  1  0.45508133  0.41991767  0.26720192  1
  O2-  O241  1  0.45148963  0.41670952  0.60217446  1
  O2-  O242  1  0.45933030  0.42073510  0.93122495  1
  O2-  O243  1  0.46136892  0.91123735  0.26532903  1
  O2-  O244  1  0.44537177  0.91712120  0.60652250  1
  O2-  O245  1  0.45581301  0.91904905  0.93095982  1
  O2-  O246  1  0.95765152  0.41619418  0.27543810  1
  O2-  O247  1  0.95888985  0.41758317  0.60466666  1
  O2-  O248  1  0.96069441  0.42076852  0.93071709  1
  O2-  O249  1  0.95799362  0.91757228  0.26024880  1
  O2-  O250  1  0.96311042  0.91448273  0.60059594  1
  O2-  O251  1  0.95513971  0.91124493  0.93903497  1
  O2-  O252  1  0.32904529  0.29160946  0.26800136  1
  O2-  O253  1  0.33296399  0.29878328  0.60427890  1
  O2-  O254  1  0.33673673  0.29104060  0.92602090  1
  O2-  O255  1  0.32873886  0.78832714  0.26917021  1
  O2-  O256  1  0.33248222  0.79086503  0.60549446  1
  O2-  O257  1  0.33208073  0.78727715  0.92971498  1
  O2-  O258  1  0.84094056  0.29385187  0.27094921  1
  O2-  O259  1  0.83327180  0.30355295  0.60573983  1
  O2-  O260  1  0.82678966  0.30204836  0.93468499  1
  O2-  O261  1  0.83272982  0.78893263  0.26324859  1
  O2-  O262  1  0.83432967  0.79136787  0.60015166  1
  O2-  O263  1  0.83480049  0.79174264  0.93949891  1
  O2-  O264  1  0.41592043  0.05083097  0.06006736  1
  O2-  O265  1  0.42181187  0.03851031  0.40005481  1
  O2-  O266  1  0.41761828  0.05000142  0.73147395  1
  O2-  O267  1  0.41468188  0.55098979  0.05729329  1
  O2-  O268  1  0.42395982  0.54650465  0.40057117  1
  O2-  O269  1  0.41426511  0.54253118  0.73099116  1
  O2-  O270  1  0.91391211  0.04203806  0.06526390  1
  O2-  O271  1  0.91141529  0.04085586  0.39350124  1
  O2-  O272  1  0.91381326  0.03614142  0.73510890  1
  O2-  O273  1  0.92400567  0.54525019  0.06816824  1
  O2-  O274  1  0.91431020  0.54108531  0.40613263  1
  O2-  O275  1  0.91849631  0.54582590  0.73373223  1
  O2-  O276  1  0.29306997  0.16716988  0.05882850  1
  O2-  O277  1  0.29653604  0.16641529  0.40404450  1
  O2-  O278  1  0.29669179  0.16818074  0.72948214  1
  O2-  O279  1  0.28726042  0.66106260  0.05896419  1
  O2-  O280  1  0.29146896  0.66580851  0.40578298  1
  O2-  O281  1  0.29301002  0.66081344  0.73341670  1
  O2-  O282  1  0.80322203  0.16812617  0.06082418  1
  O2-  O283  1  0.79649393  0.16415918  0.39391349  1
  O2-  O284  1  0.79295851  0.16942991  0.73313490  1
  O2-  O285  1  0.79237170  0.66781262  0.07193012  1
  O2-  O286  1  0.78670141  0.66866909  0.40120416  1
  O2-  O287  1  0.78663140  0.66937099  0.73421860  1
