# generated using pymatgen
data_Ca2Al2SiO7
_symmetry_space_group_name_H-M   'P 1'
_cell_length_a   15.47384686
_cell_length_b   15.46917266
_cell_length_c   15.29274523
_cell_angle_alpha   89.98159702
_cell_angle_beta   90.00841694
_cell_angle_gamma   90.01596966
_symmetry_Int_Tables_number   1
_chemical_formula_structural   Ca2Al2SiO7
_chemical_formula_sum   'Ca48 Al48 Si24 O168'
_cell_volume   3660.58748638
_cell_formula_units_Z   24
loop_
 _symmetry_equiv_pos_site_id
 _symmetry_equiv_pos_as_xyz
  1  'x, y, z'
loop_
 _atom_type_symbol
 _atom_type_oxidation_number
  Ca2+  2.0
  Al0+  0.0
  Si0+  0.0
  O2-  -2.0
loop_
 _atom_site_type_symbol
 _atom_site_label
 _atom_site_symmetry_multiplicity
 _atom_site_fract_x
 _atom_site_fract_y
 _atom_site_fract_z
 _atom_site_occupancy
  Ca2+  Ca0  1  0.16692945  0.08272692  0.16856006  1
  Ca2+  Ca1  1  0.17595455  0.08190892  0.51084620  1
  Ca2+  Ca2  1  0.17153405  0.08958063  0.83295505  1
  Ca2+  Ca3  1  0.17363556  0.57754025  0.17781309  1
  Ca2+  Ca4  1  0.17810963  0.57503654  0.50507670  1
  Ca2+  Ca5  1  0.17143310  0.58126566  0.83078939  1
  Ca2+  Ca6  1  0.66704337  0.07892327  0.17890929  1
  Ca2+  Ca7  1  0.66870909  0.08273911  0.50510503  1
  Ca2+  Ca8  1  0.66772110  0.08828430  0.83513558  1
  Ca2+  Ca9  1  0.66472648  0.57483063  0.17337799  1
  Ca2+  Ca10  1  0.66039028  0.57642018  0.50881621  1
  Ca2+  Ca11  1  0.66471856  0.57543895  0.83780482  1
  Ca2+  Ca12  1  0.08277465  0.32955602  0.16008173  1
  Ca2+  Ca13  1  0.08762786  0.33460963  0.49813990  1
  Ca2+  Ca14  1  0.08511373  0.32586073  0.82288831  1
  Ca2+  Ca15  1  0.07330952  0.83138147  0.15919761  1
  Ca2+  Ca16  1  0.08028318  0.83240395  0.49793436  1
  Ca2+  Ca17  1  0.07320137  0.83350656  0.83153102  1
  Ca2+  Ca18  1  0.59677903  0.32456401  0.16603355  1
  Ca2+  Ca19  1  0.59679400  0.32547656  0.49660603  1
  Ca2+  Ca20  1  0.59547974  0.32653156  0.82958638  1
  Ca2+  Ca21  1  0.57700718  0.83118469  0.16713451  1
  Ca2+  Ca22  1  0.57540843  0.82154948  0.49402695  1
  Ca2+  Ca23  1  0.57468326  0.82519297  0.82467637  1
  Ca2+  Ca24  1  0.32705077  0.42288604  0.17741477  1
  Ca2+  Ca25  1  0.32933204  0.42643561  0.50589816  1
  Ca2+  Ca26  1  0.33272398  0.41938493  0.83008848  1
  Ca2+  Ca27  1  0.33789868  0.91294039  0.17054575  1
  Ca2+  Ca28  1  0.34306203  0.91952167  0.50634689  1
  Ca2+  Ca29  1  0.34481027  0.92137604  0.83361076  1
  Ca2+  Ca30  1  0.82407570  0.41989537  0.16717918  1
  Ca2+  Ca31  1  0.82138200  0.42199662  0.50646239  1
  Ca2+  Ca32  1  0.82266501  0.42755460  0.83466422  1
  Ca2+  Ca33  1  0.82613455  0.92170439  0.17521393  1
  Ca2+  Ca34  1  0.82469026  0.92713911  0.50155860  1
  Ca2+  Ca35  1  0.83431731  0.92131764  0.83599893  1
  Ca2+  Ca36  1  0.43217974  0.16833707  0.16331747  1
  Ca2+  Ca37  1  0.42782842  0.16572014  0.49995862  1
  Ca2+  Ca38  1  0.42826937  0.16820405  0.82462729  1
  Ca2+  Ca39  1  0.41847214  0.67235074  0.16760428  1
  Ca2+  Ca40  1  0.42065270  0.66703663  0.49411772  1
  Ca2+  Ca41  1  0.41802084  0.67590561  0.82204783  1
  Ca2+  Ca42  1  0.92027484  0.16619846  0.16156764  1
  Ca2+  Ca43  1  0.91803645  0.16150283  0.49842032  1
  Ca2+  Ca44  1  0.92764891  0.16521248  0.82371739  1
  Ca2+  Ca45  1  0.91321586  0.67184639  0.15779322  1
  Ca2+  Ca46  1  0.91540734  0.66119085  0.49878308  1
  Ca2+  Ca47  1  0.90603168  0.66722171  0.82947966  1
  Al0+  Al48  1  0.00206260  -0.00145245  -0.00694790  1
  Al0+  Al49  1  0.00133714  0.00012698  0.33552281  1
  Al0+  Al50  1  0.00025330  0.00052775  0.66491182  1
  Al0+  Al51  1  0.00104315  0.50045026  0.00324083  1
  Al0+  Al52  1  -0.00059624  0.49753447  0.33362313  1
  Al0+  Al53  1  -0.00175213  0.49951571  0.67277628  1
  Al0+  Al54  1  0.50096017  0.00179516  -0.00554643  1
  Al0+  Al55  1  0.50033516  -0.00057135  0.32997801  1
  Al0+  Al56  1  0.50047264  0.00123443  0.66459687  1
  Al0+  Al57  1  0.49799271  0.49815985  0.00696930  1
  Al0+  Al58  1  0.49918986  0.49875571  0.33666180  1
  Al0+  Al59  1  0.49758832  0.49863659  0.67418291  1
  Al0+  Al60  1  0.25297204  0.24859909  -0.00173859  1
  Al0+  Al61  1  0.24943840  0.24697796  0.33404068  1
  Al0+  Al62  1  0.25117341  0.24634949  0.66917217  1
  Al0+  Al63  1  0.24791613  0.75214293  -0.00306282  1
  Al0+  Al64  1  0.24782827  0.74958174  0.33273098  1
  Al0+  Al65  1  0.24467233  0.75135130  0.66704295  1
  Al0+  Al66  1  0.75439288  0.25128009  -0.00110655  1
  Al0+  Al67  1  0.75555797  0.25199735  0.33471192  1
  Al0+  Al68  1  0.75451305  0.25024078  0.67037469  1
  Al0+  Al69  1  0.74874740  0.75251797  -0.00134330  1
  Al0+  Al70  1  0.74947070  0.75158839  0.33283487  1
  Al0+  Al71  1  0.74815967  0.75299076  0.66303962  1
  Al0+  Al72  1  0.42737362  0.82037998  0.31784144  1
  Al0+  Al73  1  0.82185146  0.06995650  0.68218046  1
  Al0+  Al74  1  0.67704784  0.42854711  0.68179217  1
  Al0+  Al75  1  0.56989353  0.67654896  0.65340590  1
  Al0+  Al76  1  0.32057312  0.57192473  0.34805689  1
  Al0+  Al77  1  0.67844968  0.42786271  0.01822416  1
  Al0+  Al78  1  0.67592735  0.92813881  0.34941934  1
  Al0+  Al79  1  0.82233650  0.07129520  0.34718723  1
  Al0+  Al80  1  0.68006549  0.43000523  0.34705651  1
  Al0+  Al81  1  0.57234033  0.67542345  0.31737350  1
  Al0+  Al82  1  0.82017337  0.57395104  0.01617165  1
  Al0+  Al83  1  0.81921933  0.57439837  0.67981023  1
  Al0+  Al84  1  0.57289599  0.18168816  0.32148517  1
  Al0+  Al85  1  0.07198562  0.17931971  0.64989743  1
  Al0+  Al86  1  0.32061288  0.57347139  0.68336468  1
  Al0+  Al87  1  0.42651000  0.82091990  0.65162716  1
  Al0+  Al88  1  0.32233154  0.06771229  0.68075773  1
  Al0+  Al89  1  0.17707558  0.42607055  0.34712160  1
  Al0+  Al90  1  0.17953175  0.42789010  0.68241500  1
  Al0+  Al91  1  0.07192143  0.17988181  0.98557235  1
  Al0+  Al92  1  0.57392415  0.18260250  0.65272867  1
  Al0+  Al93  1  0.42831536  0.82002221  0.98529443  1
  Al0+  Al94  1  0.92678342  0.81943238  0.98639173  1
  Al0+  Al95  1  0.57326933  0.18183975  0.98684047  1
  Si0+  Si96  1  0.42678446  0.32113996  0.65075301  1
  Si0+  Si97  1  0.17795031  0.92872959  0.34689798  1
  Si0+  Si98  1  0.06838445  0.67794428  0.31922874  1
  Si0+  Si99  1  0.32109502  0.06907205  0.34641947  1
  Si0+  Si100  1  0.06803178  0.67752952  0.65096870  1
  Si0+  Si101  1  0.07124873  0.67744217  0.98316147  1
  Si0+  Si102  1  0.32254245  0.07011042  0.01642749  1
  Si0+  Si103  1  0.93068233  0.32407990  0.98087569  1
  Si0+  Si104  1  0.67749551  0.93209090  0.01393109  1
  Si0+  Si105  1  0.07210843  0.17735027  0.31757884  1
  Si0+  Si106  1  0.67812737  0.93063388  0.68473598  1
  Si0+  Si107  1  0.92782807  0.82249308  0.64903347  1
  Si0+  Si108  1  0.93115861  0.32166037  0.31629294  1
  Si0+  Si109  1  0.31852405  0.57415721  0.01574057  1
  Si0+  Si110  1  0.17516849  0.92796126  0.68514223  1
  Si0+  Si111  1  0.82440750  0.06918774  0.01315647  1
  Si0+  Si112  1  0.17853167  0.92989168  0.01541801  1
  Si0+  Si113  1  0.42534816  0.32007409  0.31812063  1
  Si0+  Si114  1  0.57003945  0.67634517  0.98541617  1
  Si0+  Si115  1  0.18106936  0.42713250  0.01445592  1
  Si0+  Si116  1  0.93114323  0.32236055  0.64818774  1
  Si0+  Si117  1  0.42730308  0.32273564  0.98410261  1
  Si0+  Si118  1  0.93028452  0.82248746  0.31918758  1
  Si0+  Si119  1  0.82222330  0.57368210  0.34773102  1
  O2-  O120  1  0.25111086  -0.00110784  0.05868566  1
  O2-  O121  1  0.25355138  -0.00570329  0.38794778  1
  O2-  O122  1  0.24910058  -0.00868829  0.72835982  1
  O2-  O123  1  0.24952079  0.50016656  0.05717596  1
  O2-  O124  1  0.25045941  0.49652582  0.39533712  1
  O2-  O125  1  0.25045524  0.49967452  0.73434011  1
  O2-  O126  1  0.74976448  0.00277027  0.05604799  1
  O2-  O127  1  0.74582012  0.00408873  0.39675027  1
  O2-  O128  1  0.74627766  -0.00153181  0.73184687  1
  O2-  O129  1  0.74729260  0.50398168  0.06731911  1
  O2-  O130  1  0.74755954  0.51225936  0.39132185  1
  O2-  O131  1  0.74283745  0.50761973  0.72959789  1
  O2-  O132  1  0.00292759  0.24969874  0.27529087  1
  O2-  O133  1  0.00032403  0.25524764  0.60132241  1
  O2-  O134  1  -0.00002324  0.25566701  0.93740682  1
  O2-  O135  1  -0.00366281  0.74726782  0.27586475  1
  O2-  O136  1  -0.00480249  0.74706387  0.60808672  1
  O2-  O137  1  -0.00344878  0.73990721  0.93951127  1
  O2-  O138  1  0.49916264  0.25701114  0.27313457  1
  O2-  O139  1  0.50227813  0.26024523  0.60608859  1
  O2-  O140  1  0.50225153  0.26044470  0.94134906  1
  O2-  O141  1  0.50010662  0.74866573  0.26821389  1
  O2-  O142  1  0.49357198  0.74418393  0.60325043  1
  O2-  O143  1  0.49916211  0.74198501  0.94028265  1
  O2-  O144  1  0.07059342  0.17961888  0.09946603  1
  O2-  O145  1  0.07273752  0.17458166  0.42192094  1
  O2-  O146  1  0.06998966  0.17938996  0.76316160  1
  O2-  O147  1  0.07389540  0.68113233  0.08910936  1
  O2-  O148  1  0.06721580  0.67969191  0.42419614  1
  O2-  O149  1  0.06866354  0.67950371  0.75611206  1
  O2-  O150  1  0.57121750  0.17885178  0.10023815  1
  O2-  O151  1  0.57133386  0.18166732  0.43415520  1
  O2-  O152  1  0.57169398  0.18187315  0.76610923  1
  O2-  O153  1  0.56954140  0.67825206  0.09086693  1
  O2-  O154  1  0.57173981  0.67587664  0.43036247  1
  O2-  O155  1  0.57086564  0.68066895  0.76759967  1
  O2-  O156  1  0.17752031  0.42762882  0.23254718  1
  O2-  O157  1  0.18084801  0.43030067  0.56902490  1
  O2-  O158  1  0.18222135  0.42631675  0.90998736  1
  O2-  O159  1  0.17287236  0.93160430  0.24164071  1
  O2-  O160  1  0.17090672  0.93030414  0.57923540  1
  O2-  O161  1  0.17570800  0.92994469  0.91106620  1
  O2-  O162  1  0.68577621  0.42710083  0.23416756  1
  O2-  O163  1  0.68208620  0.42649748  0.56820374  1
  O2-  O164  1  0.68053492  0.42733431  0.90527158  1
  O2-  O165  1  0.67923905  0.92971559  0.23468130  1
  O2-  O166  1  0.68052114  0.93191275  0.57946590  1
  O2-  O167  1  0.67760744  0.93285825  0.90904080  1
  O2-  O168  1  0.42019156  0.31850950  0.08945045  1
  O2-  O169  1  0.41955783  0.31491978  0.42294098  1
  O2-  O170  1  0.42367871  0.31616887  0.75653512  1
  O2-  O171  1  0.42820223  0.81950527  0.09809579  1
  O2-  O172  1  0.42542870  0.81989540  0.43053748  1
  O2-  O173  1  0.43089519  0.82109959  0.76565556  1
  O2-  O174  1  0.93240611  0.32218960  0.08705444  1
  O2-  O175  1  0.93185341  0.32428163  0.42072903  1
  O2-  O176  1  0.93336058  0.32008236  0.75379721  1
  O2-  O177  1  0.93190923  0.82288978  0.09984760  1
  O2-  O178  1  0.93481185  0.82463660  0.42404695  1
  O2-  O179  1  0.93052920  0.82453898  0.75419466  1
  O2-  O180  1  0.31793527  0.07089312  0.24087425  1
  O2-  O181  1  0.32091733  0.06714854  0.56716290  1
  O2-  O182  1  0.32220463  0.06963959  0.91177549  1
  O2-  O183  1  0.31532190  0.57230927  0.23346651  1
  O2-  O184  1  0.31711873  0.57378153  0.57024722  1
  O2-  O185  1  0.31638240  0.57541234  0.91115799  1
  O2-  O186  1  0.82629975  0.06781307  0.23280487  1
  O2-  O187  1  0.82284992  0.06671138  0.56945198  1
  O2-  O188  1  0.82564110  0.06620162  0.90838221  1
  O2-  O189  1  0.82662676  0.57087550  0.24231769  1
  O2-  O190  1  0.82247167  0.57039260  0.56611632  1
  O2-  O191  1  0.81834329  0.57278035  0.90320964  1
  O2-  O192  1  0.04227820  0.08587003  0.26908988  1
  O2-  O193  1  0.03938220  0.08265696  0.59680034  1
  O2-  O194  1  0.04178703  0.08399044  0.93107764  1
  O2-  O195  1  0.04282737  0.58558846  0.27125874  1
  O2-  O196  1  0.04042599  0.58546343  0.60447860  1
  O2-  O197  1  0.05359188  0.58121326  0.94020545  1
  O2-  O198  1  0.54023282  0.08597706  0.26631996  1
  O2-  O199  1  0.53911934  0.08691569  0.59992457  1
  O2-  O200  1  0.53857575  0.08762794  0.93123811  1
  O2-  O201  1  0.54281371  0.57643466  0.26491026  1
  O2-  O202  1  0.54542826  0.57513151  0.60546167  1
  O2-  O203  1  0.54669137  0.58048146  0.94352896  1
  O2-  O204  1  0.16401773  0.20264774  0.26822022  1
  O2-  O205  1  0.17037412  0.20618843  0.59811001  1
  O2-  O206  1  0.17002115  0.20808050  0.93371299  1
  O2-  O207  1  0.15843617  0.70769769  0.26975123  1
  O2-  O208  1  0.15765277  0.70845009  0.60129802  1
  O2-  O209  1  0.16084297  0.71103634  0.93421643  1
  O2-  O210  1  0.67102587  0.21125888  0.26876869  1
  O2-  O211  1  0.67274182  0.20954363  0.60138404  1
  O2-  O212  1  0.67204992  0.20756046  0.93453162  1
  O2-  O213  1  0.67194709  0.70436308  0.26503920  1
  O2-  O214  1  0.66699880  0.70853141  0.59898142  1
  O2-  O215  1  0.66239622  0.70537083  0.93964125  1
  O2-  O216  1  0.08847395  0.45192806  0.06205354  1
  O2-  O217  1  0.07959841  0.45621065  0.40000292  1
  O2-  O218  1  0.08177512  0.45668839  0.73610544  1
  O2-  O219  1  0.08760385  0.96080182  0.06411581  1
  O2-  O220  1  0.08955683  0.96078832  0.39810834  1
  O2-  O221  1  0.08437574  0.95992274  0.73293840  1
  O2-  O222  1  0.57733156  0.44860643  0.07031246  1
  O2-  O223  1  0.58036190  0.44860169  0.39852548  1
  O2-  O224  1  0.57712889  0.44605386  0.73567856  1
  O2-  O225  1  0.58669773  0.96245131  0.06190910  1
  O2-  O226  1  0.57693175  0.95476522  0.40024864  1
  O2-  O227  1  0.58520416  0.95713279  0.73055406  1
  O2-  O228  1  0.21073485  0.33559316  0.06229857  1
  O2-  O229  1  0.20167476  0.32586019  0.39714322  1
  O2-  O230  1  0.20844377  0.32927947  0.73424504  1
  O2-  O231  1  0.20383303  0.83727930  0.06345315  1
  O2-  O232  1  0.19813884  0.83513855  0.39325871  1
  O2-  O233  1  0.19147935  0.83247134  0.73015107  1
  O2-  O234  1  0.71530310  0.33027023  0.07006602  1
  O2-  O235  1  0.72010930  0.33702125  0.40120081  1
  O2-  O236  1  0.71552330  0.33391246  0.73607217  1
  O2-  O237  1  0.70436884  0.84008101  0.06091124  1
  O2-  O238  1  0.70905307  0.83128130  0.40223835  1
  O2-  O239  1  0.70516052  0.83719579  0.72990798  1
  O2-  O240  1  0.44452668  0.41586140  0.27488823  1
  O2-  O241  1  0.44274683  0.41842235  0.61037565  1
  O2-  O242  1  0.44507510  0.41955230  0.94178107  1
  O2-  O243  1  0.45475526  0.91912254  0.26353783  1
  O2-  O244  1  0.45956830  0.91803281  0.59969896  1
  O2-  O245  1  0.46165857  0.91603900  0.93241123  1
  O2-  O246  1  0.95994106  0.41223919  0.26561270  1
  O2-  O247  1  0.95557655  0.41691138  0.60337859  1
  O2-  O248  1  0.95619931  0.41835720  0.93692381  1
  O2-  O249  1  0.96502379  0.91181064  0.27013137  1
  O2-  O250  1  0.96304096  0.91100112  0.60025595  1
  O2-  O251  1  0.96524291  0.91212672  0.92950199  1
  O2-  O252  1  0.33412511  0.28838991  0.26801459  1
  O2-  O253  1  0.33687887  0.28727892  0.60283166  1
  O2-  O254  1  0.33758394  0.29046916  0.93401237  1
  O2-  O255  1  0.32693775  0.79362671  0.26489326  1
  O2-  O256  1  0.32290853  0.80318907  0.60492232  1
  O2-  O257  1  0.32949015  0.79505135  0.93273772  1
  O2-  O258  1  0.84185345  0.29181292  0.26552848  1
  O2-  O259  1  0.83859713  0.29367485  0.60263283  1
  O2-  O260  1  0.83804402  0.29752284  0.93498616  1
  O2-  O261  1  0.83734535  0.80053743  0.27212022  1
  O2-  O262  1  0.83553837  0.80051313  0.60083117  1
  O2-  O263  1  0.82929972  0.79651627  0.93062681  1
  O2-  O264  1  0.41427027  0.04109959  0.06334301  1
  O2-  O265  1  0.41332453  0.04468016  0.39297789  1
  O2-  O266  1  0.41870859  0.03836769  0.73646525  1
  O2-  O267  1  0.41035997  0.54873829  0.06380957  1
  O2-  O268  1  0.41832705  0.54542167  0.40078110  1
  O2-  O269  1  0.41736821  0.54660242  0.73978679  1
  O2-  O270  1  0.91543160  0.03723839  0.06021044  1
  O2-  O271  1  0.91911760  0.03735340  0.40112103  1
  O2-  O272  1  0.91802524  0.03524049  0.73515619  1
  O2-  O273  1  0.92075629  0.54636085  0.06784304  1
  O2-  O274  1  0.91350691  0.54138033  0.39489283  1
  O2-  O275  1  0.91560728  0.54336149  0.73577565  1
  O2-  O276  1  0.29349956  0.16151703  0.06428316  1
  O2-  O277  1  0.28899807  0.15826832  0.39520250  1
  O2-  O278  1  0.28948487  0.16216508  0.73685796  1
  O2-  O279  1  0.28622678  0.66502112  0.06276620  1
  O2-  O280  1  0.28634455  0.66869369  0.40029360  1
  O2-  O281  1  0.28553634  0.67089626  0.73579532  1
  O2-  O282  1  0.80340026  0.16362009  0.05771999  1
  O2-  O283  1  0.80261350  0.17127312  0.39818426  1
  O2-  O284  1  0.79677445  0.16704846  0.73649619  1
  O2-  O285  1  0.79627662  0.67518692  0.06640130  1
  O2-  O286  1  0.80746803  0.67039395  0.39036165  1
  O2-  O287  1  0.79906451  0.67655204  0.72828802  1
