# generated using pymatgen
data_Ca2Al2SiO7
_symmetry_space_group_name_H-M   'P 1'
_cell_length_a   15.45936019
_cell_length_b   15.45808264
_cell_length_c   15.28367321
_cell_angle_alpha   89.99358983
_cell_angle_beta   90.00815803
_cell_angle_gamma   89.98732312
_symmetry_Int_Tables_number   1
_chemical_formula_structural   Ca2Al2SiO7
_chemical_formula_sum   'Ca48 Al48 Si24 O168'
_cell_volume   3652.37083484
_cell_formula_units_Z   24
loop_
 _symmetry_equiv_pos_site_id
 _symmetry_equiv_pos_as_xyz
  1  'x, y, z'
loop_
 _atom_type_symbol
 _atom_type_oxidation_number
  Ca2+  2.0
  Al0+  0.0
  Si0+  0.0
  O2-  -2.0
loop_
 _atom_site_type_symbol
 _atom_site_label
 _atom_site_symmetry_multiplicity
 _atom_site_fract_x
 _atom_site_fract_y
 _atom_site_fract_z
 _atom_site_occupancy
  Ca2+  Ca0  1  0.16003594  0.08575486  0.17140981  1
  Ca2+  Ca1  1  0.17331736  0.08213033  0.50771363  1
  Ca2+  Ca2  1  0.17409868  0.08476608  0.83765234  1
  Ca2+  Ca3  1  0.17162450  0.58317760  0.16604419  1
  Ca2+  Ca4  1  0.17187504  0.57994464  0.50727864  1
  Ca2+  Ca5  1  0.16559895  0.57917764  0.84244142  1
  Ca2+  Ca6  1  0.66174270  0.08261330  0.16557873  1
  Ca2+  Ca7  1  0.66915899  0.08737338  0.50898289  1
  Ca2+  Ca8  1  0.66803015  0.08176506  0.83903818  1
  Ca2+  Ca9  1  0.67233508  0.57840426  0.16567901  1
  Ca2+  Ca10  1  0.66501731  0.57726685  0.50831110  1
  Ca2+  Ca11  1  0.66566700  0.57367413  0.84247197  1
  Ca2+  Ca12  1  0.08397216  0.32542144  0.15591681  1
  Ca2+  Ca13  1  0.08760219  0.32734573  0.49764642  1
  Ca2+  Ca14  1  0.07989351  0.34200620  0.83334494  1
  Ca2+  Ca15  1  0.06883251  0.82893640  0.15768349  1
  Ca2+  Ca16  1  0.07948489  0.82825105  0.49642848  1
  Ca2+  Ca17  1  0.07874288  0.81973268  0.83250956  1
  Ca2+  Ca18  1  0.58278574  0.32667818  0.16108496  1
  Ca2+  Ca19  1  0.58225221  0.32405742  0.49441777  1
  Ca2+  Ca20  1  0.59221775  0.32704287  0.82875993  1
  Ca2+  Ca21  1  0.57790787  0.83506735  0.16174147  1
  Ca2+  Ca22  1  0.57217197  0.82989527  0.50039058  1
  Ca2+  Ca23  1  0.58226517  0.82679455  0.82674535  1
  Ca2+  Ca24  1  0.33329848  0.42649385  0.16998523  1
  Ca2+  Ca25  1  0.33123461  0.41761894  0.50335724  1
  Ca2+  Ca26  1  0.32094804  0.42317920  0.84239463  1
  Ca2+  Ca27  1  0.33054554  0.91753005  0.17247040  1
  Ca2+  Ca28  1  0.34114988  0.92118207  0.50606884  1
  Ca2+  Ca29  1  0.34170487  0.92237983  0.83354225  1
  Ca2+  Ca30  1  0.83525695  0.41504577  0.16044364  1
  Ca2+  Ca31  1  0.82410790  0.41535406  0.50912433  1
  Ca2+  Ca32  1  0.82413800  0.41979034  0.84283511  1
  Ca2+  Ca33  1  0.82810865  0.90850528  0.16932159  1
  Ca2+  Ca34  1  0.83486919  0.92456174  0.50514549  1
  Ca2+  Ca35  1  0.82912671  0.92089793  0.84172802  1
  Ca2+  Ca36  1  0.42475347  0.17572450  0.16362855  1
  Ca2+  Ca37  1  0.42479635  0.17126961  0.49457884  1
  Ca2+  Ca38  1  0.42832173  0.16555477  0.82637709  1
  Ca2+  Ca39  1  0.40752701  0.66851503  0.16423588  1
  Ca2+  Ca40  1  0.41727957  0.67241630  0.49642981  1
  Ca2+  Ca41  1  0.41927173  0.67054474  0.82594091  1
  Ca2+  Ca42  1  0.92853980  0.17259700  0.15758012  1
  Ca2+  Ca43  1  0.92096740  0.16579421  0.49494569  1
  Ca2+  Ca44  1  0.91688937  0.17181607  0.83398720  1
  Ca2+  Ca45  1  0.91712645  0.67316827  0.15444156  1
  Ca2+  Ca46  1  0.92389903  0.67041239  0.49696008  1
  Ca2+  Ca47  1  0.92355438  0.65860506  0.83377247  1
  Al0+  Al48  1  0.00085108  0.00056110  -0.00828100  1
  Al0+  Al49  1  -0.00116434  -0.00139860  0.32762270  1
  Al0+  Al50  1  0.00101022  0.00119056  0.67283093  1
  Al0+  Al51  1  -0.00015983  0.49897263  0.00247187  1
  Al0+  Al52  1  0.00022932  0.49924687  0.33603627  1
  Al0+  Al53  1  -0.00089857  0.49959458  0.66236644  1
  Al0+  Al54  1  0.50057453  0.00167404  0.00151131  1
  Al0+  Al55  1  0.50015328  -0.00242479  0.32744684  1
  Al0+  Al56  1  0.50176586  0.00052673  0.66332861  1
  Al0+  Al57  1  0.49888745  0.50053474  0.00875011  1
  Al0+  Al58  1  0.50034190  0.50048176  0.33606016  1
  Al0+  Al59  1  0.49864981  0.49883482  0.66777188  1
  Al0+  Al60  1  0.25323561  0.25052076  0.00055278  1
  Al0+  Al61  1  0.25189099  0.24948457  0.32668682  1
  Al0+  Al62  1  0.25025439  0.24921406  0.67600531  1
  Al0+  Al63  1  0.24805147  0.75408457  -0.00083210  1
  Al0+  Al64  1  0.24968397  0.74920430  0.33532614  1
  Al0+  Al65  1  0.24746465  0.75120448  0.65823987  1
  Al0+  Al66  1  0.75147881  0.24745127  -0.00182356  1
  Al0+  Al67  1  0.75175004  0.24846101  0.33028651  1
  Al0+  Al68  1  0.75169465  0.25027049  0.66984225  1
  Al0+  Al69  1  0.74618494  0.75167682  0.00414302  1
  Al0+  Al70  1  0.74858032  0.75006364  0.33528358  1
  Al0+  Al71  1  0.75118334  0.75063745  0.66101798  1
  Al0+  Al72  1  0.57328822  0.17832233  0.31726365  1
  Al0+  Al73  1  0.82288703  0.07148059  0.68106829  1
  Al0+  Al74  1  0.56919814  0.18004342  0.98434690  1
  Al0+  Al75  1  0.32008005  0.57473715  0.01401366  1
  Al0+  Al76  1  0.42936788  0.82097026  0.65235670  1
  Al0+  Al77  1  0.07048996  0.67968641  0.98664915  1
  Al0+  Al78  1  0.17832894  0.42811485  0.01695396  1
  Al0+  Al79  1  0.92880888  0.81917880  0.32076119  1
  Al0+  Al80  1  0.57244558  0.67512475  0.65303693  1
  Al0+  Al81  1  0.42846773  0.81886075  0.31785130  1
  Al0+  Al82  1  0.07537374  0.17877268  0.98118359  1
  Al0+  Al83  1  0.67860665  0.93022393  0.01384916  1
  Al0+  Al84  1  0.93028405  0.32079992  0.98353379  1
  Al0+  Al85  1  0.92372468  0.82084002  0.98331658  1
  Al0+  Al86  1  0.32053360  0.57152008  0.35053649  1
  Al0+  Al87  1  0.42941306  0.32346459  0.31817263  1
  Al0+  Al88  1  0.17874998  0.42967009  0.67993401  1
  Al0+  Al89  1  0.07064152  0.17973489  0.32304375  1
  Al0+  Al90  1  0.82027520  0.57120437  0.01401558  1
  Al0+  Al91  1  0.67740165  0.43025158  0.67875885  1
  Al0+  Al92  1  0.06908062  0.67728328  0.65098670  1
  Al0+  Al93  1  0.57259737  0.18163395  0.65341732  1
  Al0+  Al94  1  0.32257867  0.06884344  0.67928589  1
  Al0+  Al95  1  0.67862683  0.42523843  0.01708936  1
  Si0+  Si96  1  0.17828306  0.42595690  0.35057508  1
  Si0+  Si97  1  0.82160425  0.57268730  0.35019713  1
  Si0+  Si98  1  0.57214758  0.67754266  0.31555546  1
  Si0+  Si99  1  0.92752739  0.32335304  0.31810805  1
  Si0+  Si100  1  0.56883444  0.67857031  0.98834275  1
  Si0+  Si101  1  0.67947588  0.92808204  0.68137650  1
  Si0+  Si102  1  0.82136548  0.57298394  0.68018499  1
  Si0+  Si103  1  0.92882188  0.82513940  0.64988342  1
  Si0+  Si104  1  0.32068452  0.57431483  0.68176950  1
  Si0+  Si105  1  0.17714724  0.93040724  0.34747359  1
  Si0+  Si106  1  0.07292982  0.17858176  0.65291500  1
  Si0+  Si107  1  0.42986332  0.32533991  0.98201447  1
  Si0+  Si108  1  0.82095426  0.06910515  0.34649297  1
  Si0+  Si109  1  0.17709399  0.92652386  0.68411883  1
  Si0+  Si110  1  0.92998856  0.31956462  0.65086791  1
  Si0+  Si111  1  0.32246997  0.07048035  0.01679978  1
  Si0+  Si112  1  0.32150412  0.07022190  0.34683762  1
  Si0+  Si113  1  0.67694215  0.92819917  0.35081575  1
  Si0+  Si114  1  0.17864255  0.93141720  0.01489746  1
  Si0+  Si115  1  0.42480366  0.32056118  0.65256646  1
  Si0+  Si116  1  0.07137567  0.67635784  0.31683583  1
  Si0+  Si117  1  0.68144088  0.42791454  0.34879090  1
  Si0+  Si118  1  0.82402998  0.07020930  0.01828082  1
  Si0+  Si119  1  0.42816219  0.82207868  0.98600061  1
  O2-  O120  1  0.24567795  0.00555668  0.05898762  1
  O2-  O121  1  0.24953752  0.00014280  0.39009484  1
  O2-  O122  1  0.25008334  -0.00816903  0.72671546  1
  O2-  O123  1  0.24936322  0.50198561  0.06523490  1
  O2-  O124  1  0.24568365  0.49555355  0.39572460  1
  O2-  O125  1  0.25178439  0.50619736  0.72573971  1
  O2-  O126  1  0.75695620  0.00010838  0.06306370  1
  O2-  O127  1  0.74724962  0.00144898  0.39088483  1
  O2-  O128  1  0.74928508  -0.00494805  0.72584054  1
  O2-  O129  1  0.75136372  0.49711882  0.06660223  1
  O2-  O130  1  0.75266497  0.49905869  0.39178319  1
  O2-  O131  1  0.74577659  0.51169517  0.72306174  1
  O2-  O132  1  0.00043308  0.25808155  0.27678641  1
  O2-  O133  1  0.00164563  0.24851221  0.60907679  1
  O2-  O134  1  0.00518222  0.25251212  0.93130967  1
  O2-  O135  1  -0.00067900  0.74158798  0.27362815  1
  O2-  O136  1  -0.00428316  0.75454632  0.60553636  1
  O2-  O137  1  -0.00659168  0.74591213  0.93497693  1
  O2-  O138  1  0.50305744  0.25259081  0.26881402  1
  O2-  O139  1  0.49728923  0.25597636  0.60734242  1
  O2-  O140  1  0.50005176  0.25899496  0.93642142  1
  O2-  O141  1  0.50116885  0.74326272  0.27012520  1
  O2-  O142  1  0.49858664  0.74562803  0.60287375  1
  O2-  O143  1  0.49543561  0.74720026  0.94599528  1
  O2-  O144  1  0.07171339  0.17748755  0.09540646  1
  O2-  O145  1  0.06938347  0.17839055  0.43683782  1
  O2-  O146  1  0.07305311  0.17904331  0.75709164  1
  O2-  O147  1  0.07253688  0.68575363  0.10036100  1
  O2-  O148  1  0.06954833  0.67762113  0.42289607  1
  O2-  O149  1  0.06771890  0.67615492  0.76347767  1
  O2-  O150  1  0.56470914  0.17801804  0.09732487  1
  O2-  O151  1  0.57424426  0.17969314  0.43129305  1
  O2-  O152  1  0.57175894  0.18094029  0.76615130  1
  O2-  O153  1  0.56943878  0.68091422  0.09355244  1
  O2-  O154  1  0.57331742  0.67989269  0.42124614  1
  O2-  O155  1  0.57205331  0.67688725  0.76691628  1
  O2-  O156  1  0.17638231  0.42650357  0.24583014  1
  O2-  O157  1  0.18066636  0.42767190  0.56630258  1
  O2-  O158  1  0.18072994  0.43008071  0.90297122  1
  O2-  O159  1  0.17688346  0.93224239  0.24234429  1
  O2-  O160  1  0.17271855  0.93056787  0.57802803  1
  O2-  O161  1  0.18292719  0.92872100  0.90994752  1
  O2-  O162  1  0.68319740  0.42801667  0.24428662  1
  O2-  O163  1  0.68210130  0.42761395  0.56483831  1
  O2-  O164  1  0.67808012  0.42854276  0.90335376  1
  O2-  O165  1  0.67758146  0.92629610  0.24591169  1
  O2-  O166  1  0.68027178  0.92983655  0.57527452  1
  O2-  O167  1  0.67580208  0.93214325  0.90077497  1
  O2-  O168  1  0.43039712  0.32247636  0.08772045  1
  O2-  O169  1  0.42895884  0.31989754  0.43249027  1
  O2-  O170  1  0.42352717  0.31792662  0.75774940  1
  O2-  O171  1  0.42810069  0.82334022  0.09122464  1
  O2-  O172  1  0.43123698  0.82141119  0.43051117  1
  O2-  O173  1  0.43186489  0.82121524  0.76636945  1
  O2-  O174  1  0.93051599  0.31618810  0.09771382  1
  O2-  O175  1  0.92421114  0.32134492  0.42416665  1
  O2-  O176  1  0.92958590  0.32096749  0.75501817  1
  O2-  O177  1  0.92685210  0.82035880  0.09745394  1
  O2-  O178  1  0.93241616  0.82103721  0.43413888  1
  O2-  O179  1  0.92862670  0.82589114  0.75472283  1
  O2-  O180  1  0.32041147  0.06807379  0.24174690  1
  O2-  O181  1  0.31963282  0.07018714  0.56554471  1
  O2-  O182  1  0.32522575  0.06585537  0.91162805  1
  O2-  O183  1  0.31635598  0.57351547  0.23799356  1
  O2-  O184  1  0.31953544  0.57231667  0.57587855  1
  O2-  O185  1  0.32083021  0.57533134  0.90020237  1
  O2-  O186  1  0.82260785  0.06758769  0.24209257  1
  O2-  O187  1  0.82418253  0.07038818  0.56683574  1
  O2-  O188  1  0.82152652  0.06974730  0.91249632  1
  O2-  O189  1  0.82098529  0.57474604  0.24583551  1
  O2-  O190  1  0.82320125  0.56877809  0.57387806  1
  O2-  O191  1  0.81563775  0.57188554  0.90014005  1
  O2-  O192  1  0.03687720  0.08553172  0.26641616  1
  O2-  O193  1  0.04591170  0.08579365  0.60651530  1
  O2-  O194  1  0.04772495  0.08072266  0.92765540  1
  O2-  O195  1  0.04958975  0.58078323  0.27392984  1
  O2-  O196  1  0.03559709  0.58281180  0.59318069  1
  O2-  O197  1  0.04737293  0.57947150  0.93665595  1
  O2-  O198  1  0.54370062  0.08041449  0.26539472  1
  O2-  O199  1  0.54324825  0.08501654  0.59921886  1
  O2-  O200  1  0.53270700  0.08452732  0.93102953  1
  O2-  O201  1  0.55103436  0.58243495  0.27238316  1
  O2-  O202  1  0.54541524  0.57625687  0.59910073  1
  O2-  O203  1  0.54332379  0.58553669  0.94259717  1
  O2-  O204  1  0.16729581  0.20397564  0.26722298  1
  O2-  O205  1  0.16482008  0.20800000  0.60605097  1
  O2-  O206  1  0.17695246  0.20192645  0.93279709  1
  O2-  O207  1  0.16386504  0.70554407  0.27276095  1
  O2-  O208  1  0.16422242  0.70785096  0.59394325  1
  O2-  O209  1  0.16610856  0.71585777  0.93133736  1
  O2-  O210  1  0.67237674  0.20449028  0.26470653  1
  O2-  O211  1  0.66952403  0.21296890  0.59951504  1
  O2-  O212  1  0.66852496  0.20299137  0.93373586  1
  O2-  O213  1  0.66482061  0.70681643  0.27014969  1
  O2-  O214  1  0.67062893  0.70334093  0.59747546  1
  O2-  O215  1  0.65848119  0.70933781  0.93981909  1
  O2-  O216  1  0.07943403  0.45191796  0.06987323  1
  O2-  O217  1  0.08324564  0.44878185  0.39741448  1
  O2-  O218  1  0.08047190  0.46011449  0.73008716  1
  O2-  O219  1  0.08504538  0.95660047  0.06038378  1
  O2-  O220  1  0.08596222  0.96025835  0.39566190  1
  O2-  O221  1  0.08659026  0.95561297  0.73358621  1
  O2-  O222  1  0.58154576  0.45523591  0.07155125  1
  O2-  O223  1  0.58963671  0.45473862  0.39646455  1
  O2-  O224  1  0.57887067  0.45220561  0.73298691  1
  O2-  O225  1  0.58364366  0.96541693  0.07024065  1
  O2-  O226  1  0.58433112  0.95566430  0.39676327  1
  O2-  O227  1  0.58645203  0.95435898  0.72713772  1
  O2-  O228  1  0.20937169  0.32928363  0.06863149  1
  O2-  O229  1  0.20627381  0.33164927  0.39542863  1
  O2-  O230  1  0.20802317  0.33457643  0.73657581  1
  O2-  O231  1  0.20953663  0.84225987  0.06549475  1
  O2-  O232  1  0.20275452  0.83803420  0.39470948  1
  O2-  O233  1  0.19940848  0.83096286  0.72680225  1
  O2-  O234  1  0.70856041  0.32645632  0.06861149  1
  O2-  O235  1  0.71114597  0.33563831  0.39574723  1
  O2-  O236  1  0.71567271  0.33706597  0.73331108  1
  O2-  O237  1  0.70298945  0.83379455  0.07154447  1
  O2-  O238  1  0.70597878  0.83717263  0.39954512  1
  O2-  O239  1  0.70342291  0.83301504  0.72562601  1
  O2-  O240  1  0.45650922  0.42266410  0.26724075  1
  O2-  O241  1  0.44523746  0.41586648  0.60825865  1
  O2-  O242  1  0.45170853  0.42096075  0.93906543  1
  O2-  O243  1  0.45948613  0.91421282  0.26187505  1
  O2-  O244  1  0.46233290  0.91725393  0.59682604  1
  O2-  O245  1  0.46116451  0.91215176  0.93898660  1
  O2-  O246  1  0.94859765  0.41877483  0.27433943  1
  O2-  O247  1  0.95640346  0.41028768  0.60017907  1
  O2-  O248  1  0.95305910  0.42100995  0.93238877  1
  O2-  O249  1  0.96110425  0.91336076  0.26390337  1
  O2-  O250  1  0.95866543  0.91846294  0.60407561  1
  O2-  O251  1  0.95516639  0.91773833  0.93043278  1
  O2-  O252  1  0.33316099  0.29323279  0.26255876  1
  O2-  O253  1  0.33284973  0.28959181  0.60537634  1
  O2-  O254  1  0.33703684  0.29720730  0.93673152  1
  O2-  O255  1  0.32978273  0.79130319  0.26602506  1
  O2-  O256  1  0.32962877  0.80025024  0.59848630  1
  O2-  O257  1  0.33587024  0.79968099  0.93788644  1
  O2-  O258  1  0.83693354  0.29387346  0.26943509  1
  O2-  O259  1  0.83963660  0.28881772  0.60187896  1
  O2-  O260  1  0.83301182  0.28858414  0.93022221  1
  O2-  O261  1  0.83017060  0.79171796  0.26998993  1
  O2-  O262  1  0.83516455  0.80310253  0.60181844  1
  O2-  O263  1  0.82284084  0.79761935  0.93394001  1
  O2-  O264  1  0.41048337  0.03568586  0.06680386  1
  O2-  O265  1  0.41338819  0.03966675  0.39316514  1
  O2-  O266  1  0.41930898  0.03775234  0.73364812  1
  O2-  O267  1  0.41736093  0.54826168  0.07068101  1
  O2-  O268  1  0.41898339  0.54366903  0.40353423  1
  O2-  O269  1  0.41462301  0.55056608  0.72726005  1
  O2-  O270  1  0.91971215  0.04654361  0.06091129  1
  O2-  O271  1  0.91174446  0.03731151  0.39528871  1
  O2-  O272  1  0.91910147  0.04379665  0.73693601  1
  O2-  O273  1  0.91886701  0.54648123  0.06823963  1
  O2-  O274  1  0.91479003  0.54736072  0.39758806  1
  O2-  O275  1  0.91196977  0.53914036  0.72632261  1
  O2-  O276  1  0.30208410  0.16447741  0.06226423  1
  O2-  O277  1  0.29511110  0.16295372  0.39303184  1
  O2-  O278  1  0.29033311  0.16245873  0.73730248  1
  O2-  O279  1  0.29063516  0.67399196  0.06651557  1
  O2-  O280  1  0.28846396  0.66821295  0.40526692  1
  O2-  O281  1  0.29565265  0.66958358  0.72388635  1
  O2-  O282  1  0.79670962  0.16273842  0.06466362  1
  O2-  O283  1  0.79741725  0.16257482  0.39405861  1
  O2-  O284  1  0.79116066  0.16663445  0.73562692  1
  O2-  O285  1  0.78755309  0.66789341  0.06894319  1
  O2-  O286  1  0.79148769  0.66322961  0.39981837  1
  O2-  O287  1  0.80599529  0.67012065  0.72162407  1
