# generated using pymatgen
data_Ca2Al2SiO7
_symmetry_space_group_name_H-M   'P 1'
_cell_length_a   15.45978681
_cell_length_b   15.45977042
_cell_length_c   15.28515327
_cell_angle_alpha   89.99939390
_cell_angle_beta   90.00604769
_cell_angle_gamma   90.01741218
_symmetry_Int_Tables_number   1
_chemical_formula_structural   Ca2Al2SiO7
_chemical_formula_sum   'Ca48 Al48 Si24 O168'
_cell_volume   3653.22412232
_cell_formula_units_Z   24
loop_
 _symmetry_equiv_pos_site_id
 _symmetry_equiv_pos_as_xyz
  1  'x, y, z'
loop_
 _atom_type_symbol
 _atom_type_oxidation_number
  Ca2+  2.0
  Al0+  0.0
  Si0+  0.0
  O2-  -2.0
loop_
 _atom_site_type_symbol
 _atom_site_label
 _atom_site_symmetry_multiplicity
 _atom_site_fract_x
 _atom_site_fract_y
 _atom_site_fract_z
 _atom_site_occupancy
  Ca2+  Ca0  1  0.17847455  0.09086633  0.17007105  1
  Ca2+  Ca1  1  0.17952875  0.07759884  0.50711219  1
  Ca2+  Ca2  1  0.17611018  0.08390994  0.83781033  1
  Ca2+  Ca3  1  0.16205773  0.57750580  0.17340480  1
  Ca2+  Ca4  1  0.17277732  0.58212835  0.50391223  1
  Ca2+  Ca5  1  0.16891664  0.57509179  0.83771002  1
  Ca2+  Ca6  1  0.67524440  0.07871196  0.16979466  1
  Ca2+  Ca7  1  0.66958722  0.07904764  0.49855916  1
  Ca2+  Ca8  1  0.66934257  0.08407419  0.84445893  1
  Ca2+  Ca9  1  0.66334076  0.56962895  0.17143655  1
  Ca2+  Ca10  1  0.66198939  0.57656277  0.50038207  1
  Ca2+  Ca11  1  0.66893302  0.57567740  0.84069986  1
  Ca2+  Ca12  1  0.08625605  0.33134721  0.15834160  1
  Ca2+  Ca13  1  0.08857124  0.33732326  0.49697041  1
  Ca2+  Ca14  1  0.09349765  0.32980375  0.83403366  1
  Ca2+  Ca15  1  0.08289784  0.82133362  0.16295225  1
  Ca2+  Ca16  1  0.07776143  0.83464867  0.49074932  1
  Ca2+  Ca17  1  0.08042718  0.83211053  0.82638233  1
  Ca2+  Ca18  1  0.58348423  0.32927031  0.15827481  1
  Ca2+  Ca19  1  0.57558901  0.32932421  0.49741514  1
  Ca2+  Ca20  1  0.57984554  0.32101870  0.82510390  1
  Ca2+  Ca21  1  0.58031514  0.84540702  0.16669587  1
  Ca2+  Ca22  1  0.57663257  0.83275662  0.48964596  1
  Ca2+  Ca23  1  0.58431479  0.83540440  0.83140716  1
  Ca2+  Ca24  1  0.31948762  0.42202843  0.17537793  1
  Ca2+  Ca25  1  0.32475257  0.42587129  0.50704373  1
  Ca2+  Ca26  1  0.32880117  0.41487240  0.83269923  1
  Ca2+  Ca27  1  0.33750870  0.92894381  0.17304545  1
  Ca2+  Ca28  1  0.33326841  0.92340863  0.50421756  1
  Ca2+  Ca29  1  0.33025371  0.92739103  0.83479490  1
  Ca2+  Ca30  1  0.82036046  0.41064038  0.16987724  1
  Ca2+  Ca31  1  0.82651302  0.41589196  0.49885044  1
  Ca2+  Ca32  1  0.82642640  0.41639348  0.84050803  1
  Ca2+  Ca33  1  0.82757258  0.92429260  0.17365139  1
  Ca2+  Ca34  1  0.83713166  0.91524057  0.50092031  1
  Ca2+  Ca35  1  0.82774477  0.92054314  0.84133256  1
  Ca2+  Ca36  1  0.42104873  0.16366206  0.15803587  1
  Ca2+  Ca37  1  0.41549299  0.16513759  0.49945376  1
  Ca2+  Ca38  1  0.42438117  0.16505426  0.82608142  1
  Ca2+  Ca39  1  0.40963246  0.67401307  0.16885833  1
  Ca2+  Ca40  1  0.40870956  0.66998595  0.49137918  1
  Ca2+  Ca41  1  0.41766771  0.66506542  0.82853232  1
  Ca2+  Ca42  1  0.91991399  0.16188128  0.16082179  1
  Ca2+  Ca43  1  0.91959896  0.16565846  0.49359502  1
  Ca2+  Ca44  1  0.92171973  0.16276838  0.83475412  1
  Ca2+  Ca45  1  0.92604440  0.66877963  0.16444689  1
  Ca2+  Ca46  1  0.92517196  0.67944807  0.48964468  1
  Ca2+  Ca47  1  0.92334413  0.67234899  0.82768882  1
  Al0+  Al48  1  0.00116974  -0.00043149  -0.00187324  1
  Al0+  Al49  1  0.00015887  0.00217449  0.33007300  1
  Al0+  Al50  1  -0.00135966  0.00063340  0.66610948  1
  Al0+  Al51  1  -0.00000928  0.50114037  -0.00260154  1
  Al0+  Al52  1  -0.00399997  0.49790828  0.33223193  1
  Al0+  Al53  1  -0.00091923  0.50003958  0.66910284  1
  Al0+  Al54  1  0.49910464  0.00110508  0.00050326  1
  Al0+  Al55  1  0.50290781  0.00053287  0.33681803  1
  Al0+  Al56  1  0.50281162  -0.00242717  0.66515671  1
  Al0+  Al57  1  0.49851367  0.50292537  0.00339867  1
  Al0+  Al58  1  0.49771019  0.49875785  0.33925826  1
  Al0+  Al59  1  0.50031339  0.49729089  0.66720503  1
  Al0+  Al60  1  0.24963374  0.25210477  0.00329030  1
  Al0+  Al61  1  0.25132741  0.25132002  0.34103610  1
  Al0+  Al62  1  0.25176116  0.25062647  0.66843812  1
  Al0+  Al63  1  0.24998508  0.75093324  -0.00762589  1
  Al0+  Al64  1  0.25029995  0.75081399  0.32533200  1
  Al0+  Al65  1  0.25039331  0.74866101  0.67439629  1
  Al0+  Al66  1  0.74998789  0.24960201  0.00246574  1
  Al0+  Al67  1  0.74994000  0.24855279  0.34140291  1
  Al0+  Al68  1  0.75071907  0.24775416  0.66155657  1
  Al0+  Al69  1  0.74823925  0.74987754  0.00348347  1
  Al0+  Al70  1  0.74879247  0.74883978  0.33031866  1
  Al0+  Al71  1  0.75131619  0.74955934  0.66238478  1
  Al0+  Al72  1  0.67739043  0.42791560  0.34901356  1
  Al0+  Al73  1  0.07100966  0.67810092  0.98222237  1
  Al0+  Al74  1  0.43050495  0.82242297  0.31964434  1
  Al0+  Al75  1  0.17615546  0.92915810  0.68063429  1
  Al0+  Al76  1  0.32334906  0.57148309  0.68385547  1
  Al0+  Al77  1  0.57034717  0.18028101  0.98834532  1
  Al0+  Al78  1  0.32293588  0.07135784  0.34738225  1
  Al0+  Al79  1  0.68035622  0.92736098  0.35017418  1
  Al0+  Al80  1  0.31899247  0.07061428  0.01327681  1
  Al0+  Al81  1  0.67839024  0.42923152  0.01123527  1
  Al0+  Al82  1  0.92707402  0.82419794  0.31466218  1
  Al0+  Al83  1  0.07070227  0.67818336  0.31845935  1
  Al0+  Al84  1  0.07270228  0.17906790  0.98673411  1
  Al0+  Al85  1  0.67774699  0.92802699  0.01464676  1
  Al0+  Al86  1  0.82333704  0.06953061  0.35056803  1
  Al0+  Al87  1  0.42825313  0.32048690  0.64976196  1
  Al0+  Al88  1  0.18008009  0.43149078  0.01443295  1
  Al0+  Al89  1  0.31814211  0.57305523  0.34661922  1
  Al0+  Al90  1  0.57282480  0.17573336  0.64816457  1
  Al0+  Al91  1  0.32344212  0.06978924  0.68271870  1
  Al0+  Al92  1  0.82354345  0.07093987  0.01395101  1
  Al0+  Al93  1  0.92972612  0.82138830  0.65282601  1
  Al0+  Al94  1  0.17684066  0.42953591  0.68417086  1
  Al0+  Al95  1  0.17524142  0.42905130  0.34853443  1
  Si0+  Si96  1  0.42790264  0.32467852  0.98553302  1
  Si0+  Si97  1  0.07306955  0.18170463  0.32000513  1
  Si0+  Si98  1  0.81897721  0.57150279  0.68050835  1
  Si0+  Si99  1  0.92797052  0.32235300  0.65123480  1
  Si0+  Si100  1  0.68058590  0.42727030  0.68156100  1
  Si0+  Si101  1  0.57216411  0.67780725  0.65286868  1
  Si0+  Si102  1  0.07183956  0.67766385  0.65050762  1
  Si0+  Si103  1  0.68138748  0.92676949  0.68079124  1
  Si0+  Si104  1  0.92682977  0.82086977  0.98293225  1
  Si0+  Si105  1  0.57123046  0.67755092  0.98539867  1
  Si0+  Si106  1  0.17808835  0.92619894  0.01653790  1
  Si0+  Si107  1  0.42847802  0.32125199  0.31777770  1
  Si0+  Si108  1  0.17912526  0.92895359  0.34509320  1
  Si0+  Si109  1  0.07073680  0.18019466  0.65212544  1
  Si0+  Si110  1  0.57110171  0.18088686  0.31747892  1
  Si0+  Si111  1  0.57111579  0.67468165  0.31607355  1
  Si0+  Si112  1  0.92634405  0.31949248  0.31861795  1
  Si0+  Si113  1  0.92745098  0.32141884  0.98382065  1
  Si0+  Si114  1  0.82084159  0.07216397  0.68261017  1
  Si0+  Si115  1  0.82074912  0.57138299  0.34979141  1
  Si0+  Si116  1  0.32229671  0.57578451  0.01802694  1
  Si0+  Si117  1  0.43042403  0.82217405  0.98306774  1
  Si0+  Si118  1  0.82186346  0.57227954  0.01629295  1
  Si0+  Si119  1  0.42934625  0.81848479  0.65328261  1
  O2-  O120  1  0.24323448  -0.00226619  0.06145165  1
  O2-  O121  1  0.24864742  -0.00466181  0.39154940  1
  O2-  O122  1  0.24830125  0.00052783  0.73194634  1
  O2-  O123  1  0.25243178  0.50801588  0.06089187  1
  O2-  O124  1  0.24399940  0.50425135  0.39716293  1
  O2-  O125  1  0.25046212  0.50040951  0.73349704  1
  O2-  O126  1  0.75221844  -0.00195124  0.06270552  1
  O2-  O127  1  0.75647223  -0.00636243  0.40221106  1
  O2-  O128  1  0.74919635  0.00084818  0.72291377  1
  O2-  O129  1  0.75326550  0.50291521  0.05962139  1
  O2-  O130  1  0.74929743  0.50580299  0.39538177  1
  O2-  O131  1  0.75033372  0.49897500  0.72449193  1
  O2-  O132  1  0.00133411  0.25245616  0.27763610  1
  O2-  O133  1  0.00245948  0.25445678  0.61005057  1
  O2-  O134  1  -0.00335469  0.25311494  0.93936909  1
  O2-  O135  1  -0.00075557  0.75087975  0.26719856  1
  O2-  O136  1  0.00867333  0.75126213  0.60629066  1
  O2-  O137  1  -0.00380060  0.75373548  0.93689690  1
  O2-  O138  1  0.49919756  0.25060110  0.27419553  1
  O2-  O139  1  0.49804743  0.24581382  0.59930167  1
  O2-  O140  1  0.49785881  0.25704888  0.94146530  1
  O2-  O141  1  0.50515027  0.74656023  0.27242961  1
  O2-  O142  1  0.49658371  0.74364010  0.61133125  1
  O2-  O143  1  0.50189758  0.74994459  0.94240493  1
  O2-  O144  1  0.07401561  0.18271156  0.09993567  1
  O2-  O145  1  0.07215741  0.18192716  0.42538204  1
  O2-  O146  1  0.06792377  0.17946678  0.75730269  1
  O2-  O147  1  0.06947392  0.67797002  0.09502899  1
  O2-  O148  1  0.06984743  0.67957617  0.43236325  1
  O2-  O149  1  0.06647409  0.67659107  0.75616107  1
  O2-  O150  1  0.56951727  0.18145833  0.10161267  1
  O2-  O151  1  0.57074298  0.18236681  0.42249621  1
  O2-  O152  1  0.57672808  0.17823702  0.76209604  1
  O2-  O153  1  0.57038650  0.67290402  0.08968896  1
  O2-  O154  1  0.56980282  0.67389375  0.42217085  1
  O2-  O155  1  0.57597366  0.68043333  0.75833986  1
  O2-  O156  1  0.17738183  0.42704483  0.23482704  1
  O2-  O157  1  0.17349377  0.43415506  0.57103790  1
  O2-  O158  1  0.18255759  0.43090849  0.90176617  1
  O2-  O159  1  0.18082428  0.93189779  0.23941979  1
  O2-  O160  1  0.17671245  0.93107242  0.56667318  1
  O2-  O161  1  0.18084624  0.92609310  0.91087053  1
  O2-  O162  1  0.67873373  0.42697128  0.23571594  1
  O2-  O163  1  0.68217862  0.42915558  0.57655517  1
  O2-  O164  1  0.68058753  0.43149471  0.89770695  1
  O2-  O165  1  0.67801616  0.93440639  0.23712662  1
  O2-  O166  1  0.68278870  0.92365323  0.57636659  1
  O2-  O167  1  0.67929160  0.92680226  0.90016741  1
  O2-  O168  1  0.42948891  0.32440149  0.09149230  1
  O2-  O169  1  0.42986013  0.32045656  0.42249181  1
  O2-  O170  1  0.43383913  0.32185179  0.76382917  1
  O2-  O171  1  0.42988299  0.82226359  0.08795533  1
  O2-  O172  1  0.43100026  0.82132288  0.43313795  1
  O2-  O173  1  0.43399538  0.81986560  0.75864964  1
  O2-  O174  1  0.92663001  0.32210174  0.08940109  1
  O2-  O175  1  0.92493668  0.31860131  0.42406717  1
  O2-  O176  1  0.92196014  0.32100086  0.75604252  1
  O2-  O177  1  0.92715204  0.81840254  0.08796438  1
  O2-  O178  1  0.93113846  0.82236698  0.42877090  1
  O2-  O179  1  0.92519237  0.81730770  0.76590719  1
  O2-  O180  1  0.32188518  0.07316788  0.23402052  1
  O2-  O181  1  0.32215696  0.06605210  0.56904236  1
  O2-  O182  1  0.32062596  0.06851707  0.90053219  1
  O2-  O183  1  0.31976112  0.56974693  0.23292640  1
  O2-  O184  1  0.32212085  0.57406792  0.57072313  1
  O2-  O185  1  0.32489790  0.57457894  0.91254832  1
  O2-  O186  1  0.82121342  0.07379224  0.23751966  1
  O2-  O187  1  0.82256317  0.07300572  0.57796759  1
  O2-  O188  1  0.82172346  0.07021806  0.89956897  1
  O2-  O189  1  0.82071515  0.56717898  0.24419923  1
  O2-  O190  1  0.81630733  0.57084077  0.57580959  1
  O2-  O191  1  0.81890508  0.57244375  0.90992270  1
  O2-  O192  1  0.04734384  0.09048469  0.27098092  1
  O2-  O193  1  0.03867178  0.09036329  0.60353483  1
  O2-  O194  1  0.04470327  0.08178518  0.93145624  1
  O2-  O195  1  0.03769826  0.57963228  0.26624857  1
  O2-  O196  1  0.03982018  0.58585453  0.60454301  1
  O2-  O197  1  0.03779893  0.58245077  0.92720486  1
  O2-  O198  1  0.54436144  0.08847730  0.27200537  1
  O2-  O199  1  0.54764930  0.07567748  0.59688323  1
  O2-  O200  1  0.53844248  0.08429861  0.93321369  1
  O2-  O201  1  0.54185476  0.58139893  0.27031529  1
  O2-  O202  1  0.55037319  0.58383159  0.60762066  1
  O2-  O203  1  0.54170461  0.58702438  0.93458615  1
  O2-  O204  1  0.16516313  0.21118081  0.27358174  1
  O2-  O205  1  0.16362725  0.20421092  0.60575046  1
  O2-  O206  1  0.16812919  0.21374007  0.93194926  1
  O2-  O207  1  0.16774432  0.70534750  0.26185990  1
  O2-  O208  1  0.16870728  0.69787515  0.61013234  1
  O2-  O209  1  0.16774919  0.70799658  0.92761550  1
  O2-  O210  1  0.66349381  0.21154551  0.27311099  1
  O2-  O211  1  0.67030625  0.20768375  0.59439121  1
  O2-  O212  1  0.66774032  0.20982464  0.93430458  1
  O2-  O213  1  0.66606988  0.69366904  0.27069548  1
  O2-  O214  1  0.66130426  0.70902712  0.60237660  1
  O2-  O215  1  0.66394882  0.70307233  0.93721001  1
  O2-  O216  1  0.08068353  0.45868967  0.06465587  1
  O2-  O217  1  0.07349689  0.44916143  0.39774142  1
  O2-  O218  1  0.07716627  0.45634932  0.73723365  1
  O2-  O219  1  0.08280072  0.94639278  0.05955716  1
  O2-  O220  1  0.08616718  0.95606144  0.39087770  1
  O2-  O221  1  0.07787219  0.95830932  0.73439038  1
  O2-  O222  1  0.58289569  0.46169167  0.06652745  1
  O2-  O223  1  0.58194235  0.45808416  0.40461465  1
  O2-  O224  1  0.58933634  0.45415347  0.72900982  1
  O2-  O225  1  0.58030512  0.95863687  0.06645004  1
  O2-  O226  1  0.58463131  0.96118524  0.40535254  1
  O2-  O227  1  0.58855419  0.95040646  0.72761367  1
  O2-  O228  1  0.21116959  0.33611146  0.07009119  1
  O2-  O229  1  0.20833441  0.33363220  0.40417317  1
  O2-  O230  1  0.20480916  0.33007996  0.73454840  1
  O2-  O231  1  0.20791963  0.83310789  0.06091175  1
  O2-  O232  1  0.20232236  0.83460147  0.38908719  1
  O2-  O233  1  0.20262400  0.83109392  0.73469641  1
  O2-  O234  1  0.70967265  0.33447252  0.06740707  1
  O2-  O235  1  0.71307175  0.33500060  0.40582885  1
  O2-  O236  1  0.71174413  0.33548293  0.72669908  1
  O2-  O237  1  0.69989460  0.82797568  0.06733312  1
  O2-  O238  1  0.69859203  0.82443947  0.39817481  1
  O2-  O239  1  0.71163340  0.83549700  0.72904190  1
  O2-  O240  1  0.45655019  0.41335780  0.27122624  1
  O2-  O241  1  0.46147589  0.41822402  0.59660227  1
  O2-  O242  1  0.45164549  0.41949497  0.94073002  1
  O2-  O243  1  0.46472081  0.91875408  0.26558942  1
  O2-  O244  1  0.46088245  0.90806994  0.60421080  1
  O2-  O245  1  0.46048015  0.91234767  0.93380069  1
  O2-  O246  1  0.94648822  0.41235697  0.27034830  1
  O2-  O247  1  0.95221394  0.41557010  0.60433060  1
  O2-  O248  1  0.95028275  0.41549391  0.93718524  1
  O2-  O249  1  0.95521462  0.92320920  0.26284209  1
  O2-  O250  1  0.95525808  0.91982947  0.59962567  1
  O2-  O251  1  0.95113958  0.91485302  0.93680275  1
  O2-  O252  1  0.33575449  0.29295638  0.27217124  1
  O2-  O253  1  0.32822673  0.29635972  0.59794595  1
  O2-  O254  1  0.33504798  0.29744775  0.94008446  1
  O2-  O255  1  0.33537253  0.79424063  0.26129444  1
  O2-  O256  1  0.33544908  0.79464269  0.60850922  1
  O2-  O257  1  0.33961040  0.79504339  0.93336012  1
  O2-  O258  1  0.83532172  0.28737179  0.27158376  1
  O2-  O259  1  0.83874490  0.29130194  0.60020386  1
  O2-  O260  1  0.83454731  0.29481584  0.93603101  1
  O2-  O261  1  0.82767365  0.79533932  0.26400986  1
  O2-  O262  1  0.83536939  0.78533079  0.59667229  1
  O2-  O263  1  0.83235496  0.79368860  0.93780415  1
  O2-  O264  1  0.41432096  0.03725365  0.06754551  1
  O2-  O265  1  0.41852129  0.04075182  0.40139813  1
  O2-  O266  1  0.42198191  0.03713653  0.73378714  1
  O2-  O267  1  0.41578521  0.55225672  0.06488796  1
  O2-  O268  1  0.41565987  0.54428603  0.40083298  1
  O2-  O269  1  0.42307443  0.54287614  0.73611296  1
  O2-  O270  1  0.92295971  0.04468966  0.06576290  1
  O2-  O271  1  0.92423571  0.04675478  0.40189504  1
  O2-  O272  1  0.91225840  0.04456952  0.73032509  1
  O2-  O273  1  0.91517930  0.54661923  0.06108606  1
  O2-  O274  1  0.91153876  0.54129027  0.39868254  1
  O2-  O275  1  0.91027353  0.54484434  0.72908728  1
  O2-  O276  1  0.29044241  0.16735372  0.06777869  1
  O2-  O277  1  0.29045776  0.16567907  0.40353572  1
  O2-  O278  1  0.29806225  0.16939360  0.73287114  1
  O2-  O279  1  0.29693571  0.67096162  0.06011102  1
  O2-  O280  1  0.29332299  0.67371709  0.39681419  1
  O2-  O281  1  0.29854728  0.66963669  0.73922327  1
  O2-  O282  1  0.79616369  0.16924089  0.06681372  1
  O2-  O283  1  0.79087363  0.16567231  0.40619521  1
  O2-  O284  1  0.79341065  0.16450190  0.72928997  1
  O2-  O285  1  0.79570668  0.66456222  0.06319719  1
  O2-  O286  1  0.79865058  0.66603025  0.39439839  1
  O2-  O287  1  0.78796021  0.66189864  0.72935008  1
