# generated using pymatgen
data_Ca2Al2SiO7
_symmetry_space_group_name_H-M   'P 1'
_cell_length_a   15.45594981
_cell_length_b   15.45559104
_cell_length_c   15.28219693
_cell_angle_alpha   89.99412426
_cell_angle_beta   89.99149683
_cell_angle_gamma   90.00706041
_symmetry_Int_Tables_number   1
_chemical_formula_structural   Ca2Al2SiO7
_chemical_formula_sum   'Ca48 Al48 Si24 O168'
_cell_volume   3650.62394403
_cell_formula_units_Z   24
loop_
 _symmetry_equiv_pos_site_id
 _symmetry_equiv_pos_as_xyz
  1  'x, y, z'
loop_
 _atom_type_symbol
 _atom_type_oxidation_number
  Ca2+  2.0
  Al0+  0.0
  Si0+  0.0
  O2-  -2.0
loop_
 _atom_site_type_symbol
 _atom_site_label
 _atom_site_symmetry_multiplicity
 _atom_site_fract_x
 _atom_site_fract_y
 _atom_site_fract_z
 _atom_site_occupancy
  Ca2+  Ca0  1  0.17473014  0.07925409  0.16736136  1
  Ca2+  Ca1  1  0.18019544  0.08522905  0.50386224  1
  Ca2+  Ca2  1  0.18058023  0.07866783  0.84049759  1
  Ca2+  Ca3  1  0.17891989  0.58769118  0.17178704  1
  Ca2+  Ca4  1  0.16913440  0.58208341  0.50216192  1
  Ca2+  Ca5  1  0.17273741  0.57632259  0.83810821  1
  Ca2+  Ca6  1  0.66420297  0.07345978  0.16669133  1
  Ca2+  Ca7  1  0.66665654  0.07645562  0.50671989  1
  Ca2+  Ca8  1  0.67136050  0.08558071  0.84063598  1
  Ca2+  Ca9  1  0.66815528  0.57814466  0.18184856  1
  Ca2+  Ca10  1  0.66288644  0.58242445  0.49646380  1
  Ca2+  Ca11  1  0.66270188  0.58327698  0.83510814  1
  Ca2+  Ca12  1  0.08073061  0.33171712  0.16462550  1
  Ca2+  Ca13  1  0.08059934  0.33813072  0.50027030  1
  Ca2+  Ca14  1  0.07846397  0.33337448  0.82472504  1
  Ca2+  Ca15  1  0.07422959  0.83538834  0.16152294  1
  Ca2+  Ca16  1  0.07495937  0.82810317  0.48787148  1
  Ca2+  Ca17  1  0.08002554  0.84234646  0.83484709  1
  Ca2+  Ca18  1  0.57378365  0.33157016  0.16139361  1
  Ca2+  Ca19  1  0.58034000  0.32579411  0.49249598  1
  Ca2+  Ca20  1  0.57681539  0.31964957  0.83242174  1
  Ca2+  Ca21  1  0.59117968  0.83070354  0.16686652  1
  Ca2+  Ca22  1  0.58159575  0.82607414  0.49660062  1
  Ca2+  Ca23  1  0.57907181  0.83101610  0.82670054  1
  Ca2+  Ca24  1  0.34246769  0.42325368  0.17267933  1
  Ca2+  Ca25  1  0.33322682  0.42104172  0.49991941  1
  Ca2+  Ca26  1  0.33401085  0.42035687  0.83783934  1
  Ca2+  Ca27  1  0.33619194  0.93104102  0.17035099  1
  Ca2+  Ca28  1  0.33982348  0.92532451  0.50480738  1
  Ca2+  Ca29  1  0.33500919  0.92379134  0.83933348  1
  Ca2+  Ca30  1  0.82247934  0.42361554  0.17710878  1
  Ca2+  Ca31  1  0.83073795  0.42063919  0.50287952  1
  Ca2+  Ca32  1  0.83262823  0.41589472  0.83509292  1
  Ca2+  Ca33  1  0.82577572  0.91221477  0.16888595  1
  Ca2+  Ca34  1  0.82815355  0.91582052  0.50079083  1
  Ca2+  Ca35  1  0.82739894  0.92733952  0.84457103  1
  Ca2+  Ca36  1  0.41522102  0.17568372  0.15900911  1
  Ca2+  Ca37  1  0.41783770  0.16694767  0.49427792  1
  Ca2+  Ca38  1  0.42610562  0.15641539  0.83002972  1
  Ca2+  Ca39  1  0.42123205  0.65861571  0.16341487  1
  Ca2+  Ca40  1  0.42325235  0.66947549  0.49371819  1
  Ca2+  Ca41  1  0.41918121  0.67400364  0.82612115  1
  Ca2+  Ca42  1  0.91545643  0.16400916  0.15984575  1
  Ca2+  Ca43  1  0.91325480  0.17012077  0.50156923  1
  Ca2+  Ca44  1  0.91291728  0.16774289  0.82570258  1
  Ca2+  Ca45  1  0.91474115  0.67660539  0.16810060  1
  Ca2+  Ca46  1  0.92238477  0.66978620  0.48546194  1
  Ca2+  Ca47  1  0.91683711  0.67685818  0.83100061  1
  Al0+  Al48  1  -0.00003417  0.00118580  0.00072090  1
  Al0+  Al49  1  0.00014093  0.00102611  0.33004749  1
  Al0+  Al50  1  0.00017834  0.00206528  0.66743223  1
  Al0+  Al51  1  0.00097739  0.50126035  -0.00022014  1
  Al0+  Al52  1  0.00073354  0.50003172  0.32954684  1
  Al0+  Al53  1  -0.00089828  0.50009419  0.66830167  1
  Al0+  Al54  1  0.50155398  -0.00129632  0.00472638  1
  Al0+  Al55  1  0.50246977  -0.00057953  0.34182031  1
  Al0+  Al56  1  0.50098663  -0.00165640  0.66267732  1
  Al0+  Al57  1  0.49996354  0.49823058  -0.00328217  1
  Al0+  Al58  1  0.49882088  0.49889522  0.33624688  1
  Al0+  Al59  1  0.50115600  0.49898620  0.66535855  1
  Al0+  Al60  1  0.24717356  0.25280240  -0.00171634  1
  Al0+  Al61  1  0.24997282  0.25026381  0.33277240  1
  Al0+  Al62  1  0.24933088  0.24985594  0.67602011  1
  Al0+  Al63  1  0.24955106  0.74696478  0.00621509  1
  Al0+  Al64  1  0.25031505  0.75151239  0.33383795  1
  Al0+  Al65  1  0.24892458  0.75082786  0.66279188  1
  Al0+  Al66  1  0.74866452  0.25122696  0.00118298  1
  Al0+  Al67  1  0.74977061  0.24880549  0.33504650  1
  Al0+  Al68  1  0.74951421  0.25128077  0.66128376  1
  Al0+  Al69  1  0.75261386  0.75056812  -0.00408568  1
  Al0+  Al70  1  0.74973388  0.75023239  0.33472884  1
  Al0+  Al71  1  0.75060400  0.74849990  0.66369548  1
  Al0+  Al72  1  0.32278593  0.06913884  0.68094972  1
  Al0+  Al73  1  0.93003806  0.82121157  0.98357673  1
  Al0+  Al74  1  0.92957304  0.32153116  0.65257552  1
  Al0+  Al75  1  0.42959234  0.31853511  0.32132542  1
  Al0+  Al76  1  0.56955318  0.17763968  0.98660221  1
  Al0+  Al77  1  0.67729994  0.42720705  0.34964440  1
  Al0+  Al78  1  0.82120023  0.57009537  0.34790141  1
  Al0+  Al79  1  0.56747705  0.68043429  0.31920147  1
  Al0+  Al80  1  0.92862645  0.82189660  0.31730103  1
  Al0+  Al81  1  0.17827659  0.43088007  0.68042033  1
  Al0+  Al82  1  0.57220011  0.67674016  0.65024921  1
  Al0+  Al83  1  0.42666620  0.32239198  0.98284714  1
  Al0+  Al84  1  0.57053784  0.17946862  0.65164260  1
  Al0+  Al85  1  0.07401985  0.67704291  0.31622771  1
  Al0+  Al86  1  0.32264467  0.07235418  0.01543095  1
  Al0+  Al87  1  0.32096327  0.57252146  0.34808805  1
  Al0+  Al88  1  0.81953042  0.07151481  0.67931230  1
  Al0+  Al89  1  0.31983818  0.07170324  0.34753367  1
  Al0+  Al90  1  0.32149123  0.56802034  0.01241795  1
  Al0+  Al91  1  0.68090215  0.92900165  0.35001259  1
  Al0+  Al92  1  0.17853839  0.92806910  0.01539298  1
  Al0+  Al93  1  0.42741534  0.82096565  0.65158737  1
  Al0+  Al94  1  0.67902335  0.92631625  0.01428970  1
  Al0+  Al95  1  0.82001775  0.07383386  0.01482323  1
  Si0+  Si96  1  0.42557307  0.32120420  0.65037299  1
  Si0+  Si97  1  0.17484581  0.42860369  0.01806330  1
  Si0+  Si98  1  0.07116990  0.18047444  0.31830482  1
  Si0+  Si99  1  0.17678215  0.92661538  0.68146308  1
  Si0+  Si100  1  0.67872196  0.42849046  0.68308706  1
  Si0+  Si101  1  0.82505534  0.07275350  0.35122001  1
  Si0+  Si102  1  0.92741871  0.32083831  0.31747384  1
  Si0+  Si103  1  0.42764028  0.81964090  0.98908465  1
  Si0+  Si104  1  0.57353690  0.17524213  0.31661170  1
  Si0+  Si105  1  0.17775330  0.42749159  0.34893053  1
  Si0+  Si106  1  0.82240585  0.57154769  0.01344160  1
  Si0+  Si107  1  0.92901081  0.32228398  0.98607487  1
  Si0+  Si108  1  0.68018472  0.92608971  0.68359167  1
  Si0+  Si109  1  0.67999835  0.43093676  0.01330535  1
  Si0+  Si110  1  0.42835638  0.82478939  0.31542256  1
  Si0+  Si111  1  0.93038587  0.82294469  0.65200945  1
  Si0+  Si112  1  0.07340380  0.67769340  0.98099858  1
  Si0+  Si113  1  0.07023299  0.17916265  0.98355769  1
  Si0+  Si114  1  0.82145134  0.57099708  0.68313607  1
  Si0+  Si115  1  0.32260980  0.57280442  0.68230199  1
  Si0+  Si116  1  0.06929180  0.67851821  0.65295879  1
  Si0+  Si117  1  0.17663057  0.92963077  0.35017643  1
  Si0+  Si118  1  0.07321887  0.17847891  0.65032873  1
  Si0+  Si119  1  0.57201906  0.67816442  0.98637373  1
  O2-  O120  1  0.25179211  -0.00118735  0.06549420  1
  O2-  O121  1  0.24780183  -0.00527757  0.39550389  1
  O2-  O122  1  0.24880739  -0.00800229  0.72490188  1
  O2-  O123  1  0.24779433  0.49275018  0.06046136  1
  O2-  O124  1  0.24265832  0.49996060  0.39261422  1
  O2-  O125  1  0.25513429  0.50324392  0.72718234  1
  O2-  O126  1  0.75023019  -0.00014682  0.06387517  1
  O2-  O127  1  0.75565544  0.00506581  0.39488432  1
  O2-  O128  1  0.74697462  -0.00369647  0.72790261  1
  O2-  O129  1  0.75002555  0.50263490  0.05534651  1
  O2-  O130  1  0.75108646  0.49757495  0.40025376  1
  O2-  O131  1  0.74741909  0.50275582  0.72575544  1
  O2-  O132  1  -0.00300645  0.24850227  0.27550432  1
  O2-  O133  1  0.00448183  0.24703778  0.60538762  1
  O2-  O134  1  -0.00190927  0.25038236  0.94261839  1
  O2-  O135  1  0.00218528  0.75033230  0.26805782  1
  O2-  O136  1  0.00227627  0.75288063  0.61071840  1
  O2-  O137  1  0.00696843  0.74830569  0.93566455  1
  O2-  O138  1  0.50481180  0.24450348  0.27405118  1
  O2-  O139  1  0.49235942  0.25125584  0.60579963  1
  O2-  O140  1  0.49243293  0.24379570  0.93445642  1
  O2-  O141  1  0.49239223  0.75284750  0.26910950  1
  O2-  O142  1  0.49788959  0.74704165  0.60227333  1
  O2-  O143  1  0.50095141  0.75017187  0.94645442  1
  O2-  O144  1  0.07042904  0.18168886  0.08905316  1
  O2-  O145  1  0.07205734  0.18191765  0.42339245  1
  O2-  O146  1  0.07159654  0.17858878  0.75589414  1
  O2-  O147  1  0.07084817  0.67431613  0.08570410  1
  O2-  O148  1  0.07131310  0.67794088  0.43099971  1
  O2-  O149  1  0.06768726  0.67755691  0.75818316  1
  O2-  O150  1  0.57212734  0.18233125  0.09987512  1
  O2-  O151  1  0.57294737  0.17650928  0.42254666  1
  O2-  O152  1  0.57199298  0.18058287  0.76466422  1
  O2-  O153  1  0.57282930  0.67500783  0.09105958  1
  O2-  O154  1  0.56623332  0.68161245  0.43176876  1
  O2-  O155  1  0.57200302  0.67781491  0.76495641  1
  O2-  O156  1  0.17812474  0.42416922  0.24346316  1
  O2-  O157  1  0.17618414  0.43456113  0.56747678  1
  O2-  O158  1  0.16904832  0.43234612  0.91253826  1
  O2-  O159  1  0.17499539  0.93350283  0.24493177  1
  O2-  O160  1  0.17321100  0.92804983  0.57611829  1
  O2-  O161  1  0.18071788  0.93068240  0.90107263  1
  O2-  O162  1  0.67962718  0.42830301  0.23525636  1
  O2-  O163  1  0.68044274  0.42794405  0.57863119  1
  O2-  O164  1  0.68192458  0.43156122  0.90772292  1
  O2-  O165  1  0.68066059  0.92990470  0.23709824  1
  O2-  O166  1  0.68359459  0.92515393  0.57809511  1
  O2-  O167  1  0.68056030  0.92298377  0.90054743  1
  O2-  O168  1  0.43192968  0.32584474  0.09627868  1
  O2-  O169  1  0.42769368  0.31583596  0.43468171  1
  O2-  O170  1  0.42861369  0.32310318  0.75581748  1
  O2-  O171  1  0.42705057  0.81816764  0.09381788  1
  O2-  O172  1  0.43073134  0.82449748  0.42097897  1
  O2-  O173  1  0.42734332  0.81937032  0.76620182  1
  O2-  O174  1  0.93079383  0.32375370  0.09122830  1
  O2-  O175  1  0.92877154  0.32133165  0.42251050  1
  O2-  O176  1  0.93060421  0.32187620  0.76617230  1
  O2-  O177  1  0.92777876  0.81720162  0.09579956  1
  O2-  O178  1  0.93182012  0.82233438  0.43188667  1
  O2-  O179  1  0.93059945  0.82194875  0.75727394  1
  O2-  O180  1  0.31701903  0.07345403  0.23480869  1
  O2-  O181  1  0.31915735  0.07097543  0.56773054  1
  O2-  O182  1  0.32246946  0.06842441  0.90168020  1
  O2-  O183  1  0.32254184  0.56826829  0.23492250  1
  O2-  O184  1  0.32084781  0.57223056  0.57700154  1
  O2-  O185  1  0.32006410  0.56891523  0.89886028  1
  O2-  O186  1  0.82595618  0.07447840  0.24592277  1
  O2-  O187  1  0.81992715  0.06886536  0.56629339  1
  O2-  O188  1  0.81868441  0.07478601  0.90087772  1
  O2-  O189  1  0.81886700  0.56741279  0.23360933  1
  O2-  O190  1  0.82544842  0.57002732  0.57891120  1
  O2-  O191  1  0.82280537  0.56965041  0.90768505  1
  O2-  O192  1  0.04576202  0.08879740  0.26978458  1
  O2-  O193  1  0.04749510  0.08535507  0.60277845  1
  O2-  O194  1  0.04408009  0.08792337  0.93512553  1
  O2-  O195  1  0.04709980  0.57824133  0.26277581  1
  O2-  O196  1  0.03699982  0.58884542  0.60500809  1
  O2-  O197  1  0.04325375  0.58484852  0.93345077  1
  O2-  O198  1  0.54737790  0.08097188  0.27352931  1
  O2-  O199  1  0.54392897  0.08188724  0.59848238  1
  O2-  O200  1  0.54727611  0.07657429  0.93493080  1
  O2-  O201  1  0.53814459  0.58244262  0.26682072  1
  O2-  O202  1  0.54689758  0.57687541  0.59914076  1
  O2-  O203  1  0.54331531  0.58760611  0.93656762  1
  O2-  O204  1  0.16010410  0.21259698  0.26813386  1
  O2-  O205  1  0.16674814  0.20665602  0.60557129  1
  O2-  O206  1  0.16076613  0.20825632  0.93419971  1
  O2-  O207  1  0.17333606  0.70512652  0.26506189  1
  O2-  O208  1  0.16231526  0.70072619  0.60556900  1
  O2-  O209  1  0.16845505  0.69992975  0.93588449  1
  O2-  O210  1  0.66831842  0.19907676  0.27199601  1
  O2-  O211  1  0.66460214  0.21390863  0.59552680  1
  O2-  O212  1  0.66659015  0.21386068  0.93289003  1
  O2-  O213  1  0.66509220  0.71033772  0.26701409  1
  O2-  O214  1  0.67119097  0.70482522  0.59795430  1
  O2-  O215  1  0.66362025  0.70416334  0.93705328  1
  O2-  O216  1  0.08267724  0.45764009  0.06658932  1
  O2-  O217  1  0.08270635  0.44975608  0.39352265  1
  O2-  O218  1  0.08270147  0.46422996  0.73659032  1
  O2-  O219  1  0.08138195  0.96004644  0.06791083  1
  O2-  O220  1  0.08399670  0.95900371  0.39716495  1
  O2-  O221  1  0.08498547  0.95640499  0.72974431  1
  O2-  O222  1  0.58840778  0.45880681  0.05976063  1
  O2-  O223  1  0.58084729  0.45693906  0.40406584  1
  O2-  O224  1  0.58639079  0.45432569  0.73132592  1
  O2-  O225  1  0.58122456  0.95058277  0.06956580  1
  O2-  O226  1  0.58590367  0.95917361  0.40753191  1
  O2-  O227  1  0.58505263  0.94952452  0.72607023  1
  O2-  O228  1  0.19354881  0.33305108  0.06186126  1
  O2-  O229  1  0.20621987  0.33585166  0.39739548  1
  O2-  O230  1  0.20365490  0.33425624  0.73698808  1
  O2-  O231  1  0.20042514  0.82809947  0.06654321  1
  O2-  O232  1  0.19760639  0.83460193  0.39478831  1
  O2-  O233  1  0.19701607  0.83115133  0.72679045  1
  O2-  O234  1  0.70915846  0.34104509  0.06239833  1
  O2-  O235  1  0.70605200  0.32818378  0.40152098  1
  O2-  O236  1  0.71189673  0.33880543  0.73095701  1
  O2-  O237  1  0.71159182  0.82807711  0.06657328  1
  O2-  O238  1  0.71319829  0.83376066  0.40483471  1
  O2-  O239  1  0.70711894  0.83222851  0.72910625  1
  O2-  O240  1  0.46096419  0.41495988  0.26802168  1
  O2-  O241  1  0.45220077  0.41488512  0.60501106  1
  O2-  O242  1  0.46348443  0.41746753  0.92645382  1
  O2-  O243  1  0.45993445  0.91769022  0.27118778  1
  O2-  O244  1  0.45827265  0.91708787  0.59642844  1
  O2-  O245  1  0.45421507  0.91167762  0.94165561  1
  O2-  O246  1  0.95630742  0.41105780  0.26758768  1
  O2-  O247  1  0.96202721  0.41796714  0.59893955  1
  O2-  O248  1  0.95793951  0.41399655  0.93760095  1
  O2-  O249  1  0.95623729  0.92098795  0.26462976  1
  O2-  O250  1  0.95712345  0.91487482  0.60459430  1
  O2-  O251  1  0.95999194  0.91902926  0.93066923  1
  O2-  O252  1  0.33282718  0.28914590  0.26604197  1
  O2-  O253  1  0.32990480  0.29777069  0.60823319  1
  O2-  O254  1  0.32367721  0.30597916  0.93480226  1
  O2-  O255  1  0.33196039  0.80651198  0.27327715  1
  O2-  O256  1  0.32774571  0.79703858  0.59757329  1
  O2-  O257  1  0.33672415  0.78910686  0.94085993  1
  O2-  O258  1  0.83521311  0.29391952  0.26990549  1
  O2-  O259  1  0.83469609  0.29147694  0.59614532  1
  O2-  O260  1  0.83645937  0.29734185  0.93895596  1
  O2-  O261  1  0.83128365  0.79035969  0.26515853  1
  O2-  O262  1  0.83914657  0.79338778  0.60543915  1
  O2-  O263  1  0.83569117  0.78627625  0.92597004  1
  O2-  O264  1  0.42024621  0.04506193  0.06940554  1
  O2-  O265  1  0.41653140  0.04309301  0.40173408  1
  O2-  O266  1  0.41979637  0.03699251  0.73322238  1
  O2-  O267  1  0.41889740  0.53737338  0.06533030  1
  O2-  O268  1  0.41422257  0.53683259  0.40434126  1
  O2-  O269  1  0.41690837  0.54784914  0.72775297  1
  O2-  O270  1  0.91997293  0.04918880  0.06479605  1
  O2-  O271  1  0.91913894  0.04781401  0.39727575  1
  O2-  O272  1  0.91812158  0.04434060  0.73223229  1
  O2-  O273  1  0.91352985  0.54227134  0.06071719  1
  O2-  O274  1  0.92093773  0.54107764  0.39867223  1
  O2-  O275  1  0.91090714  0.54017137  0.73381253  1
  O2-  O276  1  0.29063678  0.17195774  0.06404358  1
  O2-  O277  1  0.28387664  0.16658106  0.40210604  1
  O2-  O278  1  0.29124634  0.16422115  0.73719018  1
  O2-  O279  1  0.29169479  0.66280707  0.06946093  1
  O2-  O280  1  0.29419772  0.67078932  0.40148145  1
  O2-  O281  1  0.29475721  0.66654374  0.72749184  1
  O2-  O282  1  0.79314792  0.17259379  0.06880641  1
  O2-  O283  1  0.80110039  0.16707784  0.39664883  1
  O2-  O284  1  0.78984716  0.16990038  0.73045971  1
  O2-  O285  1  0.79621310  0.66369510  0.05855004  1
  O2-  O286  1  0.79410829  0.66794778  0.40083715  1
  O2-  O287  1  0.79500666  0.66387570  0.73047717  1
