# generated using pymatgen
data_Ca2Al2SiO7
_symmetry_space_group_name_H-M   'P 1'
_cell_length_a   15.45990798
_cell_length_b   15.46206334
_cell_length_c   15.28588544
_cell_angle_alpha   90.02127205
_cell_angle_beta   90.00802390
_cell_angle_gamma   89.99228157
_symmetry_Int_Tables_number   1
_chemical_formula_structural   Ca2Al2SiO7
_chemical_formula_sum   'Ca48 Al48 Si24 O168'
_cell_volume   3653.96947423
_cell_formula_units_Z   24
loop_
 _symmetry_equiv_pos_site_id
 _symmetry_equiv_pos_as_xyz
  1  'x, y, z'
loop_
 _atom_type_symbol
 _atom_type_oxidation_number
  Ca2+  2.0
  Al0+  0.0
  Si0+  0.0
  O2-  -2.0
loop_
 _atom_site_type_symbol
 _atom_site_label
 _atom_site_symmetry_multiplicity
 _atom_site_fract_x
 _atom_site_fract_y
 _atom_site_fract_z
 _atom_site_occupancy
  Ca2+  Ca0  1  0.16051148  0.07608848  0.17279916  1
  Ca2+  Ca1  1  0.17366392  0.08464128  0.50122725  1
  Ca2+  Ca2  1  0.17490152  0.08154351  0.83983477  1
  Ca2+  Ca3  1  0.17518720  0.57290270  0.17846272  1
  Ca2+  Ca4  1  0.17300179  0.57205406  0.49852307  1
  Ca2+  Ca5  1  0.16500675  0.57574423  0.83340132  1
  Ca2+  Ca6  1  0.66624089  0.08776508  0.17048804  1
  Ca2+  Ca7  1  0.66836435  0.08754974  0.50432612  1
  Ca2+  Ca8  1  0.66100414  0.07851500  0.83575110  1
  Ca2+  Ca9  1  0.66371219  0.56897241  0.17098041  1
  Ca2+  Ca10  1  0.66406551  0.57483311  0.49917623  1
  Ca2+  Ca11  1  0.66839185  0.57656194  0.84106000  1
  Ca2+  Ca12  1  0.08845686  0.31947337  0.16556472  1
  Ca2+  Ca13  1  0.07660642  0.33364202  0.49077945  1
  Ca2+  Ca14  1  0.08071135  0.32862450  0.82547555  1
  Ca2+  Ca15  1  0.08718149  0.83704341  0.16160020  1
  Ca2+  Ca16  1  0.07941019  0.83848018  0.49368726  1
  Ca2+  Ca17  1  0.07802318  0.83618396  0.83008885  1
  Ca2+  Ca18  1  0.58248164  0.32818368  0.16156443  1
  Ca2+  Ca19  1  0.58037076  0.32182772  0.48732306  1
  Ca2+  Ca20  1  0.58230310  0.32419155  0.83252628  1
  Ca2+  Ca21  1  0.56937563  0.83721663  0.16096867  1
  Ca2+  Ca22  1  0.57211615  0.83803468  0.49763306  1
  Ca2+  Ca23  1  0.57504252  0.84566470  0.82796047  1
  Ca2+  Ca24  1  0.33614505  0.41813823  0.17947240  1
  Ca2+  Ca25  1  0.32174597  0.40472303  0.49980278  1
  Ca2+  Ca26  1  0.33160978  0.41401154  0.83737810  1
  Ca2+  Ca27  1  0.32555890  0.91299278  0.17299524  1
  Ca2+  Ca28  1  0.33376340  0.92005287  0.50463429  1
  Ca2+  Ca29  1  0.33672176  0.92216678  0.83781361  1
  Ca2+  Ca30  1  0.82225670  0.40581569  0.17220202  1
  Ca2+  Ca31  1  0.83002895  0.40510958  0.50078457  1
  Ca2+  Ca32  1  0.82906434  0.41267234  0.83609237  1
  Ca2+  Ca33  1  0.82391287  0.92650529  0.17359799  1
  Ca2+  Ca34  1  0.82797366  0.92633023  0.50609524  1
  Ca2+  Ca35  1  0.82029027  0.91277703  0.83832947  1
  Ca2+  Ca36  1  0.42546676  0.17945801  0.16231128  1
  Ca2+  Ca37  1  0.42701047  0.16411456  0.49481187  1
  Ca2+  Ca38  1  0.42751367  0.16242480  0.83001083  1
  Ca2+  Ca39  1  0.40778092  0.67533986  0.16601892  1
  Ca2+  Ca40  1  0.40649226  0.67799955  0.49525794  1
  Ca2+  Ca41  1  0.41825321  0.68025482  0.83079735  1
  Ca2+  Ca42  1  0.92425128  0.16467719  0.17110313  1
  Ca2+  Ca43  1  0.92003752  0.17514818  0.48925239  1
  Ca2+  Ca44  1  0.92455443  0.16929594  0.83050364  1
  Ca2+  Ca45  1  0.91977500  0.66745695  0.16537662  1
  Ca2+  Ca46  1  0.91609852  0.67491054  0.49969781  1
  Ca2+  Ca47  1  0.91782225  0.67357748  0.82455959  1
  Al0+  Al48  1  0.00002681  0.00003319  -0.00242348  1
  Al0+  Al49  1  -0.00356671  0.00041015  0.33876681  1
  Al0+  Al50  1  -0.00005170  0.00054939  0.66300705  1
  Al0+  Al51  1  0.00155020  0.50115411  0.00049433  1
  Al0+  Al52  1  -0.00191910  0.50270448  0.33212968  1
  Al0+  Al53  1  -0.00028630  0.49996093  0.66726926  1
  Al0+  Al54  1  0.49915360  0.00184948  -0.00048645  1
  Al0+  Al55  1  0.49836573  -0.00229901  0.32324023  1
  Al0+  Al56  1  0.49993297  0.00041130  0.66504347  1
  Al0+  Al57  1  0.50042390  0.50236495  -0.00043663  1
  Al0+  Al58  1  0.50163471  0.50386906  0.34230780  1
  Al0+  Al59  1  0.49870986  0.50028782  0.66843892  1
  Al0+  Al60  1  0.24964347  0.24978704  -0.00718476  1
  Al0+  Al61  1  0.25047685  0.24708505  0.33036360  1
  Al0+  Al62  1  0.25117003  0.24850796  0.67813916  1
  Al0+  Al63  1  0.24897779  0.74933297  -0.00363342  1
  Al0+  Al64  1  0.24682468  0.74917905  0.33823555  1
  Al0+  Al65  1  0.24937096  0.74770716  0.66439718  1
  Al0+  Al66  1  0.75144631  0.25005086  -0.00060360  1
  Al0+  Al67  1  0.75199609  0.24887603  0.33448297  1
  Al0+  Al68  1  0.75164652  0.24852457  0.66294536  1
  Al0+  Al69  1  0.74994661  0.75035421  0.00704695  1
  Al0+  Al70  1  0.74842500  0.74984525  0.33243452  1
  Al0+  Al71  1  0.74988175  0.74892489  0.66547087  1
  Al0+  Al72  1  0.32109229  0.06855956  0.68062754  1
  Al0+  Al73  1  0.92799983  0.82187674  0.65303187  1
  Al0+  Al74  1  0.57281576  0.18021508  0.98313106  1
  Al0+  Al75  1  0.17906491  0.42542585  0.34600472  1
  Al0+  Al76  1  0.17811520  0.92951177  0.34741591  1
  Al0+  Al77  1  0.42911206  0.32291046  0.32228254  1
  Al0+  Al78  1  0.17916880  0.43000304  0.68167930  1
  Al0+  Al79  1  0.07064605  0.17698122  0.98441714  1
  Al0+  Al80  1  0.92928039  0.32375839  0.31693923  1
  Al0+  Al81  1  0.42826390  0.82015822  0.98574787  1
  Al0+  Al82  1  0.56946153  0.18034259  0.65229071  1
  Al0+  Al83  1  0.18015937  0.92993990  0.01174321  1
  Al0+  Al84  1  0.67663187  0.92944599  0.01549765  1
  Al0+  Al85  1  0.07149656  0.17733425  0.32009222  1
  Al0+  Al86  1  0.42706172  0.81829579  0.31918147  1
  Al0+  Al87  1  0.68061463  0.42962801  0.01230975  1
  Al0+  Al88  1  0.93147765  0.32024703  0.65346213  1
  Al0+  Al89  1  0.32240117  0.57157835  0.34910892  1
  Al0+  Al90  1  0.81810465  0.07020359  0.34795918  1
  Al0+  Al91  1  0.42902734  0.32514943  0.98416913  1
  Al0+  Al92  1  0.68108664  0.42935075  0.34815049  1
  Al0+  Al93  1  0.68117272  0.92995057  0.67840526  1
  Al0+  Al94  1  0.42995685  0.81997731  0.65293527  1
  Al0+  Al95  1  0.57236873  0.17849248  0.31762941  1
  Si0+  Si96  1  0.82470602  0.57300748  0.01717059  1
  Si0+  Si97  1  0.17832552  0.42811225  0.01471599  1
  Si0+  Si98  1  0.32189444  0.07379920  0.01872512  1
  Si0+  Si99  1  0.92730543  0.82175992  0.31742337  1
  Si0+  Si100  1  0.17626504  0.92591354  0.68290403  1
  Si0+  Si101  1  0.07073213  0.67756742  0.64861231  1
  Si0+  Si102  1  0.92792981  0.82007738  0.98684118  1
  Si0+  Si103  1  0.93046667  0.32338101  0.98333274  1
  Si0+  Si104  1  0.57457296  0.67862826  0.31579587  1
  Si0+  Si105  1  0.42718824  0.32371999  0.65105055  1
  Si0+  Si106  1  0.07043772  0.67821714  0.98432368  1
  Si0+  Si107  1  0.82294550  0.07109105  0.01598953  1
  Si0+  Si108  1  0.07536324  0.17808814  0.65029390  1
  Si0+  Si109  1  0.32365798  0.07006995  0.34760750  1
  Si0+  Si110  1  0.06935177  0.68089413  0.31780199  1
  Si0+  Si111  1  0.82365133  0.07337227  0.68487021  1
  Si0+  Si112  1  0.67884614  0.42667488  0.68150829  1
  Si0+  Si113  1  0.67561273  0.92697591  0.34951841  1
  Si0+  Si114  1  0.81977175  0.57048656  0.68139722  1
  Si0+  Si115  1  0.31927162  0.57076024  0.01300279  1
  Si0+  Si116  1  0.57368120  0.67966006  0.98435910  1
  Si0+  Si117  1  0.82249855  0.57578039  0.35172701  1
  Si0+  Si118  1  0.57274849  0.67466125  0.64998102  1
  Si0+  Si119  1  0.32232262  0.57407138  0.68687426  1
  O2-  O120  1  0.25300046  0.00421165  0.06162573  1
  O2-  O121  1  0.25370449  0.00283676  0.39303821  1
  O2-  O122  1  0.24527009  -0.00655724  0.72702483  1
  O2-  O123  1  0.25459760  0.49397876  0.05540124  1
  O2-  O124  1  0.25638845  0.49226882  0.39658210  1
  O2-  O125  1  0.25586964  0.50267433  0.73027259  1
  O2-  O126  1  0.75018210  0.00620022  0.05986068  1
  O2-  O127  1  0.73990932  -0.00119927  0.39422952  1
  O2-  O128  1  0.75773565  0.00179229  0.72832246  1
  O2-  O129  1  0.75705255  0.50316040  0.05948796  1
  O2-  O130  1  0.75740953  0.50355254  0.39520676  1
  O2-  O131  1  0.74861410  0.49974855  0.72370035  1
  O2-  O132  1  0.00492244  0.25449675  0.26905326  1
  O2-  O133  1  0.00647852  0.24638387  0.60700214  1
  O2-  O134  1  -0.00060561  0.25569739  0.93849957  1
  O2-  O135  1  -0.00118806  0.75192878  0.27396083  1
  O2-  O136  1  0.00734908  0.75195634  0.60545203  1
  O2-  O137  1  -0.00235430  0.74804924  0.94337540  1
  O2-  O138  1  0.50303972  0.25453868  0.27013591  1
  O2-  O139  1  0.49785645  0.25825088  0.60657415  1
  O2-  O140  1  0.49934409  0.25156443  0.93388102  1
  O2-  O141  1  0.50263401  0.74419790  0.27235779  1
  O2-  O142  1  0.50286080  0.74265317  0.60712792  1
  O2-  O143  1  0.50960125  0.75186948  0.93911602  1
  O2-  O144  1  0.06889793  0.17555624  0.09703543  1
  O2-  O145  1  0.06983470  0.17619361  0.43359349  1
  O2-  O146  1  0.07278344  0.17845761  0.75630401  1
  O2-  O147  1  0.07031501  0.67674026  0.08924197  1
  O2-  O148  1  0.06749664  0.68151843  0.42283214  1
  O2-  O149  1  0.06787413  0.67620791  0.75482417  1
  O2-  O150  1  0.57331342  0.18269436  0.09623990  1
  O2-  O151  1  0.57033553  0.17744746  0.43151912  1
  O2-  O152  1  0.57000937  0.18099363  0.76519743  1
  O2-  O153  1  0.57174547  0.67790971  0.08957274  1
  O2-  O154  1  0.58051840  0.68257013  0.42121722  1
  O2-  O155  1  0.57355547  0.67207916  0.75565402  1
  O2-  O156  1  0.17846915  0.42921401  0.23195442  1
  O2-  O157  1  0.17835185  0.43109541  0.56902232  1
  O2-  O158  1  0.17369151  0.43336154  0.90960299  1
  O2-  O159  1  0.17873285  0.92828964  0.23397554  1
  O2-  O160  1  0.17596844  0.92661093  0.57742929  1
  O2-  O161  1  0.17938784  0.92932528  0.89862604  1
  O2-  O162  1  0.68173596  0.43144243  0.23486399  1
  O2-  O163  1  0.68007808  0.42762193  0.57670770  1
  O2-  O164  1  0.68366911  0.43218265  0.89853941  1
  O2-  O165  1  0.67942228  0.92457411  0.24387996  1
  O2-  O166  1  0.68189180  0.93094437  0.56551256  1
  O2-  O167  1  0.68041562  0.92680890  0.90219546  1
  O2-  O168  1  0.43013145  0.32708796  0.09751507  1
  O2-  O169  1  0.42895766  0.31730163  0.43611582  1
  O2-  O170  1  0.43016790  0.32496924  0.75658702  1
  O2-  O171  1  0.42429831  0.81492368  0.09846971  1
  O2-  O172  1  0.42851071  0.81931833  0.43238544  1
  O2-  O173  1  0.43122884  0.81895954  0.76623035  1
  O2-  O174  1  0.93179960  0.32556699  0.08827299  1
  O2-  O175  1  0.93073976  0.32130215  0.43075578  1
  O2-  O176  1  0.93138133  0.31967682  0.76714186  1
  O2-  O177  1  0.92919751  0.81869363  0.09195610  1
  O2-  O178  1  0.92741114  0.81906446  0.42253723  1
  O2-  O179  1  0.92739910  0.81748857  0.76672966  1
  O2-  O180  1  0.32391933  0.06811358  0.24223388  1
  O2-  O181  1  0.32046489  0.06813203  0.56743592  1
  O2-  O182  1  0.32120458  0.07071346  0.91268220  1
  O2-  O183  1  0.31644779  0.57441863  0.23482593  1
  O2-  O184  1  0.32075047  0.57708722  0.58197166  1
  O2-  O185  1  0.31534093  0.57255527  0.90788834  1
  O2-  O186  1  0.82091233  0.06561154  0.23467436  1
  O2-  O187  1  0.82261544  0.07353208  0.57953215  1
  O2-  O188  1  0.82587774  0.06803113  0.91026226  1
  O2-  O189  1  0.82040560  0.58112419  0.24634112  1
  O2-  O190  1  0.81987264  0.57242878  0.57664885  1
  O2-  O191  1  0.82565285  0.57533707  0.91135847  1
  O2-  O192  1  0.03441273  0.08048159  0.26755651  1
  O2-  O193  1  0.05261337  0.08357135  0.60532324  1
  O2-  O194  1  0.03677646  0.08215043  0.92788575  1
  O2-  O195  1  0.04098311  0.59054187  0.26744310  1
  O2-  O196  1  0.03751275  0.58733271  0.60153323  1
  O2-  O197  1  0.04242681  0.58695251  0.93461750  1
  O2-  O198  1  0.54417312  0.08097880  0.26327617  1
  O2-  O199  1  0.53629762  0.08532306  0.59781845  1
  O2-  O200  1  0.54323710  0.08135060  0.93133514  1
  O2-  O201  1  0.55145425  0.58342131  0.27300721  1
  O2-  O202  1  0.54774618  0.58069699  0.60345235  1
  O2-  O203  1  0.54463081  0.58849052  0.93504044  1
  O2-  O204  1  0.17050926  0.19873710  0.26531543  1
  O2-  O205  1  0.17019129  0.20421655  0.60855839  1
  O2-  O206  1  0.16680282  0.20547291  0.92909205  1
  O2-  O207  1  0.16014417  0.70939951  0.26973335  1
  O2-  O208  1  0.16612917  0.69623980  0.60445800  1
  O2-  O209  1  0.15984165  0.70732268  0.93364790  1
  O2-  O210  1  0.67142862  0.20551614  0.26719777  1
  O2-  O211  1  0.66723498  0.20852609  0.59991130  1
  O2-  O212  1  0.67216794  0.20794040  0.93047744  1
  O2-  O213  1  0.66675923  0.70531527  0.26619707  1
  O2-  O214  1  0.66604762  0.69978621  0.60378718  1
  O2-  O215  1  0.67033124  0.69980184  0.94121190  1
  O2-  O216  1  0.08862094  0.46145989  0.06315712  1
  O2-  O217  1  0.08151634  0.46190595  0.39704752  1
  O2-  O218  1  0.08355167  0.46552829  0.73682988  1
  O2-  O219  1  0.08178638  0.95803228  0.06445216  1
  O2-  O220  1  0.08144265  0.95844001  0.40174541  1
  O2-  O221  1  0.08146535  0.95110169  0.72787664  1
  O2-  O222  1  0.58482456  0.46399270  0.06576466  1
  O2-  O223  1  0.58690534  0.46151485  0.40635216  1
  O2-  O224  1  0.58618498  0.45338250  0.72825267  1
  O2-  O225  1  0.57915728  0.95785976  0.06815897  1
  O2-  O226  1  0.57925274  0.94858307  0.39048638  1
  O2-  O227  1  0.58567345  0.96356110  0.73211200  1
  O2-  O228  1  0.20027628  0.33333897  0.05715008  1
  O2-  O229  1  0.20299511  0.32567898  0.39890055  1
  O2-  O230  1  0.20708040  0.33429279  0.73888806  1
  O2-  O231  1  0.20878929  0.83123582  0.06386556  1
  O2-  O232  1  0.20586442  0.83327875  0.40288675  1
  O2-  O233  1  0.19845484  0.83007133  0.72644592  1
  O2-  O234  1  0.71203956  0.33334378  0.06620666  1
  O2-  O235  1  0.71286497  0.33356589  0.40226693  1
  O2-  O236  1  0.71108468  0.33637480  0.72900122  1
  O2-  O237  1  0.70857773  0.83338547  0.07083635  1
  O2-  O238  1  0.70551397  0.83457299  0.39574745  1
  O2-  O239  1  0.70974197  0.83164826  0.73210132  1
  O2-  O240  1  0.45279223  0.42567075  0.27661250  1
  O2-  O241  1  0.44686214  0.41958928  0.60703968  1
  O2-  O242  1  0.45724751  0.42394951  0.93045813  1
  O2-  O243  1  0.45561212  0.91289478  0.26081716  1
  O2-  O244  1  0.46324723  0.91454419  0.59809396  1
  O2-  O245  1  0.45521765  0.91854265  0.93455228  1
  O2-  O246  1  0.94698985  0.42592162  0.26700038  1
  O2-  O247  1  0.95893017  0.41819913  0.60108824  1
  O2-  O248  1  0.95520907  0.41810884  0.93720711  1
  O2-  O249  1  0.95493315  0.91312382  0.27098430  1
  O2-  O250  1  0.95410119  0.91941363  0.59859262  1
  O2-  O251  1  0.95644460  0.91006747  0.93748765  1
  O2-  O252  1  0.33177920  0.29465787  0.26716183  1
  O2-  O253  1  0.33259748  0.29418103  0.61037710  1
  O2-  O254  1  0.32951715  0.29998369  0.93157914  1
  O2-  O255  1  0.32958810  0.78481387  0.26784621  1
  O2-  O256  1  0.33169649  0.79085064  0.60048959  1
  O2-  O257  1  0.33410362  0.78377693  0.92957490  1
  O2-  O258  1  0.83356052  0.28798565  0.26444259  1
  O2-  O259  1  0.83547558  0.28957790  0.59931470  1
  O2-  O260  1  0.83739031  0.29682794  0.93693963  1
  O2-  O261  1  0.83597331  0.79213670  0.26958335  1
  O2-  O262  1  0.83410391  0.78515704  0.59763608  1
  O2-  O263  1  0.83565591  0.79144471  0.94025351  1
  O2-  O264  1  0.41559916  0.04962080  0.06354841  1
  O2-  O265  1  0.41664782  0.04019394  0.39324999  1
  O2-  O266  1  0.41602972  0.03445953  0.73582721  1
  O2-  O267  1  0.41354695  0.55197855  0.05864481  1
  O2-  O268  1  0.42323960  0.55962458  0.40211278  1
  O2-  O269  1  0.41745973  0.55155477  0.73223342  1
  O2-  O270  1  0.91403747  0.03924669  0.06341408  1
  O2-  O271  1  0.91124249  0.03499575  0.40576984  1
  O2-  O272  1  0.91927607  0.05002725  0.72858456  1
  O2-  O273  1  0.91905657  0.54895351  0.06329604  1
  O2-  O274  1  0.91766614  0.55626271  0.39653673  1
  O2-  O275  1  0.91111405  0.54330110  0.73045526  1
  O2-  O276  1  0.29522023  0.16863195  0.06101658  1
  O2-  O277  1  0.29953161  0.16336830  0.39450134  1
  O2-  O278  1  0.29301427  0.16332640  0.74017944  1
  O2-  O279  1  0.28391341  0.65975088  0.06113487  1
  O2-  O280  1  0.28143755  0.66453832  0.40531454  1
  O2-  O281  1  0.29243665  0.66637182  0.73472207  1
  O2-  O282  1  0.80193219  0.16627035  0.06016756  1
  O2-  O283  1  0.79215976  0.16670863  0.40349241  1
  O2-  O284  1  0.79556444  0.16599134  0.73188320  1
  O2-  O285  1  0.80002161  0.66549935  0.06607628  1
  O2-  O286  1  0.79232890  0.66792966  0.40006834  1
  O2-  O287  1  0.79195725  0.66145735  0.73126073  1
