# generated using pymatgen
data_Ca2Al2SiO7
_symmetry_space_group_name_H-M   'P 1'
_cell_length_a   15.45548118
_cell_length_b   15.45564482
_cell_length_c   15.28237938
_cell_angle_alpha   89.99924402
_cell_angle_beta   90.00345461
_cell_angle_gamma   89.99161141
_symmetry_Int_Tables_number   1
_chemical_formula_structural   Ca2Al2SiO7
_chemical_formula_sum   'Ca48 Al48 Si24 O168'
_cell_volume   3650.56958245
_cell_formula_units_Z   24
loop_
 _symmetry_equiv_pos_site_id
 _symmetry_equiv_pos_as_xyz
  1  'x, y, z'
loop_
 _atom_type_symbol
 _atom_type_oxidation_number
  Ca2+  2.0
  Al0+  0.0
  Si0+  0.0
  O2-  -2.0
loop_
 _atom_site_type_symbol
 _atom_site_label
 _atom_site_symmetry_multiplicity
 _atom_site_fract_x
 _atom_site_fract_y
 _atom_site_fract_z
 _atom_site_occupancy
  Ca2+  Ca0  1  0.16524622  0.07403769  0.17514046  1
  Ca2+  Ca1  1  0.16821837  0.07875802  0.50961326  1
  Ca2+  Ca2  1  0.17172884  0.09068423  0.83199706  1
  Ca2+  Ca3  1  0.16944248  0.57970918  0.17144149  1
  Ca2+  Ca4  1  0.16765162  0.58241423  0.49949474  1
  Ca2+  Ca5  1  0.16943705  0.58257769  0.84215090  1
  Ca2+  Ca6  1  0.66381151  0.08279056  0.17295337  1
  Ca2+  Ca7  1  0.65543996  0.07362588  0.50208716  1
  Ca2+  Ca8  1  0.66076730  0.07724891  0.83671895  1
  Ca2+  Ca9  1  0.67245727  0.57682572  0.16551357  1
  Ca2+  Ca10  1  0.67496846  0.58641825  0.51163457  1
  Ca2+  Ca11  1  0.67714368  0.58020798  0.83943175  1
  Ca2+  Ca12  1  0.08198168  0.34176728  0.16187804  1
  Ca2+  Ca13  1  0.08110669  0.33270913  0.50007471  1
  Ca2+  Ca14  1  0.07437691  0.33956420  0.82813298  1
  Ca2+  Ca15  1  0.08305787  0.82372464  0.15999537  1
  Ca2+  Ca16  1  0.09037144  0.82111342  0.49429363  1
  Ca2+  Ca17  1  0.07676828  0.81999973  0.83036473  1
  Ca2+  Ca18  1  0.58252017  0.32627498  0.16016362  1
  Ca2+  Ca19  1  0.56736189  0.33072891  0.49057383  1
  Ca2+  Ca20  1  0.58095800  0.33245320  0.82954047  1
  Ca2+  Ca21  1  0.58259373  0.83369175  0.16485146  1
  Ca2+  Ca22  1  0.58318913  0.83482571  0.50178244  1
  Ca2+  Ca23  1  0.57940945  0.82566629  0.82209907  1
  Ca2+  Ca24  1  0.32381118  0.42634214  0.17384958  1
  Ca2+  Ca25  1  0.33227368  0.41425124  0.50141792  1
  Ca2+  Ca26  1  0.32804507  0.42168023  0.84208703  1
  Ca2+  Ca27  1  0.32490388  0.91727694  0.17405514  1
  Ca2+  Ca28  1  0.33120230  0.92209649  0.50732297  1
  Ca2+  Ca29  1  0.33799099  0.92100824  0.83135150  1
  Ca2+  Ca30  1  0.83451065  0.41797928  0.16278374  1
  Ca2+  Ca31  1  0.83253469  0.42129877  0.50843325  1
  Ca2+  Ca32  1  0.83567400  0.42287259  0.84043447  1
  Ca2+  Ca33  1  0.83070976  0.91601815  0.17214080  1
  Ca2+  Ca34  1  0.81998220  0.91492899  0.50645171  1
  Ca2+  Ca35  1  0.83011904  0.91348419  0.83641213  1
  Ca2+  Ca36  1  0.42689719  0.17081931  0.16535687  1
  Ca2+  Ca37  1  0.41301033  0.17645363  0.49679577  1
  Ca2+  Ca38  1  0.41897223  0.17325262  0.82541391  1
  Ca2+  Ca39  1  0.41002289  0.66285222  0.16473631  1
  Ca2+  Ca40  1  0.42016144  0.66865248  0.49793152  1
  Ca2+  Ca41  1  0.42228733  0.66817124  0.82436918  1
  Ca2+  Ca42  1  0.91889896  0.17382067  0.15784721  1
  Ca2+  Ca43  1  0.91829760  0.17080730  0.50142525  1
  Ca2+  Ca44  1  0.92300311  0.18159969  0.82719944  1
  Ca2+  Ca45  1  0.92829194  0.66833633  0.15718885  1
  Ca2+  Ca46  1  0.92827605  0.66025460  0.49868659  1
  Ca2+  Ca47  1  0.92481186  0.65659866  0.83051243  1
  Al0+  Al48  1  -0.00062728  -0.00073553  -0.00432525  1
  Al0+  Al49  1  -0.00204477  0.00039901  0.33944319  1
  Al0+  Al50  1  -0.00125715  -0.00126878  0.66573808  1
  Al0+  Al51  1  0.00043398  0.50018353  -0.00001427  1
  Al0+  Al52  1  0.00166173  0.50075644  0.33237347  1
  Al0+  Al53  1  -0.00024732  0.49989663  0.66152361  1
  Al0+  Al54  1  0.50015685  0.00086222  -0.00224990  1
  Al0+  Al55  1  0.50017892  -0.00057539  0.33289692  1
  Al0+  Al56  1  0.49784609  -0.00071411  0.67322752  1
  Al0+  Al57  1  0.50043937  0.49971458  0.00765796  1
  Al0+  Al58  1  0.49984909  0.50125413  0.33130263  1
  Al0+  Al59  1  0.50020324  0.49975602  0.65889529  1
  Al0+  Al60  1  0.25305796  0.24928965  0.00711841  1
  Al0+  Al61  1  0.24861557  0.25164193  0.33037907  1
  Al0+  Al62  1  0.24960068  0.24863966  0.66489356  1
  Al0+  Al63  1  0.25015828  0.75279336  -0.00198955  1
  Al0+  Al64  1  0.25111874  0.74923647  0.33664760  1
  Al0+  Al65  1  0.24975071  0.75054707  0.66063977  1
  Al0+  Al66  1  0.75054965  0.24694702  -0.00613497  1
  Al0+  Al67  1  0.75084933  0.25059992  0.33114802  1
  Al0+  Al68  1  0.74976100  0.24847406  0.66202528  1
  Al0+  Al69  1  0.74837796  0.75086956  0.00260367  1
  Al0+  Al70  1  0.74963675  0.75126219  0.33703566  1
  Al0+  Al71  1  0.75112233  0.74901556  0.67374647  1
  Al0+  Al72  1  0.17750252  0.92890636  0.34709443  1
  Al0+  Al73  1  0.92787332  0.32185208  0.64985463  1
  Al0+  Al74  1  0.82180679  0.56811311  0.68055313  1
  Al0+  Al75  1  0.32275301  0.57106499  0.35225237  1
  Al0+  Al76  1  0.57006910  0.17920587  0.31870142  1
  Al0+  Al77  1  0.93137811  0.32025812  0.98737820  1
  Al0+  Al78  1  0.67917688  0.92991757  0.34714997  1
  Al0+  Al79  1  0.92624091  0.82228669  0.98522959  1
  Al0+  Al80  1  0.17868317  0.42829365  0.01336647  1
  Al0+  Al81  1  0.82162029  0.57230076  0.01648837  1
  Al0+  Al82  1  0.07056377  0.67924123  0.65113391  1
  Al0+  Al83  1  0.07110471  0.17860557  0.65223997  1
  Al0+  Al84  1  0.57293643  0.67925466  0.65264175  1
  Al0+  Al85  1  0.42958842  0.82207688  0.65079904  1
  Al0+  Al86  1  0.67970228  0.42547933  0.01418589  1
  Al0+  Al87  1  0.67982150  0.93078579  0.68357068  1
  Al0+  Al88  1  0.42597060  0.32400006  0.31365470  1
  Al0+  Al89  1  0.31814061  0.07105236  0.68100538  1
  Al0+  Al90  1  0.57058340  0.17866183  0.98368168  1
  Al0+  Al91  1  0.17754979  0.42868579  0.35187551  1
  Al0+  Al92  1  0.07157944  0.68055009  0.31775642  1
  Al0+  Al93  1  0.32151196  0.57441224  0.01292820  1
  Al0+  Al94  1  0.42888446  0.32131105  0.65467642  1
  Al0+  Al95  1  0.07127611  0.67931197  0.98460640  1
  Si0+  Si96  1  0.17626314  0.92524731  0.68531362  1
  Si0+  Si97  1  0.07519448  0.17581592  0.98582617  1
  Si0+  Si98  1  0.42935026  0.82195744  0.98607593  1
  Si0+  Si99  1  0.06975807  0.17644117  0.31869876  1
  Si0+  Si100  1  0.57111177  0.17674477  0.65093114  1
  Si0+  Si101  1  0.82153272  0.06931580  0.01340396  1
  Si0+  Si102  1  0.42888621  0.32216811  0.98422053  1
  Si0+  Si103  1  0.57033407  0.67781550  0.98771225  1
  Si0+  Si104  1  0.67571899  0.42623482  0.68000039  1
  Si0+  Si105  1  0.18071860  0.42990056  0.68041349  1
  Si0+  Si106  1  0.32071138  0.07091401  0.34839731  1
  Si0+  Si107  1  0.32216910  0.57199327  0.67988668  1
  Si0+  Si108  1  0.32343618  0.07053272  0.01703379  1
  Si0+  Si109  1  0.82189981  0.07515223  0.35122276  1
  Si0+  Si110  1  0.43061138  0.82011184  0.31810010  1
  Si0+  Si111  1  0.92973783  0.32099674  0.31696885  1
  Si0+  Si112  1  0.17886313  0.93143171  0.01298811  1
  Si0+  Si113  1  0.57467140  0.67948703  0.31695372  1
  Si0+  Si114  1  0.67967162  0.42757767  0.34788697  1
  Si0+  Si115  1  0.92641353  0.82214886  0.31923399  1
  Si0+  Si116  1  0.81967054  0.57009302  0.34778459  1
  Si0+  Si117  1  0.92697572  0.82229686  0.64934617  1
  Si0+  Si118  1  0.82387002  0.07355213  0.68569334  1
  Si0+  Si119  1  0.67749401  0.92998657  0.01585541  1
  O2-  O120  1  0.24785984  0.00364551  0.05761720  1
  O2-  O121  1  0.24892161  0.00647461  0.39364130  1
  O2-  O122  1  0.24287031  -0.00339543  0.72934626  1
  O2-  O123  1  0.24910530  0.50258390  0.06215323  1
  O2-  O124  1  0.25274617  0.49708879  0.40242129  1
  O2-  O125  1  0.25152145  0.50123072  0.72258289  1
  O2-  O126  1  0.75172689  -0.00224719  0.05746541  1
  O2-  O127  1  0.75206993  0.00654286  0.39354098  1
  O2-  O128  1  0.75402846  0.00615454  0.73057320  1
  O2-  O129  1  0.75143236  0.49753139  0.06593557  1
  O2-  O130  1  0.74817875  0.50018700  0.39126011  1
  O2-  O131  1  0.74612928  0.49266623  0.72456969  1
  O2-  O132  1  0.00078986  0.24898579  0.27589702  1
  O2-  O133  1  -0.00198269  0.24787984  0.59991440  1
  O2-  O134  1  0.01204826  0.25003781  0.94334608  1
  O2-  O135  1  -0.00207964  0.75796264  0.27362740  1
  O2-  O136  1  -0.00240208  0.75639358  0.60445481  1
  O2-  O137  1  -0.00606343  0.74653835  0.93517486  1
  O2-  O138  1  0.50093727  0.25265208  0.26667084  1
  O2-  O139  1  0.50649669  0.24916064  0.60774446  1
  O2-  O140  1  0.49833708  0.25561056  0.93772608  1
  O2-  O141  1  0.50064396  0.74819077  0.27510106  1
  O2-  O142  1  0.50147080  0.75051542  0.60009012  1
  O2-  O143  1  0.49676318  0.74671013  0.94632261  1
  O2-  O144  1  0.07062791  0.16939510  0.09157818  1
  O2-  O145  1  0.06767504  0.17432657  0.42326404  1
  O2-  O146  1  0.07176881  0.18310017  0.76612646  1
  O2-  O147  1  0.07328918  0.68397022  0.09821436  1
  O2-  O148  1  0.06862832  0.67989754  0.43094236  1
  O2-  O149  1  0.07150291  0.67817089  0.76390507  1
  O2-  O150  1  0.56815276  0.17430308  0.09653834  1
  O2-  O151  1  0.56779564  0.17911004  0.43224123  1
  O2-  O152  1  0.56943834  0.17766044  0.75676702  1
  O2-  O153  1  0.57216907  0.68158560  0.09316275  1
  O2-  O154  1  0.57844619  0.68141528  0.42160452  1
  O2-  O155  1  0.57009232  0.67851042  0.76680600  1
  O2-  O156  1  0.17487052  0.43170809  0.23859373  1
  O2-  O157  1  0.18137180  0.42981157  0.57550238  1
  O2-  O158  1  0.18178722  0.42642522  0.89916401  1
  O2-  O159  1  0.17910221  0.93070565  0.23307162  1
  O2-  O160  1  0.17834404  0.92601950  0.57955172  1
  O2-  O161  1  0.18082734  0.93160539  0.90828424  1
  O2-  O162  1  0.68332428  0.42672779  0.24295306  1
  O2-  O163  1  0.67652876  0.42837153  0.57397866  1
  O2-  O164  1  0.67805387  0.42834115  0.90049086  1
  O2-  O165  1  0.68100350  0.92903339  0.23363666  1
  O2-  O166  1  0.67982103  0.93263829  0.57017561  1
  O2-  O167  1  0.67483885  0.93165458  0.91117631  1
  O2-  O168  1  0.42952088  0.31821504  0.08928595  1
  O2-  O169  1  0.42734073  0.32057248  0.42769433  1
  O2-  O170  1  0.42887843  0.32142822  0.76804741  1
  O2-  O171  1  0.43067545  0.82604011  0.09148861  1
  O2-  O172  1  0.43274335  0.82254809  0.42258121  1
  O2-  O173  1  0.43066913  0.81958085  0.76517510  1
  O2-  O174  1  0.93014824  0.31548951  0.10100321  1
  O2-  O175  1  0.92770048  0.32010828  0.42175227  1
  O2-  O176  1  0.93009642  0.32297112  0.76330236  1
  O2-  O177  1  0.93033411  0.82639199  0.09918349  1
  O2-  O178  1  0.92350286  0.81886638  0.42453492  1
  O2-  O179  1  0.92857956  0.82212107  0.75485291  1
  O2-  O180  1  0.32047263  0.06578805  0.24217548  1
  O2-  O181  1  0.31713785  0.07038832  0.56784996  1
  O2-  O182  1  0.32443919  0.07038368  0.91210130  1
  O2-  O183  1  0.31942770  0.57312701  0.23869005  1
  O2-  O184  1  0.32207453  0.57146592  0.57527773  1
  O2-  O185  1  0.32317423  0.57376803  0.89861516  1
  O2-  O186  1  0.82451086  0.07500767  0.24528559  1
  O2-  O187  1  0.82392887  0.07214318  0.57998825  1
  O2-  O188  1  0.82117420  0.06832592  0.90875761  1
  O2-  O189  1  0.81829034  0.57002244  0.24293739  1
  O2-  O190  1  0.82109937  0.56734000  0.56654930  1
  O2-  O191  1  0.81947332  0.57109190  0.90304367  1
  O2-  O192  1  0.03940578  0.08478349  0.27050956  1
  O2-  O193  1  0.04520942  0.07826763  0.60090571  1
  O2-  O194  1  0.04544775  0.08558377  0.93567195  1
  O2-  O195  1  0.03721573  0.58471452  0.26470508  1
  O2-  O196  1  0.03713205  0.58480462  0.59535942  1
  O2-  O197  1  0.04697964  0.57987752  0.93294903  1
  O2-  O198  1  0.54042993  0.08055283  0.26493435  1
  O2-  O199  1  0.53982431  0.08440761  0.60698429  1
  O2-  O200  1  0.53523104  0.08317357  0.92930797  1
  O2-  O201  1  0.55014160  0.58702024  0.26988379  1
  O2-  O202  1  0.54639940  0.58202657  0.59680386  1
  O2-  O203  1  0.54563499  0.58487709  0.94169510  1
  O2-  O204  1  0.16247652  0.19923634  0.27102020  1
  O2-  O205  1  0.16795370  0.20736794  0.59754630  1
  O2-  O206  1  0.17236671  0.19566162  0.94514666  1
  O2-  O207  1  0.16902092  0.71216249  0.26651791  1
  O2-  O208  1  0.16642182  0.70943014  0.59586993  1
  O2-  O209  1  0.16811955  0.71398288  0.93083482  1
  O2-  O210  1  0.67041038  0.20512877  0.26689422  1
  O2-  O211  1  0.66649632  0.19371099  0.60547422  1
  O2-  O212  1  0.66764883  0.20324441  0.92860124  1
  O2-  O213  1  0.66468975  0.71211596  0.26812352  1
  O2-  O214  1  0.67191288  0.70933113  0.60190968  1
  O2-  O215  1  0.66070237  0.70856392  0.93974134  1
  O2-  O216  1  0.08010943  0.45390476  0.06621887  1
  O2-  O217  1  0.07921583  0.46020418  0.40440770  1
  O2-  O218  1  0.08843261  0.45909227  0.72538513  1
  O2-  O219  1  0.08655104  0.95814546  0.06057565  1
  O2-  O220  1  0.08037958  0.95585185  0.40200118  1
  O2-  O221  1  0.08092656  0.94780408  0.72905803  1
  O2-  O222  1  0.58296925  0.45452319  0.07050595  1
  O2-  O223  1  0.58647778  0.45332542  0.39236469  1
  O2-  O224  1  0.58214371  0.45293478  0.72579849  1
  O2-  O225  1  0.58665585  0.96174985  0.06388387  1
  O2-  O226  1  0.58208824  0.95975792  0.40102611  1
  O2-  O227  1  0.58352104  0.96069971  0.73875768  1
  O2-  O228  1  0.20593271  0.32974660  0.06909137  1
  O2-  O229  1  0.20135482  0.32688542  0.40073147  1
  O2-  O230  1  0.20795283  0.33815211  0.72724342  1
  O2-  O231  1  0.20978516  0.84139428  0.06194606  1
  O2-  O232  1  0.21248047  0.83492565  0.40139368  1
  O2-  O233  1  0.20619119  0.83260234  0.73109671  1
  O2-  O234  1  0.70908619  0.32587460  0.06491894  1
  O2-  O235  1  0.70904891  0.33652035  0.39596918  1
  O2-  O236  1  0.69763271  0.33033021  0.72328088  1
  O2-  O237  1  0.70047134  0.83766063  0.06433010  1
  O2-  O238  1  0.71100423  0.83441820  0.40341682  1
  O2-  O239  1  0.71069857  0.83464814  0.73846075  1
  O2-  O240  1  0.45486476  0.42322495  0.26319989  1
  O2-  O241  1  0.45662318  0.41620684  0.59624004  1
  O2-  O242  1  0.45271017  0.41750984  0.94095991  1
  O2-  O243  1  0.45929236  0.91090531  0.26827822  1
  O2-  O244  1  0.45869719  0.92123709  0.60027388  1
  O2-  O245  1  0.46202575  0.91126936  0.93676043  1
  O2-  O246  1  0.95846088  0.41239241  0.26985304  1
  O2-  O247  1  0.95975398  0.41733492  0.59412900  1
  O2-  O248  1  0.95749478  0.41738554  0.93338119  1
  O2-  O249  1  0.94698527  0.91883706  0.27668904  1
  O2-  O250  1  0.94700802  0.91726535  0.60360070  1
  O2-  O251  1  0.95748268  0.91898141  0.92928744  1
  O2-  O252  1  0.32757487  0.29425222  0.26130565  1
  O2-  O253  1  0.33482247  0.28616795  0.59946457  1
  O2-  O254  1  0.33518680  0.29335824  0.93935519  1
  O2-  O255  1  0.33869540  0.79282481  0.27048798  1
  O2-  O256  1  0.33143784  0.79629302  0.59753492  1
  O2-  O257  1  0.33698721  0.80046621  0.93772438  1
  O2-  O258  1  0.83833068  0.29311565  0.26863001  1
  O2-  O259  1  0.82885449  0.29453451  0.59583957  1
  O2-  O260  1  0.83782031  0.28457379  0.93124716  1
  O2-  O261  1  0.83373595  0.79414112  0.27159674  1
  O2-  O262  1  0.83348625  0.79424619  0.60534093  1
  O2-  O263  1  0.82451689  0.80073992  0.93636022  1
  O2-  O264  1  0.41279806  0.03563871  0.06512520  1
  O2-  O265  1  0.41267828  0.04124426  0.39458943  1
  O2-  O266  1  0.41291502  0.03949044  0.73856251  1
  O2-  O267  1  0.41907915  0.54809603  0.06860369  1
  O2-  O268  1  0.42434510  0.54719080  0.40179795  1
  O2-  O269  1  0.41506265  0.54411282  0.72554051  1
  O2-  O270  1  0.91398230  0.04294613  0.06194461  1
  O2-  O271  1  0.91404208  0.04942591  0.40009226  1
  O2-  O272  1  0.91734054  0.04727051  0.73211100  1
  O2-  O273  1  0.92010630  0.54456290  0.06861299  1
  O2-  O274  1  0.91115477  0.54045842  0.39394755  1
  O2-  O275  1  0.91838721  0.53500783  0.73333833  1
  O2-  O276  1  0.30188181  0.16254079  0.06642166  1
  O2-  O277  1  0.29855529  0.16643249  0.39033679  1
  O2-  O278  1  0.28642674  0.16701069  0.73750597  1
  O2-  O279  1  0.29544578  0.67450536  0.06508663  1
  O2-  O280  1  0.29415818  0.66950830  0.40459887  1
  O2-  O281  1  0.29456855  0.66472464  0.72563694  1
  O2-  O282  1  0.79255036  0.16004001  0.06175464  1
  O2-  O283  1  0.79713777  0.16891872  0.39736130  1
  O2-  O284  1  0.79912389  0.16868154  0.72948322  1
  O2-  O285  1  0.79001643  0.67012397  0.07040094  1
  O2-  O286  1  0.79202823  0.66173472  0.39554009  1
  O2-  O287  1  0.79331399  0.66405611  0.73624876  1
