# generated using pymatgen
data_Ca2Al2SiO7
_symmetry_space_group_name_H-M   'P 1'
_cell_length_a   15.45756719
_cell_length_b   15.45913577
_cell_length_c   15.28337116
_cell_angle_alpha   89.99617309
_cell_angle_beta   90.00021164
_cell_angle_gamma   89.99380852
_symmetry_Int_Tables_number   1
_chemical_formula_structural   Ca2Al2SiO7
_chemical_formula_sum   'Ca48 Al48 Si24 O168'
_cell_volume   3652.12396808
_cell_formula_units_Z   24
loop_
 _symmetry_equiv_pos_site_id
 _symmetry_equiv_pos_as_xyz
  1  'x, y, z'
loop_
 _atom_type_symbol
 _atom_type_oxidation_number
  Ca2+  2.0
  Al0+  0.0
  Si0+  0.0
  O2-  -2.0
loop_
 _atom_site_type_symbol
 _atom_site_label
 _atom_site_symmetry_multiplicity
 _atom_site_fract_x
 _atom_site_fract_y
 _atom_site_fract_z
 _atom_site_occupancy
  Ca2+  Ca0  1  0.16552872  0.08392634  0.17281677  1
  Ca2+  Ca1  1  0.17090247  0.08924249  0.49780033  1
  Ca2+  Ca2  1  0.16690650  0.07639440  0.84382026  1
  Ca2+  Ca3  1  0.16958814  0.57685278  0.16667411  1
  Ca2+  Ca4  1  0.17258187  0.58744833  0.50410215  1
  Ca2+  Ca5  1  0.16433464  0.57834219  0.84268534  1
  Ca2+  Ca6  1  0.67680062  0.08476632  0.17272252  1
  Ca2+  Ca7  1  0.67593574  0.08507219  0.50692414  1
  Ca2+  Ca8  1  0.67411152  0.09625734  0.83667305  1
  Ca2+  Ca9  1  0.66609550  0.57113099  0.16997248  1
  Ca2+  Ca10  1  0.66356887  0.57751364  0.50254547  1
  Ca2+  Ca11  1  0.67060315  0.57803916  0.84271965  1
  Ca2+  Ca12  1  0.08689646  0.32073334  0.15959122  1
  Ca2+  Ca13  1  0.07165580  0.32832791  0.49442377  1
  Ca2+  Ca14  1  0.07830831  0.33090409  0.83175231  1
  Ca2+  Ca15  1  0.07864335  0.83110423  0.16022641  1
  Ca2+  Ca16  1  0.07708412  0.82974807  0.49561036  1
  Ca2+  Ca17  1  0.08661100  0.82264633  0.83224501  1
  Ca2+  Ca18  1  0.57603451  0.33631350  0.16027315  1
  Ca2+  Ca19  1  0.57677910  0.32948172  0.49600194  1
  Ca2+  Ca20  1  0.57945681  0.32949467  0.83090183  1
  Ca2+  Ca21  1  0.58502047  0.83710411  0.16559629  1
  Ca2+  Ca22  1  0.58837627  0.82907216  0.49777473  1
  Ca2+  Ca23  1  0.57769194  0.82645380  0.82418797  1
  Ca2+  Ca24  1  0.33155322  0.41347193  0.17285729  1
  Ca2+  Ca25  1  0.33805559  0.41709625  0.50025660  1
  Ca2+  Ca26  1  0.33118769  0.41297034  0.83903637  1
  Ca2+  Ca27  1  0.32474926  0.92554914  0.17183579  1
  Ca2+  Ca28  1  0.33739300  0.92337774  0.50379251  1
  Ca2+  Ca29  1  0.32959083  0.91460261  0.83826080  1
  Ca2+  Ca30  1  0.82073829  0.41768434  0.16707509  1
  Ca2+  Ca31  1  0.82592015  0.40804596  0.50474262  1
  Ca2+  Ca32  1  0.82877800  0.41915762  0.84272514  1
  Ca2+  Ca33  1  0.83165615  0.92577149  0.17542926  1
  Ca2+  Ca34  1  0.83398191  0.92462360  0.49897192  1
  Ca2+  Ca35  1  0.83412440  0.93067852  0.83887060  1
  Ca2+  Ca36  1  0.42098486  0.17551599  0.15854854  1
  Ca2+  Ca37  1  0.41713873  0.17603317  0.49227275  1
  Ca2+  Ca38  1  0.42876782  0.17764094  0.82861928  1
  Ca2+  Ca39  1  0.41345452  0.66536987  0.16603786  1
  Ca2+  Ca40  1  0.41914751  0.67035899  0.49856141  1
  Ca2+  Ca41  1  0.42355560  0.67236736  0.82402487  1
  Ca2+  Ca42  1  0.92355674  0.15750208  0.16255187  1
  Ca2+  Ca43  1  0.91773894  0.16274845  0.49706927  1
  Ca2+  Ca44  1  0.91603715  0.16835496  0.83096374  1
  Ca2+  Ca45  1  0.91526166  0.67368989  0.15924945  1
  Ca2+  Ca46  1  0.92283043  0.67181117  0.49350302  1
  Ca2+  Ca47  1  0.92836699  0.65633414  0.83122198  1
  Al0+  Al48  1  0.00019244  -0.00179995  0.00245373  1
  Al0+  Al49  1  -0.00051116  -0.00268169  0.33054795  1
  Al0+  Al50  1  0.00074505  -0.00119482  0.67243414  1
  Al0+  Al51  1  0.00184685  0.50094694  0.00742324  1
  Al0+  Al52  1  -0.00004007  0.49877590  0.33095613  1
  Al0+  Al53  1  0.00078092  0.49842684  0.65625607  1
  Al0+  Al54  1  0.50005356  0.00124678  -0.00561092  1
  Al0+  Al55  1  0.49929510  -0.00143606  0.33964605  1
  Al0+  Al56  1  0.50080488  0.00045200  0.66303698  1
  Al0+  Al57  1  0.49923384  0.50266505  -0.00158924  1
  Al0+  Al58  1  0.49914586  0.50039040  0.33782650  1
  Al0+  Al59  1  0.49916757  0.50082644  0.66286890  1
  Al0+  Al60  1  0.24983174  0.25009492  -0.00577328  1
  Al0+  Al61  1  0.24839449  0.25032018  0.33114733  1
  Al0+  Al62  1  0.24954678  0.24960730  0.66613139  1
  Al0+  Al63  1  0.24769715  0.75091231  0.00158142  1
  Al0+  Al64  1  0.25107927  0.74885251  0.33650626  1
  Al0+  Al65  1  0.25070745  0.74952889  0.66002742  1
  Al0+  Al66  1  0.75051917  0.25078368  0.00754668  1
  Al0+  Al67  1  0.74985906  0.25059775  0.34132386  1
  Al0+  Al68  1  0.75044763  0.25086060  0.66539031  1
  Al0+  Al69  1  0.75024488  0.75321420  0.00042400  1
  Al0+  Al70  1  0.75060207  0.74912675  0.33144110  1
  Al0+  Al71  1  0.75162322  0.75040382  0.66488402  1
  Al0+  Al72  1  0.43114713  0.32072818  0.31842435  1
  Al0+  Al73  1  0.31923502  0.57027755  0.34833274  1
  Al0+  Al74  1  0.07045506  0.17664464  0.98552638  1
  Al0+  Al75  1  0.57371904  0.17902102  0.98682475  1
  Al0+  Al76  1  0.42883614  0.82132226  0.65054588  1
  Al0+  Al77  1  0.82294671  0.57347212  0.01424553  1
  Al0+  Al78  1  0.93019225  0.31992214  0.65508330  1
  Al0+  Al79  1  0.92943758  0.81804041  0.31870832  1
  Al0+  Al80  1  0.67706696  0.43013958  0.01412164  1
  Al0+  Al81  1  0.06795159  0.18065953  0.32036458  1
  Al0+  Al82  1  0.31951498  0.07234265  0.34580842  1
  Al0+  Al83  1  0.42861089  0.32405921  0.98473054  1
  Al0+  Al84  1  0.42648877  0.32056991  0.64963158  1
  Al0+  Al85  1  0.07028536  0.67799437  0.65208075  1
  Al0+  Al86  1  0.18005888  0.42696103  0.01255498  1
  Al0+  Al87  1  0.67823520  0.92691154  0.34904247  1
  Al0+  Al88  1  0.06953885  0.67917342  0.98808211  1
  Al0+  Al89  1  0.57256644  0.18040774  0.64991810  1
  Al0+  Al90  1  0.18010742  0.92832086  0.01376275  1
  Al0+  Al91  1  0.82032395  0.07093054  0.68319388  1
  Al0+  Al92  1  0.57377626  0.67894702  0.65127813  1
  Al0+  Al93  1  0.82002796  0.07098668  0.01433513  1
  Al0+  Al94  1  0.67916877  0.43011044  0.34977845  1
  Al0+  Al95  1  0.82235914  0.07008331  0.35016814  1
  Si0+  Si96  1  0.07170154  0.17478249  0.65164254  1
  Si0+  Si97  1  0.82275257  0.57165250  0.35054574  1
  Si0+  Si98  1  0.67743850  0.92674318  0.68476440  1
  Si0+  Si99  1  0.17852529  0.92753134  0.35125550  1
  Si0+  Si100  1  0.32256596  0.07158390  0.01398228  1
  Si0+  Si101  1  0.31978037  0.57131647  0.68220399  1
  Si0+  Si102  1  0.32135814  0.57316511  0.01411641  1
  Si0+  Si103  1  0.82356115  0.57146186  0.67872919  1
  Si0+  Si104  1  0.57275734  0.17607770  0.31800155  1
  Si0+  Si105  1  0.07476645  0.67687843  0.31461001  1
  Si0+  Si106  1  0.92924305  0.32197509  0.98720699  1
  Si0+  Si107  1  0.17744219  0.42942429  0.68021185  1
  Si0+  Si108  1  0.92674661  0.82210504  0.98125517  1
  Si0+  Si109  1  0.42805133  0.82093661  0.98762595  1
  Si0+  Si110  1  0.32212721  0.07251015  0.68291782  1
  Si0+  Si111  1  0.18081491  0.92815564  0.68160682  1
  Si0+  Si112  1  0.67890586  0.43130914  0.68207996  1
  Si0+  Si113  1  0.56947790  0.67966912  0.31688217  1
  Si0+  Si114  1  0.17687106  0.42687810  0.35151665  1
  Si0+  Si115  1  0.57197491  0.68045762  0.98701230  1
  Si0+  Si116  1  0.92952871  0.82406256  0.65122306  1
  Si0+  Si117  1  0.92424495  0.32348234  0.31421936  1
  Si0+  Si118  1  0.67504108  0.92785908  0.01448434  1
  Si0+  Si119  1  0.42745016  0.82250775  0.31658636  1
  O2-  O120  1  0.25162966  0.00606744  0.05976125  1
  O2-  O121  1  0.24674548  -0.00359032  0.39548836  1
  O2-  O122  1  0.25181979  -0.00050750  0.72412661  1
  O2-  O123  1  0.25845929  0.49902572  0.05757606  1
  O2-  O124  1  0.24224810  0.49842514  0.39639353  1
  O2-  O125  1  0.25000710  0.49886553  0.72365954  1
  O2-  O126  1  0.74224413  -0.00206662  0.05783736  1
  O2-  O127  1  0.74651335  0.00172363  0.39995101  1
  O2-  O128  1  0.74382356  -0.00280867  0.72976776  1
  O2-  O129  1  0.74863508  0.50359329  0.06348998  1
  O2-  O130  1  0.75858188  0.50029220  0.39709395  1
  O2-  O131  1  0.74909214  0.50475272  0.72229478  1
  O2-  O132  1  -0.00781902  0.25340779  0.27173155  1
  O2-  O133  1  0.00249465  0.24295386  0.60850047  1
  O2-  O134  1  -0.00408435  0.25232725  0.94046045  1
  O2-  O135  1  0.00301428  0.74228500  0.27129781  1
  O2-  O136  1  -0.00487569  0.75238631  0.60685011  1
  O2-  O137  1  -0.00801723  0.74934701  0.93800428  1
  O2-  O138  1  0.50495655  0.24496905  0.27251405  1
  O2-  O139  1  0.49686961  0.24778753  0.59901627  1
  O2-  O140  1  0.50300649  0.25311822  0.93744150  1
  O2-  O141  1  0.50020834  0.75298257  0.27414141  1
  O2-  O142  1  0.50393375  0.75267535  0.60026303  1
  O2-  O143  1  0.50097647  0.75184399  0.94562842  1
  O2-  O144  1  0.07028696  0.17690327  0.09854103  1
  O2-  O145  1  0.06824567  0.18301224  0.43400107  1
  O2-  O146  1  0.07232725  0.17469980  0.75728236  1
  O2-  O147  1  0.07204863  0.68265537  0.10065103  1
  O2-  O148  1  0.07451101  0.67896843  0.42065839  1
  O2-  O149  1  0.07056747  0.67673643  0.76526252  1
  O2-  O150  1  0.57032056  0.17519682  0.10033521  1
  O2-  O151  1  0.57071329  0.17810423  0.42350671  1
  O2-  O152  1  0.57308369  0.18552724  0.76356893  1
  O2-  O153  1  0.57075880  0.68006521  0.09211720  1
  O2-  O154  1  0.56864165  0.68002102  0.42180388  1
  O2-  O155  1  0.57151913  0.67889901  0.76567396  1
  O2-  O156  1  0.17877470  0.42663673  0.24588294  1
  O2-  O157  1  0.17685613  0.43113270  0.57532031  1
  O2-  O158  1  0.17779952  0.43033672  0.89884185  1
  O2-  O159  1  0.18081846  0.92615596  0.24558501  1
  O2-  O160  1  0.17910900  0.92929300  0.57663966  1
  O2-  O161  1  0.18434957  0.92549965  0.90009622  1
  O2-  O162  1  0.67738203  0.43325240  0.23690915  1
  O2-  O163  1  0.68001574  0.43199879  0.57695831  1
  O2-  O164  1  0.67817322  0.43260059  0.89996468  1
  O2-  O165  1  0.67923307  0.92778609  0.23496277  1
  O2-  O166  1  0.68071300  0.92478272  0.57959788  1
  O2-  O167  1  0.67557065  0.92312200  0.90907569  1
  O2-  O168  1  0.42869165  0.32320070  0.09849451  1
  O2-  O169  1  0.43178239  0.32009585  0.43131615  1
  O2-  O170  1  0.42574081  0.32067518  0.76299836  1
  O2-  O171  1  0.42810780  0.82080617  0.09277860  1
  O2-  O172  1  0.42493986  0.82008877  0.42115881  1
  O2-  O173  1  0.42678887  0.81694867  0.76507094  1
  O2-  O174  1  0.93070453  0.32083287  0.09258754  1
  O2-  O175  1  0.92726582  0.32541486  0.42014647  1
  O2-  O176  1  0.93241359  0.32353449  0.76824838  1
  O2-  O177  1  0.92784591  0.82164598  0.08675403  1
  O2-  O178  1  0.93286782  0.81631474  0.43237580  1
  O2-  O179  1  0.93198439  0.82559478  0.75667096  1
  O2-  O180  1  0.31827477  0.06996913  0.23261710  1
  O2-  O181  1  0.31872124  0.07366624  0.57781480  1
  O2-  O182  1  0.32235966  0.06676381  0.90811375  1
  O2-  O183  1  0.31836570  0.57113976  0.23498471  1
  O2-  O184  1  0.31820986  0.57254126  0.57726958  1
  O2-  O185  1  0.31958608  0.57703530  0.90834837  1
  O2-  O186  1  0.82300585  0.06770809  0.23658782  1
  O2-  O187  1  0.82330048  0.06746958  0.57068224  1
  O2-  O188  1  0.82073589  0.07032036  0.90091437  1
  O2-  O189  1  0.81942005  0.57243376  0.24515926  1
  O2-  O190  1  0.82389638  0.56975778  0.57376139  1
  O2-  O191  1  0.82210930  0.57066444  0.89969631  1
  O2-  O192  1  0.04186426  0.08227053  0.26784959  1
  O2-  O193  1  0.04663681  0.08100128  0.60619280  1
  O2-  O194  1  0.04017556  0.07938764  0.93234162  1
  O2-  O195  1  0.05355058  0.58090461  0.27190355  1
  O2-  O196  1  0.04038386  0.58405949  0.59332399  1
  O2-  O197  1  0.04128587  0.58111899  0.93465604  1
  O2-  O198  1  0.54778955  0.08104254  0.27491975  1
  O2-  O199  1  0.55165629  0.07913061  0.60130294  1
  O2-  O200  1  0.54533357  0.08146005  0.92998518  1
  O2-  O201  1  0.53652121  0.58947705  0.26993395  1
  O2-  O202  1  0.54203445  0.58249515  0.59751491  1
  O2-  O203  1  0.54422316  0.59024920  0.93673129  1
  O2-  O204  1  0.16348787  0.21264140  0.26501257  1
  O2-  O205  1  0.16469382  0.20157179  0.60571966  1
  O2-  O206  1  0.16654741  0.20552078  0.92991963  1
  O2-  O207  1  0.16788878  0.70572073  0.26989988  1
  O2-  O208  1  0.16516563  0.71048021  0.59687687  1
  O2-  O209  1  0.16521118  0.71338550  0.93271113  1
  O2-  O210  1  0.66814367  0.20182777  0.27602027  1
  O2-  O211  1  0.66927463  0.21230874  0.59674023  1
  O2-  O212  1  0.67301456  0.20844233  0.93607213  1
  O2-  O213  1  0.66175200  0.70470790  0.26954208  1
  O2-  O214  1  0.67335477  0.70367410  0.59824309  1
  O2-  O215  1  0.66353322  0.70764799  0.93850462  1
  O2-  O216  1  0.08707043  0.46006917  0.07131741  1
  O2-  O217  1  0.08105107  0.44955823  0.39537538  1
  O2-  O218  1  0.08579335  0.46018685  0.72645173  1
  O2-  O219  1  0.08324967  0.95534960  0.06753452  1
  O2-  O220  1  0.08519582  0.95327681  0.39663906  1
  O2-  O221  1  0.08982691  0.95435410  0.73161054  1
  O2-  O222  1  0.57922100  0.46219713  0.06705101  1
  O2-  O223  1  0.58538504  0.46680308  0.40479450  1
  O2-  O224  1  0.58624966  0.45878087  0.72809045  1
  O2-  O225  1  0.58009127  0.95081296  0.05948538  1
  O2-  O226  1  0.57761812  0.94598143  0.40107507  1
  O2-  O227  1  0.58143028  0.94791173  0.72836040  1
  O2-  O228  1  0.20855526  0.32929594  0.06574437  1
  O2-  O229  1  0.20481865  0.33493415  0.39871273  1
  O2-  O230  1  0.20217457  0.33622307  0.72708769  1
  O2-  O231  1  0.21383366  0.83422952  0.07083586  1
  O2-  O232  1  0.20472993  0.83427498  0.39766875  1
  O2-  O233  1  0.21057618  0.83567260  0.72759980  1
  O2-  O234  1  0.70575638  0.33404817  0.07048586  1
  O2-  O235  1  0.70650212  0.33375985  0.40578107  1
  O2-  O236  1  0.70986405  0.34070117  0.72897373  1
  O2-  O237  1  0.70052100  0.83523055  0.06281938  1
  O2-  O238  1  0.71004378  0.82847279  0.40096373  1
  O2-  O239  1  0.70436224  0.83262760  0.73106910  1
  O2-  O240  1  0.46196278  0.41874264  0.26721141  1
  O2-  O241  1  0.45417597  0.41980709  0.59923622  1
  O2-  O242  1  0.45357468  0.42407161  0.93191219  1
  O2-  O243  1  0.45320579  0.91500208  0.26946877  1
  O2-  O244  1  0.45081391  0.92140674  0.59985532  1
  O2-  O245  1  0.45250218  0.91205114  0.93726539  1
  O2-  O246  1  0.94936524  0.41752994  0.26848040  1
  O2-  O247  1  0.96240689  0.41236621  0.59368988  1
  O2-  O248  1  0.95663016  0.41565751  0.94236881  1
  O2-  O249  1  0.96171979  0.91307568  0.26341340  1
  O2-  O250  1  0.96110355  0.91539925  0.60382988  1
  O2-  O251  1  0.95862398  0.91322569  0.93445993  1
  O2-  O252  1  0.33300384  0.29154813  0.26722492  1
  O2-  O253  1  0.32690192  0.29341023  0.59753703  1
  O2-  O254  1  0.33164031  0.29440379  0.92980422  1
  O2-  O255  1  0.33613466  0.79125563  0.26916584  1
  O2-  O256  1  0.33292435  0.79003779  0.59467870  1
  O2-  O257  1  0.33765424  0.79017455  0.93935667  1
  O2-  O258  1  0.82892675  0.29954924  0.27194375  1
  O2-  O259  1  0.83448965  0.29105220  0.60000644  1
  O2-  O260  1  0.83480255  0.29824721  0.94236952  1
  O2-  O261  1  0.83309593  0.78788750  0.26331862  1
  O2-  O262  1  0.83539374  0.80175791  0.60591732  1
  O2-  O263  1  0.83147153  0.80273086  0.93560758  1
  O2-  O264  1  0.41525986  0.04285094  0.06013500  1
  O2-  O265  1  0.41482715  0.04210922  0.40200388  1
  O2-  O266  1  0.41486620  0.04588554  0.72897944  1
  O2-  O267  1  0.41674334  0.55515080  0.05913688  1
  O2-  O268  1  0.41458789  0.53974648  0.40386525  1
  O2-  O269  1  0.41280911  0.54566982  0.72875523  1
  O2-  O270  1  0.91509193  0.03539726  0.06773433  1
  O2-  O271  1  0.91982392  0.03555873  0.40235845  1
  O2-  O272  1  0.91721337  0.03870047  0.73766976  1
  O2-  O273  1  0.91954890  0.54670223  0.07048514  1
  O2-  O274  1  0.91943508  0.55126909  0.39328841  1
  O2-  O275  1  0.91499514  0.53845511  0.72444933  1
  O2-  O276  1  0.29955839  0.16644917  0.05688726  1
  O2-  O277  1  0.28479629  0.16722494  0.40126693  1
  O2-  O278  1  0.29229444  0.16343916  0.73132241  1
  O2-  O279  1  0.29015055  0.66364603  0.06354127  1
  O2-  O280  1  0.29029947  0.66725441  0.40416921  1
  O2-  O281  1  0.29056516  0.66343571  0.72867576  1
  O2-  O282  1  0.79487269  0.16721662  0.07088345  1
  O2-  O283  1  0.79975543  0.16995322  0.40256521  1
  O2-  O284  1  0.79035818  0.16913740  0.73524102  1
  O2-  O285  1  0.79579954  0.67347706  0.06475452  1
  O2-  O286  1  0.79381763  0.66378331  0.39715862  1
  O2-  O287  1  0.80263074  0.66535347  0.72540652  1
