# generated using pymatgen
data_Ca2Al2SiO7
_symmetry_space_group_name_H-M   'P 1'
_cell_length_a   15.45110166
_cell_length_b   15.45181387
_cell_length_c   15.27898672
_cell_angle_alpha   90.01242135
_cell_angle_beta   89.99656047
_cell_angle_gamma   90.00632029
_symmetry_Int_Tables_number   1
_chemical_formula_structural   Ca2Al2SiO7
_chemical_formula_sum   'Ca48 Al48 Si24 O168'
_cell_volume   3647.82048397
_cell_formula_units_Z   24
loop_
 _symmetry_equiv_pos_site_id
 _symmetry_equiv_pos_as_xyz
  1  'x, y, z'
loop_
 _atom_type_symbol
 _atom_type_oxidation_number
  Ca2+  2.0
  Al0+  0.0
  Si0+  0.0
  O2-  -2.0
loop_
 _atom_site_type_symbol
 _atom_site_label
 _atom_site_symmetry_multiplicity
 _atom_site_fract_x
 _atom_site_fract_y
 _atom_site_fract_z
 _atom_site_occupancy
  Ca2+  Ca0  1  0.16457072  0.08102752  0.17242640  1
  Ca2+  Ca1  1  0.17438843  0.07112501  0.50686343  1
  Ca2+  Ca2  1  0.16541757  0.08152294  0.83293398  1
  Ca2+  Ca3  1  0.16590028  0.57212529  0.17168278  1
  Ca2+  Ca4  1  0.17729849  0.58151025  0.50082642  1
  Ca2+  Ca5  1  0.17137209  0.58219891  0.83778751  1
  Ca2+  Ca6  1  0.66792320  0.07866090  0.16541565  1
  Ca2+  Ca7  1  0.66450222  0.07890614  0.50914613  1
  Ca2+  Ca8  1  0.65916556  0.07343783  0.83357940  1
  Ca2+  Ca9  1  0.67270738  0.57199165  0.17371454  1
  Ca2+  Ca10  1  0.67523836  0.58044126  0.50101055  1
  Ca2+  Ca11  1  0.67755396  0.57970732  0.83804049  1
  Ca2+  Ca12  1  0.08223623  0.33403852  0.15277078  1
  Ca2+  Ca13  1  0.08224518  0.33679120  0.49867942  1
  Ca2+  Ca14  1  0.07693454  0.33478642  0.83376596  1
  Ca2+  Ca15  1  0.08059312  0.82664875  0.16398089  1
  Ca2+  Ca16  1  0.07637302  0.83928854  0.49372066  1
  Ca2+  Ca17  1  0.08014633  0.82682153  0.82472070  1
  Ca2+  Ca18  1  0.57340301  0.34709013  0.16312122  1
  Ca2+  Ca19  1  0.58011630  0.32955371  0.49383399  1
  Ca2+  Ca20  1  0.58077811  0.33064903  0.82874600  1
  Ca2+  Ca21  1  0.57805042  0.83237319  0.16427377  1
  Ca2+  Ca22  1  0.56962273  0.83728672  0.49787849  1
  Ca2+  Ca23  1  0.58125619  0.83682176  0.82342068  1
  Ca2+  Ca24  1  0.32518615  0.41657022  0.17658083  1
  Ca2+  Ca25  1  0.33414901  0.42378185  0.50010081  1
  Ca2+  Ca26  1  0.33143026  0.42140444  0.84127900  1
  Ca2+  Ca27  1  0.32485218  0.91765946  0.17621835  1
  Ca2+  Ca28  1  0.32451011  0.91187756  0.51026269  1
  Ca2+  Ca29  1  0.33480968  0.92235085  0.82884895  1
  Ca2+  Ca30  1  0.82480260  0.41650216  0.17424042  1
  Ca2+  Ca31  1  0.83564661  0.42876213  0.50591886  1
  Ca2+  Ca32  1  0.83343220  0.41452619  0.83757860  1
  Ca2+  Ca33  1  0.83077078  0.91398364  0.17068516  1
  Ca2+  Ca34  1  0.83008810  0.91329290  0.50927144  1
  Ca2+  Ca35  1  0.82177527  0.90930219  0.83464879  1
  Ca2+  Ca36  1  0.41421324  0.18369228  0.16213179  1
  Ca2+  Ca37  1  0.42028066  0.16575443  0.49845620  1
  Ca2+  Ca38  1  0.41873836  0.17151725  0.82678847  1
  Ca2+  Ca39  1  0.40993460  0.66909701  0.16855402  1
  Ca2+  Ca40  1  0.40773651  0.67287059  0.49576403  1
  Ca2+  Ca41  1  0.41919267  0.67141330  0.82401852  1
  Ca2+  Ca42  1  0.92704158  0.17463188  0.15667530  1
  Ca2+  Ca43  1  0.91556041  0.17441438  0.49884698  1
  Ca2+  Ca44  1  0.91800411  0.17846444  0.83091220  1
  Ca2+  Ca45  1  0.91996079  0.66572561  0.16569281  1
  Ca2+  Ca46  1  0.90874431  0.67573746  0.49633118  1
  Ca2+  Ca47  1  0.92452514  0.66472243  0.82613302  1
  Al0+  Al48  1  -0.00056137  -0.00004350  -0.00443326  1
  Al0+  Al49  1  -0.00180526  0.00020065  0.33193532  1
  Al0+  Al50  1  -0.00036379  0.00085073  0.66770877  1
  Al0+  Al51  1  0.00248938  0.50285261  -0.00499801  1
  Al0+  Al52  1  -0.00055512  0.50069474  0.34095371  1
  Al0+  Al53  1  0.00060902  0.50033234  0.66509364  1
  Al0+  Al54  1  0.49869087  0.00116445  0.00784118  1
  Al0+  Al55  1  0.50066401  -0.00000683  0.32540721  1
  Al0+  Al56  1  0.49928515  0.00011636  0.66529628  1
  Al0+  Al57  1  0.50213335  0.50416596  -0.00214528  1
  Al0+  Al58  1  0.50095760  0.49988226  0.33741691  1
  Al0+  Al59  1  0.50061846  0.49948138  0.67045669  1
  Al0+  Al60  1  0.25126459  0.25042984  -0.00611180  1
  Al0+  Al61  1  0.25116102  0.24783714  0.33524191  1
  Al0+  Al62  1  0.24958106  0.24966180  0.66903598  1
  Al0+  Al63  1  0.24986709  0.75283267  -0.00494457  1
  Al0+  Al64  1  0.24722051  0.75005816  0.33433088  1
  Al0+  Al65  1  0.25006296  0.74770052  0.67243285  1
  Al0+  Al66  1  0.74881893  0.24796341  0.00188889  1
  Al0+  Al67  1  0.75041326  0.24726788  0.33492987  1
  Al0+  Al68  1  0.74978447  0.24971915  0.65662969  1
  Al0+  Al69  1  0.74752355  0.75033362  0.00697604  1
  Al0+  Al70  1  0.74824969  0.75072259  0.33034024  1
  Al0+  Al71  1  0.75127285  0.74739461  0.67233523  1
  Al0+  Al72  1  0.68066707  0.93047789  0.67732824  1
  Al0+  Al73  1  0.32150491  0.07098412  0.68174732  1
  Al0+  Al74  1  0.92918210  0.81973087  0.65490180  1
  Al0+  Al75  1  0.92694324  0.32186166  0.98705520  1
  Al0+  Al76  1  0.67835504  0.42633824  0.35021960  1
  Al0+  Al77  1  0.67966270  0.42782089  0.01201997  1
  Al0+  Al78  1  0.43050967  0.81849634  0.65454446  1
  Al0+  Al79  1  0.32222151  0.56967251  0.68231748  1
  Al0+  Al80  1  0.32067698  0.57115642  0.34662841  1
  Al0+  Al81  1  0.43074175  0.32383064  0.98586802  1
  Al0+  Al82  1  0.82084195  0.57210193  0.34835031  1
  Al0+  Al83  1  0.42635617  0.82050187  0.31910188  1
  Al0+  Al84  1  0.93027978  0.32129950  0.65041974  1
  Al0+  Al85  1  0.82117830  0.57011990  0.68215630  1
  Al0+  Al86  1  0.07133850  0.68064493  0.98616541  1
  Al0+  Al87  1  0.07307630  0.17717724  0.98367495  1
  Al0+  Al88  1  0.43091243  0.32040125  0.32124053  1
  Al0+  Al89  1  0.17800443  0.42459311  0.34868962  1
  Al0+  Al90  1  0.17813596  0.93026380  0.34483142  1
  Al0+  Al91  1  0.92748226  0.82171790  0.31877868  1
  Al0+  Al92  1  0.17631728  0.92824334  0.68364264  1
  Al0+  Al93  1  0.67787904  0.92876096  0.01649270  1
  Al0+  Al94  1  0.56865590  0.17950896  0.65381321  1
  Al0+  Al95  1  0.18151154  0.43063182  0.01117796  1
  Si0+  Si96  1  0.92573211  0.82130487  0.98345515  1
  Si0+  Si97  1  0.92989142  0.32221264  0.31933305  1
  Si0+  Si98  1  0.07327734  0.67809154  0.64764939  1
  Si0+  Si99  1  0.82117672  0.06938113  0.34861037  1
  Si0+  Si100  1  0.57497664  0.17697982  0.31278858  1
  Si0+  Si101  1  0.06984012  0.17946815  0.32064131  1
  Si0+  Si102  1  0.07115669  0.67735077  0.31749153  1
  Si0+  Si103  1  0.67962880  0.42559286  0.68307122  1
  Si0+  Si104  1  0.67793337  0.92975795  0.34824943  1
  Si0+  Si105  1  0.82338791  0.07078910  0.01676144  1
  Si0+  Si106  1  0.17823923  0.92882798  0.01494865  1
  Si0+  Si107  1  0.82353002  0.57159276  0.01666441  1
  Si0+  Si108  1  0.32032888  0.07115911  0.01667138  1
  Si0+  Si109  1  0.07357002  0.17777529  0.64731067  1
  Si0+  Si110  1  0.82228355  0.07524886  0.68289881  1
  Si0+  Si111  1  0.57371830  0.67568753  0.65079542  1
  Si0+  Si112  1  0.17811935  0.42789253  0.68508558  1
  Si0+  Si113  1  0.57171507  0.68127714  0.98464650  1
  Si0+  Si114  1  0.32360334  0.07086751  0.34859856  1
  Si0+  Si115  1  0.57019504  0.17625373  0.98437752  1
  Si0+  Si116  1  0.42643198  0.32394491  0.64994243  1
  Si0+  Si117  1  0.32322068  0.57492840  0.01615734  1
  Si0+  Si118  1  0.42977081  0.82297698  0.98466957  1
  Si0+  Si119  1  0.57171381  0.67866197  0.31596296  1
  O2-  O120  1  0.24611753  0.00251531  0.05805533  1
  O2-  O121  1  0.25871773  -0.00156712  0.39144305  1
  O2-  O122  1  0.24770660  0.00141596  0.73345057  1
  O2-  O123  1  0.25696758  0.50384382  0.05946555  1
  O2-  O124  1  0.25111403  0.49661444  0.39663539  1
  O2-  O125  1  0.24973758  0.49332612  0.72921677  1
  O2-  O126  1  0.75582294  0.00082205  0.06217904  1
  O2-  O127  1  0.74868070  0.00016366  0.39084532  1
  O2-  O128  1  0.75669729  0.00304453  0.72640968  1
  O2-  O129  1  0.75917195  0.49777687  0.05897035  1
  O2-  O130  1  0.75221291  0.49688993  0.39883521  1
  O2-  O131  1  0.74804490  0.49368654  0.72837632  1
  O2-  O132  1  0.00575934  0.25646510  0.27702912  1
  O2-  O133  1  0.00531522  0.24688430  0.60272407  1
  O2-  O134  1  0.00041878  0.25062617  0.93705611  1
  O2-  O135  1  0.00073219  0.74524536  0.27330029  1
  O2-  O136  1  0.00621700  0.74930553  0.60476602  1
  O2-  O137  1  -0.00576742  0.75325861  0.93950188  1
  O2-  O138  1  0.50790509  0.24844893  0.27124957  1
  O2-  O139  1  0.49446284  0.25438311  0.60657808  1
  O2-  O140  1  0.50733988  0.25003744  0.94037510  1
  O2-  O141  1  0.49956076  0.74461119  0.27133834  1
  O2-  O142  1  0.50322271  0.74243431  0.60635627  1
  O2-  O143  1  0.50113639  0.75269765  0.94243845  1
  O2-  O144  1  0.07139079  0.17610230  0.09818635  1
  O2-  O145  1  0.06618248  0.17686340  0.42526715  1
  O2-  O146  1  0.07263143  0.17884899  0.75267446  1
  O2-  O147  1  0.07212744  0.68199237  0.09944737  1
  O2-  O148  1  0.07276803  0.67955898  0.42269165  1
  O2-  O149  1  0.07127285  0.67812776  0.75381258  1
  O2-  O150  1  0.56653737  0.17272684  0.08985014  1
  O2-  O151  1  0.57419048  0.17281446  0.41818665  1
  O2-  O152  1  0.56853786  0.18054826  0.76723740  1
  O2-  O153  1  0.57153153  0.68127599  0.08970344  1
  O2-  O154  1  0.57522458  0.68308222  0.42123329  1
  O2-  O155  1  0.57278166  0.67734112  0.75694599  1
  O2-  O156  1  0.17713988  0.42431918  0.23463608  1
  O2-  O157  1  0.17888407  0.42857707  0.57942374  1
  O2-  O158  1  0.18257009  0.43298103  0.89830240  1
  O2-  O159  1  0.17805135  0.93355305  0.23092375  1
  O2-  O160  1  0.17667358  0.93001784  0.56970937  1
  O2-  O161  1  0.18084029  0.92722434  0.91053783  1
  O2-  O162  1  0.68005354  0.42857408  0.23607111  1
  O2-  O163  1  0.67975529  0.42672834  0.57775149  1
  O2-  O164  1  0.67904992  0.43080064  0.89888830  1
  O2-  O165  1  0.67892648  0.93172874  0.24281528  1
  O2-  O166  1  0.68002418  0.93227092  0.56405343  1
  O2-  O167  1  0.67622805  0.92921767  0.90346359  1
  O2-  O168  1  0.42972711  0.32235234  0.09917219  1
  O2-  O169  1  0.43118814  0.31628660  0.43423770  1
  O2-  O170  1  0.42877031  0.32462754  0.75574780  1
  O2-  O171  1  0.42869196  0.82120910  0.09002643  1
  O2-  O172  1  0.42818548  0.82267618  0.43194175  1
  O2-  O173  1  0.43439554  0.81924136  0.76819536  1
  O2-  O174  1  0.92826609  0.31954599  0.10130908  1
  O2-  O175  1  0.92914594  0.31847532  0.42429691  1
  O2-  O176  1  0.92962868  0.31943538  0.76348839  1
  O2-  O177  1  0.92735291  0.82143824  0.08934396  1
  O2-  O178  1  0.92744212  0.82427554  0.43167654  1
  O2-  O179  1  0.92747806  0.81530459  0.76811886  1
  O2-  O180  1  0.32018162  0.07270920  0.24244845  1
  O2-  O181  1  0.32081874  0.06901140  0.56792118  1
  O2-  O182  1  0.32539383  0.06820286  0.91222850  1
  O2-  O183  1  0.31754457  0.57077428  0.23259174  1
  O2-  O184  1  0.32111098  0.56967433  0.56946490  1
  O2-  O185  1  0.32269386  0.57514901  0.91053258  1
  O2-  O186  1  0.82182167  0.06964513  0.24332088  1
  O2-  O187  1  0.82035389  0.07494220  0.57680587  1
  O2-  O188  1  0.82263325  0.07087064  0.91160553  1
  O2-  O189  1  0.82082343  0.56977428  0.23427801  1
  O2-  O190  1  0.81821616  0.57170778  0.56939461  1
  O2-  O191  1  0.81996815  0.57503910  0.91118293  1
  O2-  O192  1  0.03520321  0.09119915  0.26969897  1
  O2-  O193  1  0.04705983  0.08414503  0.60189231  1
  O2-  O194  1  0.04370764  0.07923342  0.92952566  1
  O2-  O195  1  0.04474754  0.58275653  0.27252725  1
  O2-  O196  1  0.04697008  0.58495361  0.60215578  1
  O2-  O197  1  0.04346640  0.58565897  0.92791388  1
  O2-  O198  1  0.54799781  0.08457676  0.26400801  1
  O2-  O199  1  0.53673536  0.08451864  0.59701231  1
  O2-  O200  1  0.53761397  0.08413852  0.93840590  1
  O2-  O201  1  0.54885659  0.58375081  0.27156810  1
  O2-  O202  1  0.55030355  0.58080125  0.60627586  1
  O2-  O203  1  0.54518756  0.59110221  0.93381299  1
  O2-  O204  1  0.16453801  0.19879321  0.27501425  1
  O2-  O205  1  0.16769447  0.20345676  0.60160433  1
  O2-  O206  1  0.17057963  0.20370357  0.92943967  1
  O2-  O207  1  0.16272799  0.70506222  0.26847408  1
  O2-  O208  1  0.16811227  0.70167633  0.60455496  1
  O2-  O209  1  0.16661155  0.71399203  0.92969231  1
  O2-  O210  1  0.67028085  0.19897552  0.26761988  1
  O2-  O211  1  0.66410941  0.20710316  0.59555576  1
  O2-  O212  1  0.66635926  0.19398724  0.94131404  1
  O2-  O213  1  0.66220265  0.70889475  0.26527930  1
  O2-  O214  1  0.66669990  0.70329335  0.60610977  1
  O2-  O215  1  0.66412943  0.70971336  0.93814554  1
  O2-  O216  1  0.08432829  0.46266504  0.06428475  1
  O2-  O217  1  0.08084387  0.45346313  0.40312382  1
  O2-  O218  1  0.08541737  0.45710974  0.73023403  1
  O2-  O219  1  0.08402766  0.95286187  0.05997894  1
  O2-  O220  1  0.08306737  0.96584485  0.39856447  1
  O2-  O221  1  0.07762663  0.95645924  0.73699727  1
  O2-  O222  1  0.58509765  0.46671535  0.06618606  1
  O2-  O223  1  0.58145829  0.45545145  0.40423601  1
  O2-  O224  1  0.58572657  0.44989824  0.72939986  1
  O2-  O225  1  0.58312240  0.96275616  0.07329075  1
  O2-  O226  1  0.58492884  0.95853053  0.39294056  1
  O2-  O227  1  0.58566947  0.96396833  0.73245414  1
  O2-  O228  1  0.20950097  0.33172775  0.06251526  1
  O2-  O229  1  0.20606238  0.32644976  0.40258372  1
  O2-  O230  1  0.19909331  0.33268953  0.72967487  1
  O2-  O231  1  0.21058177  0.83836610  0.06324617  1
  O2-  O232  1  0.20287523  0.83287736  0.39820715  1
  O2-  O233  1  0.20548675  0.83034906  0.73618534  1
  O2-  O234  1  0.70203075  0.32908905  0.06637607  1
  O2-  O235  1  0.70359629  0.32559988  0.39973754  1
  O2-  O236  1  0.70649343  0.33129831  0.72656403  1
  O2-  O237  1  0.70598760  0.83249072  0.07326974  1
  O2-  O238  1  0.70386617  0.83753888  0.39344335  1
  O2-  O239  1  0.70954220  0.83438664  0.73374581  1
  O2-  O240  1  0.45883815  0.41854667  0.26800716  1
  O2-  O241  1  0.45411875  0.41735440  0.60449088  1
  O2-  O242  1  0.46027700  0.42119837  0.93247678  1
  O2-  O243  1  0.45880088  0.91596376  0.26187264  1
  O2-  O244  1  0.46243350  0.91373210  0.59942329  1
  O2-  O245  1  0.45918900  0.91579202  0.94090773  1
  O2-  O246  1  0.95133764  0.41663865  0.27516834  1
  O2-  O247  1  0.96231083  0.41765721  0.59654305  1
  O2-  O248  1  0.95431363  0.42012928  0.93409450  1
  O2-  O249  1  0.95983275  0.91767621  0.26316790  1
  O2-  O250  1  0.95321348  0.91957836  0.60298186  1
  O2-  O251  1  0.94854086  0.91533810  0.93768320  1
  O2-  O252  1  0.33422138  0.28621718  0.26682514  1
  O2-  O253  1  0.33183759  0.29954166  0.60574416  1
  O2-  O254  1  0.33663884  0.29052503  0.92974060  1
  O2-  O255  1  0.32936926  0.79076495  0.26432576  1
  O2-  O256  1  0.33231038  0.78797958  0.60399270  1
  O2-  O257  1  0.33847612  0.79707812  0.93595267  1
  O2-  O258  1  0.83893049  0.28870800  0.27272846  1
  O2-  O259  1  0.83542715  0.28973311  0.59328336  1
  O2-  O260  1  0.82885649  0.29066317  0.93375137  1
  O2-  O261  1  0.83071372  0.79248733  0.26351813  1
  O2-  O262  1  0.83259745  0.78594563  0.60158487  1
  O2-  O263  1  0.83015855  0.79551986  0.94156877  1
  O2-  O264  1  0.40928401  0.04104552  0.06876390  1
  O2-  O265  1  0.41993028  0.04866468  0.38988222  1
  O2-  O266  1  0.41800982  0.03868521  0.73608434  1
  O2-  O267  1  0.41845029  0.55369149  0.06007707  1
  O2-  O268  1  0.41979803  0.54831933  0.39964350  1
  O2-  O269  1  0.42013008  0.54258913  0.73739216  1
  O2-  O270  1  0.91738708  0.04516565  0.06353246  1
  O2-  O271  1  0.91148572  0.04082966  0.39752224  1
  O2-  O272  1  0.91693856  0.05474007  0.72768410  1
  O2-  O273  1  0.91928216  0.55207615  0.05953677  1
  O2-  O274  1  0.91876081  0.54841879  0.40357108  1
  O2-  O275  1  0.91903383  0.54014016  0.73377272  1
  O2-  O276  1  0.29333109  0.16403640  0.06220230  1
  O2-  O277  1  0.29559568  0.16176157  0.39762208  1
  O2-  O278  1  0.29593036  0.17060151  0.73471559  1
  O2-  O279  1  0.29506675  0.66933122  0.05994045  1
  O2-  O280  1  0.28892595  0.66824836  0.40051647  1
  O2-  O281  1  0.29090938  0.66452941  0.73926244  1
  O2-  O282  1  0.79629168  0.16296617  0.06578664  1
  O2-  O283  1  0.79482661  0.16098343  0.39735840  1
  O2-  O284  1  0.79164464  0.16781172  0.72763611  1
  O2-  O285  1  0.79243612  0.66282975  0.06526987  1
  O2-  O286  1  0.78765048  0.67052034  0.39929737  1
  O2-  O287  1  0.78889326  0.66376701  0.74067306  1
