# generated using pymatgen
data_Ca2Al2SiO7
_symmetry_space_group_name_H-M   'P 1'
_cell_length_a   15.45690493
_cell_length_b   15.45616439
_cell_length_c   15.28272676
_cell_angle_alpha   89.99170406
_cell_angle_beta   89.99854859
_cell_angle_gamma   90.01279456
_symmetry_Int_Tables_number   1
_chemical_formula_structural   Ca2Al2SiO7
_chemical_formula_sum   'Ca48 Al48 Si24 O168'
_cell_volume   3651.11150948
_cell_formula_units_Z   24
loop_
 _symmetry_equiv_pos_site_id
 _symmetry_equiv_pos_as_xyz
  1  'x, y, z'
loop_
 _atom_type_symbol
 _atom_type_oxidation_number
  Ca2+  2.0
  Al0+  0.0
  Si0+  0.0
  O2-  -2.0
loop_
 _atom_site_type_symbol
 _atom_site_label
 _atom_site_symmetry_multiplicity
 _atom_site_fract_x
 _atom_site_fract_y
 _atom_site_fract_z
 _atom_site_occupancy
  Ca2+  Ca0  1  0.17880278  0.08766101  0.16786642  1
  Ca2+  Ca1  1  0.18152689  0.08468319  0.50364172  1
  Ca2+  Ca2  1  0.17646173  0.08902271  0.84116764  1
  Ca2+  Ca3  1  0.17001197  0.57823939  0.17400169  1
  Ca2+  Ca4  1  0.17279769  0.59097178  0.49740878  1
  Ca2+  Ca5  1  0.16951381  0.57319062  0.84023929  1
  Ca2+  Ca6  1  0.67406098  0.08293597  0.17660855  1
  Ca2+  Ca7  1  0.65586678  0.07359100  0.50184862  1
  Ca2+  Ca8  1  0.66603726  0.08003866  0.83537674  1
  Ca2+  Ca9  1  0.66883273  0.58277805  0.16727173  1
  Ca2+  Ca10  1  0.67655701  0.58105962  0.51217256  1
  Ca2+  Ca11  1  0.66826175  0.57735326  0.84035184  1
  Ca2+  Ca12  1  0.08267627  0.32822468  0.15725226  1
  Ca2+  Ca13  1  0.07363683  0.33551422  0.49862337  1
  Ca2+  Ca14  1  0.07868941  0.33021762  0.83198883  1
  Ca2+  Ca15  1  0.08363465  0.82609222  0.16461702  1
  Ca2+  Ca16  1  0.07852064  0.82724242  0.49126251  1
  Ca2+  Ca17  1  0.07782988  0.83224008  0.83062805  1
  Ca2+  Ca18  1  0.57865878  0.33047713  0.16066542  1
  Ca2+  Ca19  1  0.59329370  0.32024912  0.49937461  1
  Ca2+  Ca20  1  0.58475325  0.33160938  0.82852417  1
  Ca2+  Ca21  1  0.57552538  0.83324008  0.16272272  1
  Ca2+  Ca22  1  0.58516331  0.83319622  0.49568349  1
  Ca2+  Ca23  1  0.58662568  0.82449090  0.83096407  1
  Ca2+  Ca24  1  0.33103374  0.41775340  0.16655709  1
  Ca2+  Ca25  1  0.33423732  0.42410496  0.50031763  1
  Ca2+  Ca26  1  0.32899315  0.41134975  0.84419861  1
  Ca2+  Ca27  1  0.34303833  0.92321565  0.17121121  1
  Ca2+  Ca28  1  0.34465050  0.92629970  0.49949286  1
  Ca2+  Ca29  1  0.33881639  0.92799895  0.83741275  1
  Ca2+  Ca30  1  0.82635835  0.42506830  0.16739890  1
  Ca2+  Ca31  1  0.82956274  0.42360124  0.50771192  1
  Ca2+  Ca32  1  0.82291601  0.42114270  0.83707197  1
  Ca2+  Ca33  1  0.82572339  0.92704749  0.17275017  1
  Ca2+  Ca34  1  0.82009033  0.92117055  0.50197449  1
  Ca2+  Ca35  1  0.82445773  0.91984160  0.83840964  1
  Ca2+  Ca36  1  0.42106117  0.16525107  0.16059207  1
  Ca2+  Ca37  1  0.42581919  0.15971075  0.49601898  1
  Ca2+  Ca38  1  0.41676273  0.17018642  0.82991117  1
  Ca2+  Ca39  1  0.41794389  0.67831269  0.15804234  1
  Ca2+  Ca40  1  0.42491859  0.67169118  0.48964108  1
  Ca2+  Ca41  1  0.43349102  0.66710116  0.83103125  1
  Ca2+  Ca42  1  0.92127931  0.16002323  0.15722872  1
  Ca2+  Ca43  1  0.90856505  0.17446315  0.49542818  1
  Ca2+  Ca44  1  0.91837996  0.17038132  0.82941817  1
  Ca2+  Ca45  1  0.91518170  0.66040725  0.16604488  1
  Ca2+  Ca46  1  0.91872804  0.66050077  0.49278900  1
  Ca2+  Ca47  1  0.91181335  0.65956334  0.83017580  1
  Al0+  Al48  1  0.00197512  -0.00187789  -0.00246003  1
  Al0+  Al49  1  -0.00038556  0.00066586  0.33662973  1
  Al0+  Al50  1  0.00254025  -0.00108877  0.66291897  1
  Al0+  Al51  1  -0.00022314  0.49828161  0.00660884  1
  Al0+  Al52  1  -0.00103239  0.49870689  0.33174178  1
  Al0+  Al53  1  0.00189183  0.49936222  0.66515045  1
  Al0+  Al54  1  0.49978155  0.00003499  -0.00098876  1
  Al0+  Al55  1  0.50088541  0.00024206  0.33106596  1
  Al0+  Al56  1  0.49970861  0.00064474  0.67428691  1
  Al0+  Al57  1  0.49872802  0.49950960  -0.00326364  1
  Al0+  Al58  1  0.49857644  0.49792196  0.33765429  1
  Al0+  Al59  1  0.50055249  0.50120750  0.66411101  1
  Al0+  Al60  1  0.24995868  0.24865819  0.00105393  1
  Al0+  Al61  1  0.24808820  0.25078313  0.33978091  1
  Al0+  Al62  1  0.25018981  0.25099019  0.66746315  1
  Al0+  Al63  1  0.24841587  0.75182948  -0.00825858  1
  Al0+  Al64  1  0.24926849  0.74898103  0.32838623  1
  Al0+  Al65  1  0.24935064  0.75166036  0.66800634  1
  Al0+  Al66  1  0.75076789  0.25169636  0.00717645  1
  Al0+  Al67  1  0.75054716  0.25172685  0.32898692  1
  Al0+  Al68  1  0.75047743  0.25081224  0.66106943  1
  Al0+  Al69  1  0.75113749  0.75049216  0.00143572  1
  Al0+  Al70  1  0.75104944  0.75021869  0.33918352  1
  Al0+  Al71  1  0.75120802  0.75216571  0.66947845  1
  Al0+  Al72  1  0.56884389  0.17930119  0.65448825  1
  Al0+  Al73  1  0.82315508  0.07386662  0.34931653  1
  Al0+  Al74  1  0.32050405  0.06904546  0.01442109  1
  Al0+  Al75  1  0.67964454  0.93027355  0.68295528  1
  Al0+  Al76  1  0.32034833  0.07075769  0.34671898  1
  Al0+  Al77  1  0.57249874  0.67934449  0.65117342  1
  Al0+  Al78  1  0.67794362  0.42727612  0.68132202  1
  Al0+  Al79  1  0.43096810  0.81961739  0.32053399  1
  Al0+  Al80  1  0.82289046  0.57051797  0.68161790  1
  Al0+  Al81  1  0.67850521  0.93085556  0.34761838  1
  Al0+  Al82  1  0.67467216  0.42841945  0.01659751  1
  Al0+  Al83  1  0.82205242  0.07073892  0.01051697  1
  Al0+  Al84  1  0.32062005  0.57222691  0.34488180  1
  Al0+  Al85  1  0.17991138  0.42849875  0.01336990  1
  Al0+  Al86  1  0.31969788  0.07033043  0.68192737  1
  Al0+  Al87  1  0.93043692  0.31976844  0.65336833  1
  Al0+  Al88  1  0.42731192  0.82409273  0.98152464  1
  Al0+  Al89  1  0.07038325  0.17823022  0.98698903  1
  Al0+  Al90  1  0.57219305  0.67971101  0.98602159  1
  Al0+  Al91  1  0.42951884  0.31899282  0.98839806  1
  Al0+  Al92  1  0.81968839  0.56896965  0.34835489  1
  Al0+  Al93  1  0.06927976  0.67911561  0.31842599  1
  Al0+  Al94  1  0.56938603  0.18031181  0.31846355  1
  Al0+  Al95  1  0.82015659  0.57210356  0.01677228  1
  Si0+  Si96  1  0.82469891  0.07262326  0.68164163  1
  Si0+  Si97  1  0.93024904  0.82034340  0.98510764  1
  Si0+  Si98  1  0.07134846  0.67938515  0.65192053  1
  Si0+  Si99  1  0.17697285  0.92576362  0.01666313  1
  Si0+  Si100  1  0.57417505  0.67526582  0.31875628  1
  Si0+  Si101  1  0.17715585  0.42853404  0.35211601  1
  Si0+  Si102  1  0.67595928  0.42756744  0.35105321  1
  Si0+  Si103  1  0.07177296  0.17887378  0.31926211  1
  Si0+  Si104  1  0.32068768  0.57390078  0.01373572  1
  Si0+  Si105  1  0.92887920  0.82267252  0.65064908  1
  Si0+  Si106  1  0.17591149  0.92691687  0.68402170  1
  Si0+  Si107  1  0.18071562  0.43080398  0.68120704  1
  Si0+  Si108  1  0.42469658  0.32338731  0.64853646  1
  Si0+  Si109  1  0.42840242  0.82084608  0.65006071  1
  Si0+  Si110  1  0.92760592  0.32253961  0.98410682  1
  Si0+  Si111  1  0.92679283  0.82307213  0.31616910  1
  Si0+  Si112  1  0.92977969  0.32085546  0.31527167  1
  Si0+  Si113  1  0.42466713  0.32299127  0.31758706  1
  Si0+  Si114  1  0.32162934  0.57360340  0.68146290  1
  Si0+  Si115  1  0.57506783  0.17887769  0.98424759  1
  Si0+  Si116  1  0.07013582  0.67601926  0.98396579  1
  Si0+  Si117  1  0.17760992  0.92652702  0.34879502  1
  Si0+  Si118  1  0.67851081  0.92874413  0.01699343  1
  Si0+  Si119  1  0.07420064  0.17746499  0.64806225  1
  O2-  O120  1  0.24913950  -0.00970587  0.06061265  1
  O2-  O121  1  0.24593990  -0.00486847  0.39358941  1
  O2-  O122  1  0.24221728  -0.00247391  0.72744105  1
  O2-  O123  1  0.25227072  0.50557706  0.05919905  1
  O2-  O124  1  0.24673737  0.49734262  0.39471138  1
  O2-  O125  1  0.25505663  0.49813019  0.72368350  1
  O2-  O126  1  0.74376254  0.00150215  0.05938838  1
  O2-  O127  1  0.74931591  0.00415336  0.39887154  1
  O2-  O128  1  0.75612948  0.00511059  0.72727285  1
  O2-  O129  1  0.74537048  0.50260435  0.06558012  1
  O2-  O130  1  0.74065775  0.49998704  0.39510801  1
  O2-  O131  1  0.74724178  0.50239327  0.73078722  1
  O2-  O132  1  -0.00253973  0.24530314  0.27554157  1
  O2-  O133  1  0.00177069  0.24187393  0.60386153  1
  O2-  O134  1  -0.00684049  0.25026702  0.94014111  1
  O2-  O135  1  -0.00533538  0.75357389  0.27109601  1
  O2-  O136  1  -0.00087693  0.74934865  0.61025510  1
  O2-  O137  1  -0.00217846  0.74568032  0.94200468  1
  O2-  O138  1  0.49318888  0.25456321  0.27366269  1
  O2-  O139  1  0.49541562  0.25596626  0.60639600  1
  O2-  O140  1  0.50686793  0.24809810  0.94025763  1
  O2-  O141  1  0.50389473  0.74239752  0.27486883  1
  O2-  O142  1  0.49541522  0.75174873  0.60424037  1
  O2-  O143  1  0.50008102  0.75147005  0.93438353  1
  O2-  O144  1  0.07000185  0.17969745  0.10053829  1
  O2-  O145  1  0.07397207  0.18246013  0.42439841  1
  O2-  O146  1  0.07566889  0.17921629  0.75355035  1
  O2-  O147  1  0.07234797  0.67754535  0.08878509  1
  O2-  O148  1  0.06872469  0.68112675  0.43220000  1
  O2-  O149  1  0.07275179  0.67958092  0.75713179  1
  O2-  O150  1  0.57349672  0.17828712  0.08989125  1
  O2-  O151  1  0.56756994  0.17977062  0.43185093  1
  O2-  O152  1  0.56753297  0.17941903  0.76757400  1
  O2-  O153  1  0.57095950  0.68197513  0.10001715  1
  O2-  O154  1  0.57290473  0.67640231  0.42451335  1
  O2-  O155  1  0.57149973  0.67919897  0.76399784  1
  O2-  O156  1  0.17714172  0.42651688  0.24673450  1
  O2-  O157  1  0.17974249  0.43240062  0.57605256  1
  O2-  O158  1  0.17950680  0.43063324  0.89962021  1
  O2-  O159  1  0.17603554  0.92763248  0.24337349  1
  O2-  O160  1  0.17408294  0.92432108  0.57860569  1
  O2-  O161  1  0.17342340  0.92687860  0.91105055  1
  O2-  O162  1  0.67624976  0.42760077  0.24557318  1
  O2-  O163  1  0.68164217  0.42706510  0.56753739  1
  O2-  O164  1  0.67751075  0.42603913  0.90322341  1
  O2-  O165  1  0.68017014  0.93175552  0.23389326  1
  O2-  O166  1  0.67893273  0.93041192  0.57018442  1
  O2-  O167  1  0.68149758  0.92780095  0.91111641  1
  O2-  O168  1  0.42778281  0.31654280  0.10157074  1
  O2-  O169  1  0.42329111  0.32361427  0.42316503  1
  O2-  O170  1  0.41965091  0.32113947  0.75396268  1
  O2-  O171  1  0.42735697  0.82252543  0.09540974  1
  O2-  O172  1  0.43143323  0.81872493  0.43399803  1
  O2-  O173  1  0.42745836  0.81774835  0.75524409  1
  O2-  O174  1  0.93082757  0.32306682  0.08984581  1
  O2-  O175  1  0.93247075  0.32270689  0.42067521  1
  O2-  O176  1  0.93452262  0.31920884  0.76628224  1
  O2-  O177  1  0.93309327  0.82261932  0.08992220  1
  O2-  O178  1  0.92945579  0.82298521  0.42197149  1
  O2-  O179  1  0.93213510  0.82600814  0.75586337  1
  O2-  O180  1  0.31838263  0.07201549  0.23398219  1
  O2-  O181  1  0.31949525  0.06809940  0.56850211  1
  O2-  O182  1  0.31731364  0.07067309  0.90133096  1
  O2-  O183  1  0.31804335  0.57106831  0.23206488  1
  O2-  O184  1  0.31774605  0.57549729  0.57621819  1
  O2-  O185  1  0.31731774  0.57200716  0.90761406  1
  O2-  O186  1  0.82512929  0.07033757  0.23551873  1
  O2-  O187  1  0.82597758  0.06938273  0.57635946  1
  O2-  O188  1  0.82232250  0.06767500  0.89717674  1
  O2-  O189  1  0.82094991  0.56630038  0.23570507  1
  O2-  O190  1  0.82521489  0.56763799  0.56790285  1
  O2-  O191  1  0.82287268  0.56927041  0.90348921  1
  O2-  O192  1  0.04896640  0.08486281  0.27388357  1
  O2-  O193  1  0.05554503  0.08149621  0.60360510  1
  O2-  O194  1  0.04379313  0.08090876  0.93157216  1
  O2-  O195  1  0.03949753  0.58173365  0.26547056  1
  O2-  O196  1  0.04647428  0.58763612  0.60336313  1
  O2-  O197  1  0.04281017  0.58329592  0.93788675  1
  O2-  O198  1  0.53898500  0.08463258  0.26346904  1
  O2-  O199  1  0.53368209  0.08271090  0.60193896  1
  O2-  O200  1  0.54942935  0.08496318  0.93925250  1
  O2-  O201  1  0.54954635  0.58001523  0.27572046  1
  O2-  O202  1  0.54292651  0.58229909  0.59657026  1
  O2-  O203  1  0.54247847  0.58199168  0.93193310  1
  O2-  O204  1  0.16269747  0.21109017  0.27198109  1
  O2-  O205  1  0.16576899  0.20928580  0.60066482  1
  O2-  O206  1  0.16454227  0.21385455  0.93197228  1
  O2-  O207  1  0.16447997  0.70957806  0.26198894  1
  O2-  O208  1  0.16278536  0.70977433  0.60374411  1
  O2-  O209  1  0.16007752  0.70421671  0.93248401  1
  O2-  O210  1  0.66642950  0.21105053  0.26460316  1
  O2-  O211  1  0.66583721  0.20623285  0.59859636  1
  O2-  O212  1  0.66954983  0.20383212  0.93955023  1
  O2-  O213  1  0.66827527  0.70174708  0.27466138  1
  O2-  O214  1  0.66989527  0.71206432  0.59980205  1
  O2-  O215  1  0.67106579  0.70907067  0.93344567  1
  O2-  O216  1  0.08465135  0.45750098  0.06995193  1
  O2-  O217  1  0.08458951  0.45715784  0.39823799  1
  O2-  O218  1  0.09124293  0.46270908  0.73006427  1
  O2-  O219  1  0.08489218  0.95323493  0.06458893  1
  O2-  O220  1  0.08431848  0.95126621  0.39659189  1
  O2-  O221  1  0.08152576  0.95051891  0.73048513  1
  O2-  O222  1  0.57519282  0.45516691  0.06858200  1
  O2-  O223  1  0.58063150  0.44451221  0.39693510  1
  O2-  O224  1  0.57671725  0.45158219  0.73068775  1
  O2-  O225  1  0.58346063  0.95057566  0.06037858  1
  O2-  O226  1  0.58100987  0.96008384  0.40172023  1
  O2-  O227  1  0.58484608  0.96127902  0.73920275  1
  O2-  O228  1  0.21259652  0.33383993  0.06882226  1
  O2-  O229  1  0.20159823  0.33622866  0.40178767  1
  O2-  O230  1  0.20428466  0.33773577  0.72805898  1
  O2-  O231  1  0.19798600  0.82958896  0.05988620  1
  O2-  O232  1  0.20213049  0.83259295  0.39425662  1
  O2-  O233  1  0.20178679  0.83373134  0.73199461  1
  O2-  O234  1  0.70552478  0.33195440  0.07254634  1
  O2-  O235  1  0.70885766  0.33573619  0.39576369  1
  O2-  O236  1  0.70951624  0.32896243  0.73280908  1
  O2-  O237  1  0.70894163  0.83757361  0.06403155  1
  O2-  O238  1  0.70777323  0.83322974  0.40218086  1
  O2-  O239  1  0.71396229  0.83563132  0.73822282  1
  O2-  O240  1  0.44969079  0.41708451  0.27134305  1
  O2-  O241  1  0.44669478  0.41844171  0.60387314  1
  O2-  O242  1  0.45177693  0.41705888  0.93302767  1
  O2-  O243  1  0.46314980  0.91475659  0.26503791  1
  O2-  O244  1  0.45623912  0.91519246  0.60767008  1
  O2-  O245  1  0.45720785  0.92227802  0.92890502  1
  O2-  O246  1  0.96336393  0.40991369  0.26657442  1
  O2-  O247  1  0.96812726  0.41423809  0.59739126  1
  O2-  O248  1  0.95878018  0.41463052  0.93816527  1
  O2-  O249  1  0.95444624  0.91680795  0.27069793  1
  O2-  O250  1  0.95933297  0.91268233  0.59989842  1
  O2-  O251  1  0.96264350  0.90877513  0.93323364  1
  O2-  O252  1  0.32929841  0.29833955  0.27427583  1
  O2-  O253  1  0.33140283  0.29714404  0.60071080  1
  O2-  O254  1  0.33438786  0.28510365  0.93260086  1
  O2-  O255  1  0.33386038  0.79158782  0.26603770  1
  O2-  O256  1  0.33282514  0.79774376  0.60528610  1
  O2-  O257  1  0.32757603  0.79957320  0.92806520  1
  O2-  O258  1  0.83714723  0.29888626  0.26766458  1
  O2-  O259  1  0.83513020  0.29218102  0.59529704  1
  O2-  O260  1  0.83287344  0.29905739  0.94008140  1
  O2-  O261  1  0.83315427  0.79712688  0.27098012  1
  O2-  O262  1  0.83715384  0.79747888  0.60347735  1
  O2-  O263  1  0.83794696  0.79585191  0.93749057  1
  O2-  O264  1  0.41879158  0.04176545  0.06702704  1
  O2-  O265  1  0.41603126  0.03768056  0.39983784  1
  O2-  O266  1  0.41358866  0.03845700  0.73879611  1
  O2-  O267  1  0.41384419  0.54947732  0.05903935  1
  O2-  O268  1  0.41606901  0.54198543  0.40252005  1
  O2-  O269  1  0.41476669  0.54987705  0.72649698  1
  O2-  O270  1  0.91787505  0.03521355  0.06375673  1
  O2-  O271  1  0.92168697  0.04664865  0.40345671  1
  O2-  O272  1  0.92009462  0.04723597  0.72533067  1
  O2-  O273  1  0.91781205  0.54140611  0.07048482  1
  O2-  O274  1  0.91631052  0.53407339  0.40077794  1
  O2-  O275  1  0.92198118  0.54018871  0.73310089  1
  O2-  O276  1  0.28474497  0.16327394  0.06908869  1
  O2-  O277  1  0.28811201  0.16616168  0.40322120  1
  O2-  O278  1  0.28902107  0.16840340  0.73356644  1
  O2-  O279  1  0.29291293  0.66830141  0.05669538  1
  O2-  O280  1  0.28623562  0.66730250  0.40041581  1
  O2-  O281  1  0.28865307  0.66328348  0.73001589  1
  O2-  O282  1  0.79941521  0.16806539  0.06601202  1
  O2-  O283  1  0.79741839  0.17481216  0.39700605  1
  O2-  O284  1  0.80065838  0.16716156  0.72475289  1
  O2-  O285  1  0.79691784  0.67230269  0.06899084  1
  O2-  O286  1  0.79806911  0.66791233  0.40140812  1
  O2-  O287  1  0.80163614  0.67162835  0.73084678  1
