# generated using pymatgen
data_Ca2Al2SiO7
_symmetry_space_group_name_H-M   'P 1'
_cell_length_a   15.47185090
_cell_length_b   15.47302456
_cell_length_c   15.29405604
_cell_angle_alpha   90.00678387
_cell_angle_beta   89.99732331
_cell_angle_gamma   89.97370639
_symmetry_Int_Tables_number   1
_chemical_formula_structural   Ca2Al2SiO7
_chemical_formula_sum   'Ca48 Al48 Si24 O168'
_cell_volume   3661.34045611
_cell_formula_units_Z   24
loop_
 _symmetry_equiv_pos_site_id
 _symmetry_equiv_pos_as_xyz
  1  'x, y, z'
loop_
 _atom_type_symbol
 _atom_type_oxidation_number
  Ca2+  2.0
  Al0+  0.0
  Si0+  0.0
  O2-  -2.0
loop_
 _atom_site_type_symbol
 _atom_site_label
 _atom_site_symmetry_multiplicity
 _atom_site_fract_x
 _atom_site_fract_y
 _atom_site_fract_z
 _atom_site_occupancy
  Ca2+  Ca0  1  0.16136786  0.08744929  0.17041327  1
  Ca2+  Ca1  1  0.16575235  0.08192544  0.50005227  1
  Ca2+  Ca2  1  0.16597153  0.08208579  0.83961862  1
  Ca2+  Ca3  1  0.17513527  0.57637031  0.16998556  1
  Ca2+  Ca4  1  0.18317697  0.58312091  0.50339281  1
  Ca2+  Ca5  1  0.18106662  0.58169156  0.84502350  1
  Ca2+  Ca6  1  0.65919179  0.07691105  0.16658365  1
  Ca2+  Ca7  1  0.66662240  0.07372340  0.50828380  1
  Ca2+  Ca8  1  0.65567261  0.07019628  0.84304290  1
  Ca2+  Ca9  1  0.66076689  0.58288530  0.16436506  1
  Ca2+  Ca10  1  0.66986218  0.59461221  0.50422587  1
  Ca2+  Ca11  1  0.66928414  0.58757278  0.83976717  1
  Ca2+  Ca12  1  0.08794596  0.32973618  0.15681472  1
  Ca2+  Ca13  1  0.08725156  0.32933066  0.49146824  1
  Ca2+  Ca14  1  0.08480520  0.33640710  0.83669520  1
  Ca2+  Ca15  1  0.07213124  0.82861783  0.15783285  1
  Ca2+  Ca16  1  0.07450707  0.83023952  0.49179524  1
  Ca2+  Ca17  1  0.07967925  0.82571053  0.83794636  1
  Ca2+  Ca18  1  0.57229723  0.33427828  0.15530519  1
  Ca2+  Ca19  1  0.56928925  0.34011856  0.49676931  1
  Ca2+  Ca20  1  0.57185604  0.34441626  0.83508909  1
  Ca2+  Ca21  1  0.57990380  0.82148093  0.16263408  1
  Ca2+  Ca22  1  0.57571848  0.82517601  0.49796507  1
  Ca2+  Ca23  1  0.58416511  0.82540770  0.82846215  1
  Ca2+  Ca24  1  0.33081009  0.42275740  0.16965684  1
  Ca2+  Ca25  1  0.33620331  0.42372576  0.49918180  1
  Ca2+  Ca26  1  0.33603211  0.42473034  0.84212976  1
  Ca2+  Ca27  1  0.33486348  0.91916662  0.17211302  1
  Ca2+  Ca28  1  0.34182848  0.91552948  0.50543772  1
  Ca2+  Ca29  1  0.34015594  0.91921170  0.83863720  1
  Ca2+  Ca30  1  0.82524325  0.40603474  0.16498907  1
  Ca2+  Ca31  1  0.82813626  0.42601618  0.50829584  1
  Ca2+  Ca32  1  0.82681747  0.42064333  0.84215360  1
  Ca2+  Ca33  1  0.83134049  0.90894252  0.16675297  1
  Ca2+  Ca34  1  0.82649791  0.91347225  0.50652105  1
  Ca2+  Ca35  1  0.82085847  0.91455942  0.84271921  1
  Ca2+  Ca36  1  0.41733166  0.18187782  0.15977460  1
  Ca2+  Ca37  1  0.41446830  0.18024134  0.49659262  1
  Ca2+  Ca38  1  0.42093660  0.18046731  0.83492976  1
  Ca2+  Ca39  1  0.42149579  0.66053376  0.16263671  1
  Ca2+  Ca40  1  0.42526247  0.66552546  0.49435767  1
  Ca2+  Ca41  1  0.42683221  0.66194408  0.82653902  1
  Ca2+  Ca42  1  0.92898546  0.17315395  0.15863038  1
  Ca2+  Ca43  1  0.92347468  0.16821016  0.49319099  1
  Ca2+  Ca44  1  0.91777252  0.17306771  0.84015573  1
  Ca2+  Ca45  1  0.92236748  0.67564918  0.15754760  1
  Ca2+  Ca46  1  0.91493847  0.67001482  0.49455686  1
  Ca2+  Ca47  1  0.91969691  0.66311883  0.83326588  1
  Al0+  Al48  1  -0.00134676  0.00037161  -0.00769263  1
  Al0+  Al49  1  -0.00159830  0.00167594  0.32813613  1
  Al0+  Al50  1  0.00020191  0.00070480  0.66778282  1
  Al0+  Al51  1  0.00161452  0.50086599  -0.00357854  1
  Al0+  Al52  1  -0.00281475  0.49837618  0.33748173  1
  Al0+  Al53  1  -0.00030251  0.49926485  0.66798061  1
  Al0+  Al54  1  0.49940558  0.00057782  0.00582513  1
  Al0+  Al55  1  0.49987295  -0.00195120  0.33466201  1
  Al0+  Al56  1  0.49957382  0.00138030  0.66921268  1
  Al0+  Al57  1  0.50286369  0.50213279  -0.00025262  1
  Al0+  Al58  1  0.50039795  0.49865014  0.32934211  1
  Al0+  Al59  1  0.50032031  0.49971380  0.65966679  1
  Al0+  Al60  1  0.25159857  0.24960297  -0.00639544  1
  Al0+  Al61  1  0.25071009  0.24805885  0.33062144  1
  Al0+  Al62  1  0.24932688  0.24707466  0.66253977  1
  Al0+  Al63  1  0.24884811  0.75310834  0.00251154  1
  Al0+  Al64  1  0.24912276  0.75080233  0.33582783  1
  Al0+  Al65  1  0.24778816  0.75029892  0.66815679  1
  Al0+  Al66  1  0.75242623  0.24622886  -0.00227504  1
  Al0+  Al67  1  0.75085331  0.24729635  0.33871164  1
  Al0+  Al68  1  0.75261926  0.24960219  0.66571952  1
  Al0+  Al69  1  0.74753206  0.75217809  -0.00056382  1
  Al0+  Al70  1  0.74807643  0.75007041  0.32687590  1
  Al0+  Al71  1  0.75088294  0.75121721  0.67231968  1
  Al0+  Al72  1  0.43135067  0.32269463  0.98452896  1
  Al0+  Al73  1  0.32305050  0.57330160  0.01486801  1
  Al0+  Al74  1  0.17926765  0.42803728  0.01301298  1
  Al0+  Al75  1  0.42686074  0.82245128  0.65431125  1
  Al0+  Al76  1  0.42619150  0.82282011  0.31782558  1
  Al0+  Al77  1  0.07331768  0.67807869  0.98562359  1
  Al0+  Al78  1  0.92935438  0.81989778  0.32105636  1
  Al0+  Al79  1  0.32183051  0.57059759  0.68032138  1
  Al0+  Al80  1  0.56962762  0.67910480  0.31593612  1
  Al0+  Al81  1  0.68169300  0.42802709  0.01240384  1
  Al0+  Al82  1  0.17836997  0.42641297  0.34815488  1
  Al0+  Al83  1  0.32244795  0.57174437  0.34966068  1
  Al0+  Al84  1  0.56850311  0.68032238  0.98513212  1
  Al0+  Al85  1  0.07280461  0.18028792  0.98273305  1
  Al0+  Al86  1  0.67957771  0.93209804  0.68127091  1
  Al0+  Al87  1  0.92788266  0.32324104  0.98500316  1
  Al0+  Al88  1  0.57258633  0.67993803  0.65163863  1
  Al0+  Al89  1  0.43048196  0.31942710  0.31822933  1
  Al0+  Al90  1  0.82126607  0.57125187  0.68056322  1
  Al0+  Al91  1  0.92791408  0.81980511  0.98248749  1
  Al0+  Al92  1  0.06973920  0.18176969  0.32065206  1
  Al0+  Al93  1  0.67812902  0.92918537  0.01825560  1
  Al0+  Al94  1  0.57176663  0.17649999  0.98745130  1
  Al0+  Al95  1  0.42898621  0.32060271  0.65121863  1
  Si0+  Si96  1  0.31899049  0.07065332  0.68190573  1
  Si0+  Si97  1  0.57283407  0.17736215  0.65063212  1
  Si0+  Si98  1  0.06931893  0.17833830  0.64938845  1
  Si0+  Si99  1  0.07085657  0.67718606  0.65054324  1
  Si0+  Si100  1  0.32119392  0.06912240  0.34915799  1
  Si0+  Si101  1  0.82463063  0.07348924  0.68512746  1
  Si0+  Si102  1  0.17674861  0.93097890  0.01564257  1
  Si0+  Si103  1  0.07192756  0.67548633  0.31927354  1
  Si0+  Si104  1  0.92519795  0.32295773  0.31925193  1
  Si0+  Si105  1  0.57421313  0.17678812  0.31991211  1
  Si0+  Si106  1  0.67985611  0.42605150  0.34817945  1
  Si0+  Si107  1  0.92916238  0.32236834  0.64955300  1
  Si0+  Si108  1  0.67881992  0.42652409  0.68137973  1
  Si0+  Si109  1  0.82247514  0.57302570  0.01703008  1
  Si0+  Si110  1  0.81877668  0.57235540  0.34607956  1
  Si0+  Si111  1  0.17568034  0.93047744  0.34715879  1
  Si0+  Si112  1  0.93106615  0.82067355  0.65274659  1
  Si0+  Si113  1  0.82181329  0.06989202  0.34974188  1
  Si0+  Si114  1  0.32004679  0.07048439  0.01576080  1
  Si0+  Si115  1  0.17561121  0.92901328  0.68188137  1
  Si0+  Si116  1  0.17925307  0.42590688  0.68212939  1
  Si0+  Si117  1  0.67947293  0.92812578  0.34994887  1
  Si0+  Si118  1  0.42693556  0.82347988  0.98590811  1
  Si0+  Si119  1  0.82438423  0.06992053  0.01918745  1
  O2-  O120  1  0.24706820  0.00179757  0.05864848  1
  O2-  O121  1  0.25200747  -0.00471251  0.39119863  1
  O2-  O122  1  0.25267576  -0.00566090  0.72277491  1
  O2-  O123  1  0.24998411  0.50093634  0.06283891  1
  O2-  O124  1  0.24813569  0.50033188  0.39882344  1
  O2-  O125  1  0.24825642  0.49382570  0.72534285  1
  O2-  O126  1  0.75340745  0.00416228  0.06467664  1
  O2-  O127  1  0.75002721  0.00007450  0.39250616  1
  O2-  O128  1  0.75181669  0.00963872  0.72822593  1
  O2-  O129  1  0.75867529  0.49989818  0.06170184  1
  O2-  O130  1  0.74973873  0.49926724  0.38892540  1
  O2-  O131  1  0.74529696  0.49730162  0.72480642  1
  O2-  O132  1  0.00022328  0.26145441  0.27633678  1
  O2-  O133  1  -0.00000944  0.25090046  0.60739894  1
  O2-  O134  1  0.00377547  0.25541518  0.93348675  1
  O2-  O135  1  0.00440075  0.74559874  0.27569548  1
  O2-  O136  1  -0.00038468  0.74867722  0.60818596  1
  O2-  O137  1  -0.00275422  0.74505223  0.93325441  1
  O2-  O138  1  0.50838866  0.24645864  0.27497188  1
  O2-  O139  1  0.50779217  0.24843653  0.60514517  1
  O2-  O140  1  0.50750440  0.25371956  0.93539919  1
  O2-  O141  1  0.49264308  0.74688029  0.26760634  1
  O2-  O142  1  0.49616552  0.74867851  0.60325767  1
  O2-  O143  1  0.49042626  0.75191272  0.94032432  1
  O2-  O144  1  0.07042617  0.17799942  0.09622096  1
  O2-  O145  1  0.06631993  0.17819457  0.43443160  1
  O2-  O146  1  0.07005609  0.17641984  0.75361093  1
  O2-  O147  1  0.07244044  0.68286492  0.09955376  1
  O2-  O148  1  0.06897181  0.67853703  0.42562696  1
  O2-  O149  1  0.07062679  0.67850525  0.75497759  1
  O2-  O150  1  0.56546265  0.17604393  0.10130750  1
  O2-  O151  1  0.57385842  0.17690213  0.42590766  1
  O2-  O152  1  0.56999170  0.17477208  0.75542240  1
  O2-  O153  1  0.56959339  0.68119203  0.09790047  1
  O2-  O154  1  0.57515383  0.68342780  0.42951134  1
  O2-  O155  1  0.57413203  0.68142091  0.76478460  1
  O2-  O156  1  0.17809380  0.42643895  0.23541459  1
  O2-  O157  1  0.17826128  0.42609808  0.57638866  1
  O2-  O158  1  0.18297500  0.42839037  0.89887545  1
  O2-  O159  1  0.17250343  0.93512207  0.24253133  1
  O2-  O160  1  0.16868906  0.93334718  0.57678817  1
  O2-  O161  1  0.17842408  0.93143959  0.91018137  1
  O2-  O162  1  0.68283002  0.42067450  0.24367126  1
  O2-  O163  1  0.68304522  0.42315206  0.57527740  1
  O2-  O164  1  0.68117388  0.43148554  0.89924888  1
  O2-  O165  1  0.67992844  0.92971006  0.24540673  1
  O2-  O166  1  0.68351742  0.93313083  0.56739441  1
  O2-  O167  1  0.67751075  0.93081610  0.90509729  1
  O2-  O168  1  0.43000366  0.31999034  0.09789868  1
  O2-  O169  1  0.43112051  0.31716536  0.43186969  1
  O2-  O170  1  0.42773794  0.31914467  0.76355171  1
  O2-  O171  1  0.42886612  0.82541126  0.09134528  1
  O2-  O172  1  0.43234547  0.82801197  0.43104411  1
  O2-  O173  1  0.42852218  0.82476903  0.76747938  1
  O2-  O174  1  0.92638277  0.31828368  0.09883257  1
  O2-  O175  1  0.92175589  0.31909023  0.42524626  1
  O2-  O176  1  0.92843959  0.32245050  0.75376619  1
  O2-  O177  1  0.93090994  0.81969715  0.09648951  1
  O2-  O178  1  0.92918446  0.81926909  0.43510236  1
  O2-  O179  1  0.93398561  0.82252974  0.75685848  1
  O2-  O180  1  0.32100716  0.06962459  0.24436033  1
  O2-  O181  1  0.31621497  0.07255438  0.57647956  1
  O2-  O182  1  0.32085376  0.06755977  0.91031781  1
  O2-  O183  1  0.32145946  0.57066289  0.23681344  1
  O2-  O184  1  0.32050311  0.57095282  0.56726453  1
  O2-  O185  1  0.32322763  0.57266837  0.90081726  1
  O2-  O186  1  0.82268555  0.07238490  0.24568695  1
  O2-  O187  1  0.82746985  0.07117112  0.57890147  1
  O2-  O188  1  0.82644337  0.06673775  0.91352944  1
  O2-  O189  1  0.82022821  0.57330401  0.24178591  1
  O2-  O190  1  0.82253685  0.57029488  0.56655623  1
  O2-  O191  1  0.81882904  0.57342067  0.91122286  1
  O2-  O192  1  0.03450523  0.08789115  0.26513849  1
  O2-  O193  1  0.03863064  0.08706572  0.60116943  1
  O2-  O194  1  0.04030204  0.08374757  0.92798117  1
  O2-  O195  1  0.04399044  0.58219954  0.27519640  1
  O2-  O196  1  0.04222666  0.58558086  0.60315943  1
  O2-  O197  1  0.05117867  0.57976103  0.93105409  1
  O2-  O198  1  0.54768702  0.08321664  0.27572336  1
  O2-  O199  1  0.54329914  0.08572160  0.60241483  1
  O2-  O200  1  0.53351839  0.08116766  0.93413501  1
  O2-  O201  1  0.54805677  0.57867304  0.26569222  1
  O2-  O202  1  0.54980813  0.58072992  0.59752315  1
  O2-  O203  1  0.54327687  0.58359041  0.93023848  1
  O2-  O204  1  0.16761870  0.20384685  0.26732395  1
  O2-  O205  1  0.16117499  0.20346384  0.60056641  1
  O2-  O206  1  0.17127422  0.20275765  0.92775978  1
  O2-  O207  1  0.16573772  0.69970981  0.27550257  1
  O2-  O208  1  0.16117726  0.70748132  0.60197642  1
  O2-  O209  1  0.16869580  0.71564241  0.93114968  1
  O2-  O210  1  0.66957220  0.19855576  0.27626125  1
  O2-  O211  1  0.66930168  0.19752673  0.60653645  1
  O2-  O212  1  0.67368220  0.19035501  0.93867016  1
  O2-  O213  1  0.66561243  0.71210665  0.26121717  1
  O2-  O214  1  0.67138525  0.71315845  0.60032254  1
  O2-  O215  1  0.66410672  0.71433622  0.93236315  1
  O2-  O216  1  0.07859472  0.45191372  0.06396493  1
  O2-  O217  1  0.07658039  0.44861954  0.40028924  1
  O2-  O218  1  0.08489090  0.45094566  0.72630037  1
  O2-  O219  1  0.08437986  0.96002411  0.06085924  1
  O2-  O220  1  0.08616455  0.96519442  0.39687234  1
  O2-  O221  1  0.08768520  0.96461717  0.73242825  1
  O2-  O222  1  0.58688404  0.46135807  0.06770954  1
  O2-  O223  1  0.58765357  0.45306583  0.39391914  1
  O2-  O224  1  0.58360665  0.44960525  0.72270811  1
  O2-  O225  1  0.58264835  0.96257055  0.07375092  1
  O2-  O226  1  0.58804976  0.95653423  0.39833910  1
  O2-  O227  1  0.58268190  0.96201508  0.73520660  1
  O2-  O228  1  0.20770740  0.32775071  0.06246427  1
  O2-  O229  1  0.20905691  0.32740935  0.40087379  1
  O2-  O230  1  0.20254331  0.33030105  0.72493576  1
  O2-  O231  1  0.20267860  0.84035892  0.06559817  1
  O2-  O232  1  0.19412405  0.83665745  0.39452317  1
  O2-  O233  1  0.19540988  0.83556225  0.72819747  1
  O2-  O234  1  0.71027332  0.32945573  0.06536028  1
  O2-  O235  1  0.70858589  0.33566717  0.39969870  1
  O2-  O236  1  0.70644835  0.33326816  0.72739127  1
  O2-  O237  1  0.71119624  0.83338653  0.07219833  1
  O2-  O238  1  0.71116404  0.83701951  0.39610341  1
  O2-  O239  1  0.71362824  0.83764347  0.73582435  1
  O2-  O240  1  0.46051258  0.41472244  0.26427136  1
  O2-  O241  1  0.45949988  0.41532609  0.59380871  1
  O2-  O242  1  0.46144958  0.41999910  0.93176559  1
  O2-  O243  1  0.45788928  0.92088276  0.26506023  1
  O2-  O244  1  0.45654311  0.92178802  0.60199424  1
  O2-  O245  1  0.45643698  0.91624277  0.94076776  1
  O2-  O246  1  0.94016215  0.41934280  0.27651843  1
  O2-  O247  1  0.95702358  0.41379526  0.60086161  1
  O2-  O248  1  0.94959135  0.42268313  0.93207992  1
  O2-  O249  1  0.95976212  0.91563819  0.26673357  1
  O2-  O250  1  0.96061785  0.91260568  0.60478892  1
  O2-  O251  1  0.95940523  0.91609763  0.92831460  1
  O2-  O252  1  0.33621183  0.28329330  0.26530269  1
  O2-  O253  1  0.33424290  0.28260216  0.59700468  1
  O2-  O254  1  0.33640006  0.28860919  0.92933426  1
  O2-  O255  1  0.32299138  0.80569856  0.27068553  1
  O2-  O256  1  0.32472759  0.80232712  0.60414293  1
  O2-  O257  1  0.33063111  0.80734762  0.94264047  1
  O2-  O258  1  0.83427382  0.28866664  0.27296186  1
  O2-  O259  1  0.83752153  0.29447567  0.60052797  1
  O2-  O260  1  0.83272782  0.28864225  0.92832335  1
  O2-  O261  1  0.83447525  0.78970300  0.26580494  1
  O2-  O262  1  0.83880903  0.79402157  0.60645548  1
  O2-  O263  1  0.82887328  0.79394481  0.93206171  1
  O2-  O264  1  0.40892021  0.04071122  0.06713282  1
  O2-  O265  1  0.41339928  0.04376540  0.39831712  1
  O2-  O266  1  0.41155818  0.04814586  0.72951032  1
  O2-  O267  1  0.42091153  0.54345127  0.06667413  1
  O2-  O268  1  0.42138230  0.53940523  0.40055695  1
  O2-  O269  1  0.42043897  0.54028541  0.72986963  1
  O2-  O270  1  0.91739769  0.03996332  0.06482624  1
  O2-  O271  1  0.91294053  0.03984389  0.39848440  1
  O2-  O272  1  0.91669507  0.04391011  0.73158478  1
  O2-  O273  1  0.91889021  0.55466200  0.05916540  1
  O2-  O274  1  0.91040093  0.54817056  0.39692621  1
  O2-  O275  1  0.91741005  0.53846740  0.73435963  1
  O2-  O276  1  0.29303837  0.16284721  0.06122288  1
  O2-  O277  1  0.28945887  0.15889899  0.39826024  1
  O2-  O278  1  0.28421904  0.15966160  0.73012172  1
  O2-  O279  1  0.29473241  0.67275237  0.06662296  1
  O2-  O280  1  0.29497783  0.67159448  0.40293400  1
  O2-  O281  1  0.28909010  0.66735026  0.73292428  1
  O2-  O282  1  0.80393051  0.16481308  0.06392237  1
  O2-  O283  1  0.79555728  0.16091250  0.40168845  1
  O2-  O284  1  0.80526369  0.16965976  0.72785502  1
  O2-  O285  1  0.79136178  0.66493337  0.06306363  1
  O2-  O286  1  0.78808997  0.66354806  0.39452681  1
  O2-  O287  1  0.79473147  0.66766236  0.73558985  1
