# generated using pymatgen
data_Ca2Al2SiO7
_symmetry_space_group_name_H-M   'P 1'
_cell_length_a   15.45890640
_cell_length_b   15.45926076
_cell_length_c   15.28451296
_cell_angle_alpha   90.00283311
_cell_angle_beta   89.99142559
_cell_angle_gamma   89.99316473
_symmetry_Int_Tables_number   1
_chemical_formula_structural   Ca2Al2SiO7
_chemical_formula_sum   'Ca48 Al48 Si24 O168'
_cell_volume   3652.74273961
_cell_formula_units_Z   24
loop_
 _symmetry_equiv_pos_site_id
 _symmetry_equiv_pos_as_xyz
  1  'x, y, z'
loop_
 _atom_type_symbol
 _atom_type_oxidation_number
  Ca2+  2.0
  Al0+  0.0
  Si0+  0.0
  O2-  -2.0
loop_
 _atom_site_type_symbol
 _atom_site_label
 _atom_site_symmetry_multiplicity
 _atom_site_fract_x
 _atom_site_fract_y
 _atom_site_fract_z
 _atom_site_occupancy
  Ca2+  Ca0  1  0.17648100  0.08852852  0.16632841  1
  Ca2+  Ca1  1  0.17641384  0.08297443  0.50940290  1
  Ca2+  Ca2  1  0.17436332  0.09007210  0.83555480  1
  Ca2+  Ca3  1  0.16691837  0.57298513  0.17229677  1
  Ca2+  Ca4  1  0.16015529  0.57201067  0.50228533  1
  Ca2+  Ca5  1  0.17471669  0.56869104  0.84129730  1
  Ca2+  Ca6  1  0.66275896  0.07800605  0.17301115  1
  Ca2+  Ca7  1  0.67107467  0.08305408  0.50582861  1
  Ca2+  Ca8  1  0.67085666  0.09460209  0.83469287  1
  Ca2+  Ca9  1  0.67185055  0.58678782  0.17071721  1
  Ca2+  Ca10  1  0.67428738  0.58311156  0.50085928  1
  Ca2+  Ca11  1  0.66529578  0.58310065  0.84036803  1
  Ca2+  Ca12  1  0.08409096  0.33440170  0.16492536  1
  Ca2+  Ca13  1  0.08772618  0.32928427  0.49549395  1
  Ca2+  Ca14  1  0.09590063  0.32398963  0.83194139  1
  Ca2+  Ca15  1  0.07978356  0.82468862  0.16074309  1
  Ca2+  Ca16  1  0.08220711  0.83165448  0.49678671  1
  Ca2+  Ca17  1  0.07515162  0.84023446  0.82526491  1
  Ca2+  Ca18  1  0.56934093  0.32800587  0.15744235  1
  Ca2+  Ca19  1  0.56995843  0.32517962  0.49682896  1
  Ca2+  Ca20  1  0.56920487  0.32340498  0.82799159  1
  Ca2+  Ca21  1  0.58053143  0.83154592  0.16607963  1
  Ca2+  Ca22  1  0.57806159  0.83873539  0.49313504  1
  Ca2+  Ca23  1  0.58171425  0.82641285  0.83416093  1
  Ca2+  Ca24  1  0.32511546  0.41084373  0.16856232  1
  Ca2+  Ca25  1  0.32519239  0.40874403  0.50312678  1
  Ca2+  Ca26  1  0.32815151  0.41077055  0.83995844  1
  Ca2+  Ca27  1  0.34220321  0.92996902  0.17339755  1
  Ca2+  Ca28  1  0.33127434  0.92690247  0.50582486  1
  Ca2+  Ca29  1  0.32822365  0.92906739  0.83566280  1
  Ca2+  Ca30  1  0.83212915  0.42037340  0.17895392  1
  Ca2+  Ca31  1  0.84133305  0.42151049  0.50001527  1
  Ca2+  Ca32  1  0.82809280  0.41604907  0.83732175  1
  Ca2+  Ca33  1  0.82725980  0.91407325  0.17011981  1
  Ca2+  Ca34  1  0.82677381  0.91883709  0.50811596  1
  Ca2+  Ca35  1  0.83958021  0.92030775  0.83414115  1
  Ca2+  Ca36  1  0.41252016  0.17336180  0.16073140  1
  Ca2+  Ca37  1  0.40768221  0.17213750  0.49763230  1
  Ca2+  Ca38  1  0.41477585  0.17176173  0.82833477  1
  Ca2+  Ca39  1  0.41742128  0.67293127  0.15906009  1
  Ca2+  Ca40  1  0.41542810  0.67734731  0.49204587  1
  Ca2+  Ca41  1  0.42003560  0.65789655  0.83353678  1
  Ca2+  Ca42  1  0.92390147  0.17358198  0.16061562  1
  Ca2+  Ca43  1  0.92297278  0.16825654  0.49962206  1
  Ca2+  Ca44  1  0.93055331  0.16211802  0.82523502  1
  Ca2+  Ca45  1  0.92198505  0.66626322  0.16645617  1
  Ca2+  Ca46  1  0.92261715  0.67018816  0.49272937  1
  Ca2+  Ca47  1  0.91786238  0.68097927  0.82936201  1
  Al0+  Al48  1  -0.00112023  0.00118031  -0.00380389  1
  Al0+  Al49  1  0.00021570  -0.00011143  0.33110023  1
  Al0+  Al50  1  -0.00325121  0.00025541  0.66120654  1
  Al0+  Al51  1  -0.00088206  0.50186223  0.00161700  1
  Al0+  Al52  1  -0.00023811  0.50036703  0.33379554  1
  Al0+  Al53  1  0.00000205  0.50177733  0.67585435  1
  Al0+  Al54  1  0.50219944  -0.00180228  -0.00018499  1
  Al0+  Al55  1  0.50088581  -0.00043511  0.33931263  1
  Al0+  Al56  1  0.50226693  -0.00230647  0.66936529  1
  Al0+  Al57  1  0.50033343  0.50091428  -0.00307037  1
  Al0+  Al58  1  0.50025864  0.49938621  0.33018036  1
  Al0+  Al59  1  0.50188881  0.49895462  0.65980045  1
  Al0+  Al60  1  0.24817091  0.24936417  0.00245453  1
  Al0+  Al61  1  0.25041454  0.24971422  0.33658470  1
  Al0+  Al62  1  0.24907363  0.25020806  0.66576945  1
  Al0+  Al63  1  0.24868978  0.75000530  0.00052268  1
  Al0+  Al64  1  0.25020776  0.75016776  0.32228924  1
  Al0+  Al65  1  0.25035501  0.74834984  0.67083004  1
  Al0+  Al66  1  0.75025212  0.25109405  0.00072471  1
  Al0+  Al67  1  0.75040434  0.25006715  0.33056994  1
  Al0+  Al68  1  0.74912158  0.25116119  0.66699451  1
  Al0+  Al69  1  0.74919294  0.75110724  -0.00732732  1
  Al0+  Al70  1  0.75002970  0.75019297  0.34333302  1
  Al0+  Al71  1  0.75105185  0.75047251  0.66353711  1
  Al0+  Al72  1  0.81992682  0.56912934  0.34741307  1
  Al0+  Al73  1  0.17922104  0.42968804  0.68081883  1
  Al0+  Al74  1  0.07058864  0.67886367  0.31966930  1
  Al0+  Al75  1  0.57279704  0.17664568  0.65021086  1
  Al0+  Al76  1  0.68119992  0.93085528  0.34717625  1
  Al0+  Al77  1  0.18078003  0.43165280  0.34843491  1
  Al0+  Al78  1  0.32149250  0.07062759  0.68281032  1
  Al0+  Al79  1  0.92972269  0.32020414  0.32159479  1
  Al0+  Al80  1  0.32377376  0.57261778  0.01612692  1
  Al0+  Al81  1  0.81856212  0.07169272  0.68015809  1
  Al0+  Al82  1  0.17915427  0.42890656  0.01779814  1
  Al0+  Al83  1  0.57306339  0.17589411  0.98618673  1
  Al0+  Al84  1  0.17750973  0.92692997  0.67974829  1
  Al0+  Al85  1  0.42985898  0.82234624  0.32036739  1
  Al0+  Al86  1  0.07017539  0.18051646  0.65199588  1
  Al0+  Al87  1  0.42810813  0.31973619  0.64943883  1
  Al0+  Al88  1  0.42779274  0.32061283  0.31755756  1
  Al0+  Al89  1  0.56908606  0.68024158  0.98797355  1
  Al0+  Al90  1  0.31873115  0.06946310  0.34729726  1
  Al0+  Al91  1  0.92983315  0.82115764  0.64968587  1
  Al0+  Al92  1  0.06858202  0.18146718  0.98700604  1
  Al0+  Al93  1  0.32156415  0.06822433  0.01442005  1
  Al0+  Al94  1  0.93025465  0.81926022  0.98710886  1
  Al0+  Al95  1  0.42807006  0.31906981  0.98526962  1
  Si0+  Si96  1  0.32410254  0.57484154  0.34856128  1
  Si0+  Si97  1  0.82453740  0.07460932  0.34893216  1
  Si0+  Si98  1  0.42599734  0.82333831  0.98241642  1
  Si0+  Si99  1  0.07294974  0.67635852  0.98098820  1
  Si0+  Si100  1  0.07256842  0.17695823  0.31637901  1
  Si0+  Si101  1  0.92660006  0.32541377  0.98360895  1
  Si0+  Si102  1  0.67980852  0.42883371  0.01519829  1
  Si0+  Si103  1  0.81836673  0.57299707  0.01389137  1
  Si0+  Si104  1  0.17585224  0.92466882  0.34660570  1
  Si0+  Si105  1  0.82215017  0.07177204  0.01533845  1
  Si0+  Si106  1  0.92686298  0.32502748  0.65250403  1
  Si0+  Si107  1  0.68126950  0.92747480  0.01426163  1
  Si0+  Si108  1  0.57225409  0.17782026  0.31770474  1
  Si0+  Si109  1  0.07196668  0.67717809  0.65195109  1
  Si0+  Si110  1  0.67578886  0.42578649  0.35052924  1
  Si0+  Si111  1  0.82019305  0.57253599  0.68441262  1
  Si0+  Si112  1  0.32510158  0.57226995  0.68065382  1
  Si0+  Si113  1  0.67848979  0.92528592  0.68714736  1
  Si0+  Si114  1  0.92612859  0.82206984  0.31762092  1
  Si0+  Si115  1  0.57338057  0.67858176  0.31876296  1
  Si0+  Si116  1  0.67853464  0.43086576  0.68171384  1
  Si0+  Si117  1  0.42877989  0.81925140  0.65358502  1
  Si0+  Si118  1  0.57225482  0.67831205  0.64936446  1
  Si0+  Si119  1  0.17447379  0.92862337  0.01666188  1
  O2-  O120  1  0.24853359  -0.00905354  0.06160718  1
  O2-  O121  1  0.24307847  -0.00593881  0.39101362  1
  O2-  O122  1  0.24668309  0.00033095  0.73171565  1
  O2-  O123  1  0.25160082  0.50144301  0.06702555  1
  O2-  O124  1  0.25701165  0.50588602  0.39459891  1
  O2-  O125  1  0.25790815  0.50206370  0.72390227  1
  O2-  O126  1  0.74739196  0.00372829  0.05631590  1
  O2-  O127  1  0.75738115  0.00429877  0.39259513  1
  O2-  O128  1  0.74340271  -0.00190750  0.72996795  1
  O2-  O129  1  0.75242586  0.49836604  0.05772647  1
  O2-  O130  1  0.74589088  0.49361564  0.39506210  1
  O2-  O131  1  0.74973208  0.50119219  0.72633347  1
  O2-  O132  1  0.00117135  0.24378710  0.27332887  1
  O2-  O133  1  -0.00319510  0.25831590  0.60799372  1
  O2-  O134  1  -0.00412661  0.25828318  0.93961450  1
  O2-  O135  1  -0.00215537  0.75683279  0.27358451  1
  O2-  O136  1  0.00720988  0.74834375  0.60536321  1
  O2-  O137  1  0.00832834  0.74942609  0.93796175  1
  O2-  O138  1  0.50508750  0.24736467  0.27316927  1
  O2-  O139  1  0.49593057  0.24282933  0.59987163  1
  O2-  O140  1  0.49799483  0.24423478  0.93639957  1
  O2-  O141  1  0.50185106  0.74395206  0.27472847  1
  O2-  O142  1  0.50010766  0.74860721  0.60957318  1
  O2-  O143  1  0.48946173  0.74871890  0.93919285  1
  O2-  O144  1  0.06526467  0.18000500  0.10027175  1
  O2-  O145  1  0.07182303  0.17651221  0.42187973  1
  O2-  O146  1  0.06955324  0.18144636  0.76512375  1
  O2-  O147  1  0.06916448  0.67509558  0.08671635  1
  O2-  O148  1  0.06814504  0.67901861  0.43300947  1
  O2-  O149  1  0.06788911  0.67661287  0.75732245  1
  O2-  O150  1  0.57543157  0.17842112  0.10001055  1
  O2-  O151  1  0.57382508  0.17918868  0.42300934  1
  O2-  O152  1  0.57481216  0.18292134  0.76335891  1
  O2-  O153  1  0.57572703  0.68608627  0.10061070  1
  O2-  O154  1  0.57329435  0.67955280  0.42468442  1
  O2-  O155  1  0.57354954  0.67751354  0.75458342  1
  O2-  O156  1  0.17978134  0.43139451  0.23585002  1
  O2-  O157  1  0.17577163  0.43278324  0.56762773  1
  O2-  O158  1  0.17908910  0.42998192  0.90416543  1
  O2-  O159  1  0.17375056  0.92565257  0.24101519  1
  O2-  O160  1  0.18258484  0.92394295  0.56587659  1
  O2-  O161  1  0.17288211  0.93138331  0.91126964  1
  O2-  O162  1  0.67726623  0.42740116  0.24473713  1
  O2-  O163  1  0.67918251  0.43436908  0.57675783  1
  O2-  O164  1  0.68234110  0.42988245  0.90979834  1
  O2-  O165  1  0.68295766  0.92953236  0.23340907  1
  O2-  O166  1  0.68059665  0.92143158  0.58152749  1
  O2-  O167  1  0.68373491  0.92243089  0.90970295  1
  O2-  O168  1  0.43005503  0.31820400  0.09911527  1
  O2-  O169  1  0.42788549  0.31971897  0.43031553  1
  O2-  O170  1  0.43079334  0.32398262  0.76263909  1
  O2-  O171  1  0.43117000  0.82565443  0.08799468  1
  O2-  O172  1  0.43142233  0.82113371  0.43398542  1
  O2-  O173  1  0.43040250  0.81680960  0.75860777  1
  O2-  O174  1  0.92392141  0.32423765  0.08933379  1
  O2-  O175  1  0.93092333  0.31966274  0.43466598  1
  O2-  O176  1  0.92427891  0.32464864  0.75809087  1
  O2-  O177  1  0.92844413  0.81597863  0.10048857  1
  O2-  O178  1  0.92603575  0.82074745  0.42293172  1
  O2-  O179  1  0.92726473  0.81752137  0.76298287  1
  O2-  O180  1  0.31891381  0.06934898  0.23391142  1
  O2-  O181  1  0.32030730  0.06793473  0.56904378  1
  O2-  O182  1  0.32106548  0.06777472  0.90178997  1
  O2-  O183  1  0.32346743  0.57488085  0.24339325  1
  O2-  O184  1  0.32485783  0.57657182  0.57513835  1
  O2-  O185  1  0.32223470  0.57071223  0.90201743  1
  O2-  O186  1  0.82404811  0.07436790  0.24297774  1
  O2-  O187  1  0.81744598  0.06978388  0.56687245  1
  O2-  O188  1  0.82333494  0.07079562  0.91048027  1
  O2-  O189  1  0.81718628  0.57032739  0.23380802  1
  O2-  O190  1  0.82071484  0.57198401  0.57936559  1
  O2-  O191  1  0.81548327  0.57257453  0.90853625  1
  O2-  O192  1  0.04981109  0.08262173  0.26943968  1
  O2-  O193  1  0.03663591  0.08598358  0.59614503  1
  O2-  O194  1  0.03541335  0.08652104  0.93180161  1
  O2-  O195  1  0.03339063  0.58541217  0.26420215  1
  O2-  O196  1  0.03967635  0.58486495  0.60645196  1
  O2-  O197  1  0.04145710  0.58481328  0.93399877  1
  O2-  O198  1  0.54558289  0.08383249  0.27388805  1
  O2-  O199  1  0.55452731  0.07320414  0.60353061  1
  O2-  O200  1  0.55362275  0.07485661  0.93554595  1
  O2-  O201  1  0.55441534  0.58365563  0.27311691  1
  O2-  O202  1  0.54794678  0.58701760  0.59975382  1
  O2-  O203  1  0.54523808  0.58335938  0.93066882  1
  O2-  O204  1  0.16447932  0.20730954  0.27089928  1
  O2-  O205  1  0.16581814  0.21053555  0.59699744  1
  O2-  O206  1  0.16506560  0.21085979  0.93352944  1
  O2-  O207  1  0.16574774  0.70535457  0.26093990  1
  O2-  O208  1  0.16777954  0.69707665  0.60816532  1
  O2-  O209  1  0.16834071  0.69677199  0.93704526  1
  O2-  O210  1  0.66677870  0.19952997  0.27111500  1
  O2-  O211  1  0.66957230  0.21165199  0.59663703  1
  O2-  O212  1  0.67115775  0.20878398  0.93413083  1
  O2-  O213  1  0.66654051  0.70909018  0.27437062  1
  O2-  O214  1  0.66341001  0.70776681  0.60183207  1
  O2-  O215  1  0.66214964  0.71568389  0.92853866  1
  O2-  O216  1  0.07854254  0.45829846  0.06818007  1
  O2-  O217  1  0.08458270  0.46418557  0.40177088  1
  O2-  O218  1  0.08427134  0.46128590  0.73861492  1
  O2-  O219  1  0.08253214  0.95903022  0.06419221  1
  O2-  O220  1  0.08081860  0.94756051  0.39234870  1
  O2-  O221  1  0.07635986  0.95234324  0.72693742  1
  O2-  O222  1  0.58898985  0.45907998  0.06180756  1
  O2-  O223  1  0.58310049  0.45392920  0.39734008  1
  O2-  O224  1  0.58751025  0.46169635  0.72900364  1
  O2-  O225  1  0.58839045  0.94946646  0.06225271  1
  O2-  O226  1  0.58656853  0.96152986  0.40455293  1
  O2-  O227  1  0.58351030  0.94365375  0.73242839  1
  O2-  O228  1  0.20581496  0.33053873  0.07116117  1
  O2-  O229  1  0.21085314  0.33468730  0.40163189  1
  O2-  O230  1  0.20917712  0.33320393  0.73363897  1
  O2-  O231  1  0.19247279  0.83155930  0.05854282  1
  O2-  O232  1  0.20201185  0.83037742  0.39047890  1
  O2-  O233  1  0.20574437  0.82899052  0.73546925  1
  O2-  O234  1  0.70671203  0.33754805  0.06454284  1
  O2-  O235  1  0.70109271  0.33170480  0.39520683  1
  O2-  O236  1  0.70676264  0.34018000  0.73026523  1
  O2-  O237  1  0.71589201  0.83796100  0.06284692  1
  O2-  O238  1  0.70927023  0.83551714  0.40542522  1
  O2-  O239  1  0.70953937  0.83236290  0.73274593  1
  O2-  O240  1  0.45680168  0.41845071  0.26461790  1
  O2-  O241  1  0.46124535  0.41703174  0.59477787  1
  O2-  O242  1  0.45897732  0.41705782  0.93343926  1
  O2-  O243  1  0.46738209  0.91701505  0.26669793  1
  O2-  O244  1  0.45746773  0.91044601  0.60602146  1
  O2-  O245  1  0.46009881  0.91267495  0.93362939  1
  O2-  O246  1  0.95993171  0.41619428  0.26668911  1
  O2-  O247  1  0.95155365  0.42084672  0.61014236  1
  O2-  O248  1  0.94766957  0.42065606  0.93874204  1
  O2-  O249  1  0.94617272  0.91736240  0.27187397  1
  O2-  O250  1  0.95439999  0.91737497  0.59356057  1
  O2-  O251  1  0.95697065  0.91669267  0.93318349  1
  O2-  O252  1  0.33180578  0.28601892  0.26527460  1
  O2-  O253  1  0.32924858  0.29346981  0.59741623  1
  O2-  O254  1  0.32913204  0.29192091  0.93483144  1
  O2-  O255  1  0.33440584  0.79720530  0.26212651  1
  O2-  O256  1  0.33726766  0.79075192  0.60576713  1
  O2-  O257  1  0.32973938  0.80501499  0.93939360  1
  O2-  O258  1  0.83202379  0.29390409  0.26546946  1
  O2-  O259  1  0.83397482  0.30003089  0.60518338  1
  O2-  O260  1  0.83313686  0.29926725  0.93775586  1
  O2-  O261  1  0.83305032  0.79123896  0.27344003  1
  O2-  O262  1  0.83401762  0.78580592  0.59604529  1
  O2-  O263  1  0.83680776  0.78470874  0.92943837  1
  O2-  O264  1  0.41955527  0.03774065  0.06753044  1
  O2-  O265  1  0.41457790  0.03836187  0.40185560  1
  O2-  O266  1  0.42020463  0.04020696  0.73436135  1
  O2-  O267  1  0.42507001  0.54990187  0.06620163  1
  O2-  O268  1  0.41955834  0.55267984  0.39314252  1
  O2-  O269  1  0.42061354  0.54790242  0.72398768  1
  O2-  O270  1  0.91167156  0.03969775  0.06468485  1
  O2-  O271  1  0.91927267  0.05084264  0.39372593  1
  O2-  O272  1  0.91458250  0.03806614  0.73322930  1
  O2-  O273  1  0.91194966  0.55105283  0.06001927  1
  O2-  O274  1  0.91506351  0.53751995  0.40304993  1
  O2-  O275  1  0.91082653  0.54737363  0.73497192  1
  O2-  O276  1  0.28696339  0.16337853  0.06837014  1
  O2-  O277  1  0.28627768  0.16437516  0.40264609  1
  O2-  O278  1  0.29206897  0.16919930  0.73336336  1
  O2-  O279  1  0.29820756  0.67374996  0.06647332  1
  O2-  O280  1  0.29742912  0.66975682  0.39214285  1
  O2-  O281  1  0.29998924  0.66397569  0.73086353  1
  O2-  O282  1  0.79845476  0.16529084  0.06224229  1
  O2-  O283  1  0.79787676  0.16769686  0.39548162  1
  O2-  O284  1  0.79098609  0.16942061  0.73482573  1
  O2-  O285  1  0.78468289  0.66319057  0.06057310  1
  O2-  O286  1  0.78872205  0.66349076  0.40577898  1
  O2-  O287  1  0.78854211  0.66374394  0.73086617  1
