# generated using pymatgen
data_Ca2Al2SiO7
_symmetry_space_group_name_H-M   'P 1'
_cell_length_a   15.46091220
_cell_length_b   15.46168748
_cell_length_c   15.28624788
_cell_angle_alpha   89.99507521
_cell_angle_beta   89.99813320
_cell_angle_gamma   89.99422721
_symmetry_Int_Tables_number   1
_chemical_formula_structural   Ca2Al2SiO7
_chemical_formula_sum   'Ca48 Al48 Si24 O168'
_cell_volume   3654.20492313
_cell_formula_units_Z   24
loop_
 _symmetry_equiv_pos_site_id
 _symmetry_equiv_pos_as_xyz
  1  'x, y, z'
loop_
 _atom_type_symbol
 _atom_type_oxidation_number
  Ca2+  2.0
  Al0+  0.0
  Si0+  0.0
  O2-  -2.0
loop_
 _atom_site_type_symbol
 _atom_site_label
 _atom_site_symmetry_multiplicity
 _atom_site_fract_x
 _atom_site_fract_y
 _atom_site_fract_z
 _atom_site_occupancy
  Ca2+  Ca0  1  0.16628320  0.08368050  0.16171840  1
  Ca2+  Ca1  1  0.17273236  0.07997745  0.51208094  1
  Ca2+  Ca2  1  0.17040948  0.07764937  0.83725304  1
  Ca2+  Ca3  1  0.16475592  0.58286907  0.16842054  1
  Ca2+  Ca4  1  0.17569582  0.57368707  0.51271610  1
  Ca2+  Ca5  1  0.17173699  0.58490378  0.83799842  1
  Ca2+  Ca6  1  0.67656127  0.08576263  0.17213598  1
  Ca2+  Ca7  1  0.67119949  0.06916667  0.50583433  1
  Ca2+  Ca8  1  0.66823313  0.07635182  0.84257174  1
  Ca2+  Ca9  1  0.66892291  0.58651192  0.17343421  1
  Ca2+  Ca10  1  0.66823419  0.59493813  0.50053391  1
  Ca2+  Ca11  1  0.66271121  0.58616226  0.83666867  1
  Ca2+  Ca12  1  0.07291306  0.32467361  0.15505941  1
  Ca2+  Ca13  1  0.09172829  0.32692155  0.50174673  1
  Ca2+  Ca14  1  0.08334478  0.32270401  0.83025386  1
  Ca2+  Ca15  1  0.07790412  0.83186404  0.15915038  1
  Ca2+  Ca16  1  0.07119018  0.84375961  0.49918403  1
  Ca2+  Ca17  1  0.08115151  0.84076854  0.82745019  1
  Ca2+  Ca18  1  0.57269566  0.32907410  0.15768122  1
  Ca2+  Ca19  1  0.57468507  0.33060604  0.49432319  1
  Ca2+  Ca20  1  0.57947422  0.32212156  0.83659963  1
  Ca2+  Ca21  1  0.59468414  0.82435378  0.16667647  1
  Ca2+  Ca22  1  0.58436214  0.83028489  0.49936876  1
  Ca2+  Ca23  1  0.58136352  0.82623431  0.82225724  1
  Ca2+  Ca24  1  0.33657824  0.41143337  0.16864450  1
  Ca2+  Ca25  1  0.33225507  0.42105880  0.50960592  1
  Ca2+  Ca26  1  0.33186656  0.42000788  0.83329470  1
  Ca2+  Ca27  1  0.32725616  0.91920232  0.16409858  1
  Ca2+  Ca28  1  0.32806334  0.92067232  0.51552219  1
  Ca2+  Ca29  1  0.32855154  0.92372033  0.83855357  1
  Ca2+  Ca30  1  0.83399969  0.42195089  0.17125093  1
  Ca2+  Ca31  1  0.83239079  0.42765839  0.50310512  1
  Ca2+  Ca32  1  0.83425315  0.41604965  0.83997237  1
  Ca2+  Ca33  1  0.83086322  0.92769733  0.17446124  1
  Ca2+  Ca34  1  0.82499794  0.90870641  0.50109745  1
  Ca2+  Ca35  1  0.83017382  0.91732984  0.83447856  1
  Ca2+  Ca36  1  0.41959395  0.17535040  0.15619621  1
  Ca2+  Ca37  1  0.41174944  0.17093416  0.49551598  1
  Ca2+  Ca38  1  0.40750632  0.16579751  0.83207838  1
  Ca2+  Ca39  1  0.43072712  0.66829173  0.15957084  1
  Ca2+  Ca40  1  0.42273454  0.66937140  0.50019224  1
  Ca2+  Ca41  1  0.42443825  0.67290461  0.82471293  1
  Ca2+  Ca42  1  0.91515550  0.16724606  0.15413702  1
  Ca2+  Ca43  1  0.92485704  0.15939299  0.49777175  1
  Ca2+  Ca44  1  0.92787617  0.15902593  0.83314811  1
  Ca2+  Ca45  1  0.91655452  0.67366996  0.16342807  1
  Ca2+  Ca46  1  0.91339470  0.67890437  0.49491127  1
  Ca2+  Ca47  1  0.92696972  0.67343476  0.82864833  1
  Al0+  Al48  1  -0.00265605  -0.00022930  0.00454109  1
  Al0+  Al49  1  0.00151883  -0.00028449  0.33034011  1
  Al0+  Al50  1  0.00010664  0.00189176  0.65974000  1
  Al0+  Al51  1  -0.00006162  0.50221477  -0.00577314  1
  Al0+  Al52  1  0.00093116  0.49829267  0.34035882  1
  Al0+  Al53  1  -0.00139402  0.49902086  0.66990889  1
  Al0+  Al54  1  0.49880607  -0.00204078  0.00588658  1
  Al0+  Al55  1  0.49936239  0.00025889  0.33548516  1
  Al0+  Al56  1  0.50223946  -0.00113055  0.67088169  1
  Al0+  Al57  1  0.50015357  0.49984132  -0.00706442  1
  Al0+  Al58  1  0.49885276  0.50047378  0.32545531  1
  Al0+  Al59  1  0.50255871  0.49841917  0.66690562  1
  Al0+  Al60  1  0.24791982  0.25166254  -0.00281173  1
  Al0+  Al61  1  0.24879972  0.24971431  0.32785313  1
  Al0+  Al62  1  0.24890657  0.25111033  0.66895339  1
  Al0+  Al63  1  0.25086949  0.74824968  0.00380662  1
  Al0+  Al64  1  0.25064203  0.74892193  0.33474638  1
  Al0+  Al65  1  0.25100676  0.74870062  0.66967741  1
  Al0+  Al66  1  0.74581675  0.25249476  -0.00195477  1
  Al0+  Al67  1  0.75167126  0.25129248  0.34062682  1
  Al0+  Al68  1  0.75090376  0.25198526  0.66433992  1
  Al0+  Al69  1  0.75183746  0.74886564  -0.00408325  1
  Al0+  Al70  1  0.75167269  0.75062216  0.33116802  1
  Al0+  Al71  1  0.75228465  0.74985475  0.66572672  1
  Al0+  Al72  1  0.93224171  0.82019600  0.65269188  1
  Al0+  Al73  1  0.57244457  0.68138852  0.98529378  1
  Al0+  Al74  1  0.07018281  0.18197955  0.65170747  1
  Al0+  Al75  1  0.17807603  0.42900749  0.68427596  1
  Al0+  Al76  1  0.17794355  0.92756403  0.01647750  1
  Al0+  Al77  1  0.56905873  0.68245099  0.31852996  1
  Al0+  Al78  1  0.32110099  0.07342862  0.01754238  1
  Al0+  Al79  1  0.67930848  0.92914284  0.34849168  1
  Al0+  Al80  1  0.42932044  0.31930816  0.32020197  1
  Al0+  Al81  1  0.07219387  0.67982461  0.98777974  1
  Al0+  Al82  1  0.32265215  0.07104601  0.68035326  1
  Al0+  Al83  1  0.42795181  0.82283600  0.65304958  1
  Al0+  Al84  1  0.82087687  0.57024375  0.34643877  1
  Al0+  Al85  1  0.82425626  0.07369780  0.35004332  1
  Al0+  Al86  1  0.42728079  0.32030706  0.98166525  1
  Al0+  Al87  1  0.81703741  0.07131006  0.01135174  1
  Al0+  Al88  1  0.06853499  0.17705935  0.98434245  1
  Al0+  Al89  1  0.68155222  0.92814506  0.68181498  1
  Al0+  Al90  1  0.32370270  0.57098304  0.68251952  1
  Al0+  Al91  1  0.92628879  0.32260737  0.98612689  1
  Al0+  Al92  1  0.17622678  0.92861612  0.67927819  1
  Al0+  Al93  1  0.56988951  0.17573750  0.98692370  1
  Al0+  Al94  1  0.57114398  0.67810123  0.65006890  1
  Al0+  Al95  1  0.93067268  0.82035705  0.31712689  1
  Si0+  Si96  1  0.17719910  0.43115318  0.01612396  1
  Si0+  Si97  1  0.92900418  0.32339944  0.32118183  1
  Si0+  Si98  1  0.42670198  0.82112252  0.98531481  1
  Si0+  Si99  1  0.06981136  0.18008303  0.31678608  1
  Si0+  Si100  1  0.92577782  0.32437075  0.64668325  1
  Si0+  Si101  1  0.31823886  0.07237692  0.34651789  1
  Si0+  Si102  1  0.18034526  0.92731692  0.34826013  1
  Si0+  Si103  1  0.18035010  0.42797241  0.34720114  1
  Si0+  Si104  1  0.32249945  0.57042817  0.34664231  1
  Si0+  Si105  1  0.67765910  0.92435001  0.01623222  1
  Si0+  Si106  1  0.32254906  0.56924768  0.01717947  1
  Si0+  Si107  1  0.07327633  0.67551731  0.31978969  1
  Si0+  Si108  1  0.57501264  0.17732246  0.65104505  1
  Si0+  Si109  1  0.67953699  0.42673599  0.68310382  1
  Si0+  Si110  1  0.82140719  0.07387924  0.68273867  1
  Si0+  Si111  1  0.57364943  0.17712341  0.31983298  1
  Si0+  Si112  1  0.43112299  0.31810868  0.65213924  1
  Si0+  Si113  1  0.81956571  0.57119038  0.68350077  1
  Si0+  Si114  1  0.07338307  0.67472823  0.65006392  1
  Si0+  Si115  1  0.42390234  0.82458386  0.31565662  1
  Si0+  Si116  1  0.82188784  0.57090382  0.01426422  1
  Si0+  Si117  1  0.67531054  0.42934115  0.34940946  1
  Si0+  Si118  1  0.67749943  0.43136234  0.01507442  1
  Si0+  Si119  1  0.92933947  0.82188488  0.98306497  1
  O2-  O120  1  0.24840876  0.00135219  0.06759783  1
  O2-  O121  1  0.25403155  -0.00401848  0.38935271  1
  O2-  O122  1  0.25322284  -0.00450318  0.72814394  1
  O2-  O123  1  0.25082070  0.49884377  0.06058930  1
  O2-  O124  1  0.25042053  0.50017106  0.38831490  1
  O2-  O125  1  0.24688941  0.50435783  0.73369230  1
  O2-  O126  1  0.74047012  -0.00109389  0.05927515  1
  O2-  O127  1  0.75064002  0.00257936  0.39860598  1
  O2-  O128  1  0.75238280  0.00661131  0.72774966  1
  O2-  O129  1  0.75023937  0.50087871  0.05724965  1
  O2-  O130  1  0.74416456  0.49748179  0.39446623  1
  O2-  O131  1  0.74989756  0.49864099  0.72499165  1
  O2-  O132  1  -0.00720586  0.24660428  0.27788705  1
  O2-  O133  1  -0.00429263  0.25686237  0.60282394  1
  O2-  O134  1  -0.00510908  0.24841249  0.93552370  1
  O2-  O135  1  0.00628131  0.74448143  0.27379685  1
  O2-  O136  1  0.00971446  0.74751144  0.60510614  1
  O2-  O137  1  0.00284874  0.75807635  0.93995249  1
  O2-  O138  1  0.50591788  0.24636849  0.27513689  1
  O2-  O139  1  0.49933742  0.24449015  0.60916271  1
  O2-  O140  1  0.49256960  0.24075467  0.93397846  1
  O2-  O141  1  0.49576050  0.75872576  0.27160031  1
  O2-  O142  1  0.49821667  0.74961644  0.60112675  1
  O2-  O143  1  0.50111311  0.75908562  0.94097156  1
  O2-  O144  1  0.06644422  0.18068490  0.09891135  1
  O2-  O145  1  0.07446821  0.18282322  0.42177306  1
  O2-  O146  1  0.06807469  0.18080350  0.76392919  1
  O2-  O147  1  0.06729768  0.67718604  0.10144001  1
  O2-  O148  1  0.07395791  0.67462559  0.42497929  1
  O2-  O149  1  0.06786565  0.67205630  0.75548065  1
  O2-  O150  1  0.57291600  0.18330089  0.10085038  1
  O2-  O151  1  0.57028689  0.17835429  0.42578552  1
  O2-  O152  1  0.57990035  0.18113275  0.75543288  1
  O2-  O153  1  0.57335054  0.68050148  0.09881999  1
  O2-  O154  1  0.56616736  0.68019681  0.43089336  1
  O2-  O155  1  0.57136030  0.67897880  0.76360749  1
  O2-  O156  1  0.17831950  0.42814858  0.24215455  1
  O2-  O157  1  0.18297183  0.42819748  0.56931042  1
  O2-  O158  1  0.17624911  0.43451177  0.91180702  1
  O2-  O159  1  0.18016333  0.92647944  0.24343705  1
  O2-  O160  1  0.17564025  0.93433212  0.56476049  1
  O2-  O161  1  0.17956466  0.92635089  0.90356469  1
  O2-  O162  1  0.67672651  0.42934718  0.24380680  1
  O2-  O163  1  0.68009413  0.42406375  0.57782776  1
  O2-  O164  1  0.67730797  0.43283760  0.90991656  1
  O2-  O165  1  0.68187219  0.92997470  0.23472752  1
  O2-  O166  1  0.68279478  0.92774774  0.56883481  1
  O2-  O167  1  0.68150249  0.92145907  0.91077803  1
  O2-  O168  1  0.43146202  0.32326621  0.09576090  1
  O2-  O169  1  0.42772174  0.31803403  0.43374526  1
  O2-  O170  1  0.43300213  0.31903127  0.75654143  1
  O2-  O171  1  0.42450013  0.81594771  0.09136895  1
  O2-  O172  1  0.41906475  0.82235431  0.42063923  1
  O2-  O173  1  0.43163460  0.82302696  0.76659713  1
  O2-  O174  1  0.92891023  0.32508981  0.10070236  1
  O2-  O175  1  0.93348835  0.32753811  0.42581091  1
  O2-  O176  1  0.92262908  0.32405667  0.75169189  1
  O2-  O177  1  0.92675238  0.81846117  0.08875441  1
  O2-  O178  1  0.93193647  0.81907707  0.43020165  1
  O2-  O179  1  0.93122532  0.81799390  0.76580620  1
  O2-  O180  1  0.31434158  0.07547607  0.24209552  1
  O2-  O181  1  0.31980498  0.07373384  0.56549913  1
  O2-  O182  1  0.31960511  0.07092724  0.90456752  1
  O2-  O183  1  0.32165263  0.57031925  0.24146095  1
  O2-  O184  1  0.32476065  0.56534172  0.56785381  1
  O2-  O185  1  0.32246247  0.56871651  0.91266481  1
  O2-  O186  1  0.82268562  0.07546508  0.23625346  1
  O2-  O187  1  0.81901793  0.07433294  0.57709759  1
  O2-  O188  1  0.81800853  0.06744325  0.89835423  1
  O2-  O189  1  0.82208493  0.56714420  0.23311950  1
  O2-  O190  1  0.81929689  0.57040144  0.57808543  1
  O2-  O191  1  0.82095073  0.57085241  0.90922622  1
  O2-  O192  1  0.04833601  0.08691344  0.27027874  1
  O2-  O193  1  0.03894083  0.08744418  0.59354144  1
  O2-  O194  1  0.03896620  0.07827463  0.93358376  1
  O2-  O195  1  0.04726415  0.58089200  0.27515798  1
  O2-  O196  1  0.04293220  0.58200762  0.60341865  1
  O2-  O197  1  0.03729756  0.58724420  0.92986688  1
  O2-  O198  1  0.54947028  0.08362311  0.27372672  1
  O2-  O199  1  0.55137126  0.08412918  0.60586550  1
  O2-  O200  1  0.55187141  0.07291078  0.93985878  1
  O2-  O201  1  0.53782390  0.58635148  0.26258069  1
  O2-  O202  1  0.54606869  0.57759839  0.59848499  1
  O2-  O203  1  0.53965504  0.58609246  0.93160999  1
  O2-  O204  1  0.15812155  0.21452905  0.26664917  1
  O2-  O205  1  0.16659557  0.21542672  0.59650073  1
  O2-  O206  1  0.16595811  0.20739315  0.93307523  1
  O2-  O207  1  0.16770019  0.69914273  0.27337772  1
  O2-  O208  1  0.17000346  0.69141522  0.60784115  1
  O2-  O209  1  0.17177929  0.70227198  0.93723677  1
  O2-  O210  1  0.66886561  0.20314244  0.27733181  1
  O2-  O211  1  0.66390474  0.21102940  0.60045324  1
  O2-  O212  1  0.66378549  0.21254547  0.93036032  1
  O2-  O213  1  0.66666235  0.71052990  0.26486988  1
  O2-  O214  1  0.66985444  0.70851192  0.59930990  1
  O2-  O215  1  0.67008151  0.70713581  0.93098773  1
  O2-  O216  1  0.08619088  0.46347733  0.06402966  1
  O2-  O217  1  0.08984054  0.45306992  0.39840347  1
  O2-  O218  1  0.07694628  0.45084192  0.73377688  1
  O2-  O219  1  0.07904473  0.95469657  0.07003723  1
  O2-  O220  1  0.08931024  0.95885464  0.39398450  1
  O2-  O221  1  0.07897932  0.96265716  0.73111529  1
  O2-  O222  1  0.58638459  0.46228718  0.06253049  1
  O2-  O223  1  0.58105008  0.45576879  0.39375741  1
  O2-  O224  1  0.58841254  0.45355707  0.73108657  1
  O2-  O225  1  0.58174774  0.93883342  0.06119213  1
  O2-  O226  1  0.57867500  0.95380021  0.40078275  1
  O2-  O227  1  0.58525686  0.95606786  0.73642863  1
  O2-  O228  1  0.20133937  0.33834012  0.06322883  1
  O2-  O229  1  0.21113237  0.33656727  0.39419328  1
  O2-  O230  1  0.21048968  0.33297974  0.73726184  1
  O2-  O231  1  0.20855531  0.82924605  0.07155878  1
  O2-  O232  1  0.20364741  0.83416097  0.39552885  1
  O2-  O233  1  0.19396689  0.82678452  0.72799994  1
  O2-  O234  1  0.70237504  0.33989384  0.06422698  1
  O2-  O235  1  0.69896751  0.33630996  0.39797438  1
  O2-  O236  1  0.70920031  0.33584306  0.73172397  1
  O2-  O237  1  0.71209388  0.83290547  0.06299562  1
  O2-  O238  1  0.71114520  0.83144823  0.40031617  1
  O2-  O239  1  0.71681279  0.83278983  0.73552549  1
  O2-  O240  1  0.45732334  0.41519688  0.26352410  1
  O2-  O241  1  0.46348179  0.40816270  0.60337828  1
  O2-  O242  1  0.46368858  0.41536991  0.92771608  1
  O2-  O243  1  0.44557528  0.92021400  0.27197634  1
  O2-  O244  1  0.45762228  0.92148623  0.59982045  1
  O2-  O245  1  0.44408152  0.91778356  0.94447741  1
  O2-  O246  1  0.96229707  0.41296853  0.27190116  1
  O2-  O247  1  0.95046105  0.41920186  0.60189327  1
  O2-  O248  1  0.95717331  0.41926895  0.93164335  1
  O2-  O249  1  0.96288766  0.91662337  0.26293018  1
  O2-  O250  1  0.95879945  0.91654932  0.59584185  1
  O2-  O251  1  0.95010087  0.91650656  0.93900982  1
  O2-  O252  1  0.33365575  0.28761413  0.26423860  1
  O2-  O253  1  0.33834190  0.29375039  0.60494379  1
  O2-  O254  1  0.32641582  0.30129277  0.93182992  1
  O2-  O255  1  0.33173873  0.79448165  0.26786760  1
  O2-  O256  1  0.32818438  0.79601250  0.60028095  1
  O2-  O257  1  0.33605931  0.78884209  0.93872432  1
  O2-  O258  1  0.83333151  0.30425689  0.27757061  1
  O2-  O259  1  0.83237786  0.29948454  0.59872111  1
  O2-  O260  1  0.82597067  0.30193392  0.93544683  1
  O2-  O261  1  0.83575979  0.78785525  0.26205404  1
  O2-  O262  1  0.83794594  0.78337369  0.59815602  1
  O2-  O263  1  0.83886941  0.79000683  0.93450481  1
  O2-  O264  1  0.41982406  0.04585835  0.07281903  1
  O2-  O265  1  0.41303733  0.05364154  0.39155068  1
  O2-  O266  1  0.42228107  0.04941612  0.73273833  1
  O2-  O267  1  0.41469626  0.53865746  0.06325448  1
  O2-  O268  1  0.41349006  0.53996582  0.39330718  1
  O2-  O269  1  0.42069658  0.53642740  0.73484516  1
  O2-  O270  1  0.91211254  0.04069445  0.06853489  1
  O2-  O271  1  0.92393426  0.04365991  0.39952279  1
  O2-  O272  1  0.91504172  0.04547216  0.72535683  1
  O2-  O273  1  0.91347951  0.54284596  0.06198013  1
  O2-  O274  1  0.91574421  0.53741643  0.40387644  1
  O2-  O275  1  0.91148480  0.54417390  0.73090931  1
  O2-  O276  1  0.29210558  0.17372017  0.06822528  1
  O2-  O277  1  0.28421921  0.16255617  0.39467393  1
  O2-  O278  1  0.29090896  0.16811502  0.73220239  1
  O2-  O279  1  0.29601597  0.66008356  0.06712598  1
  O2-  O280  1  0.29647579  0.66230235  0.39515897  1
  O2-  O281  1  0.30106275  0.67028551  0.73519324  1
  O2-  O282  1  0.78782247  0.16972043  0.06456689  1
  O2-  O283  1  0.80216820  0.17365555  0.40421779  1
  O2-  O284  1  0.79833666  0.16909991  0.72625410  1
  O2-  O285  1  0.79380323  0.66299780  0.06158786  1
  O2-  O286  1  0.79053707  0.66649143  0.39985578  1
  O2-  O287  1  0.79117126  0.66147111  0.73221046  1
