# generated using pymatgen
data_Ca2Al2SiO7
_symmetry_space_group_name_H-M   'P 1'
_cell_length_a   15.46626085
_cell_length_b   15.46767339
_cell_length_c   15.29092312
_cell_angle_alpha   90.00304270
_cell_angle_beta   89.98837798
_cell_angle_gamma   89.99592085
_symmetry_Int_Tables_number   1
_chemical_formula_structural   Ca2Al2SiO7
_chemical_formula_sum   'Ca48 Al48 Si24 O168'
_cell_volume   3658.00266622
_cell_formula_units_Z   24
loop_
 _symmetry_equiv_pos_site_id
 _symmetry_equiv_pos_as_xyz
  1  'x, y, z'
loop_
 _atom_type_symbol
 _atom_type_oxidation_number
  Ca2+  2.0
  Al0+  0.0
  Si0+  0.0
  O2-  -2.0
loop_
 _atom_site_type_symbol
 _atom_site_label
 _atom_site_symmetry_multiplicity
 _atom_site_fract_x
 _atom_site_fract_y
 _atom_site_fract_z
 _atom_site_occupancy
  Ca2+  Ca0  1  0.16611545  0.07322076  0.16858548  1
  Ca2+  Ca1  1  0.16694216  0.08249047  0.50633782  1
  Ca2+  Ca2  1  0.16539966  0.07883565  0.83954435  1
  Ca2+  Ca3  1  0.17807652  0.59415338  0.17183639  1
  Ca2+  Ca4  1  0.17130772  0.59517750  0.50059047  1
  Ca2+  Ca5  1  0.17441758  0.59337863  0.83784443  1
  Ca2+  Ca6  1  0.67593518  0.07419756  0.16751859  1
  Ca2+  Ca7  1  0.67256947  0.08014260  0.49919233  1
  Ca2+  Ca8  1  0.67307081  0.07309959  0.84501751  1
  Ca2+  Ca9  1  0.66308039  0.57788513  0.17233491  1
  Ca2+  Ca10  1  0.67237376  0.58230257  0.49977627  1
  Ca2+  Ca11  1  0.66890362  0.57555042  0.83550683  1
  Ca2+  Ca12  1  0.07262967  0.33096813  0.16062241  1
  Ca2+  Ca13  1  0.08599010  0.32436699  0.49775609  1
  Ca2+  Ca14  1  0.07503897  0.32754898  0.82996348  1
  Ca2+  Ca15  1  0.07549113  0.82957316  0.16568466  1
  Ca2+  Ca16  1  0.07249849  0.81962606  0.49714522  1
  Ca2+  Ca17  1  0.07471603  0.83226949  0.83052314  1
  Ca2+  Ca18  1  0.58346562  0.34217129  0.16355044  1
  Ca2+  Ca19  1  0.57806330  0.34650814  0.49647814  1
  Ca2+  Ca20  1  0.58158936  0.34093259  0.82969808  1
  Ca2+  Ca21  1  0.57841274  0.82072234  0.15642233  1
  Ca2+  Ca22  1  0.57704736  0.82388456  0.48707954  1
  Ca2+  Ca23  1  0.58874969  0.82686414  0.83550849  1
  Ca2+  Ca24  1  0.33503444  0.42938688  0.17367951  1
  Ca2+  Ca25  1  0.33861865  0.41983236  0.50079930  1
  Ca2+  Ca26  1  0.33139274  0.42120022  0.83888563  1
  Ca2+  Ca27  1  0.32920106  0.90216070  0.16893507  1
  Ca2+  Ca28  1  0.33173533  0.91164151  0.50279785  1
  Ca2+  Ca29  1  0.32457397  0.91312849  0.84612598  1
  Ca2+  Ca30  1  0.82333117  0.42139557  0.17478420  1
  Ca2+  Ca31  1  0.82325056  0.43173574  0.50590399  1
  Ca2+  Ca32  1  0.82526286  0.41868541  0.84090252  1
  Ca2+  Ca33  1  0.84169920  0.92323622  0.16988529  1
  Ca2+  Ca34  1  0.84462312  0.91683820  0.49982242  1
  Ca2+  Ca35  1  0.83631838  0.92003144  0.84367691  1
  Ca2+  Ca36  1  0.41906131  0.17511750  0.16580755  1
  Ca2+  Ca37  1  0.42014521  0.18117340  0.49442692  1
  Ca2+  Ca38  1  0.42060399  0.17438254  0.82516984  1
  Ca2+  Ca39  1  0.42506263  0.66492220  0.16289694  1
  Ca2+  Ca40  1  0.42389499  0.66744116  0.48614877  1
  Ca2+  Ca41  1  0.42130802  0.66573447  0.83959724  1
  Ca2+  Ca42  1  0.90498394  0.17099415  0.16047459  1
  Ca2+  Ca43  1  0.92008144  0.16460274  0.49625477  1
  Ca2+  Ca44  1  0.91555131  0.16950472  0.83421402  1
  Ca2+  Ca45  1  0.91294240  0.67393690  0.16228475  1
  Ca2+  Ca46  1  0.91747046  0.66860838  0.49035727  1
  Ca2+  Ca47  1  0.91488804  0.67927587  0.82331081  1
  Al0+  Al48  1  0.00347542  -0.00006451  0.00543292  1
  Al0+  Al49  1  0.00293925  -0.00139717  0.33635131  1
  Al0+  Al50  1  0.00176728  -0.00028621  0.66080271  1
  Al0+  Al51  1  0.00073564  0.49811011  -0.00690033  1
  Al0+  Al52  1  0.00185469  0.49593787  0.33306929  1
  Al0+  Al53  1  0.00313439  0.50027941  0.66764642  1
  Al0+  Al54  1  0.49923999  0.00195801  0.00058606  1
  Al0+  Al55  1  0.49888250  0.00344694  0.33098912  1
  Al0+  Al56  1  0.50005656  0.00334806  0.66675958  1
  Al0+  Al57  1  0.49945976  0.50123380  0.00164650  1
  Al0+  Al58  1  0.49601380  0.50037032  0.33298257  1
  Al0+  Al59  1  0.49899252  0.50221295  0.66714959  1
  Al0+  Al60  1  0.24921322  0.25030352  0.00091358  1
  Al0+  Al61  1  0.25141246  0.24840558  0.32821594  1
  Al0+  Al62  1  0.25164851  0.25159448  0.66051946  1
  Al0+  Al63  1  0.25138494  0.75073389  0.00552734  1
  Al0+  Al64  1  0.24695372  0.74999993  0.33540845  1
  Al0+  Al65  1  0.24793896  0.75213930  0.66702588  1
  Al0+  Al66  1  0.74836912  0.25025101  0.00144569  1
  Al0+  Al67  1  0.74935484  0.24658990  0.34413083  1
  Al0+  Al68  1  0.74908888  0.24797611  0.66968266  1
  Al0+  Al69  1  0.74896162  0.74849849  -0.00797078  1
  Al0+  Al70  1  0.74914281  0.75096925  0.32740411  1
  Al0+  Al71  1  0.74778052  0.75194259  0.66450229  1
  Al0+  Al72  1  0.07296598  0.67743568  0.65308847  1
  Al0+  Al73  1  0.42754052  0.82373263  0.32004293  1
  Al0+  Al74  1  0.68050121  0.43055348  0.01378584  1
  Al0+  Al75  1  0.43072748  0.32043741  0.31756783  1
  Al0+  Al76  1  0.42850868  0.82168232  0.98448688  1
  Al0+  Al77  1  0.92643897  0.32069874  0.98729563  1
  Al0+  Al78  1  0.06945316  0.18100841  0.65421786  1
  Al0+  Al79  1  0.92713151  0.81991668  0.65135855  1
  Al0+  Al80  1  0.92929179  0.82067420  0.31660374  1
  Al0+  Al81  1  0.82380393  0.57402882  0.68185098  1
  Al0+  Al82  1  0.67708879  0.92519557  0.01449797  1
  Al0+  Al83  1  0.57156625  0.67655013  0.98131788  1
  Al0+  Al84  1  0.06978558  0.67451577  0.31722258  1
  Al0+  Al85  1  0.57083373  0.67872301  0.31784068  1
  Al0+  Al86  1  0.31645798  0.57008101  0.34861701  1
  Al0+  Al87  1  0.82339586  0.57306543  0.34499539  1
  Al0+  Al88  1  0.93026287  0.82131350  0.98655739  1
  Al0+  Al89  1  0.67900510  0.43050985  0.68284547  1
  Al0+  Al90  1  0.67756232  0.42932304  0.34866035  1
  Al0+  Al91  1  0.82118125  0.06870833  0.01379967  1
  Al0+  Al92  1  0.18115567  0.93006856  0.01523756  1
  Al0+  Al93  1  0.82211327  0.06801907  0.34966051  1
  Al0+  Al94  1  0.31810922  0.56865446  0.01377799  1
  Al0+  Al95  1  0.43206718  0.32183232  0.65358220  1
  Si0+  Si96  1  0.42815988  0.82378466  0.65436584  1
  Si0+  Si97  1  0.56820572  0.68089786  0.65079591  1
  Si0+  Si98  1  0.18120501  0.93021469  0.35276947  1
  Si0+  Si99  1  0.07293234  0.67819970  0.98415539  1
  Si0+  Si100  1  0.07175747  0.17792653  0.31733893  1
  Si0+  Si101  1  0.31875176  0.57230962  0.68203516  1
  Si0+  Si102  1  0.82504455  0.57209685  0.01321825  1
  Si0+  Si103  1  0.67578888  0.92856320  0.34864017  1
  Si0+  Si104  1  0.57057025  0.17964469  0.98492458  1
  Si0+  Si105  1  0.32316379  0.07601250  0.01745178  1
  Si0+  Si106  1  0.17825737  0.42279728  0.35046153  1
  Si0+  Si107  1  0.32093288  0.07334740  0.68092044  1
  Si0+  Si108  1  0.32155847  0.07389165  0.34994422  1
  Si0+  Si109  1  0.92792649  0.31721808  0.32151175  1
  Si0+  Si110  1  0.42857613  0.32082538  0.98523593  1
  Si0+  Si111  1  0.17583872  0.42496791  0.01639824  1
  Si0+  Si112  1  0.18036439  0.42470825  0.68159308  1
  Si0+  Si113  1  0.18106809  0.93156297  0.68250296  1
  Si0+  Si114  1  0.82331135  0.06833940  0.68181034  1
  Si0+  Si115  1  0.07288108  0.17866890  0.98507267  1
  Si0+  Si116  1  0.92502506  0.32226458  0.64965243  1
  Si0+  Si117  1  0.57453082  0.17791846  0.31518080  1
  Si0+  Si118  1  0.57323499  0.17602922  0.64893810  1
  Si0+  Si119  1  0.67547451  0.93064482  0.68024204  1
  O2-  O120  1  0.25899254  0.00306007  0.06114998  1
  O2-  O121  1  0.25611477  -0.00135623  0.39388525  1
  O2-  O122  1  0.25319406  0.00122654  0.72560210  1
  O2-  O123  1  0.24123758  0.49590984  0.06032084  1
  O2-  O124  1  0.24164618  0.49553326  0.39618201  1
  O2-  O125  1  0.24526002  0.50235469  0.72282235  1
  O2-  O126  1  0.75443915  -0.00805466  0.06399988  1
  O2-  O127  1  0.74883052  -0.00851647  0.39614229  1
  O2-  O128  1  0.75087721  -0.00202696  0.72181318  1
  O2-  O129  1  0.75628100  0.50427887  0.05843237  1
  O2-  O130  1  0.74936785  0.50297974  0.39577550  1
  O2-  O131  1  0.75601749  0.49745285  0.73238490  1
  O2-  O132  1  -0.00135106  0.24656253  0.27659534  1
  O2-  O133  1  -0.00485882  0.25458682  0.60494323  1
  O2-  O134  1  0.00296337  0.24635495  0.94185204  1
  O2-  O135  1  -0.00637327  0.74157506  0.26705483  1
  O2-  O136  1  -0.00841431  0.73933384  0.60438878  1
  O2-  O137  1  0.00047520  0.74227143  0.93949408  1
  O2-  O138  1  0.50978925  0.25045424  0.27095119  1
  O2-  O139  1  0.51036866  0.25081577  0.60663841  1
  O2-  O140  1  0.49735180  0.24860995  0.94212352  1
  O2-  O141  1  0.50125434  0.75456121  0.27028101  1
  O2-  O142  1  0.49864677  0.75439300  0.61054072  1
  O2-  O143  1  0.50286974  0.75368253  0.93216475  1
  O2-  O144  1  0.07696417  0.18088962  0.09051035  1
  O2-  O145  1  0.07340560  0.17922772  0.42279376  1
  O2-  O146  1  0.06958572  0.18066849  0.76713904  1
  O2-  O147  1  0.07276863  0.67889614  0.08938047  1
  O2-  O148  1  0.07154893  0.67969229  0.43075215  1
  O2-  O149  1  0.08196222  0.68724067  0.76606858  1
  O2-  O150  1  0.57017536  0.18087837  0.08977609  1
  O2-  O151  1  0.57078618  0.17401045  0.42088919  1
  O2-  O152  1  0.56877402  0.16988659  0.75427764  1
  O2-  O153  1  0.56770754  0.67216431  0.09406443  1
  O2-  O154  1  0.56799161  0.67992239  0.43257280  1
  O2-  O155  1  0.56694762  0.67979561  0.75556968  1
  O2-  O156  1  0.18113499  0.41727931  0.24519361  1
  O2-  O157  1  0.18487825  0.41757948  0.57712630  1
  O2-  O158  1  0.17932374  0.42005358  0.91065816  1
  O2-  O159  1  0.18003987  0.93290509  0.24782547  1
  O2-  O160  1  0.18399061  0.93266738  0.57751340  1
  O2-  O161  1  0.18077771  0.93361667  0.90143602  1
  O2-  O162  1  0.68091547  0.42747667  0.23501846  1
  O2-  O163  1  0.67650836  0.43457378  0.56986603  1
  O2-  O164  1  0.67997610  0.42967697  0.90067021  1
  O2-  O165  1  0.67296991  0.93400026  0.24394235  1
  O2-  O166  1  0.66925634  0.93419208  0.57554137  1
  O2-  O167  1  0.67771863  0.93132867  0.89999482  1
  O2-  O168  1  0.42812399  0.31904999  0.09001770  1
  O2-  O169  1  0.42879768  0.31763453  0.43081195  1
  O2-  O170  1  0.42955098  0.31874827  0.76708513  1
  O2-  O171  1  0.42798180  0.81749536  0.09726663  1
  O2-  O172  1  0.42959694  0.82241612  0.43506704  1
  O2-  O173  1  0.42747500  0.82429976  0.75889369  1
  O2-  O174  1  0.92777451  0.31899646  0.10068859  1
  O2-  O175  1  0.93138768  0.31433280  0.42653899  1
  O2-  O176  1  0.92580266  0.31805147  0.75535811  1
  O2-  O177  1  0.93328330  0.82261998  0.09898353  1
  O2-  O178  1  0.93468010  0.82389864  0.43002775  1
  O2-  O179  1  0.93177924  0.82544783  0.76497698  1
  O2-  O180  1  0.31704206  0.07880918  0.24533924  1
  O2-  O181  1  0.32017133  0.07189113  0.57589903  1
  O2-  O182  1  0.31955950  0.08112265  0.91152108  1
  O2-  O183  1  0.31643086  0.56820257  0.23587320  1
  O2-  O184  1  0.31978519  0.57309965  0.57726167  1
  O2-  O185  1  0.31711883  0.56641010  0.89964948  1
  O2-  O186  1  0.82173585  0.07045536  0.23716585  1
  O2-  O187  1  0.82359060  0.06806732  0.57672259  1
  O2-  O188  1  0.82008542  0.06989293  0.89951478  1
  O2-  O189  1  0.82568320  0.56792701  0.23151900  1
  O2-  O190  1  0.81948190  0.57413983  0.56841285  1
  O2-  O191  1  0.82536786  0.56871352  0.90760972  1
  O2-  O192  1  0.04618697  0.08533514  0.27220480  1
  O2-  O193  1  0.04081141  0.08556012  0.59697915  1
  O2-  O194  1  0.04831084  0.08518311  0.93949228  1
  O2-  O195  1  0.05530422  0.57165574  0.26793775  1
  O2-  O196  1  0.06286796  0.57343102  0.60568444  1
  O2-  O197  1  0.05656305  0.58217772  0.93850843  1
  O2-  O198  1  0.54327029  0.08750770  0.26624816  1
  O2-  O199  1  0.54043037  0.08612287  0.59851945  1
  O2-  O200  1  0.54418105  0.08829404  0.93549519  1
  O2-  O201  1  0.53628821  0.58237816  0.26599825  1
  O2-  O202  1  0.53604926  0.59100383  0.60332918  1
  O2-  O203  1  0.53388309  0.58055093  0.92708568  1
  O2-  O204  1  0.16204885  0.20660033  0.26822828  1
  O2-  O205  1  0.16543902  0.21176601  0.59794610  1
  O2-  O206  1  0.16580575  0.20553399  0.93655516  1
  O2-  O207  1  0.16554164  0.71296687  0.26575230  1
  O2-  O208  1  0.16761633  0.71719406  0.59710419  1
  O2-  O209  1  0.16514365  0.70999603  0.93924934  1
  O2-  O210  1  0.67049968  0.19928673  0.27350386  1
  O2-  O211  1  0.66946745  0.19445219  0.60592864  1
  O2-  O212  1  0.66053322  0.20943099  0.93552490  1
  O2-  O213  1  0.66938737  0.70140667  0.26399473  1
  O2-  O214  1  0.65957353  0.70806573  0.60309449  1
  O2-  O215  1  0.66964156  0.70058719  0.92507251  1
  O2-  O216  1  0.08018550  0.44672945  0.05927955  1
  O2-  O217  1  0.08281549  0.44030517  0.39551371  1
  O2-  O218  1  0.08596068  0.44307350  0.72768058  1
  O2-  O219  1  0.08834494  0.96458823  0.07337949  1
  O2-  O220  1  0.09261890  0.96411016  0.40216702  1
  O2-  O221  1  0.08959567  0.96293829  0.72809420  1
  O2-  O222  1  0.58338999  0.46046550  0.06626359  1
  O2-  O223  1  0.57827397  0.45775546  0.39884324  1
  O2-  O224  1  0.58070134  0.46353168  0.73524392  1
  O2-  O225  1  0.58006908  0.95940309  0.06667195  1
  O2-  O226  1  0.58373812  0.96037835  0.39698525  1
  O2-  O227  1  0.58588365  0.96280130  0.73071179  1
  O2-  O228  1  0.20283130  0.33253826  0.06464587  1
  O2-  O229  1  0.21027415  0.33058537  0.39763027  1
  O2-  O230  1  0.21593556  0.33633731  0.73199872  1
  O2-  O231  1  0.21071551  0.83472448  0.07111191  1
  O2-  O232  1  0.20682964  0.83885976  0.40162509  1
  O2-  O233  1  0.20920868  0.84057354  0.73104557  1
  O2-  O234  1  0.70870532  0.33363583  0.06754438  1
  O2-  O235  1  0.70407333  0.33095602  0.40327401  1
  O2-  O236  1  0.69975264  0.32773809  0.73202612  1
  O2-  O237  1  0.69717517  0.82284133  0.06021899  1
  O2-  O238  1  0.69520959  0.83277879  0.39178008  1
  O2-  O239  1  0.69788978  0.83722008  0.72549979  1
  O2-  O240  1  0.45608058  0.41746396  0.26397893  1
  O2-  O241  1  0.45893722  0.41967880  0.60009302  1
  O2-  O242  1  0.45789578  0.41135002  0.93751328  1
  O2-  O243  1  0.44674056  0.92544922  0.27023298  1
  O2-  O244  1  0.45320981  0.91706301  0.60767100  1
  O2-  O245  1  0.44746437  0.92471093  0.93560058  1
  O2-  O246  1  0.95485600  0.40783593  0.27230898  1
  O2-  O247  1  0.94999754  0.41679312  0.60664137  1
  O2-  O248  1  0.95787366  0.41503216  0.92835810  1
  O2-  O249  1  0.96858860  0.91757618  0.26623211  1
  O2-  O250  1  0.96513778  0.91483502  0.59702492  1
  O2-  O251  1  0.96623182  0.91816259  0.93478846  1
  O2-  O252  1  0.33631977  0.28347491  0.26260841  1
  O2-  O253  1  0.33843002  0.28672248  0.59702337  1
  O2-  O254  1  0.33545549  0.29429630  0.93852863  1
  O2-  O255  1  0.32844284  0.79446153  0.27178095  1
  O2-  O256  1  0.33618270  0.79626514  0.60756876  1
  O2-  O257  1  0.33037370  0.78845649  0.93184808  1
  O2-  O258  1  0.83575607  0.28668923  0.27693320  1
  O2-  O259  1  0.83199764  0.29387400  0.60425314  1
  O2-  O260  1  0.83173078  0.28661309  0.93154977  1
  O2-  O261  1  0.82795286  0.80489904  0.26615594  1
  O2-  O262  1  0.82524825  0.80348169  0.60054060  1
  O2-  O263  1  0.83296813  0.79658330  0.93115199  1
  O2-  O264  1  0.41840889  0.05800032  0.06154597  1
  O2-  O265  1  0.41555912  0.05323587  0.39633377  1
  O2-  O266  1  0.41397902  0.04934454  0.72808742  1
  O2-  O267  1  0.41277012  0.53409442  0.06740112  1
  O2-  O268  1  0.41214446  0.53765282  0.40322652  1
  O2-  O269  1  0.40925065  0.54215919  0.73003493  1
  O2-  O270  1  0.92123557  0.04842458  0.06635303  1
  O2-  O271  1  0.92021670  0.03928088  0.40336578  1
  O2-  O272  1  0.91560908  0.04017504  0.72790112  1
  O2-  O273  1  0.91980186  0.54712019  0.05715560  1
  O2-  O274  1  0.92145198  0.54090843  0.39864099  1
  O2-  O275  1  0.92623603  0.55375029  0.73115652  1
  O2-  O276  1  0.29228581  0.16734967  0.06640783  1
  O2-  O277  1  0.28716856  0.16312857  0.39934614  1
  O2-  O278  1  0.29073538  0.16452120  0.72803008  1
  O2-  O279  1  0.28973866  0.66461330  0.06858932  1
  O2-  O280  1  0.28652594  0.66691338  0.40405598  1
  O2-  O281  1  0.29101013  0.66452028  0.72964924  1
  O2-  O282  1  0.78587053  0.16502586  0.06644977  1
  O2-  O283  1  0.79037515  0.16192733  0.40894399  1
  O2-  O284  1  0.79727519  0.16078073  0.72890718  1
  O2-  O285  1  0.80040815  0.66677487  0.05546745  1
  O2-  O286  1  0.79723773  0.67345159  0.39561259  1
  O2-  O287  1  0.79020673  0.67238095  0.73290305  1
