# generated using pymatgen
data_Ca2Al2SiO7
_symmetry_space_group_name_H-M   'P 1'
_cell_length_a   15.47038661
_cell_length_b   15.46803545
_cell_length_c   15.29247712
_cell_angle_alpha   89.99912217
_cell_angle_beta   90.00855571
_cell_angle_gamma   89.98155644
_symmetry_Int_Tables_number   1
_chemical_formula_structural   Ca2Al2SiO7
_chemical_formula_sum   'Ca48 Al48 Si24 O168'
_cell_volume   3659.43584582
_cell_formula_units_Z   24
loop_
 _symmetry_equiv_pos_site_id
 _symmetry_equiv_pos_as_xyz
  1  'x, y, z'
loop_
 _atom_type_symbol
 _atom_type_oxidation_number
  Ca2+  2.0
  Al0+  0.0
  Si0+  0.0
  O2-  -2.0
loop_
 _atom_site_type_symbol
 _atom_site_label
 _atom_site_symmetry_multiplicity
 _atom_site_fract_x
 _atom_site_fract_y
 _atom_site_fract_z
 _atom_site_occupancy
  Ca2+  Ca0  1  0.16042837  0.07789767  0.16664044  1
  Ca2+  Ca1  1  0.15413668  0.07391995  0.50288590  1
  Ca2+  Ca2  1  0.16596825  0.07473602  0.84247250  1
  Ca2+  Ca3  1  0.16478000  0.57409413  0.16519170  1
  Ca2+  Ca4  1  0.16791326  0.57672695  0.51400124  1
  Ca2+  Ca5  1  0.16720896  0.57536489  0.83542208  1
  Ca2+  Ca6  1  0.67268395  0.08847117  0.17153784  1
  Ca2+  Ca7  1  0.67708181  0.08337393  0.50224770  1
  Ca2+  Ca8  1  0.66640620  0.08378092  0.84155478  1
  Ca2+  Ca9  1  0.67487556  0.58246636  0.16519937  1
  Ca2+  Ca10  1  0.67318130  0.58841290  0.50315406  1
  Ca2+  Ca11  1  0.67074421  0.58647940  0.84407897  1
  Ca2+  Ca12  1  0.07614162  0.32400559  0.15593382  1
  Ca2+  Ca13  1  0.08440003  0.32290092  0.49308838  1
  Ca2+  Ca14  1  0.09362852  0.32496267  0.83122283  1
  Ca2+  Ca15  1  0.08186486  0.83847242  0.16621300  1
  Ca2+  Ca16  1  0.08802370  0.82887319  0.49599565  1
  Ca2+  Ca17  1  0.09045371  0.82909361  0.82712661  1
  Ca2+  Ca18  1  0.57833794  0.32934957  0.15299812  1
  Ca2+  Ca19  1  0.58002236  0.33481948  0.49733212  1
  Ca2+  Ca20  1  0.58160684  0.33458101  0.83847436  1
  Ca2+  Ca21  1  0.57634994  0.82827298  0.15381047  1
  Ca2+  Ca22  1  0.57676819  0.82884678  0.50107527  1
  Ca2+  Ca23  1  0.57038211  0.82278544  0.83087353  1
  Ca2+  Ca24  1  0.32652001  0.40551530  0.16276215  1
  Ca2+  Ca25  1  0.32465061  0.42405120  0.51116639  1
  Ca2+  Ca26  1  0.32586713  0.41884446  0.83828359  1
  Ca2+  Ca27  1  0.32532626  0.91934872  0.16513087  1
  Ca2+  Ca28  1  0.32187785  0.91676697  0.50857031  1
  Ca2+  Ca29  1  0.32709622  0.91580630  0.84142430  1
  Ca2+  Ca30  1  0.83626620  0.42117098  0.16743710  1
  Ca2+  Ca31  1  0.83860734  0.41995574  0.49922691  1
  Ca2+  Ca32  1  0.82795541  0.42268660  0.84769163  1
  Ca2+  Ca33  1  0.83465513  0.92386684  0.17615248  1
  Ca2+  Ca34  1  0.84403457  0.92273420  0.49826341  1
  Ca2+  Ca35  1  0.83135681  0.91896266  0.83928888  1
  Ca2+  Ca36  1  0.42280238  0.16711675  0.15180477  1
  Ca2+  Ca37  1  0.41717058  0.16798908  0.49832990  1
  Ca2+  Ca38  1  0.41163257  0.16916666  0.84012299  1
  Ca2+  Ca39  1  0.42387100  0.67385987  0.15379967  1
  Ca2+  Ca40  1  0.41311949  0.66843073  0.50298366  1
  Ca2+  Ca41  1  0.41771939  0.67369063  0.82453988  1
  Ca2+  Ca42  1  0.92259829  0.17428132  0.16273383  1
  Ca2+  Ca43  1  0.92714157  0.17156602  0.48987018  1
  Ca2+  Ca44  1  0.92891151  0.17508304  0.83316326  1
  Ca2+  Ca45  1  0.90820934  0.67058041  0.16436255  1
  Ca2+  Ca46  1  0.92287772  0.67114563  0.49433006  1
  Ca2+  Ca47  1  0.92222662  0.66472936  0.83101785  1
  Al0+  Al48  1  -0.00199909  0.00041831  -0.00012642  1
  Al0+  Al49  1  -0.00017647  -0.00194132  0.33459789  1
  Al0+  Al50  1  -0.00065221  0.00322903  0.66995321  1
  Al0+  Al51  1  -0.00056526  0.50264442  0.00603835  1
  Al0+  Al52  1  0.00015864  0.49999062  0.33593006  1
  Al0+  Al53  1  -0.00242649  0.50023231  0.66753729  1
  Al0+  Al54  1  0.49868472  -0.00168154  -0.00462195  1
  Al0+  Al55  1  0.49874221  -0.00100355  0.33456840  1
  Al0+  Al56  1  0.50160468  -0.00005264  0.66167406  1
  Al0+  Al57  1  0.50230318  0.49929927  -0.00253169  1
  Al0+  Al58  1  0.50060571  0.49998153  0.33287848  1
  Al0+  Al59  1  0.50167267  0.49953645  0.66473038  1
  Al0+  Al60  1  0.25163456  0.24805627  0.00048288  1
  Al0+  Al61  1  0.25153330  0.24830006  0.33129560  1
  Al0+  Al62  1  0.25118185  0.24761528  0.66265407  1
  Al0+  Al63  1  0.24711524  0.75018058  0.00252178  1
  Al0+  Al64  1  0.25126500  0.74990627  0.33458408  1
  Al0+  Al65  1  0.24941173  0.75028888  0.66487287  1
  Al0+  Al66  1  0.75063949  0.25144287  -0.00358202  1
  Al0+  Al67  1  0.74934361  0.25029681  0.33697209  1
  Al0+  Al68  1  0.75132709  0.25060880  0.66635806  1
  Al0+  Al69  1  0.75008564  0.75236394  -0.00015227  1
  Al0+  Al70  1  0.74948564  0.74833716  0.33495584  1
  Al0+  Al71  1  0.74822606  0.75210568  0.66363258  1
  Al0+  Al72  1  0.57255653  0.67942554  0.98636903  1
  Al0+  Al73  1  0.92993645  0.32458379  0.98476418  1
  Al0+  Al74  1  0.81986043  0.07095945  0.34729305  1
  Al0+  Al75  1  0.07197557  0.17993202  0.65191963  1
  Al0+  Al76  1  0.18005997  0.42818229  0.01392684  1
  Al0+  Al77  1  0.82140038  0.57143022  0.34990153  1
  Al0+  Al78  1  0.32128100  0.06932681  0.01447854  1
  Al0+  Al79  1  0.17723809  0.42679763  0.68076763  1
  Al0+  Al80  1  0.82137047  0.57363230  0.01541077  1
  Al0+  Al81  1  0.92970424  0.81828070  0.32066236  1
  Al0+  Al82  1  0.07189731  0.17773958  0.31647102  1
  Al0+  Al83  1  0.32172795  0.57087309  0.68141378  1
  Al0+  Al84  1  0.06956604  0.67874399  0.65493220  1
  Al0+  Al85  1  0.67828021  0.42804633  0.01516757  1
  Al0+  Al86  1  0.17581351  0.92718706  0.01672187  1
  Al0+  Al87  1  0.57161155  0.67717297  0.64921622  1
  Al0+  Al88  1  0.42557188  0.81972745  0.98511695  1
  Al0+  Al89  1  0.57258484  0.17789299  0.98562390  1
  Al0+  Al90  1  0.42768676  0.32199787  0.98401149  1
  Al0+  Al91  1  0.92794950  0.32302447  0.31785599  1
  Al0+  Al92  1  0.18044758  0.92991342  0.34856500  1
  Al0+  Al93  1  0.42771682  0.82150872  0.64920565  1
  Al0+  Al94  1  0.17875316  0.93092213  0.68033429  1
  Al0+  Al95  1  0.07071995  0.17857230  0.98398377  1
  Si0+  Si96  1  0.57439879  0.17929172  0.64954805  1
  Si0+  Si97  1  0.67679494  0.42938029  0.35175845  1
  Si0+  Si98  1  0.07464423  0.67735081  0.31616670  1
  Si0+  Si99  1  0.92725229  0.82326296  0.65173253  1
  Si0+  Si100  1  0.82017119  0.07190970  0.68396371  1
  Si0+  Si101  1  0.18013410  0.42766304  0.34771379  1
  Si0+  Si102  1  0.32444226  0.07240184  0.35155621  1
  Si0+  Si103  1  0.57057844  0.67876148  0.31712538  1
  Si0+  Si104  1  0.92645912  0.32139038  0.64967253  1
  Si0+  Si105  1  0.32609200  0.07151859  0.68290618  1
  Si0+  Si106  1  0.43016249  0.32001550  0.65025326  1
  Si0+  Si107  1  0.67942688  0.93022172  0.01338917  1
  Si0+  Si108  1  0.43051187  0.32156442  0.31955886  1
  Si0+  Si109  1  0.92842439  0.82200832  0.98603565  1
  Si0+  Si110  1  0.07033910  0.67914849  0.98674945  1
  Si0+  Si111  1  0.81899981  0.57304136  0.68133353  1
  Si0+  Si112  1  0.81985488  0.07171064  0.01445616  1
  Si0+  Si113  1  0.57003696  0.17831863  0.32106933  1
  Si0+  Si114  1  0.67993000  0.42752898  0.68121284  1
  Si0+  Si115  1  0.32222877  0.57216138  0.01570170  1
  Si0+  Si116  1  0.67868155  0.93009799  0.68237246  1
  Si0+  Si117  1  0.67576783  0.92722594  0.35077887  1
  Si0+  Si118  1  0.42840695  0.82068766  0.31712519  1
  Si0+  Si119  1  0.32209918  0.56972054  0.34656526  1
  O2-  O120  1  0.24726268  0.00033859  0.06555356  1
  O2-  O121  1  0.25340433  0.00662551  0.39553624  1
  O2-  O122  1  0.25638848  0.00329270  0.72496987  1
  O2-  O123  1  0.25754981  0.50042146  0.06197515  1
  O2-  O124  1  0.24946295  0.50067286  0.38918243  1
  O2-  O125  1  0.24837739  0.49998181  0.73031811  1
  O2-  O126  1  0.74547143  0.00443973  0.05709566  1
  O2-  O127  1  0.74569606  -0.00502625  0.39525139  1
  O2-  O128  1  0.74975022  0.00030563  0.72602253  1
  O2-  O129  1  0.75097525  0.49947382  0.06467990  1
  O2-  O130  1  0.74793978  0.49499434  0.39694416  1
  O2-  O131  1  0.74739332  0.50222202  0.72194810  1
  O2-  O132  1  0.00124071  0.25218152  0.26878661  1
  O2-  O133  1  0.00013127  0.25800888  0.60608283  1
  O2-  O134  1  0.00507264  0.25665696  0.93368573  1
  O2-  O135  1  0.00334512  0.74352162  0.27210688  1
  O2-  O136  1  -0.00299759  0.75566876  0.60814925  1
  O2-  O137  1  0.00029671  0.75196568  0.94527749  1
  O2-  O138  1  0.49901895  0.24806874  0.27877996  1
  O2-  O139  1  0.50196212  0.24899412  0.60753347  1
  O2-  O140  1  0.50110430  0.25013514  0.93505967  1
  O2-  O141  1  0.50119758  0.75138182  0.27554594  1
  O2-  O142  1  0.49735871  0.74668086  0.59840654  1
  O2-  O143  1  0.49366468  0.74331384  0.93659768  1
  O2-  O144  1  0.06553177  0.17634454  0.09728208  1
  O2-  O145  1  0.07081054  0.18001677  0.43058730  1
  O2-  O146  1  0.07008526  0.17814979  0.76436430  1
  O2-  O147  1  0.07128464  0.67871290  0.09192354  1
  O2-  O148  1  0.07548402  0.67833255  0.42194834  1
  O2-  O149  1  0.06594358  0.67760434  0.76801470  1
  O2-  O150  1  0.57259804  0.17753742  0.09992133  1
  O2-  O151  1  0.56905268  0.17934815  0.42670314  1
  O2-  O152  1  0.57835181  0.17964361  0.75363169  1
  O2-  O153  1  0.57305016  0.68474050  0.10073650  1
  O2-  O154  1  0.56891567  0.67794577  0.42211506  1
  O2-  O155  1  0.57499583  0.68048519  0.76187591  1
  O2-  O156  1  0.18203572  0.42726997  0.24279016  1
  O2-  O157  1  0.18041617  0.42748015  0.56619892  1
  O2-  O158  1  0.18005266  0.43117020  0.90122602  1
  O2-  O159  1  0.18317798  0.92760077  0.23617395  1
  O2-  O160  1  0.17745885  0.93277694  0.56695596  1
  O2-  O161  1  0.17515215  0.92686479  0.90321741  1
  O2-  O162  1  0.67115738  0.43075050  0.24733435  1
  O2-  O163  1  0.68214011  0.42418498  0.57576334  1
  O2-  O164  1  0.68133655  0.42796345  0.90108170  1
  O2-  O165  1  0.67345516  0.92961411  0.24524278  1
  O2-  O166  1  0.67905095  0.93214032  0.57709439  1
  O2-  O167  1  0.68454180  0.92937591  0.90814588  1
  O2-  O168  1  0.42963282  0.31916604  0.09849267  1
  O2-  O169  1  0.43229504  0.32242829  0.42513217  1
  O2-  O170  1  0.43042275  0.32004176  0.75434632  1
  O2-  O171  1  0.42927887  0.81912290  0.09972382  1
  O2-  O172  1  0.42875847  0.82026100  0.42197512  1
  O2-  O173  1  0.43088983  0.82299727  0.76205636  1
  O2-  O174  1  0.93001063  0.32128756  0.09824084  1
  O2-  O175  1  0.93028446  0.32170678  0.43209078  1
  O2-  O176  1  0.92035437  0.31801770  0.75437727  1
  O2-  O177  1  0.92600243  0.82240129  0.09101779  1
  O2-  O178  1  0.93151518  0.81741046  0.43393145  1
  O2-  O179  1  0.92409623  0.82186678  0.75746613  1
  O2-  O180  1  0.33155441  0.07070533  0.24706674  1
  O2-  O181  1  0.32836744  0.07112740  0.57684904  1
  O2-  O182  1  0.32136529  0.06700904  0.90076198  1
  O2-  O183  1  0.32385957  0.56898688  0.24174003  1
  O2-  O184  1  0.32054294  0.56666263  0.56668759  1
  O2-  O185  1  0.31772594  0.57407602  0.91059862  1
  O2-  O186  1  0.81578752  0.07011641  0.23430948  1
  O2-  O187  1  0.81850608  0.07162833  0.57870305  1
  O2-  O188  1  0.82036205  0.06744890  0.90901083  1
  O2-  O189  1  0.81642006  0.57463242  0.23787612  1
  O2-  O190  1  0.81900439  0.57279362  0.57610018  1
  O2-  O191  1  0.81983056  0.57660245  0.90135923  1
  O2-  O192  1  0.04105862  0.07938592  0.26716311  1
  O2-  O193  1  0.03371708  0.08481239  0.59886348  1
  O2-  O194  1  0.03473253  0.08195216  0.93108177  1
  O2-  O195  1  0.05155330  0.58231822  0.27306606  1
  O2-  O196  1  0.03688765  0.58281244  0.59916894  1
  O2-  O197  1  0.04070029  0.58888531  0.93846592  1
  O2-  O198  1  0.54470906  0.08547075  0.27466443  1
  O2-  O199  1  0.54843144  0.08785906  0.60043179  1
  O2-  O200  1  0.54537629  0.07988032  0.93143510  1
  O2-  O201  1  0.54060620  0.58732226  0.27051683  1
  O2-  O202  1  0.54828905  0.57715869  0.59598361  1
  O2-  O203  1  0.55587831  0.57826914  0.93726629  1
  O2-  O204  1  0.17249524  0.20300256  0.26657528  1
  O2-  O205  1  0.16966311  0.20462011  0.59615529  1
  O2-  O206  1  0.17100831  0.20158950  0.93456003  1
  O2-  O207  1  0.16755351  0.70509110  0.26968151  1
  O2-  O208  1  0.16569998  0.70634249  0.59903335  1
  O2-  O209  1  0.16143951  0.70595334  0.93846079  1
  O2-  O210  1  0.66201017  0.20533528  0.27526683  1
  O2-  O211  1  0.66492641  0.21034093  0.60012756  1
  O2-  O212  1  0.67028538  0.20464304  0.93067332  1
  O2-  O213  1  0.66274312  0.70524592  0.27145635  1
  O2-  O214  1  0.66832333  0.71233103  0.59448426  1
  O2-  O215  1  0.66756871  0.71705591  0.93209707  1
  O2-  O216  1  0.08608594  0.46353183  0.07007954  1
  O2-  O217  1  0.08832171  0.45312286  0.39555362  1
  O2-  O218  1  0.07753629  0.45301878  0.73153379  1
  O2-  O219  1  0.07642834  0.95656446  0.06836253  1
  O2-  O220  1  0.08294946  0.95718975  0.40234018  1
  O2-  O221  1  0.08193980  0.96131877  0.73453850  1
  O2-  O222  1  0.57900258  0.45377482  0.06874669  1
  O2-  O223  1  0.58425455  0.45900512  0.40047405  1
  O2-  O224  1  0.58631103  0.44992703  0.72576634  1
  O2-  O225  1  0.58601041  0.95231433  0.05901047  1
  O2-  O226  1  0.58326053  0.95541220  0.39887866  1
  O2-  O227  1  0.58738504  0.95996469  0.72859341  1
  O2-  O228  1  0.21030783  0.33197095  0.06860408  1
  O2-  O229  1  0.21076236  0.33618888  0.39496743  1
  O2-  O230  1  0.21042388  0.32836698  0.73003585  1
  O2-  O231  1  0.20320389  0.82889843  0.07114870  1
  O2-  O232  1  0.21340112  0.83257162  0.40171465  1
  O2-  O233  1  0.20593730  0.83257811  0.73117939  1
  O2-  O234  1  0.70574680  0.32847648  0.06705374  1
  O2-  O235  1  0.69860729  0.33480310  0.39838264  1
  O2-  O236  1  0.71015651  0.33665032  0.72897967  1
  O2-  O237  1  0.71157952  0.84146306  0.06377361  1
  O2-  O238  1  0.69996994  0.83339424  0.39606010  1
  O2-  O239  1  0.70725928  0.83842081  0.72921282  1
  O2-  O240  1  0.45982601  0.41225799  0.27162727  1
  O2-  O241  1  0.45950068  0.41050080  0.60052901  1
  O2-  O242  1  0.45470476  0.42025100  0.93091039  1
  O2-  O243  1  0.45565114  0.91347139  0.27151827  1
  O2-  O244  1  0.46149282  0.91867000  0.59432622  1
  O2-  O245  1  0.45809931  0.91502921  0.93049568  1
  O2-  O246  1  0.95362018  0.42326591  0.26828945  1
  O2-  O247  1  0.94574864  0.41745430  0.60655895  1
  O2-  O248  1  0.95200512  0.42640122  0.93682028  1
  O2-  O249  1  0.95868484  0.91484405  0.26682120  1
  O2-  O250  1  0.95155471  0.91816124  0.60839820  1
  O2-  O251  1  0.95315715  0.91346978  0.93689527  1
  O2-  O252  1  0.33823251  0.29644048  0.27304062  1
  O2-  O253  1  0.34030058  0.29087164  0.59924626  1
  O2-  O254  1  0.33092513  0.29173970  0.92987363  1
  O2-  O255  1  0.33782975  0.79033141  0.26965757  1
  O2-  O256  1  0.32964113  0.79389553  0.59532471  1
  O2-  O257  1  0.32569249  0.79412737  0.93495888  1
  O2-  O258  1  0.82762731  0.29424393  0.26948581  1
  O2-  O259  1  0.83536589  0.28995319  0.60003314  1
  O2-  O260  1  0.83352870  0.29241253  0.93083328  1
  O2-  O261  1  0.83106101  0.79056085  0.26802547  1
  O2-  O262  1  0.83460357  0.79804396  0.60365768  1
  O2-  O263  1  0.83786446  0.79398666  0.93620008  1
  O2-  O264  1  0.42032488  0.03884313  0.06721098  1
  O2-  O265  1  0.41715953  0.04479114  0.40068461  1
  O2-  O266  1  0.42098792  0.04787837  0.72702751  1
  O2-  O267  1  0.41798195  0.55159188  0.05891123  1
  O2-  O268  1  0.41290851  0.53968395  0.39544266  1
  O2-  O269  1  0.42118157  0.54186609  0.73119312  1
  O2-  O270  1  0.90875047  0.03876099  0.06329880  1
  O2-  O271  1  0.91488911  0.03768958  0.40271045  1
  O2-  O272  1  0.91052968  0.04436359  0.73313238  1
  O2-  O273  1  0.91943631  0.55057071  0.07093295  1
  O2-  O274  1  0.91946595  0.54382923  0.40416530  1
  O2-  O275  1  0.91021051  0.54566206  0.72929597  1
  O2-  O276  1  0.29922172  0.16891847  0.06736143  1
  O2-  O277  1  0.30240118  0.16795490  0.39644550  1
  O2-  O278  1  0.30135446  0.16604408  0.72586390  1
  O2-  O279  1  0.29200231  0.66332019  0.06492050  1
  O2-  O280  1  0.29692011  0.66216227  0.39380307  1
  O2-  O281  1  0.29512451  0.66998189  0.73125852  1
  O2-  O282  1  0.79445701  0.16386795  0.06073421  1
  O2-  O283  1  0.78683105  0.16588357  0.40472768  1
  O2-  O284  1  0.78932774  0.16313405  0.73012714  1
  O2-  O285  1  0.78895958  0.67181458  0.06848582  1
  O2-  O286  1  0.78763082  0.66707282  0.40539849  1
  O2-  O287  1  0.79208146  0.66600550  0.72687017  1
