# generated using pymatgen
data_Ca2Al2SiO7
_symmetry_space_group_name_H-M   'P 1'
_cell_length_a   15.45650241
_cell_length_b   15.45678971
_cell_length_c   15.28315470
_cell_angle_alpha   89.99569563
_cell_angle_beta   90.00528414
_cell_angle_gamma   89.99859232
_symmetry_Int_Tables_number   1
_chemical_formula_structural   Ca2Al2SiO7
_chemical_formula_sum   'Ca48 Al48 Si24 O168'
_cell_volume   3651.26648232
_cell_formula_units_Z   24
loop_
 _symmetry_equiv_pos_site_id
 _symmetry_equiv_pos_as_xyz
  1  'x, y, z'
loop_
 _atom_type_symbol
 _atom_type_oxidation_number
  Ca2+  2.0
  Al0+  0.0
  Si0+  0.0
  O2-  -2.0
loop_
 _atom_site_type_symbol
 _atom_site_label
 _atom_site_symmetry_multiplicity
 _atom_site_fract_x
 _atom_site_fract_y
 _atom_site_fract_z
 _atom_site_occupancy
  Ca2+  Ca0  1  0.17281833  0.08457214  0.17434838  1
  Ca2+  Ca1  1  0.16052837  0.07288428  0.50084011  1
  Ca2+  Ca2  1  0.17391918  0.07999521  0.83959746  1
  Ca2+  Ca3  1  0.17224179  0.57672903  0.17476665  1
  Ca2+  Ca4  1  0.17887509  0.59000511  0.50243669  1
  Ca2+  Ca5  1  0.17744073  0.57635736  0.83832271  1
  Ca2+  Ca6  1  0.67658930  0.09862206  0.17067098  1
  Ca2+  Ca7  1  0.66896069  0.08652840  0.50311157  1
  Ca2+  Ca8  1  0.66007010  0.08234309  0.83911242  1
  Ca2+  Ca9  1  0.65887517  0.57721003  0.17550037  1
  Ca2+  Ca10  1  0.66358483  0.57166591  0.50406957  1
  Ca2+  Ca11  1  0.66762336  0.57733595  0.83339289  1
  Ca2+  Ca12  1  0.07978340  0.33045007  0.15918981  1
  Ca2+  Ca13  1  0.07906182  0.32501361  0.49240890  1
  Ca2+  Ca14  1  0.07998611  0.33748465  0.83486696  1
  Ca2+  Ca15  1  0.08361955  0.83331156  0.17392616  1
  Ca2+  Ca16  1  0.07962419  0.83236198  0.48668203  1
  Ca2+  Ca17  1  0.08263315  0.83467586  0.82737124  1
  Ca2+  Ca18  1  0.57386614  0.32918726  0.16496945  1
  Ca2+  Ca19  1  0.58006729  0.33347758  0.49492139  1
  Ca2+  Ca20  1  0.57553084  0.32151962  0.82543581  1
  Ca2+  Ca21  1  0.58961976  0.81729623  0.16332476  1
  Ca2+  Ca22  1  0.58633753  0.82643612  0.49581690  1
  Ca2+  Ca23  1  0.58531557  0.83065212  0.82933585  1
  Ca2+  Ca24  1  0.33524341  0.41498048  0.17155232  1
  Ca2+  Ca25  1  0.34470827  0.42505355  0.50084989  1
  Ca2+  Ca26  1  0.33351098  0.41172455  0.83654279  1
  Ca2+  Ca27  1  0.33047867  0.92549233  0.17175330  1
  Ca2+  Ca28  1  0.31855625  0.91296632  0.50484473  1
  Ca2+  Ca29  1  0.32877264  0.92379342  0.83840041  1
  Ca2+  Ca30  1  0.82418187  0.41108954  0.17293761  1
  Ca2+  Ca31  1  0.81808219  0.42037146  0.50594275  1
  Ca2+  Ca32  1  0.82893378  0.41606021  0.83570761  1
  Ca2+  Ca33  1  0.83503845  0.92785161  0.17367917  1
  Ca2+  Ca34  1  0.82949268  0.91937463  0.50093134  1
  Ca2+  Ca35  1  0.82355313  0.92495042  0.83698539  1
  Ca2+  Ca36  1  0.42420060  0.17427859  0.15642914  1
  Ca2+  Ca37  1  0.42959760  0.17906762  0.49182925  1
  Ca2+  Ca38  1  0.41893394  0.17406081  0.82624878  1
  Ca2+  Ca39  1  0.42513401  0.66202250  0.16858479  1
  Ca2+  Ca40  1  0.41773804  0.66324046  0.49159392  1
  Ca2+  Ca41  1  0.42182750  0.66180149  0.83139354  1
  Ca2+  Ca42  1  0.91882299  0.16600616  0.16427641  1
  Ca2+  Ca43  1  0.92036036  0.16286321  0.49097541  1
  Ca2+  Ca44  1  0.91033462  0.17119570  0.83780290  1
  Ca2+  Ca45  1  0.91968527  0.67312994  0.16556441  1
  Ca2+  Ca46  1  0.92036882  0.67278731  0.49030417  1
  Ca2+  Ca47  1  0.91808621  0.66429280  0.82546927  1
  Al0+  Al48  1  -0.00229479  -0.00164142  0.00151250  1
  Al0+  Al49  1  -0.00053785  0.00139870  0.33247906  1
  Al0+  Al50  1  -0.00113098  -0.00154277  0.67268533  1
  Al0+  Al51  1  0.00133552  0.50065140  -0.00033390  1
  Al0+  Al52  1  0.00063691  0.50062977  0.33061144  1
  Al0+  Al53  1  0.00206827  0.50046527  0.66606948  1
  Al0+  Al54  1  0.49888255  -0.00474163  0.00419838  1
  Al0+  Al55  1  0.50198039  0.00067600  0.33087859  1
  Al0+  Al56  1  0.49935075  -0.00125549  0.66485314  1
  Al0+  Al57  1  0.50084505  0.50043858  -0.00910762  1
  Al0+  Al58  1  0.49947809  0.50022455  0.33371533  1
  Al0+  Al59  1  0.50093162  0.50035515  0.67357498  1
  Al0+  Al60  1  0.24832244  0.24852075  0.00454950  1
  Al0+  Al61  1  0.24950619  0.25092619  0.32899760  1
  Al0+  Al62  1  0.24936961  0.25055899  0.65950595  1
  Al0+  Al63  1  0.24982815  0.74835001  0.00074193  1
  Al0+  Al64  1  0.24969626  0.75063008  0.33522878  1
  Al0+  Al65  1  0.24976506  0.74895924  0.67786629  1
  Al0+  Al66  1  0.75035521  0.25064393  -0.00395926  1
  Al0+  Al67  1  0.75007705  0.25072664  0.34231579  1
  Al0+  Al68  1  0.75189895  0.25058424  0.66701558  1
  Al0+  Al69  1  0.75192851  0.74996042  -0.00570849  1
  Al0+  Al70  1  0.75114788  0.75185681  0.32390926  1
  Al0+  Al71  1  0.75145374  0.75309963  0.67326360  1
  Al0+  Al72  1  0.42595757  0.31945707  0.98342760  1
  Al0+  Al73  1  0.82245279  0.57144204  0.67970187  1
  Al0+  Al74  1  0.81752074  0.07137315  0.01435842  1
  Al0+  Al75  1  0.18205139  0.93299088  0.34579161  1
  Al0+  Al76  1  0.56965244  0.68055109  0.32352645  1
  Al0+  Al77  1  0.43040103  0.32207691  0.31734442  1
  Al0+  Al78  1  0.57400004  0.17808104  0.31754855  1
  Al0+  Al79  1  0.67978315  0.43134196  0.34562675  1
  Al0+  Al80  1  0.07375421  0.67800996  0.31818669  1
  Al0+  Al81  1  0.57251113  0.17619488  0.65012390  1
  Al0+  Al82  1  0.32097556  0.57018402  0.68173634  1
  Al0+  Al83  1  0.67933199  0.42758409  0.68520749  1
  Al0+  Al84  1  0.57210029  0.67921223  0.98329580  1
  Al0+  Al85  1  0.81930052  0.06990429  0.34751586  1
  Al0+  Al86  1  0.32110130  0.06977683  0.01363449  1
  Al0+  Al87  1  0.92900951  0.82173106  0.31740501  1
  Al0+  Al88  1  0.67743993  0.93082088  0.67923953  1
  Al0+  Al89  1  0.17927392  0.42958485  0.01395311  1
  Al0+  Al90  1  0.42821938  0.32290762  0.64908205  1
  Al0+  Al91  1  0.17763709  0.92912711  0.68162062  1
  Al0+  Al92  1  0.57123459  0.17735728  0.98531777  1
  Al0+  Al93  1  0.31855846  0.56852952  0.34539971  1
  Al0+  Al94  1  0.06984070  0.17933350  0.32040928  1
  Al0+  Al95  1  0.92970556  0.32205375  0.98717060  1
  Si0+  Si96  1  0.07060717  0.17610929  0.98323236  1
  Si0+  Si97  1  0.06918284  0.17726631  0.65337503  1
  Si0+  Si98  1  0.07100407  0.67909211  0.98300759  1
  Si0+  Si99  1  0.82257806  0.57269582  0.01582684  1
  Si0+  Si100  1  0.93011633  0.32287896  0.65082579  1
  Si0+  Si101  1  0.57190952  0.68181920  0.65292183  1
  Si0+  Si102  1  0.17745452  0.42542614  0.68185533  1
  Si0+  Si103  1  0.92771674  0.32235435  0.31936765  1
  Si0+  Si104  1  0.42623048  0.82020346  0.98292643  1
  Si0+  Si105  1  0.17489339  0.42585502  0.35092767  1
  Si0+  Si106  1  0.42653732  0.81990048  0.65284012  1
  Si0+  Si107  1  0.92983618  0.82106104  0.65232211  1
  Si0+  Si108  1  0.07235877  0.67992485  0.65284815  1
  Si0+  Si109  1  0.42582163  0.82327653  0.31828092  1
  Si0+  Si110  1  0.67743408  0.92433993  0.34829067  1
  Si0+  Si111  1  0.68045774  0.43153090  0.01433086  1
  Si0+  Si112  1  0.93052536  0.82165641  0.98095842  1
  Si0+  Si113  1  0.32355346  0.57157823  0.01810628  1
  Si0+  Si114  1  0.17677918  0.92620569  0.01847248  1
  Si0+  Si115  1  0.67776869  0.92534736  0.01853185  1
  Si0+  Si116  1  0.32510889  0.07532708  0.35101166  1
  Si0+  Si117  1  0.31985964  0.07164937  0.67981692  1
  Si0+  Si118  1  0.82279850  0.07183349  0.68442720  1
  Si0+  Si119  1  0.82398416  0.57521085  0.34656042  1
  O2-  O120  1  0.24492134  -0.00419949  0.06052051  1
  O2-  O121  1  0.25755584  0.00523904  0.39581332  1
  O2-  O122  1  0.25102337  0.00455512  0.72729598  1
  O2-  O123  1  0.25783177  0.49990460  0.06100683  1
  O2-  O124  1  0.24282341  0.49549496  0.39451501  1
  O2-  O125  1  0.24930757  0.49119119  0.72540240  1
  O2-  O126  1  0.73990256  -0.00003490  0.06209738  1
  O2-  O127  1  0.74204517  -0.00314223  0.39252600  1
  O2-  O128  1  0.74611108  0.01099259  0.72647303  1
  O2-  O129  1  0.75044095  0.50350620  0.05843439  1
  O2-  O130  1  0.75521620  0.50720710  0.39068072  1
  O2-  O131  1  0.75332279  0.49931777  0.73378380  1
  O2-  O132  1  -0.00039261  0.25815749  0.27407646  1
  O2-  O133  1  -0.00148080  0.24843949  0.61040329  1
  O2-  O134  1  0.00355711  0.24641206  0.93890775  1
  O2-  O135  1  -0.00107288  0.74695554  0.26766870  1
  O2-  O136  1  0.00043294  0.74967112  0.61035984  1
  O2-  O137  1  0.00216192  0.75124213  0.93855417  1
  O2-  O138  1  0.49701479  0.24476786  0.26827338  1
  O2-  O139  1  0.50328797  0.25212441  0.60202825  1
  O2-  O140  1  0.49632386  0.24544348  0.93423363  1
  O2-  O141  1  0.49891189  0.75844973  0.27523694  1
  O2-  O142  1  0.49813103  0.74970815  0.60990864  1
  O2-  O143  1  0.49631518  0.75356047  0.93754759  1
  O2-  O144  1  0.06894327  0.17524042  0.08857882  1
  O2-  O145  1  0.06614646  0.17867938  0.43439732  1
  O2-  O146  1  0.06992732  0.17720701  0.75843283  1
  O2-  O147  1  0.06998363  0.67954545  0.08754184  1
  O2-  O148  1  0.07363969  0.68128934  0.43238689  1
  O2-  O149  1  0.07100736  0.68098383  0.75835521  1
  O2-  O150  1  0.57318309  0.18374275  0.09837917  1
  O2-  O151  1  0.57415758  0.17969942  0.43100095  1
  O2-  O152  1  0.56736941  0.17388705  0.76372477  1
  O2-  O153  1  0.57141301  0.67888743  0.09660599  1
  O2-  O154  1  0.56888951  0.68095186  0.43690947  1
  O2-  O155  1  0.57153416  0.68545666  0.75808616  1
  O2-  O156  1  0.17357356  0.42728545  0.24538513  1
  O2-  O157  1  0.17214094  0.42698914  0.57672715  1
  O2-  O158  1  0.17709530  0.43394950  0.90046810  1
  O2-  O159  1  0.18432293  0.93353384  0.23275375  1
  O2-  O160  1  0.17587353  0.92800344  0.56879580  1
  O2-  O161  1  0.17698115  0.92639263  0.91236641  1
  O2-  O162  1  0.68051005  0.43226430  0.23198835  1
  O2-  O163  1  0.68025318  0.43127752  0.57140872  1
  O2-  O164  1  0.68370581  0.43287042  0.90949761  1
  O2-  O165  1  0.68036488  0.91921197  0.24318417  1
  O2-  O166  1  0.68287211  0.92432940  0.56665389  1
  O2-  O167  1  0.68086603  0.92384498  0.91252437  1
  O2-  O168  1  0.42886612  0.32133970  0.09668150  1
  O2-  O169  1  0.43396695  0.32416112  0.43078726  1
  O2-  O170  1  0.42427587  0.31775832  0.76243117  1
  O2-  O171  1  0.42414473  0.81867632  0.08831560  1
  O2-  O172  1  0.42374244  0.82033002  0.42424635  1
  O2-  O173  1  0.42644769  0.81967420  0.75798220  1
  O2-  O174  1  0.93034652  0.32196389  0.10006119  1
  O2-  O175  1  0.92918782  0.32091214  0.42539108  1
  O2-  O176  1  0.93207413  0.32408711  0.75599643  1
  O2-  O177  1  0.92970780  0.82135405  0.08547030  1
  O2-  O178  1  0.92926234  0.82074485  0.43170030  1
  O2-  O179  1  0.93190160  0.82137545  0.75772276  1
  O2-  O180  1  0.32245582  0.07268880  0.24530929  1
  O2-  O181  1  0.31662318  0.06812580  0.57458472  1
  O2-  O182  1  0.31732005  0.06708127  0.89993076  1
  O2-  O183  1  0.31915190  0.56748176  0.23240799  1
  O2-  O184  1  0.31839038  0.57558000  0.56884048  1
  O2-  O185  1  0.31937966  0.57487895  0.91242412  1
  O2-  O186  1  0.82016737  0.07001271  0.23445531  1
  O2-  O187  1  0.82887967  0.06731451  0.57916611  1
  O2-  O188  1  0.81951287  0.06731420  0.90111476  1
  O2-  O189  1  0.82367663  0.57383324  0.24068591  1
  O2-  O190  1  0.82228346  0.57225767  0.56616755  1
  O2-  O191  1  0.82331904  0.57203813  0.91065776  1
  O2-  O192  1  0.03574830  0.08586347  0.26421370  1
  O2-  O193  1  0.03847085  0.08508446  0.60745457  1
  O2-  O194  1  0.04302518  0.08259031  0.93680342  1
  O2-  O195  1  0.04899296  0.57852623  0.26506809  1
  O2-  O196  1  0.04830513  0.58742508  0.60526382  1
  O2-  O197  1  0.04107402  0.58890062  0.93390661  1
  O2-  O198  1  0.55531462  0.07616788  0.26701163  1
  O2-  O199  1  0.54382442  0.07731147  0.59700591  1
  O2-  O200  1  0.54814463  0.07390445  0.94019136  1
  O2-  O201  1  0.53430670  0.58718038  0.26688148  1
  O2-  O202  1  0.54609387  0.58818620  0.60974043  1
  O2-  O203  1  0.54127068  0.58475505  0.92570284  1
  O2-  O204  1  0.16701393  0.20522234  0.26597868  1
  O2-  O205  1  0.15989007  0.20264207  0.60301589  1
  O2-  O206  1  0.16410014  0.20137689  0.93768244  1
  O2-  O207  1  0.16976636  0.71179858  0.26377207  1
  O2-  O208  1  0.16464945  0.71057840  0.60872388  1
  O2-  O209  1  0.16401874  0.70550944  0.93616010  1
  O2-  O210  1  0.67212850  0.21351065  0.26875657  1
  O2-  O211  1  0.67440123  0.20120118  0.60225364  1
  O2-  O212  1  0.66833985  0.20778984  0.93079027  1
  O2-  O213  1  0.66540648  0.70668339  0.26503207  1
  O2-  O214  1  0.66355634  0.71322180  0.60753809  1
  O2-  O215  1  0.66869874  0.71060260  0.92883150  1
  O2-  O216  1  0.08409569  0.46511274  0.06848520  1
  O2-  O217  1  0.08003486  0.44943180  0.39657760  1
  O2-  O218  1  0.08574695  0.45481259  0.73038741  1
  O2-  O219  1  0.08230938  0.95028934  0.06226299  1
  O2-  O220  1  0.08586836  0.96545252  0.39972798  1
  O2-  O221  1  0.08222117  0.95973776  0.73850765  1
  O2-  O222  1  0.58744806  0.46069384  0.05828251  1
  O2-  O223  1  0.58565816  0.46633266  0.40111319  1
  O2-  O224  1  0.58288991  0.45805242  0.73961094  1
  O2-  O225  1  0.58118503  0.93781184  0.06183368  1
  O2-  O226  1  0.58138361  0.94347238  0.39254228  1
  O2-  O227  1  0.57849731  0.95331926  0.73359810  1
  O2-  O228  1  0.20159732  0.33117380  0.06744685  1
  O2-  O229  1  0.19958894  0.33156254  0.39611009  1
  O2-  O230  1  0.20010254  0.33047426  0.72715504  1
  O2-  O231  1  0.20342522  0.83219105  0.06306615  1
  O2-  O232  1  0.21113575  0.83614844  0.40102567  1
  O2-  O233  1  0.20933223  0.83509200  0.73971883  1
  O2-  O234  1  0.71070697  0.34021986  0.06025476  1
  O2-  O235  1  0.71250410  0.33825440  0.40465547  1
  O2-  O236  1  0.70963233  0.32893931  0.73684412  1
  O2-  O237  1  0.71284949  0.83340792  0.06296276  1
  O2-  O238  1  0.70825415  0.83215366  0.39579899  1
  O2-  O239  1  0.71407954  0.83837486  0.73862259  1
  O2-  O240  1  0.46404373  0.41818808  0.26331174  1
  O2-  O241  1  0.45758142  0.42394680  0.60179486  1
  O2-  O242  1  0.45404396  0.41797250  0.93070437  1
  O2-  O243  1  0.44637404  0.91817906  0.27307269  1
  O2-  O244  1  0.45133931  0.91119665  0.60382733  1
  O2-  O245  1  0.45035260  0.91391244  0.93634575  1
  O2-  O246  1  0.94624413  0.41752078  0.27344537  1
  O2-  O247  1  0.96045677  0.41326933  0.60190591  1
  O2-  O248  1  0.96226729  0.41795969  0.93161931  1
  O2-  O249  1  0.96329497  0.91756699  0.26383548  1
  O2-  O250  1  0.95880325  0.91308276  0.60607094  1
  O2-  O251  1  0.95865176  0.91316191  0.93241597  1
  O2-  O252  1  0.32912086  0.30097720  0.26786473  1
  O2-  O253  1  0.32914917  0.29660286  0.59488421  1
  O2-  O254  1  0.32557856  0.29185958  0.93336980  1
  O2-  O255  1  0.33542586  0.79286651  0.26944822  1
  O2-  O256  1  0.33396230  0.78915452  0.60814276  1
  O2-  O257  1  0.33260749  0.79354776  0.93569339  1
  O2-  O258  1  0.83542580  0.29207108  0.27475386  1
  O2-  O259  1  0.83776877  0.29779257  0.60393275  1
  O2-  O260  1  0.83549890  0.28967701  0.92961736  1
  O2-  O261  1  0.83245004  0.79635487  0.25928415  1
  O2-  O262  1  0.83751470  0.79411646  0.60600498  1
  O2-  O263  1  0.83961372  0.79290557  0.93210652  1
  O2-  O264  1  0.41600123  0.03658739  0.07032849  1
  O2-  O265  1  0.42013320  0.05159560  0.39480101  1
  O2-  O266  1  0.41247222  0.04401371  0.72600724  1
  O2-  O267  1  0.41989068  0.54899850  0.05890496  1
  O2-  O268  1  0.41428774  0.53765764  0.40103186  1
  O2-  O269  1  0.41762193  0.54490512  0.73718872  1
  O2-  O270  1  0.91444108  0.03740890  0.06677552  1
  O2-  O271  1  0.91476185  0.03633864  0.40221808  1
  O2-  O272  1  0.91167660  0.03782629  0.73547090  1
  O2-  O273  1  0.91452695  0.54562835  0.06237930  1
  O2-  O274  1  0.91839139  0.55166666  0.39256594  1
  O2-  O275  1  0.92226399  0.54418002  0.73243230  1
  O2-  O276  1  0.28992399  0.16474640  0.06956416  1
  O2-  O277  1  0.29706882  0.16876735  0.39541236  1
  O2-  O278  1  0.29275498  0.16567993  0.72439795  1
  O2-  O279  1  0.29468184  0.66452662  0.06415276  1
  O2-  O280  1  0.28961384  0.66567604  0.40035490  1
  O2-  O281  1  0.28626854  0.66290046  0.74179941  1
  O2-  O282  1  0.79154821  0.17019936  0.06671303  1
  O2-  O283  1  0.79232505  0.16543721  0.40577325  1
  O2-  O284  1  0.80696184  0.16859708  0.72651756  1
  O2-  O285  1  0.79615576  0.66623292  0.06034965  1
  O2-  O286  1  0.79916156  0.67007735  0.38981804  1
  O2-  O287  1  0.79503935  0.66923998  0.73521842  1
