# generated using pymatgen
data_Ca2Al2SiO7
_symmetry_space_group_name_H-M   'P 1'
_cell_length_a   15.45876323
_cell_length_b   15.45756777
_cell_length_c   15.28446197
_cell_angle_alpha   90.00145361
_cell_angle_beta   89.99625508
_cell_angle_gamma   89.99949407
_symmetry_Int_Tables_number   1
_chemical_formula_structural   Ca2Al2SiO7
_chemical_formula_sum   'Ca48 Al48 Si24 O168'
_cell_volume   3652.29676984
_cell_formula_units_Z   24
loop_
 _symmetry_equiv_pos_site_id
 _symmetry_equiv_pos_as_xyz
  1  'x, y, z'
loop_
 _atom_type_symbol
 _atom_type_oxidation_number
  Ca2+  2.0
  Al0+  0.0
  Si0+  0.0
  O2-  -2.0
loop_
 _atom_site_type_symbol
 _atom_site_label
 _atom_site_symmetry_multiplicity
 _atom_site_fract_x
 _atom_site_fract_y
 _atom_site_fract_z
 _atom_site_occupancy
  Ca2+  Ca0  1  0.16791305  0.09494691  0.16910377  1
  Ca2+  Ca1  1  0.16207507  0.07966962  0.50227211  1
  Ca2+  Ca2  1  0.16627256  0.07947405  0.83984223  1
  Ca2+  Ca3  1  0.17760281  0.57231240  0.17898276  1
  Ca2+  Ca4  1  0.16854790  0.58318493  0.50189613  1
  Ca2+  Ca5  1  0.16450651  0.58409881  0.83641665  1
  Ca2+  Ca6  1  0.66540260  0.07931148  0.16984552  1
  Ca2+  Ca7  1  0.68132426  0.07877709  0.50929610  1
  Ca2+  Ca8  1  0.66997435  0.07543419  0.83851189  1
  Ca2+  Ca9  1  0.66507948  0.58268245  0.16525884  1
  Ca2+  Ca10  1  0.67233281  0.57706819  0.50690976  1
  Ca2+  Ca11  1  0.67717659  0.57645277  0.84055791  1
  Ca2+  Ca12  1  0.08239694  0.32724885  0.16616031  1
  Ca2+  Ca13  1  0.06900675  0.33035991  0.49095184  1
  Ca2+  Ca14  1  0.07552343  0.32612513  0.82881986  1
  Ca2+  Ca15  1  0.07447358  0.83418443  0.16596443  1
  Ca2+  Ca16  1  0.07484624  0.83242090  0.50065977  1
  Ca2+  Ca17  1  0.07680778  0.82660955  0.82000994  1
  Ca2+  Ca18  1  0.57259121  0.33169855  0.15604257  1
  Ca2+  Ca19  1  0.58148138  0.33580143  0.49469063  1
  Ca2+  Ca20  1  0.58661503  0.33550135  0.83435235  1
  Ca2+  Ca21  1  0.58937116  0.82223147  0.15958562  1
  Ca2+  Ca22  1  0.59172717  0.82582199  0.49654494  1
  Ca2+  Ca23  1  0.59286705  0.83214078  0.83226824  1
  Ca2+  Ca24  1  0.33213884  0.41257712  0.17679309  1
  Ca2+  Ca25  1  0.32867838  0.41636037  0.49439329  1
  Ca2+  Ca26  1  0.33188150  0.41392796  0.83872604  1
  Ca2+  Ca27  1  0.33328694  0.92595533  0.16759799  1
  Ca2+  Ca28  1  0.32440267  0.91732702  0.50832965  1
  Ca2+  Ca29  1  0.32532601  0.92210803  0.83879166  1
  Ca2+  Ca30  1  0.82934566  0.41784697  0.16895718  1
  Ca2+  Ca31  1  0.83222515  0.41696896  0.51247286  1
  Ca2+  Ca32  1  0.82957862  0.42420654  0.83661849  1
  Ca2+  Ca33  1  0.82985228  0.92207158  0.17208378  1
  Ca2+  Ca34  1  0.84024024  0.92591352  0.50583106  1
  Ca2+  Ca35  1  0.82780472  0.91682405  0.83334925  1
  Ca2+  Ca36  1  0.41785720  0.17682746  0.15503439  1
  Ca2+  Ca37  1  0.42165936  0.17311910  0.49344165  1
  Ca2+  Ca38  1  0.42143158  0.16544272  0.83874312  1
  Ca2+  Ca39  1  0.42854604  0.65979666  0.16440181  1
  Ca2+  Ca40  1  0.42408749  0.66553283  0.49078286  1
  Ca2+  Ca41  1  0.42696548  0.66556882  0.83176864  1
  Ca2+  Ca42  1  0.92378205  0.16769666  0.16805502  1
  Ca2+  Ca43  1  0.91341475  0.17298771  0.49226090  1
  Ca2+  Ca44  1  0.91602232  0.16906901  0.82713210  1
  Ca2+  Ca45  1  0.90920570  0.67271224  0.16271534  1
  Ca2+  Ca46  1  0.91108174  0.67789225  0.49941450  1
  Ca2+  Ca47  1  0.91564682  0.66793703  0.82242546  1
  Al0+  Al48  1  -0.00105076  -0.00130141  -0.00416222  1
  Al0+  Al49  1  -0.00061349  -0.00032926  0.32837832  1
  Al0+  Al50  1  0.00259129  -0.00145305  0.67290239  1
  Al0+  Al51  1  0.00076815  0.50154764  0.00557383  1
  Al0+  Al52  1  -0.00033567  0.50064042  0.33330777  1
  Al0+  Al53  1  0.00320235  0.49779915  0.66300617  1
  Al0+  Al54  1  0.49719434  0.00068206  0.00580830  1
  Al0+  Al55  1  0.49909511  -0.00310001  0.33651349  1
  Al0+  Al56  1  0.49975878  0.00105456  0.66750632  1
  Al0+  Al57  1  0.50054504  0.50183322  -0.00741640  1
  Al0+  Al58  1  0.50056683  0.50034187  0.33031692  1
  Al0+  Al59  1  0.49826986  0.49985306  0.66843819  1
  Al0+  Al60  1  0.24843539  0.24902272  -0.00622734  1
  Al0+  Al61  1  0.25026772  0.25050177  0.33493462  1
  Al0+  Al62  1  0.25220814  0.25188077  0.66554345  1
  Al0+  Al63  1  0.24867405  0.75050324  0.00268193  1
  Al0+  Al64  1  0.25138589  0.75114112  0.33578975  1
  Al0+  Al65  1  0.25152957  0.75025170  0.66790091  1
  Al0+  Al66  1  0.74958039  0.25091369  0.00115754  1
  Al0+  Al67  1  0.75030147  0.24893145  0.33239813  1
  Al0+  Al68  1  0.74827010  0.24865214  0.67043660  1
  Al0+  Al69  1  0.74955264  0.75147417  0.00221124  1
  Al0+  Al70  1  0.74936304  0.74859425  0.32505229  1
  Al0+  Al71  1  0.75079287  0.74970282  0.66671218  1
  Al0+  Al72  1  0.06890814  0.17952421  0.98441700  1
  Al0+  Al73  1  0.67769140  0.92862354  0.68050361  1
  Al0+  Al74  1  0.67776308  0.42866260  0.01701258  1
  Al0+  Al75  1  0.67905047  0.93122598  0.01538850  1
  Al0+  Al76  1  0.92795084  0.31792224  0.65542118  1
  Al0+  Al77  1  0.92535178  0.32458308  0.31718103  1
  Al0+  Al78  1  0.92807434  0.82083728  0.65162366  1
  Al0+  Al79  1  0.17746268  0.42723690  0.35028195  1
  Al0+  Al80  1  0.06973486  0.17926324  0.32016487  1
  Al0+  Al81  1  0.42889364  0.32171025  0.98278460  1
  Al0+  Al82  1  0.57117407  0.68141228  0.98288751  1
  Al0+  Al83  1  0.82193945  0.57124883  0.01691189  1
  Al0+  Al84  1  0.57266550  0.17677373  0.98505181  1
  Al0+  Al85  1  0.56953403  0.68032939  0.31963918  1
  Al0+  Al86  1  0.93050586  0.81980378  0.31801321  1
  Al0+  Al87  1  0.18066153  0.92912447  0.68027871  1
  Al0+  Al88  1  0.82017957  0.06989432  0.34562829  1
  Al0+  Al89  1  0.31716082  0.07076838  0.01413218  1
  Al0+  Al90  1  0.32298020  0.57082421  0.34851479  1
  Al0+  Al91  1  0.67600153  0.42838330  0.68131079  1
  Al0+  Al92  1  0.82341235  0.56959719  0.67851915  1
  Al0+  Al93  1  0.43190334  0.31833545  0.32147056  1
  Al0+  Al94  1  0.07427387  0.67698282  0.65098410  1
  Al0+  Al95  1  0.82312728  0.07142377  0.68264584  1
  Si0+  Si96  1  0.07425638  0.17796400  0.65124418  1
  Si0+  Si97  1  0.67822659  0.92571671  0.34942022  1
  Si0+  Si98  1  0.18020048  0.42906203  0.01366187  1
  Si0+  Si99  1  0.07208023  0.67924081  0.98754089  1
  Si0+  Si100  1  0.42930025  0.82208611  0.65290732  1
  Si0+  Si101  1  0.17873235  0.92927883  0.34784386  1
  Si0+  Si102  1  0.82079772  0.57304876  0.34810340  1
  Si0+  Si103  1  0.92825447  0.32500419  0.98375464  1
  Si0+  Si104  1  0.32199436  0.07136392  0.34944604  1
  Si0+  Si105  1  0.32078916  0.57264163  0.01327589  1
  Si0+  Si106  1  0.67994778  0.42954837  0.34634363  1
  Si0+  Si107  1  0.42482558  0.82398307  0.31597924  1
  Si0+  Si108  1  0.82433361  0.07293736  0.01762744  1
  Si0+  Si109  1  0.42532228  0.82225325  0.98368308  1
  Si0+  Si110  1  0.17595119  0.92693708  0.01891616  1
  Si0+  Si111  1  0.32091065  0.57143601  0.68314413  1
  Si0+  Si112  1  0.57233454  0.17475053  0.31893849  1
  Si0+  Si113  1  0.92913464  0.81963231  0.98365305  1
  Si0+  Si114  1  0.42843985  0.32278473  0.64865140  1
  Si0+  Si115  1  0.07476005  0.67830962  0.31578299  1
  Si0+  Si116  1  0.56970771  0.17802643  0.65113622  1
  Si0+  Si117  1  0.32246660  0.07437914  0.68343021  1
  Si0+  Si118  1  0.56979152  0.67907909  0.65196059  1
  Si0+  Si119  1  0.18045074  0.42831027  0.68266172  1
  O2-  O120  1  0.24175229  -0.00222603  0.06365081  1
  O2-  O121  1  0.25116254  -0.00043899  0.39032263  1
  O2-  O122  1  0.25208530  0.00707385  0.72662651  1
  O2-  O123  1  0.25325849  0.49853955  0.05497137  1
  O2-  O124  1  0.24736148  0.50294009  0.39930345  1
  O2-  O125  1  0.24873356  0.50188455  0.72573670  1
  O2-  O126  1  0.75075497  0.00904154  0.06167520  1
  O2-  O127  1  0.74388367  -0.00328816  0.39312415  1
  O2-  O128  1  0.75117718  -0.00161175  0.73108262  1
  O2-  O129  1  0.75080154  0.49897866  0.06820244  1
  O2-  O130  1  0.75583849  0.49561352  0.38899709  1
  O2-  O131  1  0.75114096  0.49827052  0.72893185  1
  O2-  O132  1  0.00021439  0.25374930  0.26983863  1
  O2-  O133  1  0.00088354  0.24135489  0.60796755  1
  O2-  O134  1  -0.00800859  0.25187360  0.93864862  1
  O2-  O135  1  0.00349708  0.74334850  0.27004853  1
  O2-  O136  1  -0.00077321  0.74673919  0.60218387  1
  O2-  O137  1  0.00057892  0.74806790  0.94370344  1
  O2-  O138  1  0.50282713  0.24150155  0.27402316  1
  O2-  O139  1  0.50128741  0.25235496  0.60902711  1
  O2-  O140  1  0.50414642  0.25225892  0.93366338  1
  O2-  O141  1  0.49422915  0.75555731  0.27361216  1
  O2-  O142  1  0.50257917  0.75406924  0.60969775  1
  O2-  O143  1  0.49576258  0.75674408  0.93737174  1
  O2-  O144  1  0.07007590  0.18226378  0.09722043  1
  O2-  O145  1  0.06806064  0.17691631  0.43391378  1
  O2-  O146  1  0.07792961  0.18253514  0.75690687  1
  O2-  O147  1  0.07481131  0.68182985  0.09237656  1
  O2-  O148  1  0.07631871  0.68188852  0.42099193  1
  O2-  O149  1  0.07613177  0.67961789  0.76532633  1
  O2-  O150  1  0.56751299  0.17589327  0.09900355  1
  O2-  O151  1  0.57051349  0.17552557  0.42497818  1
  O2-  O152  1  0.56663265  0.17447555  0.75564907  1
  O2-  O153  1  0.56822412  0.68162746  0.09603544  1
  O2-  O154  1  0.56988434  0.68143455  0.43339125  1
  O2-  O155  1  0.56659657  0.67825600  0.75674110  1
  O2-  O156  1  0.18159693  0.42700671  0.23601446  1
  O2-  O157  1  0.18381554  0.42541907  0.57816243  1
  O2-  O158  1  0.17892432  0.43210243  0.90816181  1
  O2-  O159  1  0.18055999  0.92820248  0.24274846  1
  O2-  O160  1  0.18314124  0.92980580  0.56667340  1
  O2-  O161  1  0.17885689  0.92419899  0.91352953  1
  O2-  O162  1  0.67789945  0.43158848  0.24172622  1
  O2-  O163  1  0.67281549  0.43171025  0.56685209  1
  O2-  O164  1  0.67976239  0.43201901  0.90362378  1
  O2-  O165  1  0.67794811  0.92673701  0.24380870  1
  O2-  O166  1  0.67425123  0.93179604  0.56680116  1
  O2-  O167  1  0.68276550  0.92966062  0.90254073  1
  O2-  O168  1  0.42646665  0.32012221  0.09652380  1
  O2-  O169  1  0.43437824  0.31739436  0.43516783  1
  O2-  O170  1  0.42454521  0.32314352  0.75313651  1
  O2-  O171  1  0.42236886  0.81873030  0.08917731  1
  O2-  O172  1  0.42385341  0.82609539  0.42183760  1
  O2-  O173  1  0.42704480  0.81999174  0.75782606  1
  O2-  O174  1  0.93242782  0.32677238  0.08912310  1
  O2-  O175  1  0.92322340  0.32199785  0.43101633  1
  O2-  O176  1  0.93225640  0.31893725  0.76861938  1
  O2-  O177  1  0.93128057  0.82061311  0.08909556  1
  O2-  O178  1  0.93118158  0.82054149  0.43065655  1
  O2-  O179  1  0.92973061  0.81923597  0.76549262  1
  O2-  O180  1  0.32323947  0.07095843  0.24467870  1
  O2-  O181  1  0.32351200  0.07337962  0.57736383  1
  O2-  O182  1  0.31517092  0.06786168  0.90089349  1
  O2-  O183  1  0.32269651  0.56875504  0.23450430  1
  O2-  O184  1  0.32404009  0.57075673  0.57839214  1
  O2-  O185  1  0.31654004  0.57579190  0.90791267  1
  O2-  O186  1  0.81937938  0.06740388  0.23253432  1
  O2-  O187  1  0.82151238  0.07176107  0.56866237  1
  O2-  O188  1  0.82696158  0.06872856  0.91226749  1
  O2-  O189  1  0.81717616  0.57594692  0.24325047  1
  O2-  O190  1  0.81878792  0.57008337  0.56433950  1
  O2-  O191  1  0.82498037  0.57073800  0.90347721  1
  O2-  O192  1  0.04188760  0.08248970  0.26355641  1
  O2-  O193  1  0.05518704  0.08129167  0.61054636  1
  O2-  O194  1  0.04224292  0.08085267  0.93161706  1
  O2-  O195  1  0.05344092  0.58308717  0.27206318  1
  O2-  O196  1  0.05355582  0.57693903  0.59932842  1
  O2-  O197  1  0.04761702  0.58593892  0.94134338  1
  O2-  O198  1  0.54777768  0.07942305  0.27573108  1
  O2-  O199  1  0.53807961  0.08826934  0.60073649  1
  O2-  O200  1  0.53700875  0.07937492  0.93321356  1
  O2-  O201  1  0.53708978  0.58538204  0.26397864  1
  O2-  O202  1  0.53619003  0.58881573  0.60433610  1
  O2-  O203  1  0.53868339  0.58708840  0.92631092  1
  O2-  O204  1  0.16944838  0.20666349  0.26907674  1
  O2-  O205  1  0.16707794  0.20703328  0.60431097  1
  O2-  O206  1  0.16324610  0.21175884  0.92752098  1
  O2-  O207  1  0.16790906  0.70722388  0.26951729  1
  O2-  O208  1  0.17249372  0.70918351  0.59856503  1
  O2-  O209  1  0.16355379  0.70761505  0.93865313  1
  O2-  O210  1  0.66511566  0.19954805  0.27277717  1
  O2-  O211  1  0.66186755  0.20375236  0.60399472  1
  O2-  O212  1  0.67334731  0.19991250  0.93403048  1
  O2-  O213  1  0.66360548  0.71102334  0.26146823  1
  O2-  O214  1  0.66206198  0.70366300  0.60441548  1
  O2-  O215  1  0.66784756  0.71432454  0.93096954  1
  O2-  O216  1  0.09050617  0.45822220  0.06383338  1
  O2-  O217  1  0.07760661  0.45389835  0.40136125  1
  O2-  O218  1  0.08872775  0.45295949  0.73092415  1
  O2-  O219  1  0.08084407  0.95078104  0.06199175  1
  O2-  O220  1  0.08779714  0.95953325  0.39457129  1
  O2-  O221  1  0.08560827  0.95516252  0.73833978  1
  O2-  O222  1  0.57764359  0.46053978  0.06548389  1
  O2-  O223  1  0.59024643  0.46244660  0.39496041  1
  O2-  O224  1  0.57822171  0.45890302  0.73447666  1
  O2-  O225  1  0.58068947  0.95538326  0.06939955  1
  O2-  O226  1  0.58235569  0.94492761  0.39466878  1
  O2-  O227  1  0.57896338  0.95725136  0.73375750  1
  O2-  O228  1  0.20746111  0.33674787  0.05876722  1
  O2-  O229  1  0.21092237  0.33096925  0.40530577  1
  O2-  O230  1  0.21283749  0.33793627  0.73139939  1
  O2-  O231  1  0.20403887  0.83448496  0.06700882  1
  O2-  O232  1  0.20609069  0.83818075  0.39681765  1
  O2-  O233  1  0.21565887  0.83414688  0.73574744  1
  O2-  O234  1  0.70126984  0.32831077  0.06902323  1
  O2-  O235  1  0.70093193  0.33544961  0.39267388  1
  O2-  O236  1  0.69914107  0.32903029  0.73259001  1
  O2-  O237  1  0.71356572  0.83626198  0.07000972  1
  O2-  O238  1  0.70724327  0.83206532  0.39307180  1
  O2-  O239  1  0.70347451  0.82926373  0.73185797  1
  O2-  O240  1  0.46229184  0.41409120  0.26707456  1
  O2-  O241  1  0.45527258  0.41525437  0.60176611  1
  O2-  O242  1  0.45204668  0.42101069  0.92916176  1
  O2-  O243  1  0.45023221  0.91801234  0.26983606  1
  O2-  O244  1  0.45175391  0.91544602  0.60533731  1
  O2-  O245  1  0.44713336  0.91731238  0.94057289  1
  O2-  O246  1  0.95112235  0.42431570  0.26542790  1
  O2-  O247  1  0.96147248  0.41282171  0.59988194  1
  O2-  O248  1  0.96080202  0.41726415  0.93810951  1
  O2-  O249  1  0.96428193  0.91364511  0.26106824  1
  O2-  O250  1  0.96192128  0.91951707  0.60132905  1
  O2-  O251  1  0.95673002  0.91063975  0.93525943  1
  O2-  O252  1  0.33450316  0.28963691  0.26932346  1
  O2-  O253  1  0.33777838  0.29230783  0.59954911  1
  O2-  O254  1  0.33202258  0.28953251  0.92816759  1
  O2-  O255  1  0.33141327  0.80013413  0.26896864  1
  O2-  O256  1  0.33970355  0.79072577  0.60332628  1
  O2-  O257  1  0.33202573  0.79347616  0.93680215  1
  O2-  O258  1  0.82819277  0.29296735  0.26327897  1
  O2-  O259  1  0.82942275  0.29136058  0.60243794  1
  O2-  O260  1  0.83253702  0.30500469  0.94104904  1
  O2-  O261  1  0.83475980  0.78922062  0.26232212  1
  O2-  O262  1  0.82924823  0.79450173  0.59706004  1
  O2-  O263  1  0.83758915  0.79171943  0.93770632  1
  O2-  O264  1  0.41172780  0.04002704  0.07169161  1
  O2-  O265  1  0.41343793  0.04299552  0.39900389  1
  O2-  O266  1  0.41448052  0.04589603  0.73009563  1
  O2-  O267  1  0.41447587  0.54846823  0.05670619  1
  O2-  O268  1  0.42019242  0.53847770  0.40233102  1
  O2-  O269  1  0.41100934  0.54093695  0.73230836  1
  O2-  O270  1  0.91600829  0.03958171  0.06398570  1
  O2-  O271  1  0.91679515  0.03638618  0.39797534  1
  O2-  O272  1  0.92178691  0.04641030  0.73579726  1
  O2-  O273  1  0.92136484  0.54648031  0.07143852  1
  O2-  O274  1  0.91576090  0.55509040  0.39226198  1
  O2-  O275  1  0.92325517  0.54297967  0.72971404  1
  O2-  O276  1  0.28517296  0.16815067  0.06621073  1
  O2-  O277  1  0.29465291  0.16200381  0.39876057  1
  O2-  O278  1  0.29893789  0.16882909  0.72835980  1
  O2-  O279  1  0.29070491  0.66266997  0.06329668  1
  O2-  O280  1  0.29899939  0.67157894  0.40016177  1
  O2-  O281  1  0.29576169  0.66328858  0.73145204  1
  O2-  O282  1  0.80638688  0.16907683  0.06042696  1
  O2-  O283  1  0.79042904  0.16690284  0.40022722  1
  O2-  O284  1  0.79185841  0.16787403  0.73689757  1
  O2-  O285  1  0.79065812  0.66925790  0.06882791  1
  O2-  O286  1  0.78553643  0.66301910  0.39506155  1
  O2-  O287  1  0.79507032  0.66791024  0.73084905  1
