# generated using pymatgen
data_Ca2Al2SiO7
_symmetry_space_group_name_H-M   'P 1'
_cell_length_a   15.45852858
_cell_length_b   15.45797594
_cell_length_c   15.28345953
_cell_angle_alpha   89.99064358
_cell_angle_beta   90.01708089
_cell_angle_gamma   90.00343975
_symmetry_Int_Tables_number   1
_chemical_formula_structural   Ca2Al2SiO7
_chemical_formula_sum   'Ca48 Al48 Si24 O168'
_cell_volume   3652.09802170
_cell_formula_units_Z   24
loop_
 _symmetry_equiv_pos_site_id
 _symmetry_equiv_pos_as_xyz
  1  'x, y, z'
loop_
 _atom_type_symbol
 _atom_type_oxidation_number
  Ca2+  2.0
  Al0+  0.0
  Si0+  0.0
  O2-  -2.0
loop_
 _atom_site_type_symbol
 _atom_site_label
 _atom_site_symmetry_multiplicity
 _atom_site_fract_x
 _atom_site_fract_y
 _atom_site_fract_z
 _atom_site_occupancy
  Ca2+  Ca0  1  0.17791320  0.08183075  0.17949978  1
  Ca2+  Ca1  1  0.17069961  0.07979012  0.49775885  1
  Ca2+  Ca2  1  0.17754744  0.07969139  0.84234559  1
  Ca2+  Ca3  1  0.16012781  0.57386454  0.16927649  1
  Ca2+  Ca4  1  0.17008716  0.57455253  0.51170684  1
  Ca2+  Ca5  1  0.16765796  0.58115287  0.83536138  1
  Ca2+  Ca6  1  0.66903720  0.08185000  0.17743079  1
  Ca2+  Ca7  1  0.65447449  0.07270695  0.50052570  1
  Ca2+  Ca8  1  0.65528329  0.07813276  0.83513522  1
  Ca2+  Ca9  1  0.65820591  0.58003988  0.16907095  1
  Ca2+  Ca10  1  0.66991244  0.59103712  0.50859217  1
  Ca2+  Ca11  1  0.66838465  0.58502869  0.83957717  1
  Ca2+  Ca12  1  0.08235091  0.33222766  0.16287452  1
  Ca2+  Ca13  1  0.08633539  0.33202344  0.49343001  1
  Ca2+  Ca14  1  0.08057883  0.34459457  0.83257377  1
  Ca2+  Ca15  1  0.08573065  0.83160761  0.16331529  1
  Ca2+  Ca16  1  0.08828415  0.82755917  0.49441262  1
  Ca2+  Ca17  1  0.08444535  0.81896772  0.82737941  1
  Ca2+  Ca18  1  0.58528741  0.32160303  0.15872394  1
  Ca2+  Ca19  1  0.58341833  0.32210474  0.49401904  1
  Ca2+  Ca20  1  0.59134559  0.32212810  0.83142494  1
  Ca2+  Ca21  1  0.58318886  0.82788298  0.16675957  1
  Ca2+  Ca22  1  0.57737401  0.82947071  0.49482466  1
  Ca2+  Ca23  1  0.57858285  0.82515592  0.82326914  1
  Ca2+  Ca24  1  0.32158057  0.41575456  0.17258728  1
  Ca2+  Ca25  1  0.32313057  0.42198877  0.50631046  1
  Ca2+  Ca26  1  0.32440873  0.42251225  0.83655360  1
  Ca2+  Ca27  1  0.33283963  0.92507614  0.17482669  1
  Ca2+  Ca28  1  0.34117598  0.91573448  0.49758220  1
  Ca2+  Ca29  1  0.34140502  0.92108227  0.83530194  1
  Ca2+  Ca30  1  0.82981492  0.41316633  0.16347122  1
  Ca2+  Ca31  1  0.83014521  0.42370064  0.50531789  1
  Ca2+  Ca32  1  0.82930100  0.42096143  0.83821070  1
  Ca2+  Ca33  1  0.82659226  0.92479048  0.17902944  1
  Ca2+  Ca34  1  0.82013575  0.92174595  0.50152939  1
  Ca2+  Ca35  1  0.82482261  0.91613003  0.83308490  1
  Ca2+  Ca36  1  0.42377878  0.15692173  0.16472312  1
  Ca2+  Ca37  1  0.42382354  0.16377780  0.49471417  1
  Ca2+  Ca38  1  0.42328987  0.16624605  0.83140250  1
  Ca2+  Ca39  1  0.42409108  0.67330884  0.16451690  1
  Ca2+  Ca40  1  0.41988321  0.67465745  0.49514785  1
  Ca2+  Ca41  1  0.42487722  0.66839956  0.82168822  1
  Ca2+  Ca42  1  0.92188500  0.16807074  0.16460142  1
  Ca2+  Ca43  1  0.92311389  0.16467136  0.49062207  1
  Ca2+  Ca44  1  0.91621622  0.17748242  0.83108629  1
  Ca2+  Ca45  1  0.92289382  0.67091159  0.16100625  1
  Ca2+  Ca46  1  0.91930893  0.66358608  0.50171118  1
  Ca2+  Ca47  1  0.92648684  0.65724143  0.82881472  1
  Al0+  Al48  1  -0.00092735  0.00037769  -0.00247057  1
  Al0+  Al49  1  0.00105217  0.00029253  0.33569981  1
  Al0+  Al50  1  -0.00073336  0.00109994  0.66987876  1
  Al0+  Al51  1  -0.00064316  0.50061024  -0.00206676  1
  Al0+  Al52  1  -0.00197836  0.49948139  0.33657211  1
  Al0+  Al53  1  -0.00357959  0.49966375  0.66810585  1
  Al0+  Al54  1  0.50049798  -0.00066518  0.00118235  1
  Al0+  Al55  1  0.49966319  -0.00075394  0.33205486  1
  Al0+  Al56  1  0.50014054  -0.00054110  0.66490433  1
  Al0+  Al57  1  0.49968641  0.49901841  0.00110903  1
  Al0+  Al58  1  0.49897501  0.49846963  0.33093426  1
  Al0+  Al59  1  0.49898217  0.49656924  0.66711442  1
  Al0+  Al60  1  0.25202921  0.24974178  0.00810221  1
  Al0+  Al61  1  0.24874376  0.24967400  0.33837395  1
  Al0+  Al62  1  0.24884350  0.24891728  0.67198420  1
  Al0+  Al63  1  0.25004415  0.75090065  -0.00407769  1
  Al0+  Al64  1  0.25190364  0.74901381  0.32913221  1
  Al0+  Al65  1  0.24969987  0.74941899  0.66206563  1
  Al0+  Al66  1  0.75139009  0.25051898  -0.00527649  1
  Al0+  Al67  1  0.75174658  0.25292502  0.33355052  1
  Al0+  Al68  1  0.75255344  0.24938626  0.66005585  1
  Al0+  Al69  1  0.75030703  0.75098187  -0.00204626  1
  Al0+  Al70  1  0.75215509  0.74976989  0.33234024  1
  Al0+  Al71  1  0.75209070  0.75192867  0.67435019  1
  Al0+  Al72  1  0.06841949  0.67885627  0.65134177  1
  Al0+  Al73  1  0.07089540  0.17890454  0.32059826  1
  Al0+  Al74  1  0.32199931  0.07061974  0.35099177  1
  Al0+  Al75  1  0.17761808  0.43077387  0.34778151  1
  Al0+  Al76  1  0.57376183  0.67620361  0.65374063  1
  Al0+  Al77  1  0.42897646  0.82051400  0.65077533  1
  Al0+  Al78  1  0.67916369  0.92854745  0.34775857  1
  Al0+  Al79  1  0.57018137  0.18089947  0.65179452  1
  Al0+  Al80  1  0.67863658  0.93211122  0.68208494  1
  Al0+  Al81  1  0.57074045  0.67745167  0.98510506  1
  Al0+  Al82  1  0.67885167  0.42857942  0.01285451  1
  Al0+  Al83  1  0.82160042  0.07435647  0.34774858  1
  Al0+  Al84  1  0.17816783  0.42841136  0.68338836  1
  Al0+  Al85  1  0.57020298  0.17935806  0.98642225  1
  Al0+  Al86  1  0.32151932  0.06921143  0.01426554  1
  Al0+  Al87  1  0.57430425  0.67768379  0.31776430  1
  Al0+  Al88  1  0.42859033  0.82082871  0.31476198  1
  Al0+  Al89  1  0.17914343  0.92629636  0.34790531  1
  Al0+  Al90  1  0.32215367  0.57286833  0.68112067  1
  Al0+  Al91  1  0.57074455  0.18068033  0.31914281  1
  Al0+  Al92  1  0.17849590  0.43210153  0.01580720  1
  Al0+  Al93  1  0.81747192  0.57106373  0.68130492  1
  Al0+  Al94  1  0.93106200  0.31929045  0.98576882  1
  Al0+  Al95  1  0.06991360  0.68069957  0.98665567  1
  Si0+  Si96  1  0.82104324  0.57246174  0.01785922  1
  Si0+  Si97  1  0.17586071  0.92834955  0.68244491  1
  Si0+  Si98  1  0.67757196  0.42926818  0.34725800  1
  Si0+  Si99  1  0.92670625  0.82499807  0.98227774  1
  Si0+  Si100  1  0.07200748  0.17745041  0.65318842  1
  Si0+  Si101  1  0.32016595  0.06942811  0.68264641  1
  Si0+  Si102  1  0.68054397  0.92923563  0.01544001  1
  Si0+  Si103  1  0.07482611  0.17766053  0.98399314  1
  Si0+  Si104  1  0.93035263  0.82080630  0.31975639  1
  Si0+  Si105  1  0.67767694  0.42431066  0.68097910  1
  Si0+  Si106  1  0.82182866  0.07218553  0.01361360  1
  Si0+  Si107  1  0.42682913  0.32191174  0.31653438  1
  Si0+  Si108  1  0.07069968  0.67714081  0.31959984  1
  Si0+  Si109  1  0.32299864  0.57459334  0.01777022  1
  Si0+  Si110  1  0.42983326  0.82141100  0.98277053  1
  Si0+  Si111  1  0.42386524  0.32071630  0.65058322  1
  Si0+  Si112  1  0.82033936  0.57096421  0.34726357  1
  Si0+  Si113  1  0.32330783  0.57117305  0.34885996  1
  Si0+  Si114  1  0.93052849  0.32030681  0.64937612  1
  Si0+  Si115  1  0.17627422  0.92744891  0.01441316  1
  Si0+  Si116  1  0.92869414  0.82503616  0.64935166  1
  Si0+  Si117  1  0.42548312  0.32234368  0.98402613  1
  Si0+  Si118  1  0.92893476  0.32480223  0.31568948  1
  Si0+  Si119  1  0.82410831  0.07358464  0.68547197  1
  O2-  O120  1  0.24217569  -0.00189444  0.05830656  1
  O2-  O121  1  0.25128804  -0.00343281  0.40056343  1
  O2-  O122  1  0.24932529  -0.00265776  0.72428410  1
  O2-  O123  1  0.25337281  0.50671164  0.06286325  1
  O2-  O124  1  0.25198388  0.50542996  0.39334359  1
  O2-  O125  1  0.24951739  0.50150565  0.73226839  1
  O2-  O126  1  0.75309589  -0.00057195  0.05594250  1
  O2-  O127  1  0.74616806  0.00615051  0.39761642  1
  O2-  O128  1  0.75244220  0.00835550  0.73002901  1
  O2-  O129  1  0.74882671  0.50749956  0.06209770  1
  O2-  O130  1  0.74418403  0.50488784  0.38839573  1
  O2-  O131  1  0.73705886  0.50103702  0.72549677  1
  O2-  O132  1  -0.00402138  0.25356356  0.27359522  1
  O2-  O133  1  0.00262783  0.24953606  0.60994309  1
  O2-  O134  1  0.00814118  0.24709624  0.93760313  1
  O2-  O135  1  0.00442291  0.75258596  0.27726960  1
  O2-  O136  1  -0.00302252  0.75655861  0.60391982  1
  O2-  O137  1  -0.00337398  0.75700954  0.93957952  1
  O2-  O138  1  0.49526155  0.25366521  0.27093142  1
  O2-  O139  1  0.49698187  0.25709640  0.60576534  1
  O2-  O140  1  0.49667699  0.25561924  0.93991443  1
  O2-  O141  1  0.50295975  0.74977465  0.26689597  1
  O2-  O142  1  0.49926900  0.74506498  0.60331958  1
  O2-  O143  1  0.49409345  0.74927089  0.93832290  1
  O2-  O144  1  0.07153856  0.17615725  0.08922784  1
  O2-  O145  1  0.06940388  0.18114664  0.43423865  1
  O2-  O146  1  0.07031553  0.17567340  0.75843605  1
  O2-  O147  1  0.06699027  0.68181333  0.10043456  1
  O2-  O148  1  0.06697624  0.67511541  0.42439290  1
  O2-  O149  1  0.06660911  0.67931248  0.76461057  1
  O2-  O150  1  0.57146326  0.17875584  0.09922519  1
  O2-  O151  1  0.57005852  0.18377123  0.43227885  1
  O2-  O152  1  0.56846828  0.18117794  0.76536778  1
  O2-  O153  1  0.57122643  0.68067383  0.09799280  1
  O2-  O154  1  0.57548448  0.67721618  0.43085876  1
  O2-  O155  1  0.57277713  0.67985823  0.76762199  1
  O2-  O156  1  0.17540182  0.43324862  0.23444687  1
  O2-  O157  1  0.17931662  0.42728203  0.56970595  1
  O2-  O158  1  0.17883475  0.43393632  0.90310659  1
  O2-  O159  1  0.17800651  0.92813820  0.23387238  1
  O2-  O160  1  0.17080943  0.93182108  0.57801379  1
  O2-  O161  1  0.17629847  0.92811986  0.90840932  1
  O2-  O162  1  0.68017400  0.42700998  0.24216640  1
  O2-  O163  1  0.68364168  0.42046953  0.57523465  1
  O2-  O164  1  0.68358672  0.42681271  0.89987557  1
  O2-  O165  1  0.68432513  0.92750607  0.23346514  1
  O2-  O166  1  0.67957915  0.93284222  0.56956736  1
  O2-  O167  1  0.68010512  0.93016493  0.91028279  1
  O2-  O168  1  0.42493188  0.32138630  0.08955589  1
  O2-  O169  1  0.43049638  0.32371756  0.42223708  1
  O2-  O170  1  0.42054548  0.31668304  0.75615079  1
  O2-  O171  1  0.43121703  0.82253311  0.08793057  1
  O2-  O172  1  0.42823313  0.81723806  0.42794815  1
  O2-  O173  1  0.43196939  0.82366596  0.76492502  1
  O2-  O174  1  0.93061956  0.31675149  0.09873837  1
  O2-  O175  1  0.92996032  0.32894948  0.42133401  1
  O2-  O176  1  0.92839612  0.31935429  0.75456315  1
  O2-  O177  1  0.92610976  0.82591323  0.08813647  1
  O2-  O178  1  0.92800195  0.81730490  0.42452528  1
  O2-  O179  1  0.93224166  0.82709078  0.75518547  1
  O2-  O180  1  0.32012432  0.07028076  0.23725568  1
  O2-  O181  1  0.31875225  0.07189989  0.57816128  1
  O2-  O182  1  0.32182862  0.06702735  0.90027350  1
  O2-  O183  1  0.32277515  0.56863544  0.24298368  1
  O2-  O184  1  0.31898459  0.57105664  0.56736618  1
  O2-  O185  1  0.32213065  0.57407316  0.91242786  1
  O2-  O186  1  0.82140204  0.07185470  0.23325697  1
  O2-  O187  1  0.82903513  0.07190195  0.58069505  1
  O2-  O188  1  0.82295039  0.07107690  0.90847827  1
  O2-  O189  1  0.82558133  0.56946077  0.24237075  1
  O2-  O190  1  0.82055132  0.56752405  0.56763268  1
  O2-  O191  1  0.82168444  0.57044020  0.91242130  1
  O2-  O192  1  0.04083063  0.08219842  0.26585474  1
  O2-  O193  1  0.04240956  0.08616254  0.60583348  1
  O2-  O194  1  0.04850618  0.08407611  0.93676575  1
  O2-  O195  1  0.03492702  0.58788049  0.27140706  1
  O2-  O196  1  0.03244043  0.58315346  0.59840345  1
  O2-  O197  1  0.03598807  0.58592270  0.93203605  1
  O2-  O198  1  0.54356847  0.08305016  0.26643177  1
  O2-  O199  1  0.53542264  0.08572183  0.59937065  1
  O2-  O200  1  0.53679971  0.08299317  0.93286364  1
  O2-  O201  1  0.54438651  0.57834862  0.26592840  1
  O2-  O202  1  0.55390506  0.57361481  0.60519729  1
  O2-  O203  1  0.54511071  0.57836249  0.93391076  1
  O2-  O204  1  0.16750416  0.21059212  0.26741049  1
  O2-  O205  1  0.16450921  0.20377344  0.60701645  1
  O2-  O206  1  0.16997180  0.20148152  0.94082887  1
  O2-  O207  1  0.16334494  0.69830839  0.27166402  1
  O2-  O208  1  0.16494072  0.70720155  0.59735345  1
  O2-  O209  1  0.16664872  0.70961778  0.93122007  1
  O2-  O210  1  0.66822963  0.21388108  0.26713795  1
  O2-  O211  1  0.66799833  0.20815648  0.59811457  1
  O2-  O212  1  0.66623296  0.20927985  0.93075774  1
  O2-  O213  1  0.67393399  0.70400958  0.26456286  1
  O2-  O214  1  0.67367100  0.70745846  0.60546278  1
  O2-  O215  1  0.66852557  0.70894021  0.93345952  1
  O2-  O216  1  0.08131645  0.46399587  0.06877140  1
  O2-  O217  1  0.08107574  0.46155716  0.40220555  1
  O2-  O218  1  0.07891328  0.45748523  0.73319480  1
  O2-  O219  1  0.08058254  0.94915530  0.05864663  1
  O2-  O220  1  0.08108568  0.95396322  0.40165192  1
  O2-  O221  1  0.08592419  0.95850943  0.73326865  1
  O2-  O222  1  0.58066012  0.45268142  0.06722447  1
  O2-  O223  1  0.58382111  0.45023322  0.39352014  1
  O2-  O224  1  0.58033551  0.43540459  0.72313357  1
  O2-  O225  1  0.58947255  0.95802305  0.06242769  1
  O2-  O226  1  0.58013651  0.95365456  0.39886374  1
  O2-  O227  1  0.58258009  0.96481885  0.73704852  1
  O2-  O228  1  0.20748473  0.33456231  0.06912705  1
  O2-  O229  1  0.20750124  0.33479770  0.40207805  1
  O2-  O230  1  0.20518533  0.32952857  0.73749686  1
  O2-  O231  1  0.20221264  0.83381229  0.06001026  1
  O2-  O232  1  0.20475967  0.82561032  0.39794019  1
  O2-  O233  1  0.20174312  0.83531083  0.72730151  1
  O2-  O234  1  0.71621253  0.33308578  0.06629651  1
  O2-  O235  1  0.71088625  0.34084249  0.39789254  1
  O2-  O236  1  0.71455384  0.33413703  0.72824753  1
  O2-  O237  1  0.70883779  0.83729250  0.06242722  1
  O2-  O238  1  0.71479859  0.83193981  0.40020075  1
  O2-  O239  1  0.71251754  0.83786870  0.73918422  1
  O2-  O240  1  0.45078384  0.41505049  0.26853161  1
  O2-  O241  1  0.44383960  0.41558390  0.60528177  1
  O2-  O242  1  0.44789085  0.41672885  0.93879690  1
  O2-  O243  1  0.45570191  0.91972460  0.26297383  1
  O2-  O244  1  0.46019829  0.91791578  0.59800697  1
  O2-  O245  1  0.46093416  0.91316022  0.93585687  1
  O2-  O246  1  0.95724412  0.41708334  0.26757964  1
  O2-  O247  1  0.95723994  0.41180397  0.60150227  1
  O2-  O248  1  0.95935939  0.41646433  0.93187030  1
  O2-  O249  1  0.95584706  0.91268823  0.27149896  1
  O2-  O250  1  0.95356116  0.91932420  0.60436400  1
  O2-  O251  1  0.94968574  0.91874206  0.93443963  1
  O2-  O252  1  0.33230958  0.29660167  0.27299526  1
  O2-  O253  1  0.33191785  0.28937079  0.60355566  1
  O2-  O254  1  0.33298719  0.29288559  0.93728772  1
  O2-  O255  1  0.33074285  0.79095533  0.25917608  1
  O2-  O256  1  0.32918458  0.79822923  0.59821219  1
  O2-  O257  1  0.33406605  0.80272650  0.93783944  1
  O2-  O258  1  0.83492386  0.30148289  0.26971796  1
  O2-  O259  1  0.84044047  0.29226893  0.59849464  1
  O2-  O260  1  0.83724097  0.28600288  0.92768878  1
  O2-  O261  1  0.84169982  0.78915389  0.26803721  1
  O2-  O262  1  0.83503579  0.79759350  0.60599458  1
  O2-  O263  1  0.83402707  0.79824377  0.93526152  1
  O2-  O264  1  0.41670425  0.03456828  0.06860670  1
  O2-  O265  1  0.42083839  0.04336890  0.40256189  1
  O2-  O266  1  0.41150121  0.04064584  0.73022725  1
  O2-  O267  1  0.41616811  0.54864111  0.06420036  1
  O2-  O268  1  0.41579718  0.54296147  0.39596451  1
  O2-  O269  1  0.42067831  0.54327990  0.73478673  1
  O2-  O270  1  0.91500982  0.04643112  0.06070432  1
  O2-  O271  1  0.91810946  0.04184311  0.40123239  1
  O2-  O272  1  0.91614017  0.04618106  0.73552135  1
  O2-  O273  1  0.91286731  0.54243647  0.06479367  1
  O2-  O274  1  0.90879358  0.53776028  0.39863272  1
  O2-  O275  1  0.91097838  0.53244698  0.73653621  1
  O2-  O276  1  0.29594592  0.16585974  0.06978134  1
  O2-  O277  1  0.29189124  0.16811071  0.40478646  1
  O2-  O278  1  0.29084471  0.15962521  0.73279077  1
  O2-  O279  1  0.29718434  0.66934708  0.06182563  1
  O2-  O280  1  0.29966359  0.66569568  0.39188061  1
  O2-  O281  1  0.29365869  0.67204526  0.73318120  1
  O2-  O282  1  0.79297375  0.16330795  0.06016458  1
  O2-  O283  1  0.80126496  0.17552366  0.39862776  1
  O2-  O284  1  0.80011578  0.16929315  0.72802448  1
  O2-  O285  1  0.80058482  0.66868690  0.06153162  1
  O2-  O286  1  0.79852928  0.66360596  0.39507767  1
  O2-  O287  1  0.79813068  0.66876787  0.73803924  1
