# generated using pymatgen
data_Ca2Al2SiO7
_symmetry_space_group_name_H-M   'P 1'
_cell_length_a   15.46144773
_cell_length_b   15.45986903
_cell_length_c   15.28465316
_cell_angle_alpha   89.99917419
_cell_angle_beta   89.99801908
_cell_angle_gamma   89.96759089
_symmetry_Int_Tables_number   1
_chemical_formula_structural   Ca2Al2SiO7
_chemical_formula_sum   'Ca48 Al48 Si24 O168'
_cell_volume   3653.51996979
_cell_formula_units_Z   24
loop_
 _symmetry_equiv_pos_site_id
 _symmetry_equiv_pos_as_xyz
  1  'x, y, z'
loop_
 _atom_type_symbol
 _atom_type_oxidation_number
  Ca2+  2.0
  Al0+  0.0
  Si0+  0.0
  O2-  -2.0
loop_
 _atom_site_type_symbol
 _atom_site_label
 _atom_site_symmetry_multiplicity
 _atom_site_fract_x
 _atom_site_fract_y
 _atom_site_fract_z
 _atom_site_occupancy
  Ca2+  Ca0  1  0.16860908  0.08414308  0.17156956  1
  Ca2+  Ca1  1  0.16001971  0.07946278  0.50263166  1
  Ca2+  Ca2  1  0.17044389  0.08704156  0.83951208  1
  Ca2+  Ca3  1  0.17275419  0.57799320  0.17442181  1
  Ca2+  Ca4  1  0.15840576  0.57265975  0.50482408  1
  Ca2+  Ca5  1  0.16722030  0.57740911  0.83800309  1
  Ca2+  Ca6  1  0.66397349  0.08887833  0.17047330  1
  Ca2+  Ca7  1  0.67346775  0.08266595  0.51073250  1
  Ca2+  Ca8  1  0.66825182  0.08022212  0.83649184  1
  Ca2+  Ca9  1  0.67248158  0.58695707  0.17011848  1
  Ca2+  Ca10  1  0.66477364  0.58608808  0.50256924  1
  Ca2+  Ca11  1  0.67360336  0.58136115  0.84186596  1
  Ca2+  Ca12  1  0.08680617  0.32497166  0.16289287  1
  Ca2+  Ca13  1  0.09137010  0.32416773  0.49641930  1
  Ca2+  Ca14  1  0.08706638  0.32373996  0.83002906  1
  Ca2+  Ca15  1  0.08308467  0.83114110  0.16347512  1
  Ca2+  Ca16  1  0.08299656  0.82423130  0.49487498  1
  Ca2+  Ca17  1  0.07226572  0.82591045  0.82516468  1
  Ca2+  Ca18  1  0.57363336  0.32279419  0.16097661  1
  Ca2+  Ca19  1  0.57060501  0.33093147  0.49081253  1
  Ca2+  Ca20  1  0.57216227  0.33092515  0.83210528  1
  Ca2+  Ca21  1  0.57727331  0.82807664  0.16168499  1
  Ca2+  Ca22  1  0.58076360  0.83427291  0.50021952  1
  Ca2+  Ca23  1  0.57189316  0.83832901  0.82914337  1
  Ca2+  Ca24  1  0.33439890  0.41629817  0.17017480  1
  Ca2+  Ca25  1  0.32567609  0.41070226  0.50438700  1
  Ca2+  Ca26  1  0.33182403  0.41730733  0.83786878  1
  Ca2+  Ca27  1  0.33072862  0.92286795  0.16813062  1
  Ca2+  Ca28  1  0.32873869  0.91651877  0.50350877  1
  Ca2+  Ca29  1  0.33558474  0.92100624  0.84367221  1
  Ca2+  Ca30  1  0.83824425  0.41832454  0.16590154  1
  Ca2+  Ca31  1  0.83021398  0.41812218  0.50566504  1
  Ca2+  Ca32  1  0.83655482  0.42197347  0.84439494  1
  Ca2+  Ca33  1  0.83462193  0.91647506  0.16887012  1
  Ca2+  Ca34  1  0.82695978  0.92155819  0.51302376  1
  Ca2+  Ca35  1  0.83351346  0.91547756  0.83392169  1
  Ca2+  Ca36  1  0.41876696  0.17520555  0.15797238  1
  Ca2+  Ca37  1  0.41888255  0.17869684  0.49416842  1
  Ca2+  Ca38  1  0.41491103  0.17380085  0.83301930  1
  Ca2+  Ca39  1  0.41796883  0.66921499  0.16037991  1
  Ca2+  Ca40  1  0.42058474  0.67372897  0.49677833  1
  Ca2+  Ca41  1  0.40779484  0.67762446  0.83149679  1
  Ca2+  Ca42  1  0.93053030  0.17150563  0.15850651  1
  Ca2+  Ca43  1  0.92596614  0.15975619  0.49937978  1
  Ca2+  Ca44  1  0.92813929  0.16539732  0.82941739  1
  Ca2+  Ca45  1  0.92352616  0.66981079  0.15985449  1
  Ca2+  Ca46  1  0.92751970  0.67001109  0.49963178  1
  Ca2+  Ca47  1  0.91597736  0.67439912  0.82879061  1
  Al0+  Al48  1  -0.00176250  -0.00234383  -0.00639353  1
  Al0+  Al49  1  -0.00042402  0.00061401  0.33398962  1
  Al0+  Al50  1  -0.00078313  -0.00065088  0.66413310  1
  Al0+  Al51  1  0.00042599  0.49929944  0.00415724  1
  Al0+  Al52  1  0.00086894  0.50282410  0.33460987  1
  Al0+  Al53  1  -0.00039973  0.49770684  0.66960447  1
  Al0+  Al54  1  0.49972264  -0.00124758  -0.00020591  1
  Al0+  Al55  1  0.50071626  0.00006100  0.33339326  1
  Al0+  Al56  1  0.49980128  0.00035327  0.66524302  1
  Al0+  Al57  1  0.50129327  0.49875003  0.00183944  1
  Al0+  Al58  1  0.50177100  0.50281401  0.32684159  1
  Al0+  Al59  1  0.49813023  0.50069386  0.66393258  1
  Al0+  Al60  1  0.25173235  0.24869887  -0.00194528  1
  Al0+  Al61  1  0.24980802  0.25118715  0.32963634  1
  Al0+  Al62  1  0.24900113  0.24991878  0.66289793  1
  Al0+  Al63  1  0.25008151  0.74843348  0.00143329  1
  Al0+  Al64  1  0.24935139  0.75086460  0.33397743  1
  Al0+  Al65  1  0.25075023  0.74866032  0.65779773  1
  Al0+  Al66  1  0.75044459  0.24892761  -0.00493026  1
  Al0+  Al67  1  0.74969660  0.25235803  0.33316189  1
  Al0+  Al68  1  0.75093482  0.25007405  0.67365461  1
  Al0+  Al69  1  0.75045239  0.74917290  0.00250905  1
  Al0+  Al70  1  0.74984912  0.75169604  0.33236909  1
  Al0+  Al71  1  0.74863573  0.75039695  0.66804247  1
  Al0+  Al72  1  0.67743058  0.92855241  0.68381147  1
  Al0+  Al73  1  0.92724861  0.82050992  0.65034886  1
  Al0+  Al74  1  0.42840443  0.82373056  0.65220677  1
  Al0+  Al75  1  0.32175306  0.57188207  0.01342251  1
  Al0+  Al76  1  0.17945594  0.42815495  0.68147573  1
  Al0+  Al77  1  0.57290518  0.17834155  0.32050772  1
  Al0+  Al78  1  0.07181941  0.17825553  0.98456476  1
  Al0+  Al79  1  0.32094018  0.07035861  0.01315203  1
  Al0+  Al80  1  0.82327223  0.07145886  0.68484038  1
  Al0+  Al81  1  0.42941400  0.32150957  0.65185583  1
  Al0+  Al82  1  0.17841731  0.92975062  0.34730537  1
  Al0+  Al83  1  0.06909016  0.17857710  0.31983607  1
  Al0+  Al84  1  0.07015332  0.17980121  0.65150545  1
  Al0+  Al85  1  0.42874546  0.81855348  0.98858928  1
  Al0+  Al86  1  0.93015959  0.32247765  0.98605365  1
  Al0+  Al87  1  0.42786574  0.32132908  0.31692157  1
  Al0+  Al88  1  0.07099549  0.67636797  0.65234852  1
  Al0+  Al89  1  0.57161185  0.17636420  0.98297892  1
  Al0+  Al90  1  0.57205009  0.68149557  0.31943450  1
  Al0+  Al91  1  0.92767979  0.81916953  0.98658027  1
  Al0+  Al92  1  0.07159598  0.67832483  0.31788887  1
  Al0+  Al93  1  0.42913705  0.32251469  0.98312663  1
  Al0+  Al94  1  0.82121943  0.57102314  0.01543412  1
  Al0+  Al95  1  0.18018645  0.43001759  0.34715012  1
  Si0+  Si96  1  0.82200412  0.07070662  0.01628041  1
  Si0+  Si97  1  0.57265367  0.67805689  0.98403588  1
  Si0+  Si98  1  0.81970218  0.56930223  0.68137366  1
  Si0+  Si99  1  0.57293965  0.17944922  0.65107560  1
  Si0+  Si100  1  0.67964547  0.43076436  0.34820992  1
  Si0+  Si101  1  0.92909541  0.82140601  0.31720700  1
  Si0+  Si102  1  0.17931480  0.92578448  0.68041301  1
  Si0+  Si103  1  0.31904228  0.06972827  0.67969106  1
  Si0+  Si104  1  0.67918624  0.92945423  0.01721463  1
  Si0+  Si105  1  0.32262774  0.07202930  0.35043364  1
  Si0+  Si106  1  0.92692456  0.32422403  0.31918795  1
  Si0+  Si107  1  0.07277527  0.67764497  0.98495758  1
  Si0+  Si108  1  0.57122978  0.67816126  0.65229766  1
  Si0+  Si109  1  0.67913501  0.92822060  0.34789648  1
  Si0+  Si110  1  0.32282618  0.57241939  0.68208504  1
  Si0+  Si111  1  0.17611775  0.92760943  0.01429277  1
  Si0+  Si112  1  0.17955985  0.42759054  0.01742496  1
  Si0+  Si113  1  0.67875403  0.42597565  0.01864823  1
  Si0+  Si114  1  0.67578742  0.42945745  0.68127984  1
  Si0+  Si115  1  0.42697600  0.82288554  0.31589221  1
  Si0+  Si116  1  0.82076341  0.57334461  0.35041356  1
  Si0+  Si117  1  0.92600420  0.32228786  0.65058851  1
  Si0+  Si118  1  0.32469975  0.57313859  0.35104104  1
  Si0+  Si119  1  0.81982231  0.07230412  0.34659404  1
  O2-  O120  1  0.24301433  -0.00199111  0.05875698  1
  O2-  O121  1  0.25348188  0.00397485  0.39546637  1
  O2-  O122  1  0.25067069  -0.00388857  0.72289236  1
  O2-  O123  1  0.24904122  0.49598815  0.06094160  1
  O2-  O124  1  0.25642645  0.50392599  0.39483527  1
  O2-  O125  1  0.25277253  0.50520581  0.72622957  1
  O2-  O126  1  0.74936253  0.00152116  0.05998888  1
  O2-  O127  1  0.74568484  0.00403858  0.38843395  1
  O2-  O128  1  0.75047383  -0.00067196  0.73414603  1
  O2-  O129  1  0.74835737  0.49450744  0.06296165  1
  O2-  O130  1  0.75045212  0.50137788  0.39282577  1
  O2-  O131  1  0.74870539  0.49830573  0.72364791  1
  O2-  O132  1  -0.00377655  0.25610658  0.27585732  1
  O2-  O133  1  -0.00742854  0.25255671  0.60544966  1
  O2-  O134  1  0.00098176  0.25124802  0.93426644  1
  O2-  O135  1  -0.00130697  0.75478197  0.27173977  1
  O2-  O136  1  0.00167216  0.75090322  0.60122952  1
  O2-  O137  1  0.00232111  0.74427810  0.94092786  1
  O2-  O138  1  0.49800027  0.24601471  0.26978312  1
  O2-  O139  1  0.50698565  0.24958265  0.60575449  1
  O2-  O140  1  0.50006062  0.24896949  0.93369720  1
  O2-  O141  1  0.49550692  0.75357175  0.27269954  1
  O2-  O142  1  0.50440271  0.74875990  0.60832830  1
  O2-  O143  1  0.50045628  0.74206128  0.93941068  1
  O2-  O144  1  0.07009646  0.17754989  0.09844450  1
  O2-  O145  1  0.06647657  0.17738047  0.43288978  1
  O2-  O146  1  0.07279226  0.18116542  0.76405780  1
  O2-  O147  1  0.07244969  0.67997650  0.09075330  1
  O2-  O148  1  0.06709516  0.67706884  0.43059655  1
  O2-  O149  1  0.06922602  0.67714875  0.76619957  1
  O2-  O150  1  0.57072588  0.17793791  0.09675158  1
  O2-  O151  1  0.57541572  0.18187357  0.43425735  1
  O2-  O152  1  0.57091160  0.17953634  0.75626799  1
  O2-  O153  1  0.57429050  0.68253659  0.08978479  1
  O2-  O154  1  0.57324699  0.68387925  0.43274245  1
  O2-  O155  1  0.57097293  0.67490448  0.75754849  1
  O2-  O156  1  0.17918990  0.43194706  0.23421423  1
  O2-  O157  1  0.18098242  0.42799242  0.56824850  1
  O2-  O158  1  0.17886310  0.42927486  0.91166504  1
  O2-  O159  1  0.17822407  0.93097360  0.23408848  1
  O2-  O160  1  0.18072833  0.92734267  0.57513527  1
  O2-  O161  1  0.17815824  0.92582289  0.90851187  1
  O2-  O162  1  0.68260455  0.43037288  0.24373192  1
  O2-  O163  1  0.67662272  0.43120973  0.57576417  1
  O2-  O164  1  0.67802253  0.42961906  0.91258693  1
  O2-  O165  1  0.68155870  0.92489404  0.24285597  1
  O2-  O166  1  0.67766102  0.93084333  0.56933772  1
  O2-  O167  1  0.67935943  0.92804448  0.91262375  1
  O2-  O168  1  0.43059747  0.32207709  0.09642227  1
  O2-  O169  1  0.43005246  0.32076605  0.43102056  1
  O2-  O170  1  0.43090526  0.32162054  0.76439343  1
  O2-  O171  1  0.43153624  0.81849801  0.10166595  1
  O2-  O172  1  0.42895060  0.82333396  0.42170442  1
  O2-  O173  1  0.42728848  0.82243618  0.76529611  1
  O2-  O174  1  0.93189993  0.32022669  0.10021168  1
  O2-  O175  1  0.92321792  0.32315263  0.42484277  1
  O2-  O176  1  0.92695669  0.32438075  0.75566868  1
  O2-  O177  1  0.92841636  0.81939320  0.10007718  1
  O2-  O178  1  0.92723183  0.81960995  0.42233838  1
  O2-  O179  1  0.92761796  0.81657444  0.76400698  1
  O2-  O180  1  0.32313472  0.06930321  0.24492844  1
  O2-  O181  1  0.31826088  0.06928892  0.57441712  1
  O2-  O182  1  0.32062226  0.06803311  0.89947045  1
  O2-  O183  1  0.32357510  0.57357536  0.24530229  1
  O2-  O184  1  0.32675901  0.57137226  0.57662575  1
  O2-  O185  1  0.31727809  0.57472241  0.90029474  1
  O2-  O186  1  0.82085385  0.07070488  0.24142084  1
  O2-  O187  1  0.81991609  0.07232517  0.57012866  1
  O2-  O188  1  0.82278970  0.06813089  0.91190408  1
  O2-  O189  1  0.81974922  0.57403252  0.24556783  1
  O2-  O190  1  0.81825681  0.56801579  0.57582413  1
  O2-  O191  1  0.81758652  0.57180205  0.90193284  1
  O2-  O192  1  0.03576405  0.08322520  0.26500207  1
  O2-  O193  1  0.04063308  0.08262688  0.59793547  1
  O2-  O194  1  0.04257985  0.08040319  0.93149003  1
  O2-  O195  1  0.03766791  0.58337495  0.26313245  1
  O2-  O196  1  0.03700919  0.57887924  0.60005461  1
  O2-  O197  1  0.04893779  0.58292731  0.94199500  1
  O2-  O198  1  0.55156360  0.07719086  0.27032549  1
  O2-  O199  1  0.54621932  0.08660022  0.60458799  1
  O2-  O200  1  0.54335320  0.07790950  0.93153342  1
  O2-  O201  1  0.54722140  0.58508282  0.26322454  1
  O2-  O202  1  0.54406472  0.58642259  0.60246629  1
  O2-  O203  1  0.55381451  0.58224726  0.94137822  1
  O2-  O204  1  0.16599831  0.20690508  0.26674602  1
  O2-  O205  1  0.16495479  0.21219845  0.59542892  1
  O2-  O206  1  0.17000254  0.20570706  0.93222125  1
  O2-  O207  1  0.16927142  0.70755286  0.26596046  1
  O2-  O208  1  0.16898822  0.70075109  0.59717522  1
  O2-  O209  1  0.16488421  0.70452079  0.93770578  1
  O2-  O210  1  0.67014794  0.21002573  0.26633137  1
  O2-  O211  1  0.66850484  0.20352719  0.60830448  1
  O2-  O212  1  0.67028681  0.20292125  0.93054386  1
  O2-  O213  1  0.66771983  0.71451640  0.26423257  1
  O2-  O214  1  0.66471616  0.70195049  0.60522433  1
  O2-  O215  1  0.66458320  0.70756491  0.93756348  1
  O2-  O216  1  0.08647817  0.45277468  0.06484992  1
  O2-  O217  1  0.08302688  0.46163788  0.40131174  1
  O2-  O218  1  0.08204444  0.45629327  0.73587986  1
  O2-  O219  1  0.08127874  0.95100461  0.05929542  1
  O2-  O220  1  0.08160983  0.96075961  0.40193478  1
  O2-  O221  1  0.08681922  0.95260708  0.72598323  1
  O2-  O222  1  0.58622149  0.45270719  0.06591022  1
  O2-  O223  1  0.58794154  0.46095199  0.39507148  1
  O2-  O224  1  0.58528093  0.46066913  0.72922683  1
  O2-  O225  1  0.58758535  0.95576672  0.06575240  1
  O2-  O226  1  0.58525824  0.94969805  0.39455812  1
  O2-  O227  1  0.57847983  0.95861593  0.73552917  1
  O2-  O228  1  0.20554092  0.33366940  0.06202586  1
  O2-  O229  1  0.20977869  0.33198585  0.40013125  1
  O2-  O230  1  0.21356331  0.33204148  0.73432019  1
  O2-  O231  1  0.20382751  0.83513056  0.06195299  1
  O2-  O232  1  0.20885633  0.83283862  0.40196361  1
  O2-  O233  1  0.20634908  0.83270267  0.72538438  1
  O2-  O234  1  0.70486162  0.33178161  0.06331738  1
  O2-  O235  1  0.70741419  0.33963506  0.39832942  1
  O2-  O236  1  0.69981305  0.33752120  0.72939490  1
  O2-  O237  1  0.70918725  0.83826687  0.06553808  1
  O2-  O238  1  0.71132947  0.83866509  0.39786215  1
  O2-  O239  1  0.70262387  0.82855792  0.73567584  1
  O2-  O240  1  0.45858211  0.41929148  0.26566937  1
  O2-  O241  1  0.45871845  0.41845747  0.59747219  1
  O2-  O242  1  0.45934338  0.42114103  0.93086270  1
  O2-  O243  1  0.45379224  0.91626847  0.27057499  1
  O2-  O244  1  0.45939981  0.91921029  0.59590389  1
  O2-  O245  1  0.46209516  0.91325694  0.93399829  1
  O2-  O246  1  0.95114215  0.41843458  0.27465179  1
  O2-  O247  1  0.95134393  0.41550854  0.60381709  1
  O2-  O248  1  0.95587628  0.42251094  0.93477482  1
  O2-  O249  1  0.95333171  0.91537760  0.27157479  1
  O2-  O250  1  0.95261105  0.91940063  0.59842227  1
  O2-  O251  1  0.95591565  0.91431231  0.93003366  1
  O2-  O252  1  0.33003744  0.29514489  0.26341027  1
  O2-  O253  1  0.33525369  0.28587437  0.59730113  1
  O2-  O254  1  0.33120546  0.29394505  0.93082116  1
  O2-  O255  1  0.33357128  0.79808919  0.27057770  1
  O2-  O256  1  0.33451066  0.79191879  0.59406544  1
  O2-  O257  1  0.33166607  0.79008409  0.93409312  1
  O2-  O258  1  0.83400392  0.29922396  0.27173666  1
  O2-  O259  1  0.83033527  0.29971672  0.60605356  1
  O2-  O260  1  0.83087049  0.29870049  0.93398861  1
  O2-  O261  1  0.83619053  0.79428938  0.27052574  1
  O2-  O262  1  0.82854089  0.79041844  0.59848635  1
  O2-  O263  1  0.83151741  0.78668759  0.93331417  1
  O2-  O264  1  0.41606095  0.03592359  0.06851955  1
  O2-  O265  1  0.41637519  0.04585690  0.39752891  1
  O2-  O266  1  0.41191216  0.04496266  0.72595338  1
  O2-  O267  1  0.42034435  0.54530162  0.06661399  1
  O2-  O268  1  0.42030340  0.54986252  0.39475781  1
  O2-  O269  1  0.41584897  0.54622531  0.72971166  1
  O2-  O270  1  0.91325696  0.03899145  0.06378829  1
  O2-  O271  1  0.90981126  0.04134544  0.39561751  1
  O2-  O272  1  0.92205794  0.04158630  0.73618963  1
  O2-  O273  1  0.91820754  0.54248853  0.07090284  1
  O2-  O274  1  0.91206067  0.54576228  0.39842736  1
  O2-  O275  1  0.91043215  0.54158714  0.73007514  1
  O2-  O276  1  0.29259183  0.16744070  0.06748411  1
  O2-  O277  1  0.29746578  0.16646209  0.39416617  1
  O2-  O278  1  0.28782378  0.16034659  0.72692352  1
  O2-  O279  1  0.29046652  0.66747496  0.07045823  1
  O2-  O280  1  0.29983430  0.66741640  0.39605886  1
  O2-  O281  1  0.29757820  0.66761849  0.72542678  1
  O2-  O282  1  0.79628810  0.16390031  0.06237384  1
  O2-  O283  1  0.79524890  0.16511816  0.39434526  1
  O2-  O284  1  0.79742143  0.17065277  0.73814756  1
  O2-  O285  1  0.78751566  0.66620278  0.07168675  1
  O2-  O286  1  0.78986151  0.66449426  0.39793025  1
  O2-  O287  1  0.79108521  0.66071564  0.72867653  1
