# generated using pymatgen
data_Ca2Al2SiO7
_symmetry_space_group_name_H-M   'P 1'
_cell_length_a   15.45641141
_cell_length_b   15.45612782
_cell_length_c   15.28242062
_cell_angle_alpha   90.01341515
_cell_angle_beta   90.01241281
_cell_angle_gamma   90.00033007
_symmetry_Int_Tables_number   1
_chemical_formula_structural   Ca2Al2SiO7
_chemical_formula_sum   'Ca48 Al48 Si24 O168'
_cell_volume   3650.91310393
_cell_formula_units_Z   24
loop_
 _symmetry_equiv_pos_site_id
 _symmetry_equiv_pos_as_xyz
  1  'x, y, z'
loop_
 _atom_type_symbol
 _atom_type_oxidation_number
  Ca2+  2.0
  Al0+  0.0
  Si0+  0.0
  O2-  -2.0
loop_
 _atom_site_type_symbol
 _atom_site_label
 _atom_site_symmetry_multiplicity
 _atom_site_fract_x
 _atom_site_fract_y
 _atom_site_fract_z
 _atom_site_occupancy
  Ca2+  Ca0  1  0.16914649  0.07446999  0.17796326  1
  Ca2+  Ca1  1  0.16471215  0.08566514  0.50032434  1
  Ca2+  Ca2  1  0.16530883  0.07902725  0.83767109  1
  Ca2+  Ca3  1  0.16957713  0.57544706  0.16829751  1
  Ca2+  Ca4  1  0.16030796  0.57326137  0.50695304  1
  Ca2+  Ca5  1  0.16333904  0.57633413  0.83672396  1
  Ca2+  Ca6  1  0.66003338  0.07622733  0.17205243  1
  Ca2+  Ca7  1  0.66244206  0.07879824  0.49886504  1
  Ca2+  Ca8  1  0.67066492  0.07678402  0.84231296  1
  Ca2+  Ca9  1  0.66783371  0.57611266  0.16819806  1
  Ca2+  Ca10  1  0.67325497  0.57806295  0.51366157  1
  Ca2+  Ca11  1  0.66678034  0.57639043  0.83343454  1
  Ca2+  Ca12  1  0.08674210  0.33386839  0.16796494  1
  Ca2+  Ca13  1  0.07780694  0.33353565  0.49231702  1
  Ca2+  Ca14  1  0.08192781  0.33323630  0.82143059  1
  Ca2+  Ca15  1  0.08039875  0.84112674  0.15848133  1
  Ca2+  Ca16  1  0.08123909  0.82905938  0.49783158  1
  Ca2+  Ca17  1  0.07460962  0.82981383  0.82519496  1
  Ca2+  Ca18  1  0.58641790  0.31984692  0.15825618  1
  Ca2+  Ca19  1  0.58434162  0.32911057  0.49309490  1
  Ca2+  Ca20  1  0.58869050  0.33363490  0.83097268  1
  Ca2+  Ca21  1  0.57745765  0.84199100  0.16388407  1
  Ca2+  Ca22  1  0.57538509  0.83136095  0.49570412  1
  Ca2+  Ca23  1  0.57794493  0.82599806  0.82347582  1
  Ca2+  Ca24  1  0.32533012  0.42111384  0.16887245  1
  Ca2+  Ca25  1  0.31923854  0.41077856  0.50497755  1
  Ca2+  Ca26  1  0.32164028  0.42542018  0.84096356  1
  Ca2+  Ca27  1  0.32281693  0.91886025  0.17749064  1
  Ca2+  Ca28  1  0.33579295  0.91847635  0.49721411  1
  Ca2+  Ca29  1  0.32703827  0.91273173  0.83705554  1
  Ca2+  Ca30  1  0.83183939  0.41276001  0.16966903  1
  Ca2+  Ca31  1  0.83306888  0.41748570  0.51088272  1
  Ca2+  Ca32  1  0.82922319  0.42020935  0.83139595  1
  Ca2+  Ca33  1  0.82230229  0.91376137  0.16993788  1
  Ca2+  Ca34  1  0.82992804  0.91536871  0.50466975  1
  Ca2+  Ca35  1  0.83268081  0.91270109  0.84003082  1
  Ca2+  Ca36  1  0.42490678  0.15746878  0.16732966  1
  Ca2+  Ca37  1  0.42073261  0.16429173  0.49151171  1
  Ca2+  Ca38  1  0.42452742  0.16630576  0.83257302  1
  Ca2+  Ca39  1  0.41204840  0.67093551  0.16372222  1
  Ca2+  Ca40  1  0.41942761  0.67609480  0.49845368  1
  Ca2+  Ca41  1  0.41937249  0.66819367  0.82542592  1
  Ca2+  Ca42  1  0.92165079  0.17055273  0.16822000  1
  Ca2+  Ca43  1  0.92754981  0.17903837  0.49620243  1
  Ca2+  Ca44  1  0.92595080  0.17365954  0.82347713  1
  Ca2+  Ca45  1  0.92066243  0.67458035  0.16121480  1
  Ca2+  Ca46  1  0.91924565  0.66367522  0.50447117  1
  Ca2+  Ca47  1  0.91682990  0.67598566  0.82439656  1
  Al0+  Al48  1  -0.00126732  0.00222113  -0.00090669  1
  Al0+  Al49  1  -0.00195134  0.00085406  0.33402409  1
  Al0+  Al50  1  -0.00000941  0.00044350  0.65983629  1
  Al0+  Al51  1  -0.00046876  0.50040231  0.00373415  1
  Al0+  Al52  1  -0.00087860  0.50192965  0.33072359  1
  Al0+  Al53  1  -0.00305568  0.50170621  0.67044977  1
  Al0+  Al54  1  0.50109444  -0.00013231  -0.00447973  1
  Al0+  Al55  1  0.49887724  -0.00205221  0.33368130  1
  Al0+  Al56  1  0.49893294  0.00083098  0.66583234  1
  Al0+  Al57  1  0.50020852  0.49973336  0.00856488  1
  Al0+  Al58  1  0.50102621  0.50092638  0.33349078  1
  Al0+  Al59  1  0.49879083  0.49832235  0.66538278  1
  Al0+  Al60  1  0.25248183  0.25040704  0.00264449  1
  Al0+  Al61  1  0.25044776  0.25035616  0.33622409  1
  Al0+  Al62  1  0.25351817  0.24747828  0.67085239  1
  Al0+  Al63  1  0.24912889  0.74968142  0.00606717  1
  Al0+  Al64  1  0.25046565  0.74979680  0.33285741  1
  Al0+  Al65  1  0.24953031  0.75148154  0.65869768  1
  Al0+  Al66  1  0.75205922  0.24941440  -0.00206077  1
  Al0+  Al67  1  0.75039513  0.24888234  0.32550186  1
  Al0+  Al68  1  0.75157456  0.24689385  0.66721498  1
  Al0+  Al69  1  0.74922467  0.75036112  0.00095997  1
  Al0+  Al70  1  0.74979694  0.74840618  0.33711470  1
  Al0+  Al71  1  0.74823892  0.74916968  0.66354241  1
  Al0+  Al72  1  0.92705813  0.82221827  0.65014433  1
  Al0+  Al73  1  0.07069157  0.67847192  0.65254409  1
  Al0+  Al74  1  0.57132024  0.17855882  0.98387606  1
  Al0+  Al75  1  0.18016176  0.43179453  0.34833998  1
  Al0+  Al76  1  0.32015844  0.06991841  0.34862233  1
  Al0+  Al77  1  0.67925307  0.92923506  0.34855451  1
  Al0+  Al78  1  0.57001440  0.67612338  0.65211940  1
  Al0+  Al79  1  0.67951911  0.92883136  0.01185613  1
  Al0+  Al80  1  0.68092144  0.42790460  0.01509905  1
  Al0+  Al81  1  0.93003251  0.32343428  0.31604742  1
  Al0+  Al82  1  0.82028622  0.57292151  0.68345097  1
  Al0+  Al83  1  0.07274423  0.17899702  0.31665788  1
  Al0+  Al84  1  0.92941652  0.32110813  0.65395822  1
  Al0+  Al85  1  0.43059518  0.81845883  0.31669057  1
  Al0+  Al86  1  0.07525653  0.17930761  0.65235346  1
  Al0+  Al87  1  0.17810966  0.93150544  0.01054763  1
  Al0+  Al88  1  0.92878247  0.82162285  0.98783915  1
  Al0+  Al89  1  0.32182292  0.57229493  0.01504692  1
  Al0+  Al90  1  0.56897671  0.17997382  0.31978959  1
  Al0+  Al91  1  0.17866988  0.42889773  0.67975118  1
  Al0+  Al92  1  0.67706691  0.42559686  0.68053306  1
  Al0+  Al93  1  0.42821401  0.82318259  0.65101172  1
  Al0+  Al94  1  0.17524674  0.92747635  0.35101160  1
  Al0+  Al95  1  0.17675566  0.42724450  0.01598221  1
  Si0+  Si96  1  0.82234417  0.06885751  0.68130808  1
  Si0+  Si97  1  0.32092036  0.57357882  0.68038734  1
  Si0+  Si98  1  0.68016425  0.42712663  0.34628184  1
  Si0+  Si99  1  0.67778449  0.93051569  0.68135768  1
  Si0+  Si100  1  0.92999872  0.32246264  0.98335374  1
  Si0+  Si101  1  0.07266234  0.18011344  0.98589077  1
  Si0+  Si102  1  0.42793656  0.81994908  0.98555690  1
  Si0+  Si103  1  0.42734381  0.32498775  0.31629778  1
  Si0+  Si104  1  0.42913750  0.32352443  0.98315915  1
  Si0+  Si105  1  0.07030198  0.67978819  0.31684825  1
  Si0+  Si106  1  0.32419742  0.57286208  0.35286133  1
  Si0+  Si107  1  0.32352190  0.07024753  0.68475315  1
  Si0+  Si108  1  0.82241382  0.07271267  0.01706703  1
  Si0+  Si109  1  0.17836816  0.92910996  0.68055745  1
  Si0+  Si110  1  0.57439083  0.67712183  0.31428911  1
  Si0+  Si111  1  0.32361967  0.07133570  0.01541986  1
  Si0+  Si112  1  0.82101072  0.07364309  0.35123460  1
  Si0+  Si113  1  0.82033201  0.57054009  0.34840329  1
  Si0+  Si114  1  0.57170323  0.17891463  0.65228395  1
  Si0+  Si115  1  0.92709372  0.82103385  0.31810384  1
  Si0+  Si116  1  0.42967835  0.32009423  0.65341571  1
  Si0+  Si117  1  0.57074077  0.67720570  0.98661328  1
  Si0+  Si118  1  0.07222946  0.67823139  0.98489969  1
  Si0+  Si119  1  0.82123651  0.57286151  0.01839633  1
  O2-  O120  1  0.25263258  0.00518527  0.05853295  1
  O2-  O121  1  0.24528149  0.00185960  0.40065931  1
  O2-  O122  1  0.24998860  -0.00003842  0.72373145  1
  O2-  O123  1  0.24920539  0.50009137  0.06377548  1
  O2-  O124  1  0.25696551  0.50333407  0.39718528  1
  O2-  O125  1  0.25031629  0.50743370  0.72560886  1
  O2-  O126  1  0.75293302  0.00403290  0.06008292  1
  O2-  O127  1  0.75412678  0.00321639  0.39614837  1
  O2-  O128  1  0.75276829  -0.00345267  0.72460649  1
  O2-  O129  1  0.75560044  0.50171334  0.06367464  1
  O2-  O130  1  0.74979881  0.49823188  0.38894367  1
  O2-  O131  1  0.74719387  0.49972346  0.73058586  1
  O2-  O132  1  0.00302322  0.25264782  0.26518363  1
  O2-  O133  1  0.00775534  0.25625812  0.60407849  1
  O2-  O134  1  0.00650052  0.25580576  0.94346025  1
  O2-  O135  1  0.00400267  0.75634154  0.27550064  1
  O2-  O136  1  -0.00095329  0.75019070  0.60057370  1
  O2-  O137  1  0.00438836  0.74801275  0.94147208  1
  O2-  O138  1  0.49607140  0.25616493  0.27210622  1
  O2-  O139  1  0.50515438  0.25390523  0.61108088  1
  O2-  O140  1  0.49828482  0.25534984  0.93747150  1
  O2-  O141  1  0.50498283  0.74384166  0.26825906  1
  O2-  O142  1  0.49977747  0.74983085  0.60254378  1
  O2-  O143  1  0.49859505  0.74780617  0.94470181  1
  O2-  O144  1  0.07029665  0.17776571  0.09043653  1
  O2-  O145  1  0.07032048  0.18177830  0.42985420  1
  O2-  O146  1  0.07257228  0.17791303  0.76699476  1
  O2-  O147  1  0.07020092  0.67857337  0.09086789  1
  O2-  O148  1  0.06680079  0.67657481  0.42156488  1
  O2-  O149  1  0.07282240  0.68244769  0.76648495  1
  O2-  O150  1  0.56838410  0.17670889  0.09675103  1
  O2-  O151  1  0.56939117  0.18292419  0.43343765  1
  O2-  O152  1  0.56962948  0.17572254  0.75744478  1
  O2-  O153  1  0.57194832  0.67828967  0.09169643  1
  O2-  O154  1  0.57431276  0.67668834  0.41947675  1
  O2-  O155  1  0.56769592  0.67770051  0.76663377  1
  O2-  O156  1  0.18098945  0.43504417  0.23537071  1
  O2-  O157  1  0.18104768  0.42780633  0.56674402  1
  O2-  O158  1  0.17680676  0.42783593  0.90218089  1
  O2-  O159  1  0.17662519  0.92798941  0.23672693  1
  O2-  O160  1  0.17811037  0.92980071  0.57610891  1
  O2-  O161  1  0.17927350  0.93183395  0.89699456  1
  O2-  O162  1  0.68097813  0.42865939  0.24101797  1
  O2-  O163  1  0.67820047  0.42395169  0.56648211  1
  O2-  O164  1  0.68166377  0.42947496  0.90240606  1
  O2-  O165  1  0.68053756  0.92987828  0.23508816  1
  O2-  O166  1  0.67592411  0.93494906  0.57634941  1
  O2-  O167  1  0.67968189  0.92929245  0.89847349  1
  O2-  O168  1  0.42960129  0.32217292  0.08856575  1
  O2-  O169  1  0.43085247  0.32638538  0.42229754  1
  O2-  O170  1  0.42812283  0.31756157  0.75853309  1
  O2-  O171  1  0.42923732  0.82134675  0.09046161  1
  O2-  O172  1  0.43335087  0.81773013  0.42935774  1
  O2-  O173  1  0.42934845  0.82368514  0.76555813  1
  O2-  O174  1  0.92786880  0.32059521  0.08824278  1
  O2-  O175  1  0.92850613  0.32450971  0.42922309  1
  O2-  O176  1  0.92865590  0.31662024  0.76808710  1
  O2-  O177  1  0.92864704  0.81978391  0.10139442  1
  O2-  O178  1  0.92416173  0.81722020  0.42265123  1
  O2-  O179  1  0.92970698  0.82398142  0.76419634  1
  O2-  O180  1  0.32167170  0.06531153  0.23467189  1
  O2-  O181  1  0.32862396  0.07152195  0.58053827  1
  O2-  O182  1  0.32368945  0.07042288  0.90935727  1
  O2-  O183  1  0.32336648  0.57170678  0.24713112  1
  O2-  O184  1  0.32178281  0.57014477  0.57502379  1
  O2-  O185  1  0.32222246  0.57232041  0.90119834  1
  O2-  O186  1  0.82022635  0.07248743  0.24534022  1
  O2-  O187  1  0.81906879  0.07003646  0.57653239  1
  O2-  O188  1  0.82265834  0.07205257  0.91108466  1
  O2-  O189  1  0.81874585  0.57298358  0.24299793  1
  O2-  O190  1  0.81885286  0.57075264  0.56934129  1
  O2-  O191  1  0.82022831  0.57395748  0.91337939  1
  O2-  O192  1  0.04076934  0.08016069  0.26466412  1
  O2-  O193  1  0.04242302  0.08384095  0.59788023  1
  O2-  O194  1  0.03978019  0.09078102  0.93588131  1
  O2-  O195  1  0.03584698  0.59188436  0.26586829  1
  O2-  O196  1  0.03977189  0.58091863  0.59973206  1
  O2-  O197  1  0.04557499  0.58419652  0.94010111  1
  O2-  O198  1  0.53623579  0.08369472  0.26659413  1
  O2-  O199  1  0.53831892  0.08960146  0.60377518  1
  O2-  O200  1  0.53843027  0.08323439  0.92697914  1
  O2-  O201  1  0.54993769  0.58217241  0.26896419  1
  O2-  O202  1  0.54239126  0.57784900  0.59790058  1
  O2-  O203  1  0.54331387  0.58455603  0.94087762  1
  O2-  O204  1  0.17297258  0.20469293  0.26594753  1
  O2-  O205  1  0.17702191  0.19969379  0.60411212  1
  O2-  O206  1  0.16759948  0.20099346  0.94087149  1
  O2-  O207  1  0.16425432  0.70117546  0.27129313  1
  O2-  O208  1  0.16791369  0.70476904  0.59646779  1
  O2-  O209  1  0.16675745  0.70229629  0.94057737  1
  O2-  O210  1  0.66477071  0.20816647  0.26307917  1
  O2-  O211  1  0.66457067  0.20077833  0.60532664  1
  O2-  O212  1  0.66944918  0.20719379  0.93145034  1
  O2-  O213  1  0.66840199  0.70296620  0.26892051  1
  O2-  O214  1  0.66750696  0.70374049  0.59855772  1
  O2-  O215  1  0.66183491  0.70616704  0.93896164  1
  O2-  O216  1  0.07870626  0.45573309  0.06988068  1
  O2-  O217  1  0.08292069  0.46656848  0.39879591  1
  O2-  O218  1  0.08191331  0.45724373  0.73365644  1
  O2-  O219  1  0.08192902  0.96296256  0.06493614  1
  O2-  O220  1  0.07472913  0.95182199  0.40120069  1
  O2-  O221  1  0.08610401  0.95808353  0.72717240  1
  O2-  O222  1  0.58529019  0.45726059  0.07109167  1
  O2-  O223  1  0.58708659  0.45280030  0.39264172  1
  O2-  O224  1  0.57725037  0.45190430  0.73303068  1
  O2-  O225  1  0.58240485  0.96093869  0.06433006  1
  O2-  O226  1  0.58407431  0.96214027  0.40242371  1
  O2-  O227  1  0.58760739  0.96311553  0.72981503  1
  O2-  O228  1  0.20722337  0.32916865  0.06874569  1
  O2-  O229  1  0.20863810  0.33453080  0.40143287  1
  O2-  O230  1  0.21420670  0.33330600  0.73407397  1
  O2-  O231  1  0.20569784  0.83521306  0.06584041  1
  O2-  O232  1  0.20591829  0.82839867  0.40080159  1
  O2-  O233  1  0.20702476  0.83692591  0.72732746  1
  O2-  O234  1  0.71272402  0.33065061  0.06733979  1
  O2-  O235  1  0.70675181  0.33435742  0.39146404  1
  O2-  O236  1  0.70676387  0.32690557  0.73365254  1
  O2-  O237  1  0.70904837  0.83297112  0.06804139  1
  O2-  O238  1  0.70972078  0.83209187  0.40162913  1
  O2-  O239  1  0.70013052  0.83640788  0.72564531  1
  O2-  O240  1  0.45299729  0.41891515  0.27011981  1
  O2-  O241  1  0.45061314  0.41219410  0.60422367  1
  O2-  O242  1  0.45537189  0.41782755  0.93900600  1
  O2-  O243  1  0.46293352  0.91441738  0.26296115  1
  O2-  O244  1  0.46062374  0.92057950  0.59817102  1
  O2-  O245  1  0.45577794  0.91088882  0.93647453  1
  O2-  O246  1  0.95642470  0.42238539  0.26213576  1
  O2-  O247  1  0.94861594  0.42216294  0.60524726  1
  O2-  O248  1  0.95273261  0.41700480  0.93901195  1
  O2-  O249  1  0.94714064  0.91524714  0.27252204  1
  O2-  O250  1  0.95507461  0.91947176  0.59555946  1
  O2-  O251  1  0.95658791  0.91935048  0.93400100  1
  O2-  O252  1  0.33368477  0.30036012  0.27147198  1
  O2-  O253  1  0.34080466  0.28597052  0.60448630  1
  O2-  O254  1  0.33553105  0.29676884  0.93638791  1
  O2-  O255  1  0.33279107  0.78832826  0.26343276  1
  O2-  O256  1  0.33073626  0.79839943  0.59603883  1
  O2-  O257  1  0.33532942  0.79212100  0.93936098  1
  O2-  O258  1  0.83299563  0.29153742  0.26118125  1
  O2-  O259  1  0.83317653  0.28562731  0.59987188  1
  O2-  O260  1  0.84027342  0.29032385  0.93478894  1
  O2-  O261  1  0.83711458  0.78619432  0.27006029  1
  O2-  O262  1  0.82809696  0.79626679  0.59833214  1
  O2-  O263  1  0.83212854  0.78965183  0.93405696  1
  O2-  O264  1  0.41649075  0.04237523  0.06022408  1
  O2-  O265  1  0.41695842  0.03705850  0.40290157  1
  O2-  O266  1  0.41412747  0.03975813  0.73476723  1
  O2-  O267  1  0.41856167  0.54478974  0.07222212  1
  O2-  O268  1  0.41964815  0.54989505  0.39697708  1
  O2-  O269  1  0.41325973  0.54482734  0.72765660  1
  O2-  O270  1  0.91503377  0.04676227  0.06435397  1
  O2-  O271  1  0.91446020  0.04954702  0.39718164  1
  O2-  O272  1  0.91489590  0.04246560  0.72864745  1
  O2-  O273  1  0.91529402  0.54971869  0.06484039  1
  O2-  O274  1  0.91229799  0.54383822  0.39483150  1
  O2-  O275  1  0.91744572  0.54662322  0.73964737  1
  O2-  O276  1  0.30400601  0.16620941  0.06055944  1
  O2-  O277  1  0.29978631  0.17062629  0.40070850  1
  O2-  O278  1  0.29827639  0.16108996  0.73588521  1
  O2-  O279  1  0.29273543  0.66903007  0.07164204  1
  O2-  O280  1  0.29758881  0.66627369  0.39714526  1
  O2-  O281  1  0.29924629  0.66945720  0.72399224  1
  O2-  O282  1  0.79742058  0.16597495  0.06296353  1
  O2-  O283  1  0.79147810  0.16684487  0.39589247  1
  O2-  O284  1  0.79256978  0.15880983  0.73160110  1
  O2-  O285  1  0.79200339  0.66473800  0.06641077  1
  O2-  O286  1  0.79197135  0.66077754  0.39807148  1
  O2-  O287  1  0.79083565  0.67208569  0.73575897  1
