# generated using pymatgen
data_Ca2Al2SiO7
_symmetry_space_group_name_H-M   'P 1'
_cell_length_a   15.46856501
_cell_length_b   15.46583405
_cell_length_c   15.28919735
_cell_angle_alpha   90.00446351
_cell_angle_beta   89.96365391
_cell_angle_gamma   90.04102123
_symmetry_Int_Tables_number   1
_chemical_formula_structural   Ca2Al2SiO7
_chemical_formula_sum   'Ca48 Al48 Si24 O168'
_cell_volume   3657.69811883
_cell_formula_units_Z   24
loop_
 _symmetry_equiv_pos_site_id
 _symmetry_equiv_pos_as_xyz
  1  'x, y, z'
loop_
 _atom_type_symbol
 _atom_type_oxidation_number
  Ca2+  2.0
  Al0+  0.0
  Si0+  0.0
  O2-  -2.0
loop_
 _atom_site_type_symbol
 _atom_site_label
 _atom_site_symmetry_multiplicity
 _atom_site_fract_x
 _atom_site_fract_y
 _atom_site_fract_z
 _atom_site_occupancy
  Ca2+  Ca0  1  0.17844372  0.08005875  0.17076413  1
  Ca2+  Ca1  1  0.17878077  0.07762445  0.50599250  1
  Ca2+  Ca2  1  0.17804703  0.07894868  0.83137317  1
  Ca2+  Ca3  1  0.17166893  0.58312210  0.17177638  1
  Ca2+  Ca4  1  0.18071109  0.58032262  0.50700041  1
  Ca2+  Ca5  1  0.17037503  0.58127919  0.82816440  1
  Ca2+  Ca6  1  0.67633361  0.07528615  0.16611829  1
  Ca2+  Ca7  1  0.66773850  0.07814190  0.50513499  1
  Ca2+  Ca8  1  0.66504870  0.07453035  0.83771618  1
  Ca2+  Ca9  1  0.67410664  0.58445359  0.16633288  1
  Ca2+  Ca10  1  0.67478509  0.58110532  0.50765295  1
  Ca2+  Ca11  1  0.67313974  0.57357539  0.83472503  1
  Ca2+  Ca12  1  0.08127284  0.32940148  0.16217645  1
  Ca2+  Ca13  1  0.08815050  0.33446930  0.49942498  1
  Ca2+  Ca14  1  0.08319472  0.33333893  0.82548078  1
  Ca2+  Ca15  1  0.07138988  0.83264902  0.16181682  1
  Ca2+  Ca16  1  0.07346180  0.83954703  0.49819863  1
  Ca2+  Ca17  1  0.06932227  0.83866402  0.82591730  1
  Ca2+  Ca18  1  0.58001457  0.33480231  0.16342050  1
  Ca2+  Ca19  1  0.57670606  0.33209257  0.50015858  1
  Ca2+  Ca20  1  0.58445034  0.32788462  0.82091732  1
  Ca2+  Ca21  1  0.57501322  0.83761563  0.16285074  1
  Ca2+  Ca22  1  0.57863685  0.83414021  0.49777717  1
  Ca2+  Ca23  1  0.58312265  0.84056739  0.83039455  1
  Ca2+  Ca24  1  0.33386333  0.42221586  0.17635409  1
  Ca2+  Ca25  1  0.33727387  0.42205533  0.50832242  1
  Ca2+  Ca26  1  0.33549299  0.41802041  0.82866950  1
  Ca2+  Ca27  1  0.34231865  0.92461633  0.17271936  1
  Ca2+  Ca28  1  0.33310918  0.92455745  0.50854967  1
  Ca2+  Ca29  1  0.33804124  0.92894435  0.83960965  1
  Ca2+  Ca30  1  0.82634602  0.42686516  0.17094168  1
  Ca2+  Ca31  1  0.82892287  0.43079163  0.50983500  1
  Ca2+  Ca32  1  0.82177787  0.42294589  0.84097065  1
  Ca2+  Ca33  1  0.83732050  0.92014235  0.17067655  1
  Ca2+  Ca34  1  0.83148513  0.91623396  0.50653131  1
  Ca2+  Ca35  1  0.82295190  0.91413258  0.83962759  1
  Ca2+  Ca36  1  0.41258444  0.16915260  0.16374766  1
  Ca2+  Ca37  1  0.41678131  0.17194812  0.49819876  1
  Ca2+  Ca38  1  0.42119905  0.16932564  0.82164149  1
  Ca2+  Ca39  1  0.41298870  0.67852241  0.16198724  1
  Ca2+  Ca40  1  0.41622821  0.66676549  0.49066171  1
  Ca2+  Ca41  1  0.41763685  0.67211263  0.82838391  1
  Ca2+  Ca42  1  0.91387881  0.16120669  0.16096559  1
  Ca2+  Ca43  1  0.91835658  0.16635603  0.49294174  1
  Ca2+  Ca44  1  0.91514081  0.16425923  0.82935881  1
  Ca2+  Ca45  1  0.90794900  0.67386554  0.16221271  1
  Ca2+  Ca46  1  0.91005943  0.67528143  0.49601444  1
  Ca2+  Ca47  1  0.90621770  0.67377002  0.82784884  1
  Al0+  Al48  1  0.00294778  -0.00065948  -0.00351981  1
  Al0+  Al49  1  0.00058225  0.00071897  0.33156061  1
  Al0+  Al50  1  0.00140534  0.00145201  0.66381876  1
  Al0+  Al51  1  0.00077436  0.49907398  0.00271191  1
  Al0+  Al52  1  -0.00119887  0.49912672  0.33596412  1
  Al0+  Al53  1  0.00324340  0.50372366  0.67154604  1
  Al0+  Al54  1  0.50069832  0.00322241  0.00522470  1
  Al0+  Al55  1  0.50209926  0.00126301  0.33353250  1
  Al0+  Al56  1  0.50270008  0.00137263  0.66843755  1
  Al0+  Al57  1  0.49757439  0.50087183  0.00314268  1
  Al0+  Al58  1  0.50027922  0.49840980  0.33079225  1
  Al0+  Al59  1  0.50171874  0.50149007  0.67033229  1
  Al0+  Al60  1  0.24917082  0.24958265  0.00238935  1
  Al0+  Al61  1  0.24988723  0.24777267  0.33121646  1
  Al0+  Al62  1  0.24967848  0.25064284  0.66890745  1
  Al0+  Al63  1  0.24825440  0.75066215  -0.00644512  1
  Al0+  Al64  1  0.24734818  0.74916101  0.33210520  1
  Al0+  Al65  1  0.24606177  0.75061524  0.67390366  1
  Al0+  Al66  1  0.74888784  0.24960974  0.00670395  1
  Al0+  Al67  1  0.74976895  0.24802554  0.33554227  1
  Al0+  Al68  1  0.75121024  0.25018620  0.66151849  1
  Al0+  Al69  1  0.74615401  0.74805772  0.00252537  1
  Al0+  Al70  1  0.74863210  0.74956406  0.33207295  1
  Al0+  Al71  1  0.74817830  0.75262581  0.66834900  1
  Al0+  Al72  1  0.42948297  0.31940777  0.31855458  1
  Al0+  Al73  1  0.82268967  0.06984300  0.34825702  1
  Al0+  Al74  1  0.32018501  0.07078938  0.01500928  1
  Al0+  Al75  1  0.32190063  0.06954356  0.68095476  1
  Al0+  Al76  1  0.42773305  0.82078675  0.32274349  1
  Al0+  Al77  1  0.68016798  0.93103861  0.67895844  1
  Al0+  Al78  1  0.32440652  0.57328877  0.68225391  1
  Al0+  Al79  1  0.67595705  0.42744249  0.01672916  1
  Al0+  Al80  1  0.43040700  0.82305392  0.98550440  1
  Al0+  Al81  1  0.92880290  0.81977426  0.65224830  1
  Al0+  Al82  1  0.57358235  0.17681658  0.65046113  1
  Al0+  Al83  1  0.17629150  0.92867601  0.68177747  1
  Al0+  Al84  1  0.67770229  0.92753797  0.01652336  1
  Al0+  Al85  1  0.82164498  0.57026697  0.01605050  1
  Al0+  Al86  1  0.32055598  0.57125447  0.34403719  1
  Al0+  Al87  1  0.82346291  0.06845071  0.01274093  1
  Al0+  Al88  1  0.42915952  0.32161201  0.65233810  1
  Al0+  Al89  1  0.32258364  0.07027326  0.34812250  1
  Al0+  Al90  1  0.92915888  0.82011049  0.31918147  1
  Al0+  Al91  1  0.82135943  0.57330871  0.68117341  1
  Al0+  Al92  1  0.18018717  0.42872603  0.68100667  1
  Al0+  Al93  1  0.81992810  0.57125651  0.34859756  1
  Al0+  Al94  1  0.68029828  0.42731789  0.67965718  1
  Al0+  Al95  1  0.92819090  0.81933520  0.98545261  1
  Si0+  Si96  1  0.92923218  0.32001525  0.98633953  1
  Si0+  Si97  1  0.82390124  0.07306047  0.68017176  1
  Si0+  Si98  1  0.07019829  0.17974944  0.31661261  1
  Si0+  Si99  1  0.07047888  0.18053164  0.65012684  1
  Si0+  Si100  1  0.07263605  0.17988303  0.98329685  1
  Si0+  Si101  1  0.17782436  0.92796236  0.34811226  1
  Si0+  Si102  1  0.42682180  0.32208928  0.98536950  1
  Si0+  Si103  1  0.07078623  0.67543612  0.31672546  1
  Si0+  Si104  1  0.17877209  0.92694812  0.01715480  1
  Si0+  Si105  1  0.92801962  0.32140561  0.31837028  1
  Si0+  Si106  1  0.92989394  0.32405433  0.65219053  1
  Si0+  Si107  1  0.31905372  0.57260328  0.01527175  1
  Si0+  Si108  1  0.57132125  0.67686407  0.31635972  1
  Si0+  Si109  1  0.42696285  0.82168412  0.65460169  1
  Si0+  Si110  1  0.67745559  0.42659987  0.35123287  1
  Si0+  Si111  1  0.57413774  0.17742445  0.31300418  1
  Si0+  Si112  1  0.57088740  0.18229621  0.98658213  1
  Si0+  Si113  1  0.56934017  0.68065320  0.65272648  1
  Si0+  Si114  1  0.56948458  0.67576422  0.98184580  1
  Si0+  Si115  1  0.67914495  0.92801485  0.35089815  1
  Si0+  Si116  1  0.07373041  0.67693812  0.64758027  1
  Si0+  Si117  1  0.07232537  0.67497229  0.98080352  1
  Si0+  Si118  1  0.17816344  0.42660292  0.34770551  1
  Si0+  Si119  1  0.17959435  0.42829227  0.01609827  1
  O2-  O120  1  0.25059845  -0.00853490  0.06264670  1
  O2-  O121  1  0.25257673  -0.00988205  0.39201692  1
  O2-  O122  1  0.25439923  -0.00631887  0.73186329  1
  O2-  O123  1  0.24896214  0.50053703  0.05777709  1
  O2-  O124  1  0.24810237  0.49427076  0.39000358  1
  O2-  O125  1  0.25379898  0.49877223  0.73143518  1
  O2-  O126  1  0.75756175  -0.00791470  0.06495655  1
  O2-  O127  1  0.75028279  -0.00583943  0.39502731  1
  O2-  O128  1  0.75370470  0.00715818  0.72442228  1
  O2-  O129  1  0.74851002  0.49916599  0.06609659  1
  O2-  O130  1  0.74600168  0.49572735  0.39438014  1
  O2-  O131  1  0.75528031  0.49562975  0.72984540  1
  O2-  O132  1  -0.00203214  0.24986369  0.27427106  1
  O2-  O133  1  -0.00000854  0.25256874  0.60816295  1
  O2-  O134  1  -0.00258325  0.24715510  0.94201685  1
  O2-  O135  1  0.00088585  0.74252971  0.27207982  1
  O2-  O136  1  0.00383654  0.74524879  0.60459633  1
  O2-  O137  1  0.00045750  0.74148069  0.93877805  1
  O2-  O138  1  0.50387543  0.24544982  0.26944640  1
  O2-  O139  1  0.50073759  0.24922047  0.60200055  1
  O2-  O140  1  0.50118457  0.25481490  0.94439866  1
  O2-  O141  1  0.49939093  0.74363759  0.27418352  1
  O2-  O142  1  0.49287572  0.74660042  0.61107649  1
  O2-  O143  1  0.50500395  0.74885314  0.93768534  1
  O2-  O144  1  0.07498733  0.18319182  0.08862972  1
  O2-  O145  1  0.07067791  0.18090014  0.42161829  1
  O2-  O146  1  0.06854604  0.18043564  0.75545925  1
  O2-  O147  1  0.07603140  0.67520799  0.08665164  1
  O2-  O148  1  0.07223968  0.67493524  0.42167070  1
  O2-  O149  1  0.07377790  0.67562961  0.75301699  1
  O2-  O150  1  0.56974847  0.18298724  0.09173655  1
  O2-  O151  1  0.57522274  0.17767773  0.41819766  1
  O2-  O152  1  0.57297412  0.17691236  0.76462941  1
  O2-  O153  1  0.56454576  0.67240438  0.08752919  1
  O2-  O154  1  0.57207041  0.67710034  0.42221263  1
  O2-  O155  1  0.57053637  0.68205841  0.75765355  1
  O2-  O156  1  0.17734411  0.42681708  0.24152105  1
  O2-  O157  1  0.17949936  0.42997262  0.56724209  1
  O2-  O158  1  0.17954547  0.42575820  0.91164798  1
  O2-  O159  1  0.17558754  0.93143391  0.24236453  1
  O2-  O160  1  0.17609441  0.93291515  0.56776984  1
  O2-  O161  1  0.17778712  0.93094593  0.91203734  1
  O2-  O162  1  0.67922876  0.42654463  0.24550532  1
  O2-  O163  1  0.68141725  0.43043595  0.56586189  1
  O2-  O164  1  0.67802254  0.42558062  0.90353092  1
  O2-  O165  1  0.67859834  0.92938188  0.24551649  1
  O2-  O166  1  0.68067135  0.92887642  0.56577328  1
  O2-  O167  1  0.67689605  0.93287884  0.90304328  1
  O2-  O168  1  0.42453037  0.32073185  0.09069097  1
  O2-  O169  1  0.42921896  0.32022876  0.43092370  1
  O2-  O170  1  0.42993552  0.31958056  0.76657571  1
  O2-  O171  1  0.42955128  0.82024132  0.09897388  1
  O2-  O172  1  0.42967889  0.81976470  0.43612769  1
  O2-  O173  1  0.43131440  0.82239354  0.75969826  1
  O2-  O174  1  0.93340874  0.32025018  0.09169266  1
  O2-  O175  1  0.93076065  0.32146407  0.42341488  1
  O2-  O176  1  0.93005756  0.32092999  0.75751794  1
  O2-  O177  1  0.93296323  0.82014353  0.09888594  1
  O2-  O178  1  0.93063024  0.82121268  0.43212061  1
  O2-  O179  1  0.92802345  0.81955884  0.76523107  1
  O2-  O180  1  0.31853995  0.07139453  0.23471004  1
  O2-  O181  1  0.31978784  0.06897531  0.56721959  1
  O2-  O182  1  0.31833394  0.07365520  0.90248672  1
  O2-  O183  1  0.31646321  0.57077003  0.23044555  1
  O2-  O184  1  0.32315835  0.57384948  0.56836300  1
  O2-  O185  1  0.31926255  0.57135714  0.91064779  1
  O2-  O186  1  0.82331302  0.06882914  0.23540805  1
  O2-  O187  1  0.82544557  0.07067217  0.57436697  1
  O2-  O188  1  0.82155346  0.07229140  0.89939343  1
  O2-  O189  1  0.81937793  0.56938284  0.23576271  1
  O2-  O190  1  0.81794092  0.57312645  0.56721743  1
  O2-  O191  1  0.82214722  0.56653031  0.90293642  1
  O2-  O192  1  0.04308436  0.08866425  0.26763125  1
  O2-  O193  1  0.04199885  0.09047602  0.59969805  1
  O2-  O194  1  0.04975617  0.08752372  0.93550142  1
  O2-  O195  1  0.04732387  0.58058639  0.27057670  1
  O2-  O196  1  0.05104701  0.58248825  0.60123136  1
  O2-  O197  1  0.05010661  0.57916152  0.93719689  1
  O2-  O198  1  0.54897126  0.08373440  0.26728871  1
  O2-  O199  1  0.54443437  0.07868360  0.59637603  1
  O2-  O200  1  0.54120252  0.09089789  0.94019745  1
  O2-  O201  1  0.54975482  0.58281550  0.26966990  1
  O2-  O202  1  0.54657271  0.58800789  0.60466987  1
  O2-  O203  1  0.53799172  0.58387719  0.93453751  1
  O2-  O204  1  0.16036376  0.20926931  0.26630580  1
  O2-  O205  1  0.16169985  0.20920820  0.60232883  1
  O2-  O206  1  0.16194026  0.21448755  0.93494415  1
  O2-  O207  1  0.16295969  0.70276337  0.26741237  1
  O2-  O208  1  0.16789342  0.70349848  0.60190134  1
  O2-  O209  1  0.16445812  0.70187793  0.93232014  1
  O2-  O210  1  0.66782354  0.20481145  0.26686741  1
  O2-  O211  1  0.67222565  0.20350686  0.59547051  1
  O2-  O212  1  0.66361345  0.20801732  0.93978154  1
  O2-  O213  1  0.66264318  0.70673685  0.26795832  1
  O2-  O214  1  0.65816254  0.71464177  0.60295281  1
  O2-  O215  1  0.66490554  0.69542237  0.93806995  1
  O2-  O216  1  0.08787199  0.45376200  0.06521826  1
  O2-  O217  1  0.08469283  0.45068104  0.39419663  1
  O2-  O218  1  0.08347221  0.45829274  0.73751847  1
  O2-  O219  1  0.08727382  0.95792072  0.06431630  1
  O2-  O220  1  0.08776428  0.96207772  0.39566333  1
  O2-  O221  1  0.08127132  0.96684071  0.73575104  1
  O2-  O222  1  0.57713948  0.45662694  0.06939804  1
  O2-  O223  1  0.58353031  0.45230750  0.39522287  1
  O2-  O224  1  0.58424839  0.45774668  0.73425730  1
  O2-  O225  1  0.58388097  0.96530102  0.07270861  1
  O2-  O226  1  0.58698405  0.95705979  0.39779936  1
  O2-  O227  1  0.58480411  0.96038534  0.73534092  1
  O2-  O228  1  0.20834492  0.33771426  0.06571604  1
  O2-  O229  1  0.20181794  0.33241414  0.39217600  1
  O2-  O230  1  0.20405984  0.33035154  0.73594132  1
  O2-  O231  1  0.19884386  0.83077866  0.05998111  1
  O2-  O232  1  0.19461421  0.83205137  0.39168101  1
  O2-  O233  1  0.19173211  0.82848941  0.73392259  1
  O2-  O234  1  0.70569001  0.33090372  0.07233053  1
  O2-  O235  1  0.70285239  0.33284930  0.39585568  1
  O2-  O236  1  0.70755529  0.32769614  0.73067435  1
  O2-  O237  1  0.69313424  0.82573345  0.06581465  1
  O2-  O238  1  0.70121717  0.83329501  0.39538318  1
  O2-  O239  1  0.71086946  0.83645030  0.73543292  1
  O2-  O240  1  0.45915520  0.41636478  0.26281381  1
  O2-  O241  1  0.45786923  0.42166602  0.60193628  1
  O2-  O242  1  0.44922812  0.41634428  0.94091408  1
  O2-  O243  1  0.46188675  0.91681627  0.26855373  1
  O2-  O244  1  0.45981279  0.91148291  0.60659652  1
  O2-  O245  1  0.46176011  0.92129815  0.93510093  1
  O2-  O246  1  0.95735601  0.41255542  0.26970165  1
  O2-  O247  1  0.95968769  0.41625846  0.60648193  1
  O2-  O248  1  0.96039492  0.41074590  0.93892561  1
  O2-  O249  1  0.96385900  0.91610236  0.26529796  1
  O2-  O250  1  0.96131273  0.91711270  0.59888456  1
  O2-  O251  1  0.96202030  0.91565819  0.93162600  1
  O2-  O252  1  0.33201172  0.28910163  0.26401768  1
  O2-  O253  1  0.32926471  0.29479439  0.60115180  1
  O2-  O254  1  0.33550745  0.29107325  0.93896756  1
  O2-  O255  1  0.33013360  0.79348371  0.26773834  1
  O2-  O256  1  0.33173179  0.80016979  0.61178260  1
  O2-  O257  1  0.33304214  0.79328097  0.93201964  1
  O2-  O258  1  0.83580361  0.29398177  0.27187617  1
  O2-  O259  1  0.83942941  0.29808342  0.60158458  1
  O2-  O260  1  0.83608201  0.29347759  0.94153447  1
  O2-  O261  1  0.83137513  0.79160881  0.26649084  1
  O2-  O262  1  0.83169310  0.78895608  0.59852991  1
  O2-  O263  1  0.82840040  0.79198297  0.93600858  1
  O2-  O264  1  0.41666275  0.04477967  0.07020363  1
  O2-  O265  1  0.42107623  0.04506173  0.39940110  1
  O2-  O266  1  0.42040824  0.04393990  0.73360991  1
  O2-  O267  1  0.40998009  0.54591958  0.06396195  1
  O2-  O268  1  0.41870735  0.54335629  0.39543716  1
  O2-  O269  1  0.42192901  0.54763260  0.73720406  1
  O2-  O270  1  0.92489943  0.04633502  0.06340143  1
  O2-  O271  1  0.92098959  0.04278864  0.40061376  1
  O2-  O272  1  0.91701925  0.04787486  0.72605129  1
  O2-  O273  1  0.92045717  0.54118105  0.06904536  1
  O2-  O274  1  0.91700104  0.54041330  0.40159174  1
  O2-  O275  1  0.92204373  0.55347953  0.73077780  1
  O2-  O276  1  0.28331606  0.16574690  0.06983395  1
  O2-  O277  1  0.28494849  0.16523906  0.40028199  1
  O2-  O278  1  0.28859539  0.16604573  0.73352384  1
  O2-  O279  1  0.28897458  0.66471536  0.06099134  1
  O2-  O280  1  0.28875049  0.66702976  0.39890668  1
  O2-  O281  1  0.29295128  0.66964316  0.73764006  1
  O2-  O282  1  0.79253319  0.16534160  0.06810949  1
  O2-  O283  1  0.79370493  0.16735242  0.40137737  1
  O2-  O284  1  0.80313412  0.16849109  0.72344667  1
  O2-  O285  1  0.79128057  0.66771768  0.06913351  1
  O2-  O286  1  0.78774137  0.66796683  0.40085018  1
  O2-  O287  1  0.78472742  0.66811414  0.73418156  1
