# generated using pymatgen
data_Ca2Al2SiO7
_symmetry_space_group_name_H-M   'P 1'
_cell_length_a   15.46236414
_cell_length_b   15.46201862
_cell_length_c   15.28783147
_cell_angle_alpha   90.00107836
_cell_angle_beta   89.99538442
_cell_angle_gamma   89.99018926
_symmetry_Int_Tables_number   1
_chemical_formula_structural   Ca2Al2SiO7
_chemical_formula_sum   'Ca48 Al48 Si24 O168'
_cell_volume   3655.00493101
_cell_formula_units_Z   24
loop_
 _symmetry_equiv_pos_site_id
 _symmetry_equiv_pos_as_xyz
  1  'x, y, z'
loop_
 _atom_type_symbol
 _atom_type_oxidation_number
  Ca2+  2.0
  Al0+  0.0
  Si0+  0.0
  O2-  -2.0
loop_
 _atom_site_type_symbol
 _atom_site_label
 _atom_site_symmetry_multiplicity
 _atom_site_fract_x
 _atom_site_fract_y
 _atom_site_fract_z
 _atom_site_occupancy
  Ca2+  Ca0  1  0.17554239  0.07664967  0.17669436  1
  Ca2+  Ca1  1  0.17259121  0.08349849  0.49804604  1
  Ca2+  Ca2  1  0.17968828  0.08160538  0.83575869  1
  Ca2+  Ca3  1  0.17419365  0.58603360  0.17907251  1
  Ca2+  Ca4  1  0.17180012  0.58255168  0.50009254  1
  Ca2+  Ca5  1  0.16596697  0.57467038  0.83449403  1
  Ca2+  Ca6  1  0.66444538  0.06716572  0.17359113  1
  Ca2+  Ca7  1  0.66991090  0.07036713  0.50912481  1
  Ca2+  Ca8  1  0.66070777  0.07090035  0.83347323  1
  Ca2+  Ca9  1  0.66742712  0.59291011  0.16998429  1
  Ca2+  Ca10  1  0.66187591  0.58644555  0.50317781  1
  Ca2+  Ca11  1  0.66817407  0.59075063  0.83851635  1
  Ca2+  Ca12  1  0.08254900  0.32711932  0.17131907  1
  Ca2+  Ca13  1  0.08131224  0.32809642  0.49148064  1
  Ca2+  Ca14  1  0.08348161  0.33298751  0.82616732  1
  Ca2+  Ca15  1  0.08507533  0.83350670  0.17009422  1
  Ca2+  Ca16  1  0.07320584  0.83830923  0.48916724  1
  Ca2+  Ca17  1  0.07395904  0.83334934  0.82621578  1
  Ca2+  Ca18  1  0.57649122  0.33046337  0.16815549  1
  Ca2+  Ca19  1  0.57369312  0.32252569  0.49662646  1
  Ca2+  Ca20  1  0.57503561  0.32306475  0.82078517  1
  Ca2+  Ca21  1  0.57793728  0.83235250  0.16470683  1
  Ca2+  Ca22  1  0.58590237  0.82724527  0.49325520  1
  Ca2+  Ca23  1  0.59008577  0.82884003  0.83294624  1
  Ca2+  Ca24  1  0.33708623  0.42594506  0.17803730  1
  Ca2+  Ca25  1  0.33508516  0.41860635  0.50315465  1
  Ca2+  Ca26  1  0.33012044  0.41167636  0.83041639  1
  Ca2+  Ca27  1  0.33693198  0.92282247  0.17876749  1
  Ca2+  Ca28  1  0.33278310  0.92295576  0.49900211  1
  Ca2+  Ca29  1  0.34547650  0.92856372  0.83793670  1
  Ca2+  Ca30  1  0.83322838  0.42203768  0.17220284  1
  Ca2+  Ca31  1  0.83518581  0.41708079  0.50200048  1
  Ca2+  Ca32  1  0.82761692  0.42584728  0.84175653  1
  Ca2+  Ca33  1  0.82098571  0.90718544  0.17366366  1
  Ca2+  Ca34  1  0.82746915  0.91270590  0.50592095  1
  Ca2+  Ca35  1  0.82342531  0.91595907  0.83102291  1
  Ca2+  Ca36  1  0.40540435  0.16892122  0.16600110  1
  Ca2+  Ca37  1  0.40664499  0.17343594  0.49824294  1
  Ca2+  Ca38  1  0.41834532  0.16616174  0.82371613  1
  Ca2+  Ca39  1  0.42174266  0.67935585  0.16436397  1
  Ca2+  Ca40  1  0.42607797  0.67154417  0.48831792  1
  Ca2+  Ca41  1  0.42883760  0.67560656  0.82801948  1
  Ca2+  Ca42  1  0.92247596  0.16609738  0.16924181  1
  Ca2+  Ca43  1  0.92159683  0.16734257  0.48954353  1
  Ca2+  Ca44  1  0.91672937  0.16386997  0.82484561  1
  Ca2+  Ca45  1  0.91878406  0.67030060  0.16967355  1
  Ca2+  Ca46  1  0.92379120  0.67940657  0.49327200  1
  Ca2+  Ca47  1  0.91250651  0.67237105  0.82831408  1
  Al0+  Al48  1  0.00164713  0.00092915  -0.00242472  1
  Al0+  Al49  1  -0.00035450  0.00136931  0.32490672  1
  Al0+  Al50  1  -0.00034703  0.00054672  0.66653940  1
  Al0+  Al51  1  -0.00180806  0.49914069  0.00384674  1
  Al0+  Al52  1  -0.00084950  0.50057917  0.32761298  1
  Al0+  Al53  1  0.00131081  0.49984685  0.67157440  1
  Al0+  Al54  1  0.50056785  0.00230403  0.00670168  1
  Al0+  Al55  1  0.50231233  0.00046783  0.34225324  1
  Al0+  Al56  1  0.50114664  -0.00193541  0.67132000  1
  Al0+  Al57  1  0.49902399  0.49853612  -0.00485331  1
  Al0+  Al58  1  0.50158239  0.49789109  0.33047736  1
  Al0+  Al59  1  0.49950076  0.50039715  0.66216344  1
  Al0+  Al60  1  0.24725642  0.24909462  0.00232714  1
  Al0+  Al61  1  0.24867715  0.25157242  0.32715613  1
  Al0+  Al62  1  0.24749730  0.25084780  0.67170585  1
  Al0+  Al63  1  0.24888683  0.74966093  -0.00845147  1
  Al0+  Al64  1  0.25107738  0.75088325  0.33739916  1
  Al0+  Al65  1  0.25034647  0.74780816  0.66975181  1
  Al0+  Al66  1  0.75040755  0.25130891  0.00013653  1
  Al0+  Al67  1  0.74835258  0.25157331  0.32833325  1
  Al0+  Al68  1  0.74965005  0.25138190  0.66683370  1
  Al0+  Al69  1  0.75176153  0.74973109  0.00536691  1
  Al0+  Al70  1  0.75254691  0.74762263  0.33269175  1
  Al0+  Al71  1  0.75177411  0.75000915  0.66228712  1
  Al0+  Al72  1  0.68182174  0.93074773  0.01589560  1
  Al0+  Al73  1  0.42831273  0.82431316  0.98450993  1
  Al0+  Al74  1  0.57074345  0.68109848  0.65218082  1
  Al0+  Al75  1  0.07142850  0.17871639  0.31705637  1
  Al0+  Al76  1  0.68001250  0.92679250  0.68238561  1
  Al0+  Al77  1  0.43001421  0.82369387  0.32194153  1
  Al0+  Al78  1  0.32351305  0.57180123  0.34595463  1
  Al0+  Al79  1  0.82255653  0.07325108  0.67966103  1
  Al0+  Al80  1  0.81950442  0.57024229  0.01554330  1
  Al0+  Al81  1  0.57169425  0.67789473  0.31801588  1
  Al0+  Al82  1  0.68146939  0.92693463  0.34887035  1
  Al0+  Al83  1  0.93213084  0.82062340  0.65373476  1
  Al0+  Al84  1  0.07306784  0.67969416  0.32005156  1
  Al0+  Al85  1  0.32124458  0.07341955  0.34991818  1
  Al0+  Al86  1  0.42889933  0.31891263  0.31925351  1
  Al0+  Al87  1  0.31991637  0.06943856  0.01467522  1
  Al0+  Al88  1  0.92619160  0.32213611  0.31791465  1
  Al0+  Al89  1  0.92931340  0.82209949  0.31679274  1
  Al0+  Al90  1  0.57286712  0.17574297  0.65186245  1
  Al0+  Al91  1  0.17731093  0.92836149  0.34772206  1
  Al0+  Al92  1  0.42650676  0.31827039  0.65152614  1
  Al0+  Al93  1  0.31867909  0.06922933  0.68039011  1
  Al0+  Al94  1  0.17993538  0.43104100  0.67926744  1
  Al0+  Al95  1  0.57169614  0.67997681  0.98472335  1
  Si0+  Si96  1  0.57154903  0.18042785  0.98663140  1
  Si0+  Si97  1  0.07130153  0.67583677  0.98303858  1
  Si0+  Si98  1  0.92929459  0.32150607  0.98269418  1
  Si0+  Si99  1  0.32027795  0.57044156  0.01263709  1
  Si0+  Si100  1  0.07021865  0.18026583  0.98126420  1
  Si0+  Si101  1  0.17819472  0.42927845  0.01715795  1
  Si0+  Si102  1  0.93008394  0.82025782  0.98453942  1
  Si0+  Si103  1  0.42538765  0.82296188  0.64988754  1
  Si0+  Si104  1  0.17597049  0.92627543  0.01454848  1
  Si0+  Si105  1  0.82070446  0.07420562  0.34637135  1
  Si0+  Si106  1  0.57233826  0.17759655  0.31628994  1
  Si0+  Si107  1  0.67876452  0.42739894  0.34970380  1
  Si0+  Si108  1  0.82023660  0.56857814  0.68028526  1
  Si0+  Si109  1  0.82487671  0.07440180  0.01735355  1
  Si0+  Si110  1  0.07268042  0.67529240  0.65191899  1
  Si0+  Si111  1  0.32508113  0.57265009  0.68565252  1
  Si0+  Si112  1  0.17649531  0.92598056  0.68350110  1
  Si0+  Si113  1  0.67609245  0.42634326  0.01690334  1
  Si0+  Si114  1  0.06914768  0.18051635  0.65358238  1
  Si0+  Si115  1  0.42654709  0.32045539  0.98415780  1
  Si0+  Si116  1  0.17760557  0.43011818  0.34824363  1
  Si0+  Si117  1  0.92844719  0.32378959  0.65482909  1
  Si0+  Si118  1  0.67679961  0.42894769  0.68104818  1
  Si0+  Si119  1  0.82182662  0.56884203  0.35084550  1
  O2-  O120  1  0.25009876  -0.01109173  0.05761101  1
  O2-  O121  1  0.24962634  -0.00014283  0.39815619  1
  O2-  O122  1  0.24950551  -0.01059441  0.72882694  1
  O2-  O123  1  0.24907462  0.50050597  0.05757905  1
  O2-  O124  1  0.24659105  0.49812187  0.39208655  1
  O2-  O125  1  0.25463571  0.50444794  0.72894034  1
  O2-  O126  1  0.75737529  0.00577717  0.06186906  1
  O2-  O127  1  0.75742996  0.00241061  0.39228782  1
  O2-  O128  1  0.74855589  0.00402819  0.73104263  1
  O2-  O129  1  0.74100207  0.49849040  0.06116881  1
  O2-  O130  1  0.74983063  0.49845879  0.39248568  1
  O2-  O131  1  0.74768956  0.49990830  0.72404884  1
  O2-  O132  1  -0.00294710  0.24953899  0.26756910  1
  O2-  O133  1  -0.00707522  0.24718445  0.61351040  1
  O2-  O134  1  -0.00296754  0.24888238  0.93789450  1
  O2-  O135  1  0.00489811  0.75351506  0.26698531  1
  O2-  O136  1  0.01220537  0.75082559  0.60887736  1
  O2-  O137  1  0.00195554  0.74929436  0.94200534  1
  O2-  O138  1  0.49848553  0.24046394  0.27066734  1
  O2-  O139  1  0.49687635  0.24423147  0.60239655  1
  O2-  O140  1  0.49923212  0.25052597  0.94402582  1
  O2-  O141  1  0.50077607  0.75144647  0.27011655  1
  O2-  O142  1  0.49431872  0.75403789  0.60716137  1
  O2-  O143  1  0.50074936  0.75242012  0.93394778  1
  O2-  O144  1  0.07020821  0.18214285  0.08552924  1
  O2-  O145  1  0.07096820  0.18213195  0.43122153  1
  O2-  O146  1  0.06950339  0.18294990  0.75929243  1
  O2-  O147  1  0.07366661  0.67396524  0.08734914  1
  O2-  O148  1  0.06771041  0.67496233  0.43353578  1
  O2-  O149  1  0.06796353  0.67247218  0.75813882  1
  O2-  O150  1  0.57279277  0.18324630  0.09148359  1
  O2-  O151  1  0.57764610  0.18311364  0.42112840  1
  O2-  O152  1  0.57173814  0.18011527  0.76650790  1
  O2-  O153  1  0.56911697  0.67927743  0.09734719  1
  O2-  O154  1  0.57097373  0.67772496  0.43175354  1
  O2-  O155  1  0.57234808  0.68075929  0.76540093  1
  O2-  O156  1  0.17878902  0.43126943  0.24204622  1
  O2-  O157  1  0.17596300  0.43278721  0.56699932  1
  O2-  O158  1  0.17730815  0.42881378  0.91171087  1
  O2-  O159  1  0.17876527  0.92974335  0.23365747  1
  O2-  O160  1  0.17367479  0.92825173  0.57869396  1
  O2-  O161  1  0.16967599  0.93086772  0.90890764  1
  O2-  O162  1  0.67943082  0.42635098  0.24441784  1
  O2-  O163  1  0.67883352  0.42857518  0.57618762  1
  O2-  O164  1  0.67980670  0.42290308  0.91115405  1
  O2-  O165  1  0.68164316  0.92837568  0.23532245  1
  O2-  O166  1  0.68473080  0.92413952  0.56940257  1
  O2-  O167  1  0.68414560  0.93071005  0.90289893  1
  O2-  O168  1  0.42616266  0.32237114  0.08901101  1
  O2-  O169  1  0.43005574  0.32017087  0.43184130  1
  O2-  O170  1  0.42803431  0.31739994  0.76609256  1
  O2-  O171  1  0.42614290  0.82243340  0.09749078  1
  O2-  O172  1  0.43160912  0.82179786  0.43556889  1
  O2-  O173  1  0.42478136  0.82080449  0.75577836  1
  O2-  O174  1  0.93052360  0.32192329  0.08705399  1
  O2-  O175  1  0.92758083  0.32205648  0.43215581  1
  O2-  O176  1  0.93163225  0.32707871  0.76026488  1
  O2-  O177  1  0.93161246  0.81969592  0.08897807  1
  O2-  O178  1  0.92869117  0.81878007  0.43046448  1
  O2-  O179  1  0.93142855  0.81665574  0.76774930  1
  O2-  O180  1  0.31844157  0.07294200  0.23611127  1
  O2-  O181  1  0.31316521  0.07333632  0.56845195  1
  O2-  O182  1  0.31742607  0.07298406  0.90126377  1
  O2-  O183  1  0.32253566  0.56891812  0.23198680  1
  O2-  O184  1  0.32484719  0.57303145  0.58054811  1
  O2-  O185  1  0.31790878  0.56689441  0.90750339  1
  O2-  O186  1  0.81569006  0.07622455  0.24049295  1
  O2-  O187  1  0.82582307  0.07313653  0.56648042  1
  O2-  O188  1  0.82523069  0.07519342  0.91189104  1
  O2-  O189  1  0.82183597  0.56769827  0.24566853  1
  O2-  O190  1  0.82338445  0.56500872  0.57560360  1
  O2-  O191  1  0.82158776  0.56765662  0.90162038  1
  O2-  O192  1  0.04424664  0.08289979  0.25877671  1
  O2-  O193  1  0.04655467  0.08790421  0.60672602  1
  O2-  O194  1  0.04546662  0.08746852  0.93361041  1
  O2-  O195  1  0.04147356  0.58338474  0.26376873  1
  O2-  O196  1  0.03949020  0.58456865  0.60530146  1
  O2-  O197  1  0.03913054  0.58420410  0.93646718  1
  O2-  O198  1  0.55161980  0.08185696  0.27469376  1
  O2-  O199  1  0.55124997  0.07442438  0.60435034  1
  O2-  O200  1  0.54377213  0.08872002  0.94040906  1
  O2-  O201  1  0.54552298  0.57915998  0.26542908  1
  O2-  O202  1  0.54296404  0.58329150  0.59929745  1
  O2-  O203  1  0.54496359  0.57970005  0.93212613  1
  O2-  O204  1  0.16589829  0.21260291  0.25953240  1
  O2-  O205  1  0.15779966  0.21543500  0.60649499  1
  O2-  O206  1  0.16081894  0.21296927  0.93339666  1
  O2-  O207  1  0.17238629  0.70411490  0.26785654  1
  O2-  O208  1  0.17016916  0.69096367  0.61141775  1
  O2-  O209  1  0.16208046  0.69971288  0.93123414  1
  O2-  O210  1  0.66183874  0.20990884  0.26530191  1
  O2-  O211  1  0.66993532  0.20954955  0.59908236  1
  O2-  O212  1  0.66347654  0.20851179  0.93865755  1
  O2-  O213  1  0.67111954  0.70422908  0.26778536  1
  O2-  O214  1  0.66763157  0.70924630  0.59814205  1
  O2-  O215  1  0.67242350  0.70809731  0.93492876  1
  O2-  O216  1  0.08617286  0.45582549  0.06367509  1
  O2-  O217  1  0.08310199  0.45499463  0.39285887  1
  O2-  O218  1  0.08490443  0.46324696  0.73924261  1
  O2-  O219  1  0.08469206  0.95778810  0.06259163  1
  O2-  O220  1  0.07724236  0.95964699  0.39707187  1
  O2-  O221  1  0.08530521  0.95718870  0.73208162  1
  O2-  O222  1  0.57982543  0.44702486  0.05940595  1
  O2-  O223  1  0.58771961  0.45497321  0.39763638  1
  O2-  O224  1  0.58495639  0.45626638  0.72869959  1
  O2-  O225  1  0.58655617  0.96378255  0.07053879  1
  O2-  O226  1  0.58689373  0.95768283  0.40549645  1
  O2-  O227  1  0.58104351  0.95013155  0.73716568  1
  O2-  O228  1  0.20555661  0.33728959  0.06344591  1
  O2-  O229  1  0.20294683  0.33629373  0.39240679  1
  O2-  O230  1  0.20942517  0.33626759  0.73867841  1
  O2-  O231  1  0.19389403  0.82855617  0.05426906  1
  O2-  O232  1  0.20100405  0.83020460  0.40279181  1
  O2-  O233  1  0.19448231  0.82939784  0.72814597  1
  O2-  O234  1  0.70651010  0.33484797  0.06529632  1
  O2-  O235  1  0.70805397  0.33600701  0.39739719  1
  O2-  O236  1  0.70497021  0.33838584  0.73101406  1
  O2-  O237  1  0.71390403  0.83505938  0.06965797  1
  O2-  O238  1  0.71478813  0.83023300  0.40095755  1
  O2-  O239  1  0.71721741  0.83018051  0.73557964  1
  O2-  O240  1  0.46583944  0.41238105  0.26259323  1
  O2-  O241  1  0.45518164  0.41701066  0.60085773  1
  O2-  O242  1  0.45220289  0.41159164  0.93425551  1
  O2-  O243  1  0.45933857  0.92291517  0.27108231  1
  O2-  O244  1  0.44899628  0.91752250  0.60727616  1
  O2-  O245  1  0.45931602  0.92399134  0.93523197  1
  O2-  O246  1  0.95613001  0.41862523  0.26245212  1
  O2-  O247  1  0.96245371  0.41319854  0.60650462  1
  O2-  O248  1  0.96015593  0.41290925  0.93529874  1
  O2-  O249  1  0.94919680  0.92104422  0.26235947  1
  O2-  O250  1  0.95903136  0.91822564  0.60058687  1
  O2-  O251  1  0.95766083  0.91275579  0.93717445  1
  O2-  O252  1  0.33203118  0.29554736  0.26246708  1
  O2-  O253  1  0.32647868  0.29186300  0.60147156  1
  O2-  O254  1  0.33398772  0.29107065  0.93848799  1
  O2-  O255  1  0.33097880  0.79704131  0.27046798  1
  O2-  O256  1  0.33029168  0.79785881  0.60631994  1
  O2-  O257  1  0.32956858  0.79740905  0.92911512  1
  O2-  O258  1  0.82823736  0.29627193  0.26224180  1
  O2-  O259  1  0.83455417  0.30522672  0.60891577  1
  O2-  O260  1  0.83555808  0.29776256  0.93619578  1
  O2-  O261  1  0.83487340  0.78368272  0.26286818  1
  O2-  O262  1  0.83935765  0.78372789  0.59821604  1
  O2-  O263  1  0.83946183  0.78928891  0.93755413  1
  O2-  O264  1  0.41767026  0.04831310  0.06926662  1
  O2-  O265  1  0.42019051  0.05001458  0.40319788  1
  O2-  O266  1  0.41674835  0.04325215  0.73478694  1
  O2-  O267  1  0.41208758  0.54073703  0.05845296  1
  O2-  O268  1  0.41871934  0.53579971  0.39936256  1
  O2-  O269  1  0.41766744  0.54395200  0.73244403  1
  O2-  O270  1  0.91990381  0.04945743  0.06087221  1
  O2-  O271  1  0.91755344  0.05511161  0.38658099  1
  O2-  O272  1  0.92029127  0.04302094  0.73551926  1
  O2-  O273  1  0.91459444  0.53498476  0.07005952  1
  O2-  O274  1  0.91327650  0.53853371  0.39769197  1
  O2-  O275  1  0.91041739  0.53942750  0.73117238  1
  O2-  O276  1  0.28281705  0.16511270  0.06755815  1
  O2-  O277  1  0.28777903  0.17271452  0.39880587  1
  O2-  O278  1  0.28269385  0.16375438  0.73666954  1
  O2-  O279  1  0.29210414  0.66367211  0.05636915  1
  O2-  O280  1  0.29450297  0.66654802  0.40306837  1
  O2-  O281  1  0.29963621  0.66579744  0.73399140  1
  O2-  O282  1  0.80046176  0.16928323  0.06170754  1
  O2-  O283  1  0.79360522  0.16788095  0.39216094  1
  O2-  O284  1  0.79997402  0.17428016  0.73226551  1
  O2-  O285  1  0.79402783  0.66653350  0.07100660  1
  O2-  O286  1  0.79502705  0.66012830  0.39876983  1
  O2-  O287  1  0.79260840  0.66046444  0.72694593  1
