# generated using pymatgen
data_Ca2Al2SiO7
_symmetry_space_group_name_H-M   'P 1'
_cell_length_a   15.45054830
_cell_length_b   15.45000555
_cell_length_c   15.27783670
_cell_angle_alpha   90.00298259
_cell_angle_beta   89.99981183
_cell_angle_gamma   90.00483983
_symmetry_Int_Tables_number   1
_chemical_formula_structural   Ca2Al2SiO7
_chemical_formula_sum   'Ca48 Al48 Si24 O168'
_cell_volume   3646.98852710
_cell_formula_units_Z   24
loop_
 _symmetry_equiv_pos_site_id
 _symmetry_equiv_pos_as_xyz
  1  'x, y, z'
loop_
 _atom_type_symbol
 _atom_type_oxidation_number
  Ca2+  2.0
  Al0+  0.0
  Si0+  0.0
  O2-  -2.0
loop_
 _atom_site_type_symbol
 _atom_site_label
 _atom_site_symmetry_multiplicity
 _atom_site_fract_x
 _atom_site_fract_y
 _atom_site_fract_z
 _atom_site_occupancy
  Ca2+  Ca0  1  0.15876805  0.07045789  0.17407065  1
  Ca2+  Ca1  1  0.16602218  0.07540862  0.50539693  1
  Ca2+  Ca2  1  0.16992922  0.07312910  0.83531637  1
  Ca2+  Ca3  1  0.17252220  0.58082163  0.17246669  1
  Ca2+  Ca4  1  0.15627575  0.57413653  0.50423150  1
  Ca2+  Ca5  1  0.16665926  0.57937004  0.83389503  1
  Ca2+  Ca6  1  0.68084411  0.08703168  0.17090189  1
  Ca2+  Ca7  1  0.66942871  0.08229696  0.50658826  1
  Ca2+  Ca8  1  0.66883025  0.08182988  0.83413167  1
  Ca2+  Ca9  1  0.67438386  0.57964938  0.17030354  1
  Ca2+  Ca10  1  0.67229903  0.57674518  0.50734724  1
  Ca2+  Ca11  1  0.67879111  0.59142925  0.83473934  1
  Ca2+  Ca12  1  0.08482388  0.32807407  0.17072587  1
  Ca2+  Ca13  1  0.07457474  0.33494578  0.49077274  1
  Ca2+  Ca14  1  0.07809970  0.33506301  0.82366049  1
  Ca2+  Ca15  1  0.08412788  0.83140000  0.16102357  1
  Ca2+  Ca16  1  0.09418759  0.82367108  0.49641683  1
  Ca2+  Ca17  1  0.08229758  0.83142196  0.83045451  1
  Ca2+  Ca18  1  0.57397914  0.34108531  0.16522735  1
  Ca2+  Ca19  1  0.57930855  0.32922151  0.49294521  1
  Ca2+  Ca20  1  0.57645940  0.32758574  0.82805837  1
  Ca2+  Ca21  1  0.57359901  0.83224886  0.15870830  1
  Ca2+  Ca22  1  0.58902429  0.82977686  0.50304083  1
  Ca2+  Ca23  1  0.57903175  0.83205734  0.82407722  1
  Ca2+  Ca24  1  0.33482136  0.42011777  0.17328482  1
  Ca2+  Ca25  1  0.31900587  0.40791413  0.50116052  1
  Ca2+  Ca26  1  0.32940557  0.42035644  0.83818420  1
  Ca2+  Ca27  1  0.32161343  0.91056082  0.16980413  1
  Ca2+  Ca28  1  0.32228462  0.92343760  0.50810817  1
  Ca2+  Ca29  1  0.32492071  0.91547926  0.83642315  1
  Ca2+  Ca30  1  0.82890547  0.41900165  0.17452493  1
  Ca2+  Ca31  1  0.83577242  0.41652587  0.50507208  1
  Ca2+  Ca32  1  0.83894450  0.42977281  0.83450708  1
  Ca2+  Ca33  1  0.84489131  0.92841380  0.16719101  1
  Ca2+  Ca34  1  0.83111393  0.92616460  0.50388951  1
  Ca2+  Ca35  1  0.82741666  0.91680226  0.84126764  1
  Ca2+  Ca36  1  0.41241027  0.18226524  0.16216882  1
  Ca2+  Ca37  1  0.41901189  0.16612126  0.49785601  1
  Ca2+  Ca38  1  0.41861836  0.16786706  0.82622659  1
  Ca2+  Ca39  1  0.41617220  0.66912866  0.15669055  1
  Ca2+  Ca40  1  0.42340651  0.66518730  0.49921406  1
  Ca2+  Ca41  1  0.41757314  0.67022060  0.83145909  1
  Ca2+  Ca42  1  0.91680856  0.16523832  0.16758161  1
  Ca2+  Ca43  1  0.91960251  0.17721563  0.49032904  1
  Ca2+  Ca44  1  0.91470959  0.17391630  0.82851974  1
  Ca2+  Ca45  1  0.92411144  0.67010026  0.16105338  1
  Ca2+  Ca46  1  0.92730379  0.66383944  0.49875557  1
  Ca2+  Ca47  1  0.91721393  0.66942181  0.82460000  1
  Al0+  Al48  1  -0.00016386  -0.00119778  0.00116024  1
  Al0+  Al49  1  -0.00042353  -0.00075196  0.34302604  1
  Al0+  Al50  1  -0.00078637  0.00120712  0.67136528  1
  Al0+  Al51  1  0.00001654  0.49861475  0.00648220  1
  Al0+  Al52  1  0.00139003  0.50182959  0.32489350  1
  Al0+  Al53  1  -0.00088674  0.50124760  0.66814723  1
  Al0+  Al54  1  0.49864781  0.00049324  -0.00321860  1
  Al0+  Al55  1  0.50095631  -0.00113329  0.33048852  1
  Al0+  Al56  1  0.50015283  0.00137962  0.66901436  1
  Al0+  Al57  1  0.49905176  0.49937173  -0.00319720  1
  Al0+  Al58  1  0.50308400  0.50094225  0.33408296  1
  Al0+  Al59  1  0.49926379  0.50000207  0.66155617  1
  Al0+  Al60  1  0.24935341  0.24869621  -0.00656309  1
  Al0+  Al61  1  0.25076942  0.25014003  0.32762290  1
  Al0+  Al62  1  0.24822289  0.24970874  0.67619375  1
  Al0+  Al63  1  0.25078029  0.74739909  0.00269936  1
  Al0+  Al64  1  0.25175683  0.74939030  0.33421728  1
  Al0+  Al65  1  0.24964947  0.74914172  0.66525349  1
  Al0+  Al66  1  0.75019349  0.24980968  0.00303498  1
  Al0+  Al67  1  0.74984913  0.25073279  0.33812414  1
  Al0+  Al68  1  0.74738588  0.25153303  0.65879959  1
  Al0+  Al69  1  0.75124506  0.75034905  0.00395245  1
  Al0+  Al70  1  0.75063730  0.75053446  0.33126413  1
  Al0+  Al71  1  0.74954079  0.75140173  0.66824098  1
  Al0+  Al72  1  0.93077466  0.32126838  0.65458135  1
  Al0+  Al73  1  0.57259969  0.67948972  0.65290250  1
  Al0+  Al74  1  0.92733468  0.32145137  0.31592670  1
  Al0+  Al75  1  0.81935584  0.56876959  0.67819324  1
  Al0+  Al76  1  0.07235310  0.67988525  0.31786304  1
  Al0+  Al77  1  0.07068271  0.17682677  0.31960903  1
  Al0+  Al78  1  0.82034467  0.07008175  0.34923785  1
  Al0+  Al79  1  0.81966190  0.07092915  0.01263462  1
  Al0+  Al80  1  0.56910272  0.17860740  0.65254951  1
  Al0+  Al81  1  0.32026076  0.56804947  0.01204503  1
  Al0+  Al82  1  0.82226285  0.57298343  0.01549827  1
  Al0+  Al83  1  0.42752721  0.82074342  0.98583049  1
  Al0+  Al84  1  0.17798206  0.43070737  0.67938401  1
  Al0+  Al85  1  0.93041037  0.82090256  0.98656161  1
  Al0+  Al86  1  0.68096352  0.92987255  0.68007083  1
  Al0+  Al87  1  0.18040913  0.42975083  0.34493499  1
  Al0+  Al88  1  0.07018495  0.68132001  0.65454373  1
  Al0+  Al89  1  0.17983637  0.92808658  0.34827069  1
  Al0+  Al90  1  0.42825064  0.32208626  0.98382513  1
  Al0+  Al91  1  0.17748485  0.92604439  0.68360585  1
  Al0+  Al92  1  0.18129901  0.93011182  0.01434205  1
  Al0+  Al93  1  0.67899838  0.43065032  0.34780751  1
  Al0+  Al94  1  0.32120253  0.07122755  0.68200916  1
  Al0+  Al95  1  0.43026949  0.32021764  0.32067817  1
  Si0+  Si96  1  0.42526865  0.32199078  0.64943479  1
  Si0+  Si97  1  0.67501579  0.92691648  0.34922288  1
  Si0+  Si98  1  0.57256843  0.17591386  0.31542283  1
  Si0+  Si99  1  0.67525356  0.42681640  0.68341030  1
  Si0+  Si100  1  0.92803617  0.32103474  0.98553177  1
  Si0+  Si101  1  0.82065953  0.07536993  0.68326094  1
  Si0+  Si102  1  0.17737399  0.42477776  0.01809537  1
  Si0+  Si103  1  0.32390935  0.57246359  0.35120323  1
  Si0+  Si104  1  0.32333761  0.07330731  0.01802788  1
  Si0+  Si105  1  0.67912694  0.42850734  0.01475700  1
  Si0+  Si106  1  0.32362140  0.07235411  0.34678492  1
  Si0+  Si107  1  0.67569841  0.92782324  0.01728757  1
  Si0+  Si108  1  0.32474589  0.57147178  0.68198428  1
  Si0+  Si109  1  0.82252692  0.57324151  0.34981525  1
  Si0+  Si110  1  0.92678807  0.82459772  0.65031290  1
  Si0+  Si111  1  0.43014584  0.82049863  0.31903975  1
  Si0+  Si112  1  0.06949387  0.17775405  0.98373178  1
  Si0+  Si113  1  0.57244633  0.67846986  0.98361525  1
  Si0+  Si114  1  0.42825287  0.82186005  0.64890993  1
  Si0+  Si115  1  0.07153831  0.67627082  0.98325900  1
  Si0+  Si116  1  0.57356880  0.17940551  0.98396909  1
  Si0+  Si117  1  0.57265488  0.67928670  0.31715856  1
  Si0+  Si118  1  0.92710874  0.82166647  0.31774937  1
  Si0+  Si119  1  0.07266448  0.17716966  0.65188759  1
  O2-  O120  1  0.25662156  0.00352203  0.06317919  1
  O2-  O121  1  0.25306288  0.00593686  0.39141896  1
  O2-  O122  1  0.24982891  -0.00158136  0.73215409  1
  O2-  O123  1  0.24781538  0.49247373  0.06070643  1
  O2-  O124  1  0.25455730  0.50410286  0.39416821  1
  O2-  O125  1  0.25559485  0.50284502  0.72527316  1
  O2-  O126  1  0.74490733  -0.00379147  0.06077808  1
  O2-  O127  1  0.74294764  -0.00365070  0.39277731  1
  O2-  O128  1  0.75606180  0.00337952  0.72816317  1
  O2-  O129  1  0.74723059  0.49748210  0.05974578  1
  O2-  O130  1  0.75716866  0.50181230  0.39429404  1
  O2-  O131  1  0.74295040  0.49632842  0.72762306  1
  O2-  O132  1  -0.00116408  0.24813316  0.26668780  1
  O2-  O133  1  0.00345530  0.24494400  0.60781637  1
  O2-  O134  1  0.00073679  0.25204782  0.94265177  1
  O2-  O135  1  -0.00281247  0.75474426  0.27285903  1
  O2-  O136  1  -0.00011727  0.76025195  0.60652560  1
  O2-  O137  1  0.00071440  0.74259593  0.93900303  1
  O2-  O138  1  0.50407525  0.24502330  0.27163363  1
  O2-  O139  1  0.49396201  0.25310302  0.60598489  1
  O2-  O140  1  0.50197569  0.24518391  0.93972585  1
  O2-  O141  1  0.50175691  0.75039752  0.27582704  1
  O2-  O142  1  0.49667682  0.75254176  0.60439227  1
  O2-  O143  1  0.50581831  0.74935980  0.93974990  1
  O2-  O144  1  0.06932498  0.17674869  0.08868645  1
  O2-  O145  1  0.06995054  0.17773850  0.43317851  1
  O2-  O146  1  0.07012138  0.17826818  0.75807131  1
  O2-  O147  1  0.07163466  0.67833174  0.08905433  1
  O2-  O148  1  0.07080871  0.67943635  0.43113253  1
  O2-  O149  1  0.06757008  0.67931737  0.76771901  1
  O2-  O150  1  0.57548113  0.18122067  0.08952766  1
  O2-  O151  1  0.56934246  0.17361279  0.42098281  1
  O2-  O152  1  0.57040955  0.18177611  0.76601239  1
  O2-  O153  1  0.57078957  0.67853062  0.08983417  1
  O2-  O154  1  0.57355394  0.67988088  0.42220798  1
  O2-  O155  1  0.57237806  0.68186069  0.76591929  1
  O2-  O156  1  0.18423635  0.43107215  0.23181644  1
  O2-  O157  1  0.17781674  0.43074375  0.56614525  1
  O2-  O158  1  0.17534061  0.42672457  0.91225325  1
  O2-  O159  1  0.18162406  0.92676865  0.23483361  1
  O2-  O160  1  0.18097497  0.92641477  0.56986367  1
  O2-  O161  1  0.18133228  0.93123168  0.90170399  1
  O2-  O162  1  0.67617845  0.43618707  0.23426320  1
  O2-  O163  1  0.67560872  0.42844552  0.57777754  1
  O2-  O164  1  0.68104789  0.42666906  0.90921859  1
  O2-  O165  1  0.67136665  0.92658860  0.24373086  1
  O2-  O166  1  0.68307976  0.93011718  0.56664352  1
  O2-  O167  1  0.67622975  0.92788058  0.91169329  1
  O2-  O168  1  0.43008767  0.32288167  0.09720915  1
  O2-  O169  1  0.43011867  0.31808023  0.43358779  1
  O2-  O170  1  0.42781985  0.32319172  0.75523793  1
  O2-  O171  1  0.42940307  0.81786149  0.09962695  1
  O2-  O172  1  0.43114256  0.82060212  0.42391595  1
  O2-  O173  1  0.42867374  0.81967756  0.75463190  1
  O2-  O174  1  0.92657658  0.31985555  0.09016350  1
  O2-  O175  1  0.92947552  0.32171712  0.42965525  1
  O2-  O176  1  0.93167805  0.32106434  0.76862770  1
  O2-  O177  1  0.93428601  0.82243771  0.09980300  1
  O2-  O178  1  0.92229669  0.81848223  0.42313071  1
  O2-  O179  1  0.92490067  0.82204618  0.75614209  1
  O2-  O180  1  0.32595130  0.06928463  0.24113344  1
  O2-  O181  1  0.32063948  0.07051265  0.56780401  1
  O2-  O182  1  0.32147418  0.07321263  0.91265773  1
  O2-  O183  1  0.32477399  0.57281555  0.24520826  1
  O2-  O184  1  0.32727722  0.57103680  0.57646515  1
  O2-  O185  1  0.31930874  0.56779530  0.89893738  1
  O2-  O186  1  0.81960912  0.06792424  0.23565504  1
  O2-  O187  1  0.81893725  0.07413780  0.57778223  1
  O2-  O188  1  0.81714650  0.07289188  0.89963457  1
  O2-  O189  1  0.81797364  0.57506852  0.24399561  1
  O2-  O190  1  0.81981607  0.56706017  0.56517770  1
  O2-  O191  1  0.82257294  0.57200311  0.90219879  1
  O2-  O192  1  0.03924342  0.07727383  0.26945923  1
  O2-  O193  1  0.04883904  0.08233293  0.60719642  1
  O2-  O194  1  0.03795407  0.08781348  0.93546840  1
  O2-  O195  1  0.04263366  0.58570778  0.25927272  1
  O2-  O196  1  0.03334965  0.58688202  0.59998783  1
  O2-  O197  1  0.04790764  0.58017326  0.94108748  1
  O2-  O198  1  0.54930188  0.08201350  0.26790640  1
  O2-  O199  1  0.53982051  0.08183436  0.59763835  1
  O2-  O200  1  0.55093051  0.08468508  0.93866347  1
  O2-  O201  1  0.54413321  0.58850917  0.26860066  1
  O2-  O202  1  0.54281648  0.58279514  0.59711026  1
  O2-  O203  1  0.54602415  0.58585028  0.93673996  1
  O2-  O204  1  0.16837181  0.20404623  0.26374871  1
  O2-  O205  1  0.16730399  0.20232192  0.60893219  1
  O2-  O206  1  0.16132760  0.20279204  0.93480600  1
  O2-  O207  1  0.17035206  0.71010256  0.26545829  1
  O2-  O208  1  0.16834993  0.70527765  0.59904996  1
  O2-  O209  1  0.16473264  0.70339438  0.93827231  1
  O2-  O210  1  0.66645019  0.20308489  0.27212352  1
  O2-  O211  1  0.66384636  0.20928387  0.59466977  1
  O2-  O212  1  0.66590506  0.20847263  0.93626514  1
  O2-  O213  1  0.66407725  0.70694690  0.26808241  1
  O2-  O214  1  0.66759942  0.71331798  0.59713576  1
  O2-  O215  1  0.66729737  0.70319810  0.94032945  1
  O2-  O216  1  0.08479588  0.45013650  0.06606342  1
  O2-  O217  1  0.08224108  0.46172631  0.39541587  1
  O2-  O218  1  0.08446140  0.46577139  0.73651390  1
  O2-  O219  1  0.08519147  0.96277297  0.06799161  1
  O2-  O220  1  0.08389094  0.95423393  0.40467374  1
  O2-  O221  1  0.07827567  0.95381542  0.73608736  1
  O2-  O222  1  0.58523889  0.45525572  0.05971143  1
  O2-  O223  1  0.58462265  0.46506872  0.40426498  1
  O2-  O224  1  0.58048022  0.45139400  0.72749152  1
  O2-  O225  1  0.58136896  0.95357850  0.06248983  1
  O2-  O226  1  0.58146569  0.95100464  0.39680124  1
  O2-  O227  1  0.58452624  0.95997521  0.73409037  1
  O2-  O228  1  0.20214770  0.32942372  0.06025384  1
  O2-  O229  1  0.21150535  0.33224696  0.39752458  1
  O2-  O230  1  0.20435188  0.33490439  0.73711769  1
  O2-  O231  1  0.21177614  0.83296619  0.06761545  1
  O2-  O232  1  0.21603675  0.83289625  0.40186928  1
  O2-  O233  1  0.20708010  0.82724794  0.73538918  1
  O2-  O234  1  0.70496466  0.33618114  0.06343881  1
  O2-  O235  1  0.70333195  0.33284254  0.40160273  1
  O2-  O236  1  0.70151056  0.33289756  0.72784491  1
  O2-  O237  1  0.69937373  0.83420975  0.06400266  1
  O2-  O238  1  0.70257006  0.83301928  0.39436754  1
  O2-  O239  1  0.71006603  0.83414055  0.73648962  1
  O2-  O240  1  0.46397421  0.41740771  0.26756903  1
  O2-  O241  1  0.44928945  0.41521351  0.60221176  1
  O2-  O242  1  0.46066765  0.41723770  0.92787602  1
  O2-  O243  1  0.45665821  0.91179778  0.26919085  1
  O2-  O244  1  0.45567167  0.91503918  0.60402130  1
  O2-  O245  1  0.45356969  0.91894739  0.93236579  1
  O2-  O246  1  0.95515964  0.41938972  0.26204693  1
  O2-  O247  1  0.96369930  0.41638347  0.60026675  1
  O2-  O248  1  0.95607179  0.41411202  0.94000837  1
  O2-  O249  1  0.95404835  0.91615125  0.27558650  1
  O2-  O250  1  0.94743911  0.92093727  0.60740186  1
  O2-  O251  1  0.96187055  0.91667864  0.93121399  1
  O2-  O252  1  0.33551213  0.29125357  0.26202362  1
  O2-  O253  1  0.33040120  0.29433560  0.60727960  1
  O2-  O254  1  0.33131779  0.29303352  0.92928360  1
  O2-  O255  1  0.33962974  0.79055341  0.27043931  1
  O2-  O256  1  0.33525628  0.79544401  0.60200356  1
  O2-  O257  1  0.33290814  0.78442882  0.93179970  1
  O2-  O258  1  0.82717455  0.29343470  0.26598994  1
  O2-  O259  1  0.83353928  0.29467835  0.59989742  1
  O2-  O260  1  0.83662650  0.29187431  0.93791179  1
  O2-  O261  1  0.83406285  0.79682095  0.26833874  1
  O2-  O262  1  0.83507132  0.79543380  0.60305777  1
  O2-  O263  1  0.83097152  0.79358925  0.93566242  1
  O2-  O264  1  0.41873548  0.05185327  0.06213540  1
  O2-  O265  1  0.41679372  0.04373893  0.39327716  1
  O2-  O266  1  0.41929647  0.04405266  0.73589667  1
  O2-  O267  1  0.41833357  0.54013566  0.06617256  1
  O2-  O268  1  0.41805532  0.54774826  0.39597036  1
  O2-  O269  1  0.41805001  0.54576967  0.72926105  1
  O2-  O270  1  0.91519457  0.03806233  0.06735650  1
  O2-  O271  1  0.91375007  0.03776558  0.40777413  1
  O2-  O272  1  0.91576305  0.05571177  0.72853431  1
  O2-  O273  1  0.91793931  0.54167970  0.07089204  1
  O2-  O274  1  0.91840265  0.55027745  0.39078449  1
  O2-  O275  1  0.91321385  0.53589563  0.73579910  1
  O2-  O276  1  0.29490585  0.16760875  0.06150482  1
  O2-  O277  1  0.30122853  0.16692021  0.39105444  1
  O2-  O278  1  0.29383960  0.16815880  0.73917554  1
  O2-  O279  1  0.28981173  0.66311466  0.06954587  1
  O2-  O280  1  0.29978570  0.66598870  0.39741669  1
  O2-  O281  1  0.29895377  0.66519116  0.72714086  1
  O2-  O282  1  0.78912361  0.16675941  0.06942452  1
  O2-  O283  1  0.79102147  0.16665686  0.40298736  1
  O2-  O284  1  0.78993016  0.16837308  0.72787692  1
  O2-  O285  1  0.79119839  0.66838669  0.07210222  1
  O2-  O286  1  0.79383725  0.66633233  0.39554313  1
  O2-  O287  1  0.78908851  0.66562964  0.73223062  1
