# generated using pymatgen
data_Ca2Al2SiO7
_symmetry_space_group_name_H-M   'P 1'
_cell_length_a   15.45596113
_cell_length_b   15.45542164
_cell_length_c   15.28197861
_cell_angle_alpha   89.99351533
_cell_angle_beta   90.00631767
_cell_angle_gamma   90.00514139
_symmetry_Int_Tables_number   1
_chemical_formula_structural   Ca2Al2SiO7
_chemical_formula_sum   'Ca48 Al48 Si24 O168'
_cell_volume   3650.53448090
_cell_formula_units_Z   24
loop_
 _symmetry_equiv_pos_site_id
 _symmetry_equiv_pos_as_xyz
  1  'x, y, z'
loop_
 _atom_type_symbol
 _atom_type_oxidation_number
  Ca2+  2.0
  Al0+  0.0
  Si0+  0.0
  O2-  -2.0
loop_
 _atom_site_type_symbol
 _atom_site_label
 _atom_site_symmetry_multiplicity
 _atom_site_fract_x
 _atom_site_fract_y
 _atom_site_fract_z
 _atom_site_occupancy
  Ca2+  Ca0  1  0.16170409  0.08389644  0.17176178  1
  Ca2+  Ca1  1  0.17946992  0.09695099  0.50150246  1
  Ca2+  Ca2  1  0.17115944  0.08155242  0.84153164  1
  Ca2+  Ca3  1  0.15907314  0.57069255  0.16740985  1
  Ca2+  Ca4  1  0.15958979  0.56993706  0.50494562  1
  Ca2+  Ca5  1  0.15536720  0.57616032  0.83860776  1
  Ca2+  Ca6  1  0.67009814  0.08381910  0.16806708  1
  Ca2+  Ca7  1  0.67335310  0.08345481  0.50659987  1
  Ca2+  Ca8  1  0.66034211  0.07483768  0.83842802  1
  Ca2+  Ca9  1  0.67759207  0.58024753  0.17299426  1
  Ca2+  Ca10  1  0.67623233  0.57463901  0.50150072  1
  Ca2+  Ca11  1  0.68025217  0.58846187  0.84111135  1
  Ca2+  Ca12  1  0.07806280  0.32810624  0.16198503  1
  Ca2+  Ca13  1  0.08153130  0.33257729  0.49007946  1
  Ca2+  Ca14  1  0.08190540  0.33816254  0.83605448  1
  Ca2+  Ca15  1  0.08138567  0.82747264  0.15576612  1
  Ca2+  Ca16  1  0.07940155  0.82582069  0.49888168  1
  Ca2+  Ca17  1  0.08083417  0.82283130  0.82604743  1
  Ca2+  Ca18  1  0.57845309  0.33457563  0.16183073  1
  Ca2+  Ca19  1  0.57798855  0.33071411  0.49106746  1
  Ca2+  Ca20  1  0.58520096  0.31788038  0.82843038  1
  Ca2+  Ca21  1  0.58415861  0.82975526  0.15786446  1
  Ca2+  Ca22  1  0.58791046  0.83497397  0.50120816  1
  Ca2+  Ca23  1  0.59220936  0.83183572  0.83078387  1
  Ca2+  Ca24  1  0.32263373  0.40815766  0.17157194  1
  Ca2+  Ca25  1  0.32133248  0.40543553  0.50045475  1
  Ca2+  Ca26  1  0.31953411  0.41653498  0.83779812  1
  Ca2+  Ca27  1  0.32473540  0.92351107  0.16909525  1
  Ca2+  Ca28  1  0.33210469  0.92979914  0.50448629  1
  Ca2+  Ca29  1  0.32705989  0.92155812  0.83816901  1
  Ca2+  Ca30  1  0.83686081  0.42244301  0.17273887  1
  Ca2+  Ca31  1  0.83911814  0.42458005  0.50015161  1
  Ca2+  Ca32  1  0.83998839  0.42736121  0.83971801  1
  Ca2+  Ca33  1  0.82834159  0.92401746  0.16979888  1
  Ca2+  Ca34  1  0.83220066  0.92246162  0.50533412  1
  Ca2+  Ca35  1  0.82562880  0.91123748  0.83632060  1
  Ca2+  Ca36  1  0.41850323  0.16962873  0.16638766  1
  Ca2+  Ca37  1  0.41968149  0.16539068  0.49507921  1
  Ca2+  Ca38  1  0.42565463  0.15923315  0.82936044  1
  Ca2+  Ca39  1  0.42613972  0.66697176  0.15873360  1
  Ca2+  Ca40  1  0.41813583  0.66957651  0.49423109  1
  Ca2+  Ca41  1  0.42425712  0.66774429  0.83205213  1
  Ca2+  Ca42  1  0.91936949  0.17812214  0.16128656  1
  Ca2+  Ca43  1  0.92359074  0.17315285  0.48479371  1
  Ca2+  Ca44  1  0.92193462  0.17272449  0.83298183  1
  Ca2+  Ca45  1  0.91711490  0.66223727  0.15993977  1
  Ca2+  Ca46  1  0.91123433  0.66683372  0.50399057  1
  Ca2+  Ca47  1  0.92289757  0.66572609  0.82755996  1
  Al0+  Al48  1  -0.00062981  0.00166742  -0.00022464  1
  Al0+  Al49  1  -0.00143410  -0.00416158  0.33440271  1
  Al0+  Al50  1  0.00102185  0.00010357  0.66176044  1
  Al0+  Al51  1  -0.00002392  0.50109177  0.00200813  1
  Al0+  Al52  1  0.00031124  0.50107649  0.33858559  1
  Al0+  Al53  1  0.00002171  0.49944050  0.67016016  1
  Al0+  Al54  1  0.49874809  0.00010609  0.00288625  1
  Al0+  Al55  1  0.49717054  -0.00218284  0.33501688  1
  Al0+  Al56  1  0.50128789  -0.00005494  0.66931444  1
  Al0+  Al57  1  0.50011621  0.50140862  -0.00839750  1
  Al0+  Al58  1  0.50024446  0.50029811  0.33158320  1
  Al0+  Al59  1  0.49850510  0.49849253  0.66624034  1
  Al0+  Al60  1  0.24999808  0.25083061  0.00064497  1
  Al0+  Al61  1  0.25237475  0.24807614  0.33262453  1
  Al0+  Al62  1  0.25114742  0.25066904  0.67868292  1
  Al0+  Al63  1  0.25072416  0.75098566  -0.00005099  1
  Al0+  Al64  1  0.25022084  0.75040484  0.33163006  1
  Al0+  Al65  1  0.25137047  0.74827801  0.66022485  1
  Al0+  Al66  1  0.74862119  0.25151068  -0.01019530  1
  Al0+  Al67  1  0.74985359  0.24920205  0.33668401  1
  Al0+  Al68  1  0.75060499  0.24957863  0.66146431  1
  Al0+  Al69  1  0.74918876  0.75071419  0.00632610  1
  Al0+  Al70  1  0.75052514  0.74920814  0.33655722  1
  Al0+  Al71  1  0.75078628  0.75003664  0.66855518  1
  Al0+  Al72  1  0.18032273  0.43056837  0.01654299  1
  Al0+  Al73  1  0.82125152  0.07093219  0.34532004  1
  Al0+  Al74  1  0.07222610  0.17776237  0.98386346  1
  Al0+  Al75  1  0.81984784  0.56947163  0.01416536  1
  Al0+  Al76  1  0.82189092  0.57130840  0.35096877  1
  Al0+  Al77  1  0.67613263  0.42737030  0.34679281  1
  Al0+  Al78  1  0.18027065  0.43115966  0.68221416  1
  Al0+  Al79  1  0.92942929  0.32260185  0.98387448  1
  Al0+  Al80  1  0.07124734  0.67676618  0.64948804  1
  Al0+  Al81  1  0.68241479  0.93198847  0.68026468  1
  Al0+  Al82  1  0.07057080  0.68075075  0.98828089  1
  Al0+  Al83  1  0.92798489  0.32296647  0.31918476  1
  Al0+  Al84  1  0.43038424  0.32059986  0.32003288  1
  Al0+  Al85  1  0.17703892  0.92862220  0.01189762  1
  Al0+  Al86  1  0.81749132  0.56803755  0.68285996  1
  Al0+  Al87  1  0.32020900  0.06953935  0.68235059  1
  Al0+  Al88  1  0.57015347  0.17775851  0.65069050  1
  Al0+  Al89  1  0.18158627  0.42974696  0.34553519  1
  Al0+  Al90  1  0.67898057  0.93057798  0.01502964  1
  Al0+  Al91  1  0.07211445  0.17776968  0.31983941  1
  Al0+  Al92  1  0.92758469  0.82150539  0.65097897  1
  Al0+  Al93  1  0.57257643  0.68028641  0.98633436  1
  Al0+  Al94  1  0.31884886  0.06906257  0.34665951  1
  Al0+  Al95  1  0.56938057  0.17911034  0.98713474  1
  Si0+  Si96  1  0.57115047  0.68058370  0.31931993  1
  Si0+  Si97  1  0.42662551  0.32334706  0.98104637  1
  Si0+  Si98  1  0.67482362  0.42567788  0.68414352  1
  Si0+  Si99  1  0.57185134  0.67817318  0.65097414  1
  Si0+  Si100  1  0.32478160  0.57547060  0.68345800  1
  Si0+  Si101  1  0.82563782  0.07495462  0.68346021  1
  Si0+  Si102  1  0.17666235  0.92439860  0.35132900  1
  Si0+  Si103  1  0.93064798  0.32060879  0.65095172  1
  Si0+  Si104  1  0.42973758  0.82077984  0.65090616  1
  Si0+  Si105  1  0.42857278  0.82211679  0.98284615  1
  Si0+  Si106  1  0.32517773  0.57279532  0.01594673  1
  Si0+  Si107  1  0.07350224  0.17947140  0.65313555  1
  Si0+  Si108  1  0.07142714  0.67993410  0.31765486  1
  Si0+  Si109  1  0.67763154  0.92833989  0.34993214  1
  Si0+  Si110  1  0.17765851  0.92547252  0.68102446  1
  Si0+  Si111  1  0.57236322  0.17520506  0.31775567  1
  Si0+  Si112  1  0.92681865  0.82364217  0.98578455  1
  Si0+  Si113  1  0.67611233  0.42631783  0.01277952  1
  Si0+  Si114  1  0.32114392  0.07148485  0.01837673  1
  Si0+  Si115  1  0.92701030  0.81978851  0.31649397  1
  Si0+  Si116  1  0.42816608  0.82192687  0.31706842  1
  Si0+  Si117  1  0.82166223  0.07554942  0.01447792  1
  Si0+  Si118  1  0.42697890  0.32072831  0.65088464  1
  Si0+  Si119  1  0.32314213  0.57434518  0.34833907  1
  O2-  O120  1  0.24707062  0.00722039  0.06053736  1
  O2-  O121  1  0.24058557  -0.00198395  0.39450049  1
  O2-  O122  1  0.24357942  -0.00424295  0.72670052  1
  O2-  O123  1  0.25764246  0.50431567  0.06157087  1
  O2-  O124  1  0.25617480  0.50493964  0.39314179  1
  O2-  O125  1  0.25369873  0.50926872  0.72649429  1
  O2-  O126  1  0.75290009  0.00656907  0.05937758  1
  O2-  O127  1  0.74357642  -0.00064634  0.39325379  1
  O2-  O128  1  0.75762806  0.00571983  0.72803380  1
  O2-  O129  1  0.74427632  0.49426566  0.05836956  1
  O2-  O130  1  0.75204898  0.49502198  0.39786067  1
  O2-  O131  1  0.74195562  0.49434585  0.73001761  1
  O2-  O132  1  -0.00150676  0.24847967  0.27044114  1
  O2-  O133  1  -0.00113137  0.24603578  0.61035576  1
  O2-  O134  1  0.00122323  0.25014026  0.93299511  1
  O2-  O135  1  -0.00061843  0.74985232  0.27522110  1
  O2-  O136  1  0.00066966  0.75062473  0.59980608  1
  O2-  O137  1  -0.00123634  0.75840756  0.94204041  1
  O2-  O138  1  0.50830082  0.24854064  0.27392920  1
  O2-  O139  1  0.49823328  0.25561083  0.60540750  1
  O2-  O140  1  0.49586051  0.25439136  0.93849486  1
  O2-  O141  1  0.49951245  0.75093451  0.27625116  1
  O2-  O142  1  0.49827681  0.74685899  0.60816750  1
  O2-  O143  1  0.49823514  0.75481044  0.93785940  1
  O2-  O144  1  0.07050252  0.17773906  0.09713795  1
  O2-  O145  1  0.07288278  0.18177146  0.43430353  1
  O2-  O146  1  0.07265912  0.17910967  0.75797642  1
  O2-  O147  1  0.06871782  0.68112927  0.10189108  1
  O2-  O148  1  0.07427034  0.68237664  0.42244500  1
  O2-  O149  1  0.07041547  0.67842018  0.76314225  1
  O2-  O150  1  0.56823350  0.17941089  0.10032260  1
  O2-  O151  1  0.56823949  0.17199874  0.42332638  1
  O2-  O152  1  0.56746067  0.17631576  0.76389596  1
  O2-  O153  1  0.57054224  0.68173439  0.09979102  1
  O2-  O154  1  0.56967011  0.68293307  0.42478200  1
  O2-  O155  1  0.57137669  0.68047166  0.75595230  1
  O2-  O156  1  0.18170353  0.43138658  0.23274402  1
  O2-  O157  1  0.18197817  0.42853065  0.56891487  1
  O2-  O158  1  0.18138747  0.43336350  0.90336132  1
  O2-  O159  1  0.18007735  0.91995752  0.24575746  1
  O2-  O160  1  0.18089662  0.92479317  0.57537799  1
  O2-  O161  1  0.18188789  0.92659894  0.89875187  1
  O2-  O162  1  0.67164963  0.43327525  0.23323303  1
  O2-  O163  1  0.67325409  0.42786240  0.57865056  1
  O2-  O164  1  0.67664198  0.42764627  0.90710429  1
  O2-  O165  1  0.67766243  0.92646392  0.24441516  1
  O2-  O166  1  0.68138221  0.93332366  0.56689325  1
  O2-  O167  1  0.67985463  0.93018054  0.90199937  1
  O2-  O168  1  0.42744134  0.32377343  0.08685718  1
  O2-  O169  1  0.42915681  0.31783868  0.43327945  1
  O2-  O170  1  0.42797880  0.32011586  0.75635766  1
  O2-  O171  1  0.42933794  0.82064085  0.08880564  1
  O2-  O172  1  0.42788005  0.82197515  0.42237268  1
  O2-  O173  1  0.42893647  0.81979039  0.75581982  1
  O2-  O174  1  0.92852942  0.32193478  0.09724539  1
  O2-  O175  1  0.93234785  0.32257786  0.43349626  1
  O2-  O176  1  0.93102157  0.32115316  0.75589828  1
  O2-  O177  1  0.92712956  0.82256039  0.09187485  1
  O2-  O178  1  0.92600108  0.82019683  0.42133233  1
  O2-  O179  1  0.92750793  0.82004737  0.76466740  1
  O2-  O180  1  0.32227009  0.06497259  0.23403939  1
  O2-  O181  1  0.31964166  0.06994968  0.56902327  1
  O2-  O182  1  0.32358702  0.06751308  0.91262550  1
  O2-  O183  1  0.32283838  0.57811620  0.24298267  1
  O2-  O184  1  0.32866089  0.57620584  0.57794806  1
  O2-  O185  1  0.32679474  0.57215982  0.91033575  1
  O2-  O186  1  0.81952742  0.06790936  0.23214464  1
  O2-  O187  1  0.82381721  0.07461521  0.57771736  1
  O2-  O188  1  0.82161953  0.07423878  0.90886093  1
  O2-  O189  1  0.81931569  0.57541406  0.23756778  1
  O2-  O190  1  0.81567098  0.56652125  0.57000095  1
  O2-  O191  1  0.81935341  0.57097350  0.90094378  1
  O2-  O192  1  0.04737632  0.07573251  0.27210172  1
  O2-  O193  1  0.05361590  0.08608370  0.60513162  1
  O2-  O194  1  0.04477896  0.07882409  0.93014251  1
  O2-  O195  1  0.04361343  0.58759708  0.27265645  1
  O2-  O196  1  0.03872324  0.57884193  0.59801093  1
  O2-  O197  1  0.03648042  0.58614756  0.93421712  1
  O2-  O198  1  0.54110421  0.08261333  0.27149629  1
  O2-  O199  1  0.53673380  0.08161495  0.59745659  1
  O2-  O200  1  0.53539643  0.08245079  0.93394414  1
  O2-  O201  1  0.54382386  0.58977572  0.27069866  1
  O2-  O202  1  0.54534702  0.58514121  0.60460572  1
  O2-  O203  1  0.54333414  0.58510357  0.92816033  1
  O2-  O204  1  0.17035118  0.20477817  0.26718728  1
  O2-  O205  1  0.16550032  0.21277245  0.60929183  1
  O2-  O206  1  0.17208625  0.20495787  0.93295812  1
  O2-  O207  1  0.16333292  0.70808855  0.26980072  1
  O2-  O208  1  0.17120451  0.70155878  0.59607849  1
  O2-  O209  1  0.16888495  0.70728513  0.93498968  1
  O2-  O210  1  0.66779252  0.19460666  0.27434002  1
  O2-  O211  1  0.66822930  0.20541756  0.59740008  1
  O2-  O212  1  0.66427277  0.20632705  0.92799209  1
  O2-  O213  1  0.66250358  0.71044948  0.27236340  1
  O2-  O214  1  0.66133791  0.71019182  0.60268126  1
  O2-  O215  1  0.66835028  0.71467473  0.93324469  1
  O2-  O216  1  0.08512327  0.46451556  0.06988987  1
  O2-  O217  1  0.08676324  0.46167499  0.40181833  1
  O2-  O218  1  0.08424424  0.46156756  0.73680880  1
  O2-  O219  1  0.07906495  0.95416272  0.06638956  1
  O2-  O220  1  0.08081027  0.94139953  0.39476864  1
  O2-  O221  1  0.08250472  0.94820094  0.72446198  1
  O2-  O222  1  0.58102628  0.45211295  0.05602913  1
  O2-  O223  1  0.57948772  0.46143346  0.40250132  1
  O2-  O224  1  0.57977997  0.44827741  0.72901529  1
  O2-  O225  1  0.58156742  0.95907159  0.06919152  1
  O2-  O226  1  0.58236935  0.94928534  0.39477370  1
  O2-  O227  1  0.58580820  0.96108644  0.73493270  1
  O2-  O228  1  0.21108268  0.33302914  0.06885040  1
  O2-  O229  1  0.21448053  0.33379789  0.39932585  1
  O2-  O230  1  0.21346388  0.33763431  0.74049827  1
  O2-  O231  1  0.21235857  0.83387078  0.06848331  1
  O2-  O232  1  0.21007943  0.83353007  0.39935597  1
  O2-  O233  1  0.20678359  0.83191326  0.72558156  1
  O2-  O234  1  0.69890979  0.33153617  0.05722071  1
  O2-  O235  1  0.69566058  0.32696377  0.39875826  1
  O2-  O236  1  0.70226338  0.33100820  0.72696006  1
  O2-  O237  1  0.71020413  0.83583822  0.07207776  1
  O2-  O238  1  0.70599808  0.83609156  0.39723318  1
  O2-  O239  1  0.71119712  0.83465120  0.73402078  1
  O2-  O240  1  0.45579550  0.41893142  0.26547619  1
  O2-  O241  1  0.44678760  0.41642490  0.60520380  1
  O2-  O242  1  0.44941352  0.41678827  0.93314342  1
  O2-  O243  1  0.45636974  0.91249525  0.26767022  1
  O2-  O244  1  0.46253266  0.91070566  0.60302857  1
  O2-  O245  1  0.45305349  0.91605393  0.93797318  1
  O2-  O246  1  0.95764526  0.42241138  0.26911785  1
  O2-  O247  1  0.96242892  0.41108114  0.60427856  1
  O2-  O248  1  0.96261011  0.41961808  0.93108291  1
  O2-  O249  1  0.95357823  0.91116670  0.26777007  1
  O2-  O250  1  0.95406111  0.92073560  0.59649751  1
  O2-  O251  1  0.94631561  0.91838658  0.94027014  1
  O2-  O252  1  0.33691506  0.28474983  0.26371415  1
  O2-  O253  1  0.33364630  0.28993159  0.60713055  1
  O2-  O254  1  0.33361052  0.29653289  0.93536720  1
  O2-  O255  1  0.33668090  0.79403389  0.26856821  1
  O2-  O256  1  0.33868854  0.79618358  0.59981090  1
  O2-  O257  1  0.33621369  0.79529794  0.93507674  1
  O2-  O258  1  0.82753356  0.29716220  0.26896657  1
  O2-  O259  1  0.83762592  0.29764187  0.60340545  1
  O2-  O260  1  0.83145099  0.29710443  0.92778914  1
  O2-  O261  1  0.83484863  0.79132758  0.26955070  1
  O2-  O262  1  0.82982252  0.79009394  0.59711976  1
  O2-  O263  1  0.83399601  0.79415636  0.94117800  1
  O2-  O264  1  0.41166417  0.03991574  0.06715633  1
  O2-  O265  1  0.41382834  0.03344831  0.40265637  1
  O2-  O266  1  0.41511150  0.03411800  0.73603841  1
  O2-  O267  1  0.42010046  0.54787134  0.06076756  1
  O2-  O268  1  0.41740710  0.55187975  0.39395689  1
  O2-  O269  1  0.41790724  0.54803183  0.73107179  1
  O2-  O270  1  0.91474023  0.05061183  0.06143176  1
  O2-  O271  1  0.91613295  0.03619123  0.40154497  1
  O2-  O272  1  0.92073950  0.05088411  0.72712125  1
  O2-  O273  1  0.91532705  0.53880656  0.06923565  1
  O2-  O274  1  0.92031858  0.54671056  0.40512853  1
  O2-  O275  1  0.91424601  0.53665155  0.73520958  1
  O2-  O276  1  0.30181094  0.16732106  0.06124656  1
  O2-  O277  1  0.29190316  0.16548206  0.40258627  1
  O2-  O278  1  0.29186443  0.16434634  0.73996476  1
  O2-  O279  1  0.30200274  0.66726153  0.06119015  1
  O2-  O280  1  0.29712023  0.66807042  0.39555443  1
  O2-  O281  1  0.30313130  0.67073480  0.72804242  1
  O2-  O282  1  0.79268713  0.16910886  0.05855116  1
  O2-  O283  1  0.79530413  0.16708926  0.40213985  1
  O2-  O284  1  0.79942438  0.16908928  0.72786868  1
  O2-  O285  1  0.78829289  0.66506325  0.06976800  1
  O2-  O286  1  0.78772775  0.66824339  0.40485508  1
  O2-  O287  1  0.78640204  0.66494730  0.73526230  1
