# generated using pymatgen
data_Ca2Al2SiO7
_symmetry_space_group_name_H-M   'P 1'
_cell_length_a   15.45529306
_cell_length_b   15.45502320
_cell_length_c   15.28125607
_cell_angle_alpha   89.99880342
_cell_angle_beta   90.00854106
_cell_angle_gamma   89.99286614
_symmetry_Int_Tables_number   1
_chemical_formula_structural   Ca2Al2SiO7
_chemical_formula_sum   'Ca48 Al48 Si24 O168'
_cell_volume   3650.10998654
_cell_formula_units_Z   24
loop_
 _symmetry_equiv_pos_site_id
 _symmetry_equiv_pos_as_xyz
  1  'x, y, z'
loop_
 _atom_type_symbol
 _atom_type_oxidation_number
  Ca2+  2.0
  Al0+  0.0
  Si0+  0.0
  O2-  -2.0
loop_
 _atom_site_type_symbol
 _atom_site_label
 _atom_site_symmetry_multiplicity
 _atom_site_fract_x
 _atom_site_fract_y
 _atom_site_fract_z
 _atom_site_occupancy
  Ca2+  Ca0  1  0.16224552  0.07889875  0.16907032  1
  Ca2+  Ca1  1  0.16757371  0.08500615  0.51000102  1
  Ca2+  Ca2  1  0.16571039  0.07535805  0.83279161  1
  Ca2+  Ca3  1  0.17041301  0.58304792  0.17057952  1
  Ca2+  Ca4  1  0.15963775  0.56767544  0.50362152  1
  Ca2+  Ca5  1  0.16985793  0.58061963  0.84355980  1
  Ca2+  Ca6  1  0.67495459  0.08617790  0.17048427  1
  Ca2+  Ca7  1  0.67438328  0.08851620  0.49992504  1
  Ca2+  Ca8  1  0.67463846  0.07551172  0.84980930  1
  Ca2+  Ca9  1  0.66545471  0.58002108  0.17112476  1
  Ca2+  Ca10  1  0.67083504  0.59249462  0.49919365  1
  Ca2+  Ca11  1  0.66167433  0.58095771  0.84189469  1
  Ca2+  Ca12  1  0.08035439  0.33248209  0.16890766  1
  Ca2+  Ca13  1  0.08601559  0.32582292  0.49176932  1
  Ca2+  Ca14  1  0.08465657  0.32757690  0.82580035  1
  Ca2+  Ca15  1  0.07283310  0.83160776  0.15616508  1
  Ca2+  Ca16  1  0.07299522  0.84099797  0.49723496  1
  Ca2+  Ca17  1  0.07671756  0.84018189  0.83202801  1
  Ca2+  Ca18  1  0.58563641  0.32514347  0.15638679  1
  Ca2+  Ca19  1  0.57821987  0.32544275  0.49196716  1
  Ca2+  Ca20  1  0.57849912  0.33344454  0.83858779  1
  Ca2+  Ca21  1  0.58899771  0.82249427  0.16005124  1
  Ca2+  Ca22  1  0.58278311  0.82386183  0.49507214  1
  Ca2+  Ca23  1  0.59308749  0.82188102  0.83142489  1
  Ca2+  Ca24  1  0.33290232  0.41886674  0.16609928  1
  Ca2+  Ca25  1  0.31952484  0.41154528  0.50339625  1
  Ca2+  Ca26  1  0.33049062  0.41976214  0.84001045  1
  Ca2+  Ca27  1  0.32407363  0.91122191  0.16754812  1
  Ca2+  Ca28  1  0.32438941  0.92619688  0.51120773  1
  Ca2+  Ca29  1  0.32245860  0.91778588  0.83808121  1
  Ca2+  Ca30  1  0.83098582  0.42229107  0.17466629  1
  Ca2+  Ca31  1  0.83926768  0.42276403  0.49712773  1
  Ca2+  Ca32  1  0.82443131  0.42000390  0.84244532  1
  Ca2+  Ca33  1  0.83464624  0.92249826  0.16717128  1
  Ca2+  Ca34  1  0.83963704  0.91896266  0.49937261  1
  Ca2+  Ca35  1  0.83433894  0.91895919  0.84247825  1
  Ca2+  Ca36  1  0.42951659  0.17352573  0.15877099  1
  Ca2+  Ca37  1  0.41936351  0.16340685  0.49407088  1
  Ca2+  Ca38  1  0.41800232  0.16576593  0.83335223  1
  Ca2+  Ca39  1  0.42504821  0.66110585  0.15842885  1
  Ca2+  Ca40  1  0.42800166  0.66387042  0.49745848  1
  Ca2+  Ca41  1  0.42469811  0.66167144  0.83487346  1
  Ca2+  Ca42  1  0.91484241  0.16533581  0.16726870  1
  Ca2+  Ca43  1  0.92968007  0.17016773  0.48933198  1
  Ca2+  Ca44  1  0.92067204  0.16356541  0.83068217  1
  Ca2+  Ca45  1  0.91653302  0.67618141  0.16112545  1
  Ca2+  Ca46  1  0.91346888  0.67885650  0.49202855  1
  Ca2+  Ca47  1  0.92003955  0.68047382  0.83229784  1
  Al0+  Al48  1  0.00046581  0.00108261  0.00426182  1
  Al0+  Al49  1  -0.00174464  0.00027383  0.32959179  1
  Al0+  Al50  1  -0.00017604  0.00198199  0.66161345  1
  Al0+  Al51  1  0.00005312  0.49915199  -0.00435013  1
  Al0+  Al52  1  -0.00015455  0.50003807  0.33919616  1
  Al0+  Al53  1  -0.00265966  0.50180833  0.67426583  1
  Al0+  Al54  1  0.49980341  -0.00149567  0.00065460  1
  Al0+  Al55  1  0.49904826  -0.00177129  0.32936919  1
  Al0+  Al56  1  0.50136627  -0.00113390  0.67010055  1
  Al0+  Al57  1  0.49854265  0.49841908  0.00074826  1
  Al0+  Al58  1  0.49944984  0.49981644  0.33239869  1
  Al0+  Al59  1  0.50056188  0.49806435  0.65914463  1
  Al0+  Al60  1  0.24961373  0.25033979  -0.00301775  1
  Al0+  Al61  1  0.25026237  0.24890657  0.33151214  1
  Al0+  Al62  1  0.25107960  0.25075310  0.67224961  1
  Al0+  Al63  1  0.25125718  0.74751516  0.00624804  1
  Al0+  Al64  1  0.25062353  0.74994118  0.33962553  1
  Al0+  Al65  1  0.25035725  0.74871462  0.66838242  1
  Al0+  Al66  1  0.75037449  0.25057922  0.00232523  1
  Al0+  Al67  1  0.75088596  0.24992500  0.33376062  1
  Al0+  Al68  1  0.74931904  0.25226928  0.66721318  1
  Al0+  Al69  1  0.75175920  0.75104914  -0.00531882  1
  Al0+  Al70  1  0.74872864  0.74994893  0.32912476  1
  Al0+  Al71  1  0.75161229  0.75026818  0.65830496  1
  Al0+  Al72  1  0.67750609  0.92583786  0.01465486  1
  Al0+  Al73  1  0.82142617  0.07146078  0.01579031  1
  Al0+  Al74  1  0.17791178  0.43021029  0.68245278  1
  Al0+  Al75  1  0.93111442  0.82234027  0.98408959  1
  Al0+  Al76  1  0.57325298  0.17713355  0.98375237  1
  Al0+  Al77  1  0.93202022  0.82041357  0.65057583  1
  Al0+  Al78  1  0.57143068  0.17816712  0.32053751  1
  Al0+  Al79  1  0.56877633  0.67962423  0.31743104  1
  Al0+  Al80  1  0.92994708  0.32331860  0.31904834  1
  Al0+  Al81  1  0.56941258  0.67889046  0.65141301  1
  Al0+  Al82  1  0.17656177  0.92885346  0.68102882  1
  Al0+  Al83  1  0.07347896  0.67749652  0.98619725  1
  Al0+  Al84  1  0.42883318  0.32010013  0.98390360  1
  Al0+  Al85  1  0.81923589  0.57224351  0.34632656  1
  Al0+  Al86  1  0.18069304  0.92999263  0.01503895  1
  Al0+  Al87  1  0.31973267  0.56885073  0.01357033  1
  Al0+  Al88  1  0.82023547  0.07118452  0.34992915  1
  Al0+  Al89  1  0.32396167  0.07172683  0.68319330  1
  Al0+  Al90  1  0.18063449  0.42955934  0.34594794  1
  Al0+  Al91  1  0.67901224  0.43134073  0.01328226  1
  Al0+  Al92  1  0.07266072  0.17882043  0.31648938  1
  Al0+  Al93  1  0.06967974  0.18287658  0.65461392  1
  Al0+  Al94  1  0.57016449  0.68026646  0.98705512  1
  Al0+  Al95  1  0.92996613  0.82054082  0.31735735  1
  Si0+  Si96  1  0.43037531  0.31941851  0.65023335  1
  Si0+  Si97  1  0.42565889  0.82221461  0.98376599  1
  Si0+  Si98  1  0.07350661  0.67717826  0.32006981  1
  Si0+  Si99  1  0.68075431  0.92782641  0.67916368  1
  Si0+  Si100  1  0.07068926  0.17962694  0.98418662  1
  Si0+  Si101  1  0.42547867  0.82181048  0.31693085  1
  Si0+  Si102  1  0.92478999  0.32487716  0.65114402  1
  Si0+  Si103  1  0.42737446  0.32104050  0.31715229  1
  Si0+  Si104  1  0.81808442  0.57370964  0.68287055  1
  Si0+  Si105  1  0.42650927  0.82369439  0.65097087  1
  Si0+  Si106  1  0.07385135  0.67524809  0.65031803  1
  Si0+  Si107  1  0.67774256  0.42892150  0.68096007  1
  Si0+  Si108  1  0.32135735  0.06931835  0.34596904  1
  Si0+  Si109  1  0.67679352  0.92803878  0.35094909  1
  Si0+  Si110  1  0.92833712  0.32218661  0.98450819  1
  Si0+  Si111  1  0.17791212  0.92895919  0.34877232  1
  Si0+  Si112  1  0.81956108  0.07220415  0.67935739  1
  Si0+  Si113  1  0.57271193  0.17687918  0.65262738  1
  Si0+  Si114  1  0.67683024  0.42757685  0.35136045  1
  Si0+  Si115  1  0.82337639  0.57176873  0.01469873  1
  Si0+  Si116  1  0.17528650  0.42582899  0.01718915  1
  Si0+  Si117  1  0.32460656  0.56990884  0.68197120  1
  Si0+  Si118  1  0.32220303  0.07413836  0.01853596  1
  Si0+  Si119  1  0.32410437  0.57302243  0.35314691  1
  O2-  O120  1  0.25607262  0.00349220  0.06378299  1
  O2-  O121  1  0.24928580  0.00021432  0.38968661  1
  O2-  O122  1  0.25216535  -0.00215818  0.73040585  1
  O2-  O123  1  0.24220031  0.49668580  0.05999116  1
  O2-  O124  1  0.25404728  0.50487990  0.39574249  1
  O2-  O125  1  0.25000612  0.50836213  0.72695419  1
  O2-  O126  1  0.74581183  0.00168113  0.06402993  1
  O2-  O127  1  0.74397478  -0.00252314  0.39727722  1
  O2-  O128  1  0.74734721  0.00281007  0.72113121  1
  O2-  O129  1  0.75336717  0.50561620  0.06014515  1
  O2-  O130  1  0.74450541  0.49744271  0.39590864  1
  O2-  O131  1  0.74830740  0.50047334  0.72314388  1
  O2-  O132  1  -0.00036268  0.25024916  0.26717844  1
  O2-  O133  1  -0.00304539  0.25962733  0.60812800  1
  O2-  O134  1  -0.00012764  0.25147177  0.94268939  1
  O2-  O135  1  0.00686741  0.74639966  0.27441445  1
  O2-  O136  1  0.00959892  0.74744995  0.60474639  1
  O2-  O137  1  0.00467977  0.75139600  0.93435910  1
  O2-  O138  1  0.50047185  0.25649593  0.27480569  1
  O2-  O139  1  0.49878278  0.24478568  0.60949739  1
  O2-  O140  1  0.49843742  0.24591900  0.93264497  1
  O2-  O141  1  0.49155227  0.75150487  0.27200835  1
  O2-  O142  1  0.49330492  0.75322059  0.60605124  1
  O2-  O143  1  0.49980784  0.75901698  0.93933574  1
  O2-  O144  1  0.07218562  0.18082381  0.08903233  1
  O2-  O145  1  0.07523857  0.18009112  0.43047083  1
  O2-  O146  1  0.06568641  0.18193927  0.76798844  1
  O2-  O147  1  0.07070441  0.67723610  0.10016702  1
  O2-  O148  1  0.07270383  0.67861816  0.42610601  1
  O2-  O149  1  0.07058781  0.67311949  0.75540766  1
  O2-  O150  1  0.57299196  0.18122178  0.09735994  1
  O2-  O151  1  0.56749648  0.17897054  0.43484825  1
  O2-  O152  1  0.57582838  0.17891243  0.75685421  1
  O2-  O153  1  0.56847592  0.67871205  0.09985016  1
  O2-  O154  1  0.56795779  0.68185563  0.43114676  1
  O2-  O155  1  0.56974231  0.67787298  0.76422145  1
  O2-  O156  1  0.18284684  0.43100989  0.23314907  1
  O2-  O157  1  0.17985472  0.42827509  0.56907439  1
  O2-  O158  1  0.17591311  0.42546992  0.91137490  1
  O2-  O159  1  0.18054457  0.92683834  0.24382664  1
  O2-  O160  1  0.17716519  0.93322514  0.56681507  1
  O2-  O161  1  0.17985486  0.93262693  0.90204555  1
  O2-  O162  1  0.67591633  0.42891037  0.24607246  1
  O2-  O163  1  0.67763066  0.42593310  0.57609351  1
  O2-  O164  1  0.68041580  0.43293366  0.89920713  1
  O2-  O165  1  0.67650697  0.92813884  0.24600370  1
  O2-  O166  1  0.68034359  0.92824128  0.57395265  1
  O2-  O167  1  0.68197301  0.92508216  0.89993199  1
  O2-  O168  1  0.42928022  0.31881090  0.09764428  1
  O2-  O169  1  0.42618946  0.31837215  0.42350596  1
  O2-  O170  1  0.43312000  0.32403762  0.75459674  1
  O2-  O171  1  0.42339733  0.81824509  0.08950276  1
  O2-  O172  1  0.42621294  0.82302690  0.42284650  1
  O2-  O173  1  0.42757203  0.82442820  0.75605671  1
  O2-  O174  1  0.92959892  0.32580681  0.08906136  1
  O2-  O175  1  0.93313257  0.32246448  0.43321956  1
  O2-  O176  1  0.92082841  0.32198675  0.75692702  1
  O2-  O177  1  0.93139851  0.82093416  0.09749184  1
  O2-  O178  1  0.93181200  0.82060641  0.43103026  1
  O2-  O179  1  0.92878516  0.82008806  0.76298505  1
  O2-  O180  1  0.32190682  0.06765001  0.24127046  1
  O2-  O181  1  0.32491380  0.07117372  0.56868614  1
  O2-  O182  1  0.31896302  0.07426923  0.91297696  1
  O2-  O183  1  0.32479264  0.57389798  0.24790264  1
  O2-  O184  1  0.32703063  0.56495934  0.57625415  1
  O2-  O185  1  0.32075526  0.56618216  0.90007098  1
  O2-  O186  1  0.81958660  0.07021590  0.23773997  1
  O2-  O187  1  0.81806190  0.07331205  0.57433890  1
  O2-  O188  1  0.82284578  0.07063906  0.90093413  1
  O2-  O189  1  0.81781982  0.57149816  0.23353888  1
  O2-  O190  1  0.81790514  0.57414262  0.57766044  1
  O2-  O191  1  0.82238692  0.56842351  0.90846033  1
  O2-  O192  1  0.04326533  0.08114696  0.26424780  1
  O2-  O193  1  0.03773872  0.08835979  0.59775365  1
  O2-  O194  1  0.04069067  0.08855035  0.93734878  1
  O2-  O195  1  0.04876967  0.58354684  0.27578778  1
  O2-  O196  1  0.04177954  0.58244442  0.60485388  1
  O2-  O197  1  0.04468645  0.57945715  0.93110552  1
  O2-  O198  1  0.53950948  0.08242140  0.26652794  1
  O2-  O199  1  0.54885195  0.08360747  0.60581131  1
  O2-  O200  1  0.54766958  0.07657016  0.93309624  1
  O2-  O201  1  0.54095494  0.58092889  0.26631887  1
  O2-  O202  1  0.53983609  0.58266088  0.59483341  1
  O2-  O203  1  0.53461608  0.58502393  0.93331805  1
  O2-  O204  1  0.17086491  0.20692674  0.26297067  1
  O2-  O205  1  0.16870574  0.21129230  0.60370275  1
  O2-  O206  1  0.16191509  0.20663859  0.93560239  1
  O2-  O207  1  0.16922106  0.70078037  0.27718705  1
  O2-  O208  1  0.17041022  0.69229824  0.60650156  1
  O2-  O209  1  0.17414710  0.70157241  0.93661106  1
  O2-  O210  1  0.66825725  0.20729438  0.26864829  1
  O2-  O211  1  0.66298859  0.20980978  0.60370577  1
  O2-  O212  1  0.67115328  0.20925551  0.93112532  1
  O2-  O213  1  0.66406598  0.71135905  0.26360999  1
  O2-  O214  1  0.66421004  0.71305452  0.59580947  1
  O2-  O215  1  0.66735389  0.70642444  0.93115249  1
  O2-  O216  1  0.08056569  0.44975878  0.06128999  1
  O2-  O217  1  0.08529092  0.45881847  0.40382184  1
  O2-  O218  1  0.07966078  0.45568164  0.73661792  1
  O2-  O219  1  0.08595337  0.96335383  0.07017386  1
  O2-  O220  1  0.08611777  0.95793884  0.39441879  1
  O2-  O221  1  0.07941254  0.96363500  0.73314610  1
  O2-  O222  1  0.58326322  0.46058346  0.06807716  1
  O2-  O223  1  0.58195852  0.45192312  0.39705952  1
  O2-  O224  1  0.58544782  0.45770803  0.72644665  1
  O2-  O225  1  0.57588359  0.94533471  0.06507676  1
  O2-  O226  1  0.58145063  0.95165342  0.39613199  1
  O2-  O227  1  0.58792158  0.94905548  0.72682069  1
  O2-  O228  1  0.20309151  0.33274474  0.06279835  1
  O2-  O229  1  0.21444904  0.33284500  0.40016471  1
  O2-  O230  1  0.21235458  0.33591262  0.73756842  1
  O2-  O231  1  0.21115165  0.83390287  0.07028150  1
  O2-  O232  1  0.20454553  0.83749762  0.39868361  1
  O2-  O233  1  0.20017111  0.82782759  0.73130898  1
  O2-  O234  1  0.71046274  0.33550978  0.06673138  1
  O2-  O235  1  0.70275399  0.33470431  0.39888824  1
  O2-  O236  1  0.70582489  0.33788001  0.73064199  1
  O2-  O237  1  0.70986218  0.82807542  0.06681371  1
  O2-  O238  1  0.70490568  0.83483713  0.39685522  1
  O2-  O239  1  0.71343084  0.83672873  0.72496106  1
  O2-  O240  1  0.44803965  0.41652517  0.27398599  1
  O2-  O241  1  0.46132937  0.40791772  0.59771183  1
  O2-  O242  1  0.46159889  0.41639080  0.92939079  1
  O2-  O243  1  0.45005892  0.91424171  0.26877582  1
  O2-  O244  1  0.45546282  0.91639313  0.60320089  1
  O2-  O245  1  0.44234579  0.91843552  0.94012520  1
  O2-  O246  1  0.95932053  0.42195372  0.26698895  1
  O2-  O247  1  0.94696630  0.42114625  0.60964358  1
  O2-  O248  1  0.95477462  0.41270018  0.93309385  1
  O2-  O249  1  0.96045803  0.91621455  0.26362386  1
  O2-  O250  1  0.96073731  0.91735716  0.59561601  1
  O2-  O251  1  0.96119811  0.92148153  0.93288150  1
  O2-  O252  1  0.33673091  0.29161304  0.26885598  1
  O2-  O253  1  0.33770898  0.29255981  0.60427802  1
  O2-  O254  1  0.32933111  0.29450996  0.93054580  1
  O2-  O255  1  0.33042838  0.79716116  0.27304401  1
  O2-  O256  1  0.33194826  0.80095670  0.60431551  1
  O2-  O257  1  0.33488264  0.78964610  0.93648311  1
  O2-  O258  1  0.83010814  0.29822958  0.26889674  1
  O2-  O259  1  0.83203972  0.29810702  0.60329514  1
  O2-  O260  1  0.83720480  0.29389193  0.93603619  1
  O2-  O261  1  0.83372997  0.78901248  0.26516251  1
  O2-  O262  1  0.83739046  0.78651515  0.59387215  1
  O2-  O263  1  0.83434623  0.79254730  0.92833810  1
  O2-  O264  1  0.41732676  0.05215488  0.06230091  1
  O2-  O265  1  0.41262186  0.04027326  0.39513776  1
  O2-  O266  1  0.42297720  0.04433587  0.73643146  1
  O2-  O267  1  0.41361168  0.53322187  0.06976593  1
  O2-  O268  1  0.41728540  0.54498031  0.39960625  1
  O2-  O269  1  0.41653682  0.53657237  0.72747318  1
  O2-  O270  1  0.91847836  0.04254206  0.07015856  1
  O2-  O271  1  0.91769497  0.03827449  0.40247271  1
  O2-  O272  1  0.91111331  0.04317041  0.72537651  1
  O2-  O273  1  0.91628129  0.54339705  0.06033184  1
  O2-  O274  1  0.91495380  0.54277298  0.40403999  1
  O2-  O275  1  0.90932695  0.54882013  0.73250251  1
  O2-  O276  1  0.29304714  0.16718768  0.06393372  1
  O2-  O277  1  0.29605893  0.16180721  0.39369045  1
  O2-  O278  1  0.29603150  0.16928934  0.73659866  1
  O2-  O279  1  0.29429660  0.66442999  0.07214208  1
  O2-  O280  1  0.30113101  0.66698165  0.40091605  1
  O2-  O281  1  0.30854207  0.66661830  0.72466776  1
  O2-  O282  1  0.79573722  0.17065340  0.06799258  1
  O2-  O283  1  0.79026723  0.16832721  0.40488972  1
  O2-  O284  1  0.79378531  0.16488539  0.72680900  1
  O2-  O285  1  0.80039098  0.66667799  0.05706639  1
  O2-  O286  1  0.78494283  0.66804750  0.40160567  1
  O2-  O287  1  0.78674797  0.66489334  0.72907821  1
