# generated using pymatgen
data_Ca2Al2SiO7
_symmetry_space_group_name_H-M   'P 1'
_cell_length_a   15.45862714
_cell_length_b   15.45806021
_cell_length_c   15.28322886
_cell_angle_alpha   90.00868893
_cell_angle_beta   90.00729610
_cell_angle_gamma   89.99903495
_symmetry_Int_Tables_number   1
_chemical_formula_structural   Ca2Al2SiO7
_chemical_formula_sum   'Ca48 Al48 Si24 O168'
_cell_volume   3652.08624248
_cell_formula_units_Z   24
loop_
 _symmetry_equiv_pos_site_id
 _symmetry_equiv_pos_as_xyz
  1  'x, y, z'
loop_
 _atom_type_symbol
 _atom_type_oxidation_number
  Ca2+  2.0
  Al0+  0.0
  Si0+  0.0
  O2-  -2.0
loop_
 _atom_site_type_symbol
 _atom_site_label
 _atom_site_symmetry_multiplicity
 _atom_site_fract_x
 _atom_site_fract_y
 _atom_site_fract_z
 _atom_site_occupancy
  Ca2+  Ca0  1  0.16324058  0.07262530  0.17390806  1
  Ca2+  Ca1  1  0.15586008  0.07337039  0.50422997  1
  Ca2+  Ca2  1  0.16442085  0.07346289  0.83407100  1
  Ca2+  Ca3  1  0.16751482  0.57767768  0.17789797  1
  Ca2+  Ca4  1  0.16391417  0.57677994  0.49915246  1
  Ca2+  Ca5  1  0.16567729  0.56997749  0.83654787  1
  Ca2+  Ca6  1  0.67420600  0.08206753  0.17862637  1
  Ca2+  Ca7  1  0.67690510  0.09028365  0.50303187  1
  Ca2+  Ca8  1  0.67158874  0.08801232  0.83162690  1
  Ca2+  Ca9  1  0.66523113  0.57087385  0.17374955  1
  Ca2+  Ca10  1  0.67223034  0.58222190  0.50634741  1
  Ca2+  Ca11  1  0.66951776  0.58703838  0.83465991  1
  Ca2+  Ca12  1  0.08414024  0.33472546  0.16626133  1
  Ca2+  Ca13  1  0.08209041  0.32533074  0.49029713  1
  Ca2+  Ca14  1  0.08796725  0.32831297  0.82318944  1
  Ca2+  Ca15  1  0.07957677  0.83479021  0.16712902  1
  Ca2+  Ca16  1  0.08190708  0.83153120  0.48754794  1
  Ca2+  Ca17  1  0.08247264  0.83859560  0.83190089  1
  Ca2+  Ca18  1  0.59210485  0.33024083  0.16651089  1
  Ca2+  Ca19  1  0.59092924  0.32438894  0.49317848  1
  Ca2+  Ca20  1  0.58439495  0.33135693  0.82883208  1
  Ca2+  Ca21  1  0.56778339  0.83488774  0.16211695  1
  Ca2+  Ca22  1  0.57184070  0.82865334  0.49603367  1
  Ca2+  Ca23  1  0.56958588  0.83058307  0.82245572  1
  Ca2+  Ca24  1  0.32263500  0.42507967  0.17743963  1
  Ca2+  Ca25  1  0.32270018  0.41987541  0.50047330  1
  Ca2+  Ca26  1  0.32207401  0.41251746  0.83753295  1
  Ca2+  Ca27  1  0.32510178  0.90935757  0.17295248  1
  Ca2+  Ca28  1  0.32364191  0.90891075  0.50217553  1
  Ca2+  Ca29  1  0.32563581  0.90903606  0.83543278  1
  Ca2+  Ca30  1  0.82518152  0.41065729  0.17503579  1
  Ca2+  Ca31  1  0.83374813  0.41852985  0.50093537  1
  Ca2+  Ca32  1  0.82804688  0.42661911  0.83617555  1
  Ca2+  Ca33  1  0.83966949  0.91996946  0.17476205  1
  Ca2+  Ca34  1  0.84183495  0.92955123  0.50292042  1
  Ca2+  Ca35  1  0.83617875  0.92339609  0.83624209  1
  Ca2+  Ca36  1  0.42390367  0.16520798  0.16761715  1
  Ca2+  Ca37  1  0.42951456  0.16491146  0.49524113  1
  Ca2+  Ca38  1  0.42387039  0.16890092  0.82435664  1
  Ca2+  Ca39  1  0.40658408  0.67471799  0.16731249  1
  Ca2+  Ca40  1  0.41102766  0.67428158  0.49568320  1
  Ca2+  Ca41  1  0.42069698  0.67554276  0.82618431  1
  Ca2+  Ca42  1  0.92062750  0.16869620  0.17530346  1
  Ca2+  Ca43  1  0.92344075  0.16700474  0.49143552  1
  Ca2+  Ca44  1  0.92291318  0.16921130  0.82469768  1
  Ca2+  Ca45  1  0.92238489  0.67625116  0.16563411  1
  Ca2+  Ca46  1  0.92170897  0.67174907  0.49132600  1
  Ca2+  Ca47  1  0.91374622  0.67234517  0.82893479  1
  Al0+  Al48  1  0.00127750  0.00081696  -0.00016482  1
  Al0+  Al49  1  -0.00023216  0.00202826  0.33368102  1
  Al0+  Al50  1  -0.00034427  0.00156682  0.67361425  1
  Al0+  Al51  1  -0.00156343  0.50032229  0.00283824  1
  Al0+  Al52  1  -0.00234502  0.49965872  0.32828337  1
  Al0+  Al53  1  -0.00235286  0.50121934  0.67705600  1
  Al0+  Al54  1  0.50142836  0.00037725  -0.00646460  1
  Al0+  Al55  1  0.50026159  -0.00090373  0.32452202  1
  Al0+  Al56  1  0.49929716  0.00094238  0.65812189  1
  Al0+  Al57  1  0.50072593  0.49838938  0.00271385  1
  Al0+  Al58  1  0.49944870  0.49907567  0.34384059  1
  Al0+  Al59  1  0.49912103  0.50062571  0.66395981  1
  Al0+  Al60  1  0.25210180  0.24821898  0.00355001  1
  Al0+  Al61  1  0.25318874  0.24796483  0.33224411  1
  Al0+  Al62  1  0.25023048  0.24687192  0.66545748  1
  Al0+  Al63  1  0.24833577  0.74918219  -0.00294644  1
  Al0+  Al64  1  0.24940668  0.74935138  0.33308524  1
  Al0+  Al65  1  0.24763097  0.74812481  0.66957577  1
  Al0+  Al66  1  0.75336186  0.25049849  0.00124622  1
  Al0+  Al67  1  0.75160038  0.24822440  0.33365211  1
  Al0+  Al68  1  0.75095643  0.25137968  0.66971210  1
  Al0+  Al69  1  0.75099843  0.75241233  -0.00314455  1
  Al0+  Al70  1  0.74696407  0.74973020  0.32848471  1
  Al0+  Al71  1  0.74866364  0.75165175  0.66717816  1
  Al0+  Al72  1  0.07469719  0.17863692  0.31776722  1
  Al0+  Al73  1  0.42563398  0.81969651  0.64939502  1
  Al0+  Al74  1  0.68063322  0.42850287  0.34899021  1
  Al0+  Al75  1  0.42755563  0.82037389  0.98398109  1
  Al0+  Al76  1  0.81971107  0.57355860  0.68027664  1
  Al0+  Al77  1  0.68080881  0.42997225  0.01371118  1
  Al0+  Al78  1  0.92752114  0.82286649  0.32077733  1
  Al0+  Al79  1  0.31960992  0.57201950  0.34997096  1
  Al0+  Al80  1  0.42940187  0.81866424  0.31826104  1
  Al0+  Al81  1  0.57243074  0.18180160  0.65274451  1
  Al0+  Al82  1  0.17999564  0.42755555  0.67948069  1
  Al0+  Al83  1  0.17548799  0.42646524  0.34851031  1
  Al0+  Al84  1  0.18062575  0.93212139  0.34620298  1
  Al0+  Al85  1  0.57286669  0.67822205  0.65075324  1
  Al0+  Al86  1  0.81919123  0.06754105  0.34698781  1
  Al0+  Al87  1  0.17943186  0.92810478  0.68087829  1
  Al0+  Al88  1  0.92982787  0.32088260  0.31940166  1
  Al0+  Al89  1  0.17814790  0.42661380  0.01467893  1
  Al0+  Al90  1  0.18056294  0.92989617  0.01521897  1
  Al0+  Al91  1  0.07101571  0.67849639  0.31936130  1
  Al0+  Al92  1  0.57148284  0.18080540  0.31829885  1
  Al0+  Al93  1  0.82033066  0.07189062  0.68224233  1
  Al0+  Al94  1  0.07030807  0.17870362  0.65410161  1
  Al0+  Al95  1  0.93013776  0.82248882  0.98367938  1
  Si0+  Si96  1  0.57193370  0.67463351  0.31598418  1
  Si0+  Si97  1  0.07054443  0.67629816  0.98048700  1
  Si0+  Si98  1  0.32125791  0.57009062  0.01467337  1
  Si0+  Si99  1  0.32462888  0.07084396  0.68211917  1
  Si0+  Si100  1  0.67434777  0.92609767  0.34856411  1
  Si0+  Si101  1  0.42598488  0.32251371  0.64950295  1
  Si0+  Si102  1  0.32634713  0.07163041  0.34957890  1
  Si0+  Si103  1  0.82077371  0.07025032  0.01618815  1
  Si0+  Si104  1  0.67703034  0.42843054  0.68320295  1
  Si0+  Si105  1  0.82084925  0.57476978  0.34818779  1
  Si0+  Si106  1  0.42958788  0.32038679  0.98626346  1
  Si0+  Si107  1  0.42894622  0.32380140  0.31646580  1
  Si0+  Si108  1  0.92997060  0.82212946  0.65365824  1
  Si0+  Si109  1  0.32604155  0.07169596  0.01650167  1
  Si0+  Si110  1  0.92849438  0.32147865  0.98328597  1
  Si0+  Si111  1  0.67664246  0.92980198  0.68244619  1
  Si0+  Si112  1  0.92940655  0.32423991  0.65308970  1
  Si0+  Si113  1  0.06843750  0.67697910  0.65455069  1
  Si0+  Si114  1  0.67770075  0.92965176  0.01316205  1
  Si0+  Si115  1  0.82138491  0.57578408  0.01886241  1
  Si0+  Si116  1  0.57401861  0.18028127  0.98412311  1
  Si0+  Si117  1  0.07199283  0.18076352  0.98452372  1
  Si0+  Si118  1  0.32216151  0.57146524  0.68537496  1
  Si0+  Si119  1  0.57158588  0.67643041  0.98473729  1
  O2-  O120  1  0.25930457  0.00131631  0.06023141  1
  O2-  O121  1  0.25396816  0.00761878  0.39423377  1
  O2-  O122  1  0.25729429  0.00089535  0.72666003  1
  O2-  O123  1  0.25089136  0.50349963  0.05911607  1
  O2-  O124  1  0.24652484  0.49965088  0.39816296  1
  O2-  O125  1  0.25668847  0.49923690  0.72918591  1
  O2-  O126  1  0.74976259  -0.00141948  0.05698210  1
  O2-  O127  1  0.74698720  -0.01003351  0.39341772  1
  O2-  O128  1  0.74435431  -0.00154266  0.72950311  1
  O2-  O129  1  0.75281427  0.50637208  0.06172603  1
  O2-  O130  1  0.75310070  0.50582553  0.39370985  1
  O2-  O131  1  0.74137542  0.50161616  0.72682589  1
  O2-  O132  1  0.00786021  0.25583249  0.26756804  1
  O2-  O133  1  -0.00147906  0.25655737  0.60939415  1
  O2-  O134  1  0.00527990  0.25626043  0.94177768  1
  O2-  O135  1  -0.00118677  0.75089621  0.26978052  1
  O2-  O136  1  0.00011183  0.75047478  0.61226474  1
  O2-  O137  1  0.00237831  0.74582342  0.93582643  1
  O2-  O138  1  0.49801553  0.25604239  0.27014139  1
  O2-  O139  1  0.49942368  0.25818443  0.60658748  1
  O2-  O140  1  0.50142129  0.25021032  0.94292531  1
  O2-  O141  1  0.50366199  0.74321954  0.27082131  1
  O2-  O142  1  0.49759543  0.74657075  0.60099375  1
  O2-  O143  1  0.50402075  0.74593848  0.93994076  1
  O2-  O144  1  0.07033446  0.17964524  0.08905741  1
  O2-  O145  1  0.06929993  0.17618318  0.43128489  1
  O2-  O146  1  0.06877821  0.17954420  0.76825342  1
  O2-  O147  1  0.07005017  0.67551989  0.08552262  1
  O2-  O148  1  0.06865450  0.67932258  0.43372774  1
  O2-  O149  1  0.06654861  0.67618596  0.75989989  1
  O2-  O150  1  0.57488357  0.17987870  0.08884803  1
  O2-  O151  1  0.57147436  0.18165444  0.43122603  1
  O2-  O152  1  0.57119824  0.18413842  0.76693436  1
  O2-  O153  1  0.57086620  0.67593634  0.09005375  1
  O2-  O154  1  0.57422133  0.67744065  0.42117186  1
  O2-  O155  1  0.57175525  0.68085573  0.76523424  1
  O2-  O156  1  0.17971361  0.42881118  0.23456249  1
  O2-  O157  1  0.17842345  0.42926511  0.56737989  1
  O2-  O158  1  0.18086869  0.42497621  0.90104570  1
  O2-  O159  1  0.18160077  0.93216313  0.23279761  1
  O2-  O160  1  0.17653513  0.92830373  0.56834259  1
  O2-  O161  1  0.18003928  0.93325969  0.90185844  1
  O2-  O162  1  0.68175298  0.42907898  0.23531306  1
  O2-  O163  1  0.68121433  0.42522649  0.57820657  1
  O2-  O164  1  0.68232253  0.42885435  0.90056512  1
  O2-  O165  1  0.67306508  0.93000665  0.24227436  1
  O2-  O166  1  0.67873904  0.92962057  0.57729321  1
  O2-  O167  1  0.67666679  0.93279670  0.90808320  1
  O2-  O168  1  0.42987556  0.31941209  0.09075821  1
  O2-  O169  1  0.42934815  0.32121010  0.42201454  1
  O2-  O170  1  0.42540372  0.32008960  0.75605584  1
  O2-  O171  1  0.42881433  0.82036828  0.09682191  1
  O2-  O172  1  0.43016218  0.81926602  0.43081600  1
  O2-  O173  1  0.42706819  0.81819445  0.76362538  1
  O2-  O174  1  0.92423794  0.31818616  0.08765072  1
  O2-  O175  1  0.92765438  0.31863090  0.43313544  1
  O2-  O176  1  0.92997224  0.32284580  0.75956814  1
  O2-  O177  1  0.93050610  0.82293350  0.09610501  1
  O2-  O178  1  0.92913241  0.82233044  0.43488097  1
  O2-  O179  1  0.93110496  0.82167996  0.75919619  1
  O2-  O180  1  0.32843206  0.06853103  0.24355120  1
  O2-  O181  1  0.32566479  0.07258395  0.57712768  1
  O2-  O182  1  0.32633862  0.07510254  0.91087089  1
  O2-  O183  1  0.31982494  0.57049423  0.23560633  1
  O2-  O184  1  0.31963365  0.57257776  0.58044837  1
  O2-  O185  1  0.32230175  0.56635468  0.90889189  1
  O2-  O186  1  0.81746116  0.06752465  0.23316223  1
  O2-  O187  1  0.82129936  0.07112781  0.56982801  1
  O2-  O188  1  0.81918050  0.07180618  0.91083253  1
  O2-  O189  1  0.81729518  0.57609752  0.24251726  1
  O2-  O190  1  0.82235668  0.57212314  0.56765214  1
  O2-  O191  1  0.82006565  0.57500097  0.91284909  1
  O2-  O192  1  0.03693136  0.08405178  0.26278355  1
  O2-  O193  1  0.03456454  0.08284159  0.60259321  1
  O2-  O194  1  0.03865504  0.09101405  0.93638326  1
  O2-  O195  1  0.04277895  0.58147515  0.26367307  1
  O2-  O196  1  0.03662481  0.58603736  0.60836596  1
  O2-  O197  1  0.04279857  0.58225002  0.93448749  1
  O2-  O198  1  0.54048885  0.08546680  0.26116189  1
  O2-  O199  1  0.54337498  0.08608333  0.59743571  1
  O2-  O200  1  0.54794674  0.08893498  0.93483731  1
  O2-  O201  1  0.54557584  0.57957890  0.27347160  1
  O2-  O202  1  0.55141901  0.57704128  0.60082963  1
  O2-  O203  1  0.54567422  0.58261990  0.93799436  1
  O2-  O204  1  0.17608695  0.19714166  0.26636452  1
  O2-  O205  1  0.16844983  0.20287624  0.60143003  1
  O2-  O206  1  0.16638132  0.20379784  0.93902582  1
  O2-  O207  1  0.16812467  0.70720746  0.26503126  1
  O2-  O208  1  0.16149476  0.70044613  0.60935981  1
  O2-  O209  1  0.16420370  0.70060115  0.93391843  1
  O2-  O210  1  0.66704447  0.21223846  0.26330967  1
  O2-  O211  1  0.66977443  0.21286108  0.60057540  1
  O2-  O212  1  0.66545632  0.21077777  0.93674033  1
  O2-  O213  1  0.66466607  0.69813141  0.26671627  1
  O2-  O214  1  0.67048775  0.70938406  0.59749236  1
  O2-  O215  1  0.66578887  0.70145441  0.93936056  1
  O2-  O216  1  0.07942391  0.45388161  0.06538493  1
  O2-  O217  1  0.07517395  0.45303325  0.39781480  1
  O2-  O218  1  0.08520940  0.46012799  0.73720104  1
  O2-  O219  1  0.08466238  0.96520670  0.06771904  1
  O2-  O220  1  0.08398320  0.96208141  0.40000364  1
  O2-  O221  1  0.08549817  0.96350184  0.73823333  1
  O2-  O222  1  0.58288946  0.45583705  0.06801146  1
  O2-  O223  1  0.58392758  0.45341629  0.40446452  1
  O2-  O224  1  0.58067602  0.44798705  0.72711694  1
  O2-  O225  1  0.58632655  0.95951826  0.06071366  1
  O2-  O226  1  0.58229979  0.95665162  0.39410794  1
  O2-  O227  1  0.58232281  0.95694223  0.72714612  1
  O2-  O228  1  0.21093122  0.33064041  0.06792032  1
  O2-  O229  1  0.20684899  0.32723876  0.39863937  1
  O2-  O230  1  0.21119612  0.33010107  0.73354797  1
  O2-  O231  1  0.20687198  0.83030689  0.06477495  1
  O2-  O232  1  0.21115960  0.83535795  0.39872783  1
  O2-  O233  1  0.20657106  0.83069809  0.73649014  1
  O2-  O234  1  0.71482840  0.33353976  0.06695649  1
  O2-  O235  1  0.71533620  0.33315837  0.40182605  1
  O2-  O236  1  0.70708970  0.33763751  0.73325826  1
  O2-  O237  1  0.70200229  0.83646885  0.05902016  1
  O2-  O238  1  0.69335349  0.82981523  0.39100810  1
  O2-  O239  1  0.70239090  0.83708923  0.73054111  1
  O2-  O240  1  0.45434896  0.41839654  0.27292229  1
  O2-  O241  1  0.44505263  0.41803459  0.60603192  1
  O2-  O242  1  0.45707099  0.41195018  0.93762168  1
  O2-  O243  1  0.46088860  0.91363786  0.26070592  1
  O2-  O244  1  0.45281606  0.91821633  0.59742234  1
  O2-  O245  1  0.45917683  0.91725290  0.92974145  1
  O2-  O246  1  0.94712740  0.42043585  0.26420619  1
  O2-  O247  1  0.95323208  0.41905062  0.60986369  1
  O2-  O248  1  0.94913020  0.41661683  0.93887913  1
  O2-  O249  1  0.95781291  0.91982424  0.26693340  1
  O2-  O250  1  0.95936796  0.91403820  0.60884890  1
  O2-  O251  1  0.96285730  0.91926486  0.92979532  1
  O2-  O252  1  0.33657110  0.29733034  0.26819688  1
  O2-  O253  1  0.33520014  0.29174286  0.60184901  1
  O2-  O254  1  0.33854082  0.29031297  0.93723446  1
  O2-  O255  1  0.33370452  0.78663010  0.26391167  1
  O2-  O256  1  0.32638691  0.78895269  0.59952080  1
  O2-  O257  1  0.33138848  0.78870417  0.92965558  1
  O2-  O258  1  0.83516087  0.28285382  0.26370890  1
  O2-  O259  1  0.83542043  0.29910582  0.60912002  1
  O2-  O260  1  0.83948723  0.28731242  0.93313859  1
  O2-  O261  1  0.82800886  0.79756280  0.26661895  1
  O2-  O262  1  0.83715144  0.79744936  0.60825606  1
  O2-  O263  1  0.83170814  0.79539425  0.92939221  1
  O2-  O264  1  0.42152804  0.04847413  0.06034171  1
  O2-  O265  1  0.41923360  0.04166433  0.39485774  1
  O2-  O266  1  0.41919884  0.04750763  0.72864477  1
  O2-  O267  1  0.41405788  0.54383956  0.06183880  1
  O2-  O268  1  0.41685904  0.54447558  0.40572060  1
  O2-  O269  1  0.41779655  0.54957764  0.72999216  1
  O2-  O270  1  0.91259295  0.04214860  0.06193591  1
  O2-  O271  1  0.91551549  0.03920157  0.40208619  1
  O2-  O272  1  0.91413621  0.03845293  0.74045053  1
  O2-  O273  1  0.91508862  0.55015330  0.06335524  1
  O2-  O274  1  0.91468215  0.54972237  0.39289123  1
  O2-  O275  1  0.91221912  0.54045660  0.74195686  1
  O2-  O276  1  0.30026474  0.16423346  0.06461355  1
  O2-  O277  1  0.30912571  0.16755932  0.39332456  1
  O2-  O278  1  0.29795978  0.16358809  0.73071010  1
  O2-  O279  1  0.29617443  0.66448779  0.05846562  1
  O2-  O280  1  0.28999362  0.66929357  0.40333521  1
  O2-  O281  1  0.29219587  0.66261564  0.73416843  1
  O2-  O282  1  0.79167083  0.16160713  0.06306092  1
  O2-  O283  1  0.78515963  0.16232357  0.40117308  1
  O2-  O284  1  0.78988352  0.16854139  0.73816821  1
  O2-  O285  1  0.79681876  0.67031933  0.06317111  1
  O2-  O286  1  0.79450218  0.66837309  0.39482865  1
  O2-  O287  1  0.79004069  0.67040887  0.73627574  1
