# generated using pymatgen
data_Ca2Al2SiO7
_symmetry_space_group_name_H-M   'P 1'
_cell_length_a   15.45697209
_cell_length_b   15.45727184
_cell_length_c   15.28321937
_cell_angle_alpha   89.99008221
_cell_angle_beta   90.00610911
_cell_angle_gamma   90.00149645
_symmetry_Int_Tables_number   1
_chemical_formula_structural   Ca2Al2SiO7
_chemical_formula_sum   'Ca48 Al48 Si24 O168'
_cell_volume   3651.50672871
_cell_formula_units_Z   24
loop_
 _symmetry_equiv_pos_site_id
 _symmetry_equiv_pos_as_xyz
  1  'x, y, z'
loop_
 _atom_type_symbol
 _atom_type_oxidation_number
  Ca2+  2.0
  Al0+  0.0
  Si0+  0.0
  O2-  -2.0
loop_
 _atom_site_type_symbol
 _atom_site_label
 _atom_site_symmetry_multiplicity
 _atom_site_fract_x
 _atom_site_fract_y
 _atom_site_fract_z
 _atom_site_occupancy
  Ca2+  Ca0  1  0.17074221  0.09170572  0.17136588  1
  Ca2+  Ca1  1  0.17023871  0.08723254  0.49887364  1
  Ca2+  Ca2  1  0.17117992  0.08092524  0.84145328  1
  Ca2+  Ca3  1  0.16824728  0.57800546  0.17945471  1
  Ca2+  Ca4  1  0.17046916  0.57941172  0.50806069  1
  Ca2+  Ca5  1  0.16426754  0.58615106  0.83520082  1
  Ca2+  Ca6  1  0.67120431  0.07739604  0.16618590  1
  Ca2+  Ca7  1  0.67549675  0.07572953  0.51385053  1
  Ca2+  Ca8  1  0.67746010  0.06867377  0.83904771  1
  Ca2+  Ca9  1  0.67309123  0.59397352  0.16728554  1
  Ca2+  Ca10  1  0.65996646  0.58093801  0.50589717  1
  Ca2+  Ca11  1  0.66760096  0.58511471  0.83819865  1
  Ca2+  Ca12  1  0.08457116  0.32563616  0.16073882  1
  Ca2+  Ca13  1  0.09088945  0.33232160  0.49555575  1
  Ca2+  Ca14  1  0.07831481  0.32998987  0.83419389  1
  Ca2+  Ca15  1  0.08817015  0.81894859  0.16269062  1
  Ca2+  Ca16  1  0.08097384  0.82263246  0.49977443  1
  Ca2+  Ca17  1  0.07873502  0.82174632  0.82372471  1
  Ca2+  Ca18  1  0.57256705  0.33337727  0.16500919  1
  Ca2+  Ca19  1  0.57705873  0.33634865  0.49492788  1
  Ca2+  Ca20  1  0.58573755  0.33278482  0.82726466  1
  Ca2+  Ca21  1  0.58384892  0.82557857  0.16107277  1
  Ca2+  Ca22  1  0.58201767  0.82497086  0.50084459  1
  Ca2+  Ca23  1  0.58590989  0.82796084  0.82544007  1
  Ca2+  Ca24  1  0.32608173  0.42130257  0.17962117  1
  Ca2+  Ca25  1  0.32542384  0.42650294  0.50228081  1
  Ca2+  Ca26  1  0.32720905  0.42588408  0.82999525  1
  Ca2+  Ca27  1  0.33329024  0.93021839  0.16956774  1
  Ca2+  Ca28  1  0.33745426  0.91983319  0.50310237  1
  Ca2+  Ca29  1  0.33608270  0.91843625  0.83752434  1
  Ca2+  Ca30  1  0.83795459  0.41929707  0.16272879  1
  Ca2+  Ca31  1  0.82454160  0.41939912  0.50849553  1
  Ca2+  Ca32  1  0.82987695  0.42120829  0.83932470  1
  Ca2+  Ca33  1  0.82994697  0.91494080  0.16440692  1
  Ca2+  Ca34  1  0.83140855  0.92084118  0.51181035  1
  Ca2+  Ca35  1  0.82835389  0.91589413  0.83791277  1
  Ca2+  Ca36  1  0.40417874  0.17289675  0.16465957  1
  Ca2+  Ca37  1  0.41495636  0.17469735  0.49064246  1
  Ca2+  Ca38  1  0.41654497  0.16538747  0.83128130  1
  Ca2+  Ca39  1  0.42794453  0.65876831  0.16317199  1
  Ca2+  Ca40  1  0.42255888  0.66010038  0.49807180  1
  Ca2+  Ca41  1  0.42648948  0.67272220  0.82160776  1
  Ca2+  Ca42  1  0.92744731  0.17206715  0.15592945  1
  Ca2+  Ca43  1  0.92118507  0.16710265  0.49431578  1
  Ca2+  Ca44  1  0.91144568  0.16481397  0.83208738  1
  Ca2+  Ca45  1  0.92874900  0.66004336  0.15857674  1
  Ca2+  Ca46  1  0.92484572  0.66981061  0.49890150  1
  Ca2+  Ca47  1  0.92321470  0.66720638  0.82893878  1
  Al0+  Al48  1  0.00139379  -0.00208693  0.00189666  1
  Al0+  Al49  1  -0.00064342  0.00084281  0.32863421  1
  Al0+  Al50  1  0.00365168  0.00144032  0.66590901  1
  Al0+  Al51  1  -0.00095572  0.49712380  -0.00410333  1
  Al0+  Al52  1  -0.00299493  0.50038310  0.33556290  1
  Al0+  Al53  1  -0.00055628  0.49535895  0.66575378  1
  Al0+  Al54  1  0.49861213  0.00171228  0.01065451  1
  Al0+  Al55  1  0.50178101  -0.00106643  0.33808258  1
  Al0+  Al56  1  0.50291040  0.00070547  0.66614174  1
  Al0+  Al57  1  0.49895301  0.49934159  -0.00552871  1
  Al0+  Al58  1  0.50024254  0.49939560  0.32596384  1
  Al0+  Al59  1  0.49740515  0.49843591  0.67239484  1
  Al0+  Al60  1  0.24861708  0.25169819  -0.00346712  1
  Al0+  Al61  1  0.24980288  0.25082793  0.33393128  1
  Al0+  Al62  1  0.24959333  0.25230008  0.67146803  1
  Al0+  Al63  1  0.25311280  0.75010192  -0.00239911  1
  Al0+  Al64  1  0.25115064  0.75314426  0.33215555  1
  Al0+  Al65  1  0.25235715  0.75239530  0.66263770  1
  Al0+  Al66  1  0.74757169  0.24969289  0.00235353  1
  Al0+  Al67  1  0.74941264  0.24959158  0.33265256  1
  Al0+  Al68  1  0.75087154  0.25076992  0.67281810  1
  Al0+  Al69  1  0.75054631  0.74725371  0.00543936  1
  Al0+  Al70  1  0.74913818  0.75095332  0.33145893  1
  Al0+  Al71  1  0.75059775  0.74975964  0.66096038  1
  Al0+  Al72  1  0.56887577  0.67993456  0.31767386  1
  Al0+  Al73  1  0.06943280  0.18118333  0.32079634  1
  Al0+  Al74  1  0.92939320  0.82294164  0.65273779  1
  Al0+  Al75  1  0.07145461  0.67594710  0.65108902  1
  Al0+  Al76  1  0.67933229  0.92743247  0.01758301  1
  Al0+  Al77  1  0.32324141  0.57339422  0.34653653  1
  Al0+  Al78  1  0.31931868  0.57400168  0.68295218  1
  Al0+  Al79  1  0.82336183  0.07206785  0.01808514  1
  Al0+  Al80  1  0.82500491  0.07085284  0.68125602  1
  Al0+  Al81  1  0.67983706  0.92704767  0.68095014  1
  Al0+  Al82  1  0.17677210  0.43035250  0.34738204  1
  Al0+  Al83  1  0.31798900  0.07197158  0.01336520  1
  Al0+  Al84  1  0.57044085  0.67666094  0.65178448  1
  Al0+  Al85  1  0.07324500  0.67791284  0.98699694  1
  Al0+  Al86  1  0.07076293  0.67911134  0.32023353  1
  Al0+  Al87  1  0.42957169  0.82469658  0.65085113  1
  Al0+  Al88  1  0.92705045  0.31894112  0.98353340  1
  Al0+  Al89  1  0.67750019  0.43022976  0.67935624  1
  Al0+  Al90  1  0.57164750  0.68001432  0.98487039  1
  Al0+  Al91  1  0.82050409  0.56786011  0.01283593  1
  Al0+  Al92  1  0.43042320  0.31867035  0.32064516  1
  Al0+  Al93  1  0.17700898  0.42831551  0.68536749  1
  Al0+  Al94  1  0.31980188  0.07067624  0.34827735  1
  Al0+  Al95  1  0.07168767  0.17697674  0.98290429  1
  Si0+  Si96  1  0.17998283  0.43185204  0.01473921  1
  Si0+  Si97  1  0.42791546  0.31888765  0.65227393  1
  Si0+  Si98  1  0.82094156  0.07108059  0.34775886  1
  Si0+  Si99  1  0.32166727  0.07208673  0.68012375  1
  Si0+  Si100  1  0.92293612  0.32253657  0.31742897  1
  Si0+  Si101  1  0.81986978  0.57245776  0.34918136  1
  Si0+  Si102  1  0.56920589  0.17832915  0.98605441  1
  Si0+  Si103  1  0.68056696  0.92787445  0.35113132  1
  Si0+  Si104  1  0.18031008  0.92987508  0.68024831  1
  Si0+  Si105  1  0.17842333  0.92466279  0.01633321  1
  Si0+  Si106  1  0.17561577  0.92826422  0.35089660  1
  Si0+  Si107  1  0.67925143  0.42882059  0.34550252  1
  Si0+  Si108  1  0.42793363  0.82618207  0.31428077  1
  Si0+  Si109  1  0.32214517  0.57194286  0.01445794  1
  Si0+  Si110  1  0.07327768  0.18023954  0.65131219  1
  Si0+  Si111  1  0.82201575  0.57153826  0.68092339  1
  Si0+  Si112  1  0.67410704  0.42709096  0.01884998  1
  Si0+  Si113  1  0.92773175  0.82186633  0.31475419  1
  Si0+  Si114  1  0.57216659  0.18073229  0.65344880  1
  Si0+  Si115  1  0.43043644  0.82454557  0.98548624  1
  Si0+  Si116  1  0.57377043  0.17585778  0.31716049  1
  Si0+  Si117  1  0.42770963  0.32105169  0.98191920  1
  Si0+  Si118  1  0.92695934  0.31865235  0.65058119  1
  Si0+  Si119  1  0.92847338  0.82005781  0.98547147  1
  O2-  O120  1  0.24158308  -0.00092568  0.06012752  1
  O2-  O121  1  0.24587530  -0.00416348  0.39565957  1
  O2-  O122  1  0.25436391  -0.00172376  0.72222139  1
  O2-  O123  1  0.24773738  0.50540396  0.05741223  1
  O2-  O124  1  0.24490987  0.50727953  0.39558392  1
  O2-  O125  1  0.24197013  0.50757731  0.73403971  1
  O2-  O126  1  0.75260887  -0.00137166  0.06842926  1
  O2-  O127  1  0.75057457  0.00079397  0.39152210  1
  O2-  O128  1  0.75642934  -0.00502925  0.72953695  1
  O2-  O129  1  0.74358608  0.49546552  0.06203347  1
  O2-  O130  1  0.74931856  0.49979071  0.38918848  1
  O2-  O131  1  0.74856251  0.50802096  0.72531191  1
  O2-  O132  1  -0.00439576  0.25714198  0.27556492  1
  O2-  O133  1  -0.00027185  0.24895575  0.60927476  1
  O2-  O134  1  -0.00632654  0.24210134  0.93236071  1
  O2-  O135  1  -0.00307365  0.75354318  0.27095085  1
  O2-  O136  1  -0.00147678  0.74810008  0.60235425  1
  O2-  O137  1  0.00029126  0.75465985  0.94152603  1
  O2-  O138  1  0.50201994  0.24108033  0.27241593  1
  O2-  O139  1  0.50045801  0.24976297  0.60936852  1
  O2-  O140  1  0.50010702  0.25040058  0.94157435  1
  O2-  O141  1  0.49150314  0.75227665  0.27079539  1
  O2-  O142  1  0.49802528  0.74858751  0.60155749  1
  O2-  O143  1  0.49930214  0.75721410  0.94031179  1
  O2-  O144  1  0.07542272  0.18399169  0.09643123  1
  O2-  O145  1  0.06702548  0.18011458  0.43442646  1
  O2-  O146  1  0.07621756  0.18066180  0.75584352  1
  O2-  O147  1  0.07347631  0.67734494  0.10048140  1
  O2-  O148  1  0.06733345  0.67958781  0.43276468  1
  O2-  O149  1  0.06873138  0.67918041  0.76493087  1
  O2-  O150  1  0.56776587  0.18041463  0.09135828  1
  O2-  O151  1  0.57675008  0.17948798  0.42293770  1
  O2-  O152  1  0.56948096  0.18102252  0.75864082  1
  O2-  O153  1  0.56887877  0.67933876  0.09824027  1
  O2-  O154  1  0.57110200  0.67942357  0.43024170  1
  O2-  O155  1  0.56979443  0.67761485  0.76539164  1
  O2-  O156  1  0.17851889  0.42939192  0.23312564  1
  O2-  O157  1  0.18213201  0.42303638  0.57218272  1
  O2-  O158  1  0.18212357  0.43118217  0.90986304  1
  O2-  O159  1  0.17566380  0.92834050  0.24525727  1
  O2-  O160  1  0.17779456  0.93387543  0.57523049  1
  O2-  O161  1  0.18249874  0.92249860  0.91068093  1
  O2-  O162  1  0.68029725  0.42673445  0.24072179  1
  O2-  O163  1  0.67945993  0.42693896  0.56555024  1
  O2-  O164  1  0.67294805  0.42758851  0.91330927  1
  O2-  O165  1  0.68131178  0.92761252  0.24612804  1
  O2-  O166  1  0.67918911  0.93267786  0.56686113  1
  O2-  O167  1  0.67863740  0.92807487  0.90440375  1
  O2-  O168  1  0.42689905  0.32145085  0.08716527  1
  O2-  O169  1  0.43387744  0.31797280  0.43389779  1
  O2-  O170  1  0.42769941  0.31523146  0.75768005  1
  O2-  O171  1  0.42929158  0.82327741  0.09112977  1
  O2-  O172  1  0.43259467  0.83110349  0.41930266  1
  O2-  O173  1  0.43177827  0.82773469  0.76473850  1
  O2-  O174  1  0.93259788  0.32143034  0.09752602  1
  O2-  O175  1  0.91564109  0.31867401  0.42290591  1
  O2-  O176  1  0.92450654  0.31823733  0.75508506  1
  O2-  O177  1  0.92942383  0.81722215  0.09148012  1
  O2-  O178  1  0.92706058  0.82212875  0.42014661  1
  O2-  O179  1  0.93239457  0.82363358  0.76638370  1
  O2-  O180  1  0.31709478  0.07107928  0.23532637  1
  O2-  O181  1  0.31945731  0.07521482  0.57512376  1
  O2-  O182  1  0.32003784  0.07011845  0.89974919  1
  O2-  O183  1  0.32368875  0.56749771  0.23216367  1
  O2-  O184  1  0.32210579  0.56808045  0.56955786  1
  O2-  O185  1  0.32258555  0.57059594  0.90977302  1
  O2-  O186  1  0.81950928  0.07163014  0.24324334  1
  O2-  O187  1  0.82177584  0.07353932  0.56671441  1
  O2-  O188  1  0.81921403  0.07049031  0.90491029  1
  O2-  O189  1  0.82107237  0.57242779  0.24409299  1
  O2-  O190  1  0.82295343  0.56658491  0.57481022  1
  O2-  O191  1  0.81973768  0.56740716  0.89989782  1
  O2-  O192  1  0.04014501  0.08484119  0.26524751  1
  O2-  O193  1  0.04957561  0.08827609  0.60275094  1
  O2-  O194  1  0.05362001  0.07389157  0.93563276  1
  O2-  O195  1  0.03775042  0.58193614  0.26739002  1
  O2-  O196  1  0.04360586  0.57623454  0.60024626  1
  O2-  O197  1  0.03996850  0.58284254  0.93324271  1
  O2-  O198  1  0.55177046  0.08063381  0.27398970  1
  O2-  O199  1  0.54617407  0.08955360  0.60448830  1
  O2-  O200  1  0.53742536  0.08697233  0.94060157  1
  O2-  O201  1  0.54250034  0.58324221  0.26119569  1
  O2-  O202  1  0.54013756  0.57656228  0.60148063  1
  O2-  O203  1  0.54031123  0.58299121  0.93191343  1
  O2-  O204  1  0.16582187  0.21162781  0.26713744  1
  O2-  O205  1  0.16448042  0.21216296  0.60389010  1
  O2-  O206  1  0.16766387  0.21241211  0.92812987  1
  O2-  O207  1  0.16836890  0.70921297  0.26658288  1
  O2-  O208  1  0.16930310  0.70711114  0.59961557  1
  O2-  O209  1  0.17055916  0.70754980  0.93352512  1
  O2-  O210  1  0.66535823  0.20553827  0.26872522  1
  O2-  O211  1  0.66362640  0.21064861  0.60640979  1
  O2-  O212  1  0.66090313  0.20452234  0.93849992  1
  O2-  O213  1  0.66551991  0.71441785  0.26468663  1
  O2-  O214  1  0.66937534  0.70106034  0.59783566  1
  O2-  O215  1  0.67049314  0.70703887  0.93479815  1
  O2-  O216  1  0.08705798  0.45551921  0.06067817  1
  O2-  O217  1  0.07586840  0.45137393  0.39940044  1
  O2-  O218  1  0.07521810  0.44727261  0.73469482  1
  O2-  O219  1  0.08323403  0.94179279  0.06174231  1
  O2-  O220  1  0.08204473  0.95663954  0.39591938  1
  O2-  O221  1  0.09131003  0.96115967  0.73072026  1
  O2-  O222  1  0.57953653  0.45357310  0.06313023  1
  O2-  O223  1  0.58749892  0.45717328  0.39184924  1
  O2-  O224  1  0.58069178  0.45330337  0.73581168  1
  O2-  O225  1  0.58284047  0.95961038  0.07353235  1
  O2-  O226  1  0.58873570  0.95399096  0.39859635  1
  O2-  O227  1  0.58350409  0.96192248  0.73488650  1
  O2-  O228  1  0.21226216  0.34079532  0.06087025  1
  O2-  O229  1  0.21071283  0.33399017  0.40071465  1
  O2-  O230  1  0.21457181  0.33337216  0.74109386  1
  O2-  O231  1  0.21117526  0.83372369  0.06544631  1
  O2-  O232  1  0.20061595  0.83493176  0.39739174  1
  O2-  O233  1  0.20525874  0.83793187  0.72795954  1
  O2-  O234  1  0.69725847  0.33339071  0.06558912  1
  O2-  O235  1  0.70579473  0.33668409  0.39442130  1
  O2-  O236  1  0.71126321  0.33592332  0.73622119  1
  O2-  O237  1  0.70886653  0.82989225  0.07221608  1
  O2-  O238  1  0.71087306  0.83677123  0.39824357  1
  O2-  O239  1  0.70396458  0.82655384  0.73052519  1
  O2-  O240  1  0.46404365  0.41173439  0.26151269  1
  O2-  O241  1  0.45520061  0.41087326  0.60679615  1
  O2-  O242  1  0.45582686  0.41172275  0.93267165  1
  O2-  O243  1  0.46042407  0.91805216  0.26707734  1
  O2-  O244  1  0.46045943  0.92282005  0.59628074  1
  O2-  O245  1  0.45362891  0.92013929  0.94263703  1
  O2-  O246  1  0.94437533  0.41805052  0.27443611  1
  O2-  O247  1  0.95255601  0.40997629  0.60116778  1
  O2-  O248  1  0.96061935  0.41438689  0.92803945  1
  O2-  O249  1  0.95171253  0.91569011  0.26829168  1
  O2-  O250  1  0.96208564  0.92049682  0.59825517  1
  O2-  O251  1  0.94884545  0.91527877  0.94146431  1
  O2-  O252  1  0.33442832  0.28818298  0.26556576  1
  O2-  O253  1  0.33735764  0.28736290  0.60488110  1
  O2-  O254  1  0.33773277  0.29106205  0.93304144  1
  O2-  O255  1  0.33164171  0.80968153  0.27055356  1
  O2-  O256  1  0.32974508  0.80402335  0.59775921  1
  O2-  O257  1  0.33750259  0.79900011  0.93793332  1
  O2-  O258  1  0.83174926  0.29384131  0.26735436  1
  O2-  O259  1  0.83539721  0.28962285  0.60203851  1
  O2-  O260  1  0.82466691  0.29796139  0.93501344  1
  O2-  O261  1  0.83454797  0.79479207  0.26883559  1
  O2-  O262  1  0.83148100  0.79785475  0.59702235  1
  O2-  O263  1  0.83605299  0.79027324  0.94055994  1
  O2-  O264  1  0.41254392  0.04326562  0.07236558  1
  O2-  O265  1  0.41855885  0.04360465  0.40109507  1
  O2-  O266  1  0.41490962  0.04812437  0.72624640  1
  O2-  O267  1  0.41276352  0.53791297  0.06082305  1
  O2-  O268  1  0.42047215  0.53692578  0.39725913  1
  O2-  O269  1  0.41392463  0.53702460  0.73896116  1
  O2-  O270  1  0.92365361  0.04615142  0.06929489  1
  O2-  O271  1  0.91342313  0.04363892  0.39417266  1
  O2-  O272  1  0.92561152  0.04906103  0.73161752  1
  O2-  O273  1  0.91642310  0.53294703  0.06769283  1
  O2-  O274  1  0.91029185  0.54516807  0.39903025  1
  O2-  O275  1  0.91310262  0.53984646  0.72782573  1
  O2-  O276  1  0.28738457  0.17002540  0.06543304  1
  O2-  O277  1  0.28801902  0.16649507  0.40278727  1
  O2-  O278  1  0.29085162  0.16158216  0.73005349  1
  O2-  O279  1  0.30136131  0.66596507  0.06043400  1
  O2-  O280  1  0.30484353  0.67585314  0.39417996  1
  O2-  O281  1  0.29899655  0.67566878  0.73271159  1
  O2-  O282  1  0.79121837  0.17024771  0.07055055  1
  O2-  O283  1  0.79321672  0.16342693  0.39527251  1
  O2-  O284  1  0.79130196  0.16680832  0.73516984  1
  O2-  O285  1  0.79224891  0.66291394  0.07113731  1
  O2-  O286  1  0.79031100  0.66405473  0.39568262  1
  O2-  O287  1  0.80305066  0.66731300  0.72359533  1
