# generated using pymatgen
data_Ca2Al2SiO7
_symmetry_space_group_name_H-M   'P 1'
_cell_length_a   15.46803589
_cell_length_b   15.46583784
_cell_length_c   15.28815784
_cell_angle_alpha   90.01243486
_cell_angle_beta   90.03579404
_cell_angle_gamma   90.02590647
_symmetry_Int_Tables_number   1
_chemical_formula_structural   Ca2Al2SiO7
_chemical_formula_sum   'Ca48 Al48 Si24 O168'
_cell_volume   3657.32573402
_cell_formula_units_Z   24
loop_
 _symmetry_equiv_pos_site_id
 _symmetry_equiv_pos_as_xyz
  1  'x, y, z'
loop_
 _atom_type_symbol
 _atom_type_oxidation_number
  Ca2+  2.0
  Al0+  0.0
  Si0+  0.0
  O2-  -2.0
loop_
 _atom_site_type_symbol
 _atom_site_label
 _atom_site_symmetry_multiplicity
 _atom_site_fract_x
 _atom_site_fract_y
 _atom_site_fract_z
 _atom_site_occupancy
  Ca2+  Ca0  1  0.16509026  0.07802792  0.16993958  1
  Ca2+  Ca1  1  0.16875139  0.07391533  0.50944286  1
  Ca2+  Ca2  1  0.16690480  0.08467806  0.83209533  1
  Ca2+  Ca3  1  0.15775323  0.57516642  0.16723212  1
  Ca2+  Ca4  1  0.16298312  0.57133572  0.50579762  1
  Ca2+  Ca5  1  0.15842820  0.57293992  0.84241199  1
  Ca2+  Ca6  1  0.66845352  0.07333609  0.16388953  1
  Ca2+  Ca7  1  0.66704894  0.06792462  0.50526682  1
  Ca2+  Ca8  1  0.67025302  0.07593209  0.84491354  1
  Ca2+  Ca9  1  0.66841494  0.57984942  0.17116135  1
  Ca2+  Ca10  1  0.66690837  0.58090578  0.51053286  1
  Ca2+  Ca11  1  0.67388986  0.57900973  0.83643484  1
  Ca2+  Ca12  1  0.08641011  0.32891884  0.15610367  1
  Ca2+  Ca13  1  0.09023970  0.32989836  0.49872836  1
  Ca2+  Ca14  1  0.08950201  0.32527339  0.82754365  1
  Ca2+  Ca15  1  0.07291469  0.83179940  0.15675823  1
  Ca2+  Ca16  1  0.07787648  0.83895577  0.49153103  1
  Ca2+  Ca17  1  0.07492115  0.83145293  0.83092714  1
  Ca2+  Ca18  1  0.59019905  0.32962856  0.15798698  1
  Ca2+  Ca19  1  0.58515670  0.33708336  0.49370624  1
  Ca2+  Ca20  1  0.59305325  0.33035813  0.83068038  1
  Ca2+  Ca21  1  0.58374308  0.83353010  0.16091024  1
  Ca2+  Ca22  1  0.59271115  0.82271562  0.49571873  1
  Ca2+  Ca23  1  0.58205781  0.83662786  0.82783140  1
  Ca2+  Ca24  1  0.32226742  0.41716455  0.16854025  1
  Ca2+  Ca25  1  0.32449638  0.41713962  0.50390460  1
  Ca2+  Ca26  1  0.32279606  0.41659786  0.83544813  1
  Ca2+  Ca27  1  0.32882735  0.91371929  0.16978544  1
  Ca2+  Ca28  1  0.32071688  0.92048229  0.50814073  1
  Ca2+  Ca29  1  0.33174867  0.91863221  0.83596446  1
  Ca2+  Ca30  1  0.82496022  0.42251788  0.16581306  1
  Ca2+  Ca31  1  0.82155296  0.42626660  0.50856919  1
  Ca2+  Ca32  1  0.82859114  0.42883190  0.84039242  1
  Ca2+  Ca33  1  0.83231673  0.91528293  0.16670551  1
  Ca2+  Ca34  1  0.82515619  0.90834159  0.50080914  1
  Ca2+  Ca35  1  0.82244473  0.91793211  0.84178721  1
  Ca2+  Ca36  1  0.42586390  0.16912576  0.15745808  1
  Ca2+  Ca37  1  0.41424190  0.16515423  0.50108808  1
  Ca2+  Ca38  1  0.42168255  0.16529980  0.83030539  1
  Ca2+  Ca39  1  0.42389582  0.67287923  0.16157384  1
  Ca2+  Ca40  1  0.43137364  0.66277186  0.49690138  1
  Ca2+  Ca41  1  0.42395581  0.67338332  0.83052236  1
  Ca2+  Ca42  1  0.92092199  0.16714722  0.15469183  1
  Ca2+  Ca43  1  0.92271426  0.16761732  0.49853602  1
  Ca2+  Ca44  1  0.92450158  0.16323250  0.83135708  1
  Ca2+  Ca45  1  0.91756239  0.67703151  0.15876010  1
  Ca2+  Ca46  1  0.91372536  0.67141414  0.49687281  1
  Ca2+  Ca47  1  0.91163620  0.66508407  0.83533533  1
  Al0+  Al48  1  0.00029196  -0.00031191  -0.00619505  1
  Al0+  Al49  1  0.00112074  0.00193219  0.33252346  1
  Al0+  Al50  1  0.00028285  -0.00026699  0.66315980  1
  Al0+  Al51  1  -0.00210833  0.49886562  0.00698902  1
  Al0+  Al52  1  -0.00146222  0.49856419  0.33823570  1
  Al0+  Al53  1  -0.00211092  0.49967178  0.67202447  1
  Al0+  Al54  1  0.49919581  0.00207804  -0.00389622  1
  Al0+  Al55  1  0.50193103  0.00095473  0.33765554  1
  Al0+  Al56  1  0.49746224  0.00097555  0.66987322  1
  Al0+  Al57  1  0.49570884  0.50014366  0.00263949  1
  Al0+  Al58  1  0.49864604  0.49886746  0.32999886  1
  Al0+  Al59  1  0.49844877  0.49904212  0.66642914  1
  Al0+  Al60  1  0.25155106  0.24978089  0.00039184  1
  Al0+  Al61  1  0.25173162  0.25087002  0.33539335  1
  Al0+  Al62  1  0.25113384  0.24901438  0.66760466  1
  Al0+  Al63  1  0.25124171  0.74915677  -0.00810689  1
  Al0+  Al64  1  0.25179579  0.74851167  0.33820260  1
  Al0+  Al65  1  0.24888901  0.74962713  0.66786895  1
  Al0+  Al66  1  0.75178897  0.24843972  0.00099186  1
  Al0+  Al67  1  0.75200280  0.25090502  0.33636608  1
  Al0+  Al68  1  0.75090607  0.24910982  0.66387773  1
  Al0+  Al69  1  0.74877069  0.74888823  0.00334885  1
  Al0+  Al70  1  0.75176405  0.75066285  0.32677543  1
  Al0+  Al71  1  0.74969470  0.75012231  0.67047753  1
  Al0+  Al72  1  0.93176847  0.82181883  0.31929390  1
  Al0+  Al73  1  0.68064834  0.92911414  0.34719743  1
  Al0+  Al74  1  0.82006665  0.57195085  0.68204266  1
  Al0+  Al75  1  0.68011978  0.93012479  0.67938706  1
  Al0+  Al76  1  0.67642270  0.92928209  0.01490069  1
  Al0+  Al77  1  0.82080116  0.57223035  0.01914470  1
  Al0+  Al78  1  0.06969805  0.67733677  0.98566940  1
  Al0+  Al79  1  0.07091842  0.18055093  0.65031375  1
  Al0+  Al80  1  0.07322224  0.17919634  0.98583414  1
  Al0+  Al81  1  0.17887335  0.92891782  0.34370989  1
  Al0+  Al82  1  0.57083275  0.67873396  0.31887196  1
  Al0+  Al83  1  0.17874502  0.42948461  0.34796613  1
  Al0+  Al84  1  0.57186984  0.18213283  0.98656262  1
  Al0+  Al85  1  0.17980942  0.43055216  0.68056506  1
  Al0+  Al86  1  0.17591637  0.92654916  0.68400037  1
  Al0+  Al87  1  0.42987353  0.82218341  0.98657404  1
  Al0+  Al88  1  0.67587352  0.42711921  0.68094487  1
  Al0+  Al89  1  0.18017278  0.42891642  0.01346246  1
  Al0+  Al90  1  0.56948447  0.68149745  0.65492823  1
  Al0+  Al91  1  0.67700887  0.42914656  0.01450306  1
  Al0+  Al92  1  0.67845946  0.42910097  0.34712035  1
  Al0+  Al93  1  0.31950249  0.07052360  0.68329404  1
  Al0+  Al94  1  0.92659616  0.82081709  0.98248882  1
  Al0+  Al95  1  0.82393990  0.06944246  0.01377886  1
  Si0+  Si96  1  0.92748456  0.32375910  0.64814578  1
  Si0+  Si97  1  0.93009419  0.81954881  0.65095675  1
  Si0+  Si98  1  0.07378765  0.67566441  0.31999557  1
  Si0+  Si99  1  0.57088762  0.67581214  0.98376046  1
  Si0+  Si100  1  0.92860057  0.32109383  0.98345147  1
  Si0+  Si101  1  0.42625849  0.82438412  0.64787086  1
  Si0+  Si102  1  0.32069323  0.07096543  0.01566321  1
  Si0+  Si103  1  0.92856418  0.32148063  0.31801051  1
  Si0+  Si104  1  0.32327758  0.57164301  0.35076030  1
  Si0+  Si105  1  0.42995486  0.31962789  0.65048250  1
  Si0+  Si106  1  0.82259827  0.07293331  0.68092912  1
  Si0+  Si107  1  0.32277929  0.57233001  0.68347214  1
  Si0+  Si108  1  0.57256810  0.17729783  0.64969787  1
  Si0+  Si109  1  0.82384047  0.07325328  0.35065482  1
  Si0+  Si110  1  0.18026061  0.92776899  0.01287284  1
  Si0+  Si111  1  0.07153998  0.67593354  0.65154281  1
  Si0+  Si112  1  0.57252198  0.17866656  0.31932328  1
  Si0+  Si113  1  0.42836556  0.31961144  0.31729796  1
  Si0+  Si114  1  0.32289068  0.07222188  0.34861867  1
  Si0+  Si115  1  0.32085569  0.57493495  0.01771777  1
  Si0+  Si116  1  0.07207267  0.18190902  0.31795457  1
  Si0+  Si117  1  0.82014970  0.57239200  0.35038678  1
  Si0+  Si118  1  0.42729068  0.32281532  0.98265234  1
  Si0+  Si119  1  0.42785593  0.82357122  0.31946128  1
  O2-  O120  1  0.24997661  -0.00040512  0.05708310  1
  O2-  O121  1  0.25558029  0.00152549  0.39061054  1
  O2-  O122  1  0.24962475  -0.00309006  0.73358076  1
  O2-  O123  1  0.25028752  0.50744844  0.06135249  1
  O2-  O124  1  0.25012228  0.50717454  0.39463385  1
  O2-  O125  1  0.24883970  0.50971638  0.72776275  1
  O2-  O126  1  0.75337704  -0.00347860  0.06468651  1
  O2-  O127  1  0.75619321  0.00326095  0.39423841  1
  O2-  O128  1  0.75045908  0.00866297  0.72477876  1
  O2-  O129  1  0.74450885  0.50334186  0.06736679  1
  O2-  O130  1  0.74857602  0.50691691  0.39486305  1
  O2-  O131  1  0.74900724  0.49764016  0.72929296  1
  O2-  O132  1  0.00181608  0.25279576  0.27511822  1
  O2-  O133  1  -0.00294910  0.25590110  0.60245306  1
  O2-  O134  1  -0.00082684  0.25434789  0.93918118  1
  O2-  O135  1  0.01026729  0.74885236  0.27619185  1
  O2-  O136  1  0.00399759  0.75035365  0.60892961  1
  O2-  O137  1  -0.00262480  0.74710784  0.93274976  1
  O2-  O138  1  0.50247519  0.25106649  0.27681000  1
  O2-  O139  1  0.50461052  0.25192644  0.60733583  1
  O2-  O140  1  0.50199010  0.26108561  0.93868060  1
  O2-  O141  1  0.49733810  0.75632582  0.27462552  1
  O2-  O142  1  0.49568984  0.75615825  0.60433096  1
  O2-  O143  1  0.50740837  0.75004872  0.94068022  1
  O2-  O144  1  0.07489837  0.18080113  0.09983972  1
  O2-  O145  1  0.07213142  0.18245372  0.42299729  1
  O2-  O146  1  0.07021948  0.18222057  0.76301018  1
  O2-  O147  1  0.07184022  0.68111633  0.09995731  1
  O2-  O148  1  0.07114688  0.67391951  0.42588902  1
  O2-  O149  1  0.07071573  0.67421122  0.75596242  1
  O2-  O150  1  0.56758028  0.18089160  0.10039929  1
  O2-  O151  1  0.57026214  0.17816915  0.42459437  1
  O2-  O152  1  0.57185065  0.17706043  0.75437924  1
  O2-  O153  1  0.56592072  0.67372662  0.08963326  1
  O2-  O154  1  0.56991921  0.67819018  0.43231979  1
  O2-  O155  1  0.56710075  0.68254218  0.76753599  1
  O2-  O156  1  0.18086484  0.42675309  0.23518389  1
  O2-  O157  1  0.18281673  0.43065497  0.56700042  1
  O2-  O158  1  0.18386661  0.42732156  0.90057811  1
  O2-  O159  1  0.17994976  0.93150795  0.23034353  1
  O2-  O160  1  0.17652275  0.92907004  0.56955734  1
  O2-  O161  1  0.18198972  0.92858099  0.90828870  1
  O2-  O162  1  0.68104671  0.42639036  0.23473279  1
  O2-  O163  1  0.67622491  0.43009208  0.56678737  1
  O2-  O164  1  0.67944354  0.42983339  0.90123002  1
  O2-  O165  1  0.67678545  0.93243373  0.23505252  1
  O2-  O166  1  0.68337882  0.92867046  0.56569821  1
  O2-  O167  1  0.67523353  0.93361285  0.90130734  1
  O2-  O168  1  0.42361779  0.31820966  0.08858297  1
  O2-  O169  1  0.42576096  0.31811276  0.42254360  1
  O2-  O170  1  0.42821582  0.31868227  0.75516679  1
  O2-  O171  1  0.42771878  0.82083877  0.10029460  1
  O2-  O172  1  0.42688628  0.82312192  0.42471866  1
  O2-  O173  1  0.42701373  0.82379486  0.75340861  1
  O2-  O174  1  0.93025716  0.31876552  0.08978265  1
  O2-  O175  1  0.92845321  0.31947071  0.42300463  1
  O2-  O176  1  0.92721631  0.32284021  0.75320783  1
  O2-  O177  1  0.93235144  0.82283024  0.09635487  1
  O2-  O178  1  0.93138133  0.81984998  0.43309088  1
  O2-  O179  1  0.92959719  0.82002026  0.75535490  1
  O2-  O180  1  0.32314087  0.07456336  0.24295660  1
  O2-  O181  1  0.31867653  0.06987999  0.56888999  1
  O2-  O182  1  0.32062604  0.07231651  0.91117307  1
  O2-  O183  1  0.32437503  0.57044293  0.24545489  1
  O2-  O184  1  0.32389970  0.56847911  0.57753832  1
  O2-  O185  1  0.32293434  0.57305475  0.91227901  1
  O2-  O186  1  0.82435381  0.07529937  0.24561879  1
  O2-  O187  1  0.82152677  0.07243651  0.57475437  1
  O2-  O188  1  0.82186454  0.06986270  0.90002990  1
  O2-  O189  1  0.82140184  0.56935018  0.24544459  1
  O2-  O190  1  0.81925602  0.57290397  0.56776455  1
  O2-  O191  1  0.82050047  0.56907658  0.90577089  1
  O2-  O192  1  0.04473406  0.09012429  0.27071627  1
  O2-  O193  1  0.03911940  0.08384661  0.59526649  1
  O2-  O194  1  0.04426410  0.08355157  0.93037894  1
  O2-  O195  1  0.04383735  0.58265861  0.27426824  1
  O2-  O196  1  0.04044705  0.58489516  0.60319341  1
  O2-  O197  1  0.04175118  0.57681473  0.93686165  1
  O2-  O198  1  0.54271597  0.08738989  0.27171568  1
  O2-  O199  1  0.53908500  0.08702127  0.60135685  1
  O2-  O200  1  0.53518906  0.08863255  0.93098597  1
  O2-  O201  1  0.53685303  0.58306878  0.26437156  1
  O2-  O202  1  0.53668443  0.58424422  0.60071699  1
  O2-  O203  1  0.53806707  0.58439070  0.93690628  1
  O2-  O204  1  0.16501748  0.20893739  0.27201958  1
  O2-  O205  1  0.16810382  0.21220346  0.59700706  1
  O2-  O206  1  0.16969925  0.21138441  0.93255184  1
  O2-  O207  1  0.17051322  0.69396595  0.27769831  1
  O2-  O208  1  0.16558559  0.69810517  0.60482219  1
  O2-  O209  1  0.16814925  0.70277236  0.93151524  1
  O2-  O210  1  0.66520687  0.20603965  0.27414820  1
  O2-  O211  1  0.66557486  0.19946399  0.60125697  1
  O2-  O212  1  0.66949674  0.20758553  0.93240754  1
  O2-  O213  1  0.66680429  0.70783171  0.26432802  1
  O2-  O214  1  0.66637248  0.71285906  0.60060031  1
  O2-  O215  1  0.66669273  0.69463815  0.94195686  1
  O2-  O216  1  0.08338285  0.45424331  0.06895044  1
  O2-  O217  1  0.08150790  0.45607479  0.40307994  1
  O2-  O218  1  0.08208614  0.45512406  0.73313576  1
  O2-  O219  1  0.08843342  0.95646945  0.05869112  1
  O2-  O220  1  0.08432741  0.96353694  0.39947857  1
  O2-  O221  1  0.07768433  0.95779169  0.73391906  1
  O2-  O222  1  0.57530556  0.45088987  0.06493360  1
  O2-  O223  1  0.57832413  0.45376230  0.39667921  1
  O2-  O224  1  0.57700930  0.45315857  0.73253424  1
  O2-  O225  1  0.57946551  0.96472350  0.06754632  1
  O2-  O226  1  0.58469649  0.96055078  0.40337338  1
  O2-  O227  1  0.58174225  0.95683378  0.72973173  1
  O2-  O228  1  0.21649059  0.33396651  0.06863098  1
  O2-  O229  1  0.21474373  0.33420599  0.40210760  1
  O2-  O230  1  0.21621748  0.33581266  0.73252557  1
  O2-  O231  1  0.21019990  0.83612138  0.05903831  1
  O2-  O232  1  0.20486481  0.83145537  0.39909782  1
  O2-  O233  1  0.20058316  0.82637651  0.73423343  1
  O2-  O234  1  0.70917955  0.33126192  0.06646241  1
  O2-  O235  1  0.71115481  0.33317525  0.40218978  1
  O2-  O236  1  0.70237260  0.32623249  0.72850441  1
  O2-  O237  1  0.69735472  0.82890495  0.06509597  1
  O2-  O238  1  0.71396188  0.83188503  0.39873875  1
  O2-  O239  1  0.71274278  0.83615634  0.73456139  1
  O2-  O240  1  0.45085820  0.41192101  0.26927864  1
  O2-  O241  1  0.45338892  0.41212512  0.60159698  1
  O2-  O242  1  0.44306070  0.41933271  0.93939938  1
  O2-  O243  1  0.45145178  0.91873988  0.27493578  1
  O2-  O244  1  0.44973311  0.91909940  0.60314940  1
  O2-  O245  1  0.45692978  0.91881775  0.93122683  1
  O2-  O246  1  0.95448552  0.41452341  0.27246325  1
  O2-  O247  1  0.95291817  0.41790997  0.60254767  1
  O2-  O248  1  0.95275198  0.41557087  0.94038550  1
  O2-  O249  1  0.96086205  0.91969345  0.26646617  1
  O2-  O250  1  0.95529500  0.91144271  0.60162070  1
  O2-  O251  1  0.95750195  0.91763116  0.92822806  1
  O2-  O252  1  0.33800684  0.28805766  0.26799985  1
  O2-  O253  1  0.34028945  0.28721718  0.60057988  1
  O2-  O254  1  0.33756611  0.28882257  0.93414730  1
  O2-  O255  1  0.33424837  0.79625777  0.27275495  1
  O2-  O256  1  0.33164453  0.79814146  0.60300077  1
  O2-  O257  1  0.33595869  0.78988750  0.92812784  1
  O2-  O258  1  0.83769233  0.29146634  0.26980089  1
  O2-  O259  1  0.83459423  0.29632977  0.59939549  1
  O2-  O260  1  0.83659702  0.29375633  0.93617217  1
  O2-  O261  1  0.83701655  0.79061122  0.26319804  1
  O2-  O262  1  0.83912230  0.78792659  0.60348777  1
  O2-  O263  1  0.82604323  0.79460260  0.93308311  1
  O2-  O264  1  0.41176640  0.04289781  0.06384473  1
  O2-  O265  1  0.41644761  0.05009664  0.39640901  1
  O2-  O266  1  0.41838542  0.04569325  0.73640358  1
  O2-  O267  1  0.41214523  0.54645154  0.06723329  1
  O2-  O268  1  0.41397932  0.53859222  0.39842651  1
  O2-  O269  1  0.41273290  0.54002409  0.73188778  1
  O2-  O270  1  0.92373131  0.04308299  0.06632252  1
  O2-  O271  1  0.91786302  0.04895820  0.39670310  1
  O2-  O272  1  0.91524897  0.04461918  0.72536738  1
  O2-  O273  1  0.91692655  0.54030093  0.07494051  1
  O2-  O274  1  0.91248963  0.54415803  0.39849304  1
  O2-  O275  1  0.91763252  0.54445129  0.73609668  1
  O2-  O276  1  0.29295026  0.16196486  0.06496244  1
  O2-  O277  1  0.29508066  0.16449827  0.39629219  1
  O2-  O278  1  0.29089667  0.16822497  0.73618295  1
  O2-  O279  1  0.29700785  0.66920194  0.06308901  1
  O2-  O280  1  0.30500078  0.66608658  0.39821316  1
  O2-  O281  1  0.30443786  0.66826403  0.72619751  1
  O2-  O282  1  0.79554724  0.16727464  0.06769900  1
  O2-  O283  1  0.79747939  0.16584169  0.39872823  1
  O2-  O284  1  0.80255689  0.16807965  0.72513071  1
  O2-  O285  1  0.79604711  0.67133641  0.07141967  1
  O2-  O286  1  0.79747218  0.66744864  0.39364413  1
  O2-  O287  1  0.78977347  0.66805795  0.73650456  1
