# generated using pymatgen
data_Ca2Al2SiO7
_symmetry_space_group_name_H-M   'P 1'
_cell_length_a   15.46569506
_cell_length_b   15.46266104
_cell_length_c   15.28839106
_cell_angle_alpha   90.01710886
_cell_angle_beta   89.98288424
_cell_angle_gamma   90.00223970
_symmetry_Int_Tables_number   1
_chemical_formula_structural   Ca2Al2SiO7
_chemical_formula_sum   'Ca48 Al48 Si24 O168'
_cell_volume   3656.07774891
_cell_formula_units_Z   24
loop_
 _symmetry_equiv_pos_site_id
 _symmetry_equiv_pos_as_xyz
  1  'x, y, z'
loop_
 _atom_type_symbol
 _atom_type_oxidation_number
  Ca2+  2.0
  Al0+  0.0
  Si0+  0.0
  O2-  -2.0
loop_
 _atom_site_type_symbol
 _atom_site_label
 _atom_site_symmetry_multiplicity
 _atom_site_fract_x
 _atom_site_fract_y
 _atom_site_fract_z
 _atom_site_occupancy
  Ca2+  Ca0  1  0.18231849  0.08352116  0.16903594  1
  Ca2+  Ca1  1  0.17794367  0.07837125  0.50316204  1
  Ca2+  Ca2  1  0.17521265  0.07609419  0.83606429  1
  Ca2+  Ca3  1  0.17234206  0.58133658  0.16449797  1
  Ca2+  Ca4  1  0.17544210  0.58259914  0.50706059  1
  Ca2+  Ca5  1  0.18190784  0.57965468  0.83910937  1
  Ca2+  Ca6  1  0.65949017  0.07175943  0.17193297  1
  Ca2+  Ca7  1  0.66512222  0.08208669  0.50349436  1
  Ca2+  Ca8  1  0.66721459  0.07935881  0.83386220  1
  Ca2+  Ca9  1  0.67086413  0.57764713  0.17709004  1
  Ca2+  Ca10  1  0.65701248  0.57310012  0.50352431  1
  Ca2+  Ca11  1  0.65532924  0.57942845  0.83053267  1
  Ca2+  Ca12  1  0.08614016  0.33466753  0.15994201  1
  Ca2+  Ca13  1  0.08109081  0.33133928  0.49479346  1
  Ca2+  Ca14  1  0.08554171  0.33526886  0.83329926  1
  Ca2+  Ca15  1  0.06896607  0.83466561  0.16326803  1
  Ca2+  Ca16  1  0.07263274  0.84301021  0.49924179  1
  Ca2+  Ca17  1  0.07470754  0.84138882  0.82557653  1
  Ca2+  Ca18  1  0.57660674  0.33009305  0.16647235  1
  Ca2+  Ca19  1  0.58138098  0.32672543  0.49682682  1
  Ca2+  Ca20  1  0.57378103  0.32959029  0.82115132  1
  Ca2+  Ca21  1  0.57818444  0.83961378  0.16270652  1
  Ca2+  Ca22  1  0.57437438  0.83443864  0.49434052  1
  Ca2+  Ca23  1  0.57271299  0.82859255  0.82870766  1
  Ca2+  Ca24  1  0.33699326  0.41600493  0.16665436  1
  Ca2+  Ca25  1  0.34506409  0.42074571  0.50638578  1
  Ca2+  Ca26  1  0.34135168  0.42659144  0.83935761  1
  Ca2+  Ca27  1  0.34821375  0.92861356  0.17172931  1
  Ca2+  Ca28  1  0.33437446  0.91678225  0.50576439  1
  Ca2+  Ca29  1  0.33365104  0.91510266  0.83969286  1
  Ca2+  Ca30  1  0.82516634  0.42550858  0.17981714  1
  Ca2+  Ca31  1  0.81981459  0.42166708  0.50338183  1
  Ca2+  Ca32  1  0.82251862  0.41709422  0.83481424  1
  Ca2+  Ca33  1  0.82188856  0.90811900  0.17087813  1
  Ca2+  Ca34  1  0.82712931  0.91536280  0.50471541  1
  Ca2+  Ca35  1  0.82951431  0.91604808  0.83684440  1
  Ca2+  Ca36  1  0.41658438  0.17148503  0.16378276  1
  Ca2+  Ca37  1  0.42754922  0.17295820  0.49032083  1
  Ca2+  Ca38  1  0.41803543  0.17569865  0.82942675  1
  Ca2+  Ca39  1  0.41458236  0.67921107  0.16088198  1
  Ca2+  Ca40  1  0.41804985  0.67437905  0.50266130  1
  Ca2+  Ca41  1  0.41466183  0.67114688  0.82503551  1
  Ca2+  Ca42  1  0.92062631  0.16792577  0.16394561  1
  Ca2+  Ca43  1  0.91544066  0.16180838  0.49986838  1
  Ca2+  Ca44  1  0.91716316  0.16364812  0.82510935  1
  Ca2+  Ca45  1  0.90899559  0.67528844  0.16439738  1
  Ca2+  Ca46  1  0.91414748  0.67600701  0.49385285  1
  Ca2+  Ca47  1  0.91916792  0.67927604  0.82867210  1
  Al0+  Al48  1  0.00037094  0.00213649  -0.00311498  1
  Al0+  Al49  1  0.00074506  -0.00058079  0.32552314  1
  Al0+  Al50  1  0.00058436  0.00131962  0.66983464  1
  Al0+  Al51  1  -0.00027829  0.49998472  0.00147984  1
  Al0+  Al52  1  0.00182175  0.50103377  0.33704457  1
  Al0+  Al53  1  -0.00131061  0.50059929  0.66700716  1
  Al0+  Al54  1  0.50176742  -0.00068801  0.00118024  1
  Al0+  Al55  1  0.50147068  0.00187399  0.33703322  1
  Al0+  Al56  1  0.50069404  0.00149256  0.66285239  1
  Al0+  Al57  1  0.50011709  0.49981588  0.00415869  1
  Al0+  Al58  1  0.49873582  0.49989666  0.33321301  1
  Al0+  Al59  1  0.49931792  0.50065777  0.66917558  1
  Al0+  Al60  1  0.24989839  0.24866596  0.00126068  1
  Al0+  Al61  1  0.25026692  0.24915911  0.33510257  1
  Al0+  Al62  1  0.24760670  0.24955442  0.66285839  1
  Al0+  Al63  1  0.24697092  0.74905132  0.00239588  1
  Al0+  Al64  1  0.24728148  0.74962895  0.32825506  1
  Al0+  Al65  1  0.24731164  0.74916053  0.67184422  1
  Al0+  Al66  1  0.75162905  0.24912768  0.00106916  1
  Al0+  Al67  1  0.75102864  0.24968275  0.33105558  1
  Al0+  Al68  1  0.75072027  0.25054076  0.67247245  1
  Al0+  Al69  1  0.75013320  0.75016050  -0.00252899  1
  Al0+  Al70  1  0.75017887  0.75107179  0.33772409  1
  Al0+  Al71  1  0.75035319  0.74845329  0.66009219  1
  Al0+  Al72  1  0.32355599  0.57289474  0.01857825  1
  Al0+  Al73  1  0.42987803  0.31992511  0.98577297  1
  Al0+  Al74  1  0.42857213  0.82059245  0.31999040  1
  Al0+  Al75  1  0.42790766  0.32178790  0.31645864  1
  Al0+  Al76  1  0.92816280  0.81998886  0.31871131  1
  Al0+  Al77  1  0.31965151  0.56873580  0.67923010  1
  Al0+  Al78  1  0.82222346  0.57231807  0.34976812  1
  Al0+  Al79  1  0.57388803  0.17922658  0.65248763  1
  Al0+  Al80  1  0.32109425  0.07049558  0.34846176  1
  Al0+  Al81  1  0.57037191  0.67848446  0.65161034  1
  Al0+  Al82  1  0.68012994  0.43105391  0.68189670  1
  Al0+  Al83  1  0.81943243  0.06887167  0.67944681  1
  Al0+  Al84  1  0.67931281  0.93060052  0.34834729  1
  Al0+  Al85  1  0.17974594  0.42933453  0.01458749  1
  Al0+  Al86  1  0.68208383  0.92974685  0.01166240  1
  Al0+  Al87  1  0.57363458  0.17885847  0.31611170  1
  Al0+  Al88  1  0.42759210  0.32033898  0.65267436  1
  Al0+  Al89  1  0.32077661  0.06785233  0.01209201  1
  Al0+  Al90  1  0.42599929  0.82160479  0.65322182  1
  Al0+  Al91  1  0.42849864  0.82151649  0.98760069  1
  Al0+  Al92  1  0.18089108  0.93056657  0.67927665  1
  Al0+  Al93  1  0.92919131  0.82078100  0.98446460  1
  Al0+  Al94  1  0.67729060  0.42821991  0.34919129  1
  Al0+  Al95  1  0.93035183  0.82234723  0.65218240  1
  Si0+  Si96  1  0.07149248  0.17940018  0.31715786  1
  Si0+  Si97  1  0.57245979  0.67755366  0.98589053  1
  Si0+  Si98  1  0.92806816  0.32191965  0.98489375  1
  Si0+  Si99  1  0.57108068  0.67830617  0.31731126  1
  Si0+  Si100  1  0.67873566  0.42661443  0.01585609  1
  Si0+  Si101  1  0.17475330  0.92748637  0.01779442  1
  Si0+  Si102  1  0.81988909  0.56951327  0.01318595  1
  Si0+  Si103  1  0.67638699  0.92469927  0.68324622  1
  Si0+  Si104  1  0.17655286  0.92792009  0.34739158  1
  Si0+  Si105  1  0.31943062  0.57308387  0.34860771  1
  Si0+  Si106  1  0.06977801  0.17922249  0.65083841  1
  Si0+  Si107  1  0.82446232  0.57362164  0.68556199  1
  Si0+  Si108  1  0.82456898  0.07359941  0.01807778  1
  Si0+  Si109  1  0.07208449  0.67521192  0.31442443  1
  Si0+  Si110  1  0.92887684  0.32231728  0.65224914  1
  Si0+  Si111  1  0.82567516  0.07177337  0.34730776  1
  Si0+  Si112  1  0.17955227  0.42824557  0.34926179  1
  Si0+  Si113  1  0.17434275  0.42563461  0.68198408  1
  Si0+  Si114  1  0.57410787  0.17769003  0.98264536  1
  Si0+  Si115  1  0.07091103  0.18054390  0.98331038  1
  Si0+  Si116  1  0.32344497  0.07369145  0.68269815  1
  Si0+  Si117  1  0.93106084  0.32234238  0.31922690  1
  Si0+  Si118  1  0.07055107  0.67614287  0.98195327  1
  Si0+  Si119  1  0.07077514  0.67688345  0.65041002  1
  O2-  O120  1  0.25047620  -0.01141363  0.06086137  1
  O2-  O121  1  0.24942582  -0.00877417  0.39241231  1
  O2-  O122  1  0.26092023  -0.00092826  0.72680879  1
  O2-  O123  1  0.25259077  0.49831512  0.06736611  1
  O2-  O124  1  0.25194230  0.49762658  0.39037335  1
  O2-  O125  1  0.24642257  0.49079518  0.72413544  1
  O2-  O126  1  0.75658756  0.00460316  0.06068661  1
  O2-  O127  1  0.75584328  0.00549763  0.39171768  1
  O2-  O128  1  0.74500165  -0.00546560  0.72668355  1
  O2-  O129  1  0.74930113  0.49880970  0.05645582  1
  O2-  O130  1  0.74788953  0.50245737  0.39872740  1
  O2-  O131  1  0.75289617  0.50803232  0.73005036  1
  O2-  O132  1  0.00114980  0.25141143  0.27497406  1
  O2-  O133  1  0.00173243  0.25353899  0.60913258  1
  O2-  O134  1  -0.00201812  0.25039758  0.94164229  1
  O2-  O135  1  0.00050584  0.74228775  0.27236649  1
  O2-  O136  1  0.00254768  0.74516875  0.60522303  1
  O2-  O137  1  0.00761198  0.75008987  0.93757553  1
  O2-  O138  1  0.50049828  0.25027045  0.26666932  1
  O2-  O139  1  0.49758518  0.24674000  0.60299419  1
  O2-  O140  1  0.50784883  0.24871326  0.93913661  1
  O2-  O141  1  0.50341407  0.74668578  0.27157483  1
  O2-  O142  1  0.50251151  0.75478968  0.60224589  1
  O2-  O143  1  0.49863643  0.74164548  0.94314959  1
  O2-  O144  1  0.06903497  0.18069707  0.08865220  1
  O2-  O145  1  0.07010234  0.17953549  0.42234931  1
  O2-  O146  1  0.06962947  0.17984963  0.75603728  1
  O2-  O147  1  0.06641183  0.67373857  0.08755738  1
  O2-  O148  1  0.07477451  0.67348656  0.41980748  1
  O2-  O149  1  0.06819556  0.67518570  0.75587345  1
  O2-  O150  1  0.57555031  0.17863638  0.08796145  1
  O2-  O151  1  0.57429020  0.18038742  0.42942877  1
  O2-  O152  1  0.57441514  0.18126374  0.76659532  1
  O2-  O153  1  0.57683819  0.67891872  0.09141561  1
  O2-  O154  1  0.56788515  0.67793012  0.42253084  1
  O2-  O155  1  0.56761978  0.67907626  0.76582513  1
  O2-  O156  1  0.17597930  0.42844225  0.24453462  1
  O2-  O157  1  0.16933752  0.42745835  0.57633482  1
  O2-  O158  1  0.17672525  0.43166666  0.90125172  1
  O2-  O159  1  0.17262678  0.93195893  0.24199628  1
  O2-  O160  1  0.17807050  0.93515892  0.56610091  1
  O2-  O161  1  0.17124502  0.93248260  0.91220003  1
  O2-  O162  1  0.68137977  0.42968587  0.23467102  1
  O2-  O163  1  0.68314315  0.42993675  0.56948913  1
  O2-  O164  1  0.68056119  0.42518198  0.91083397  1
  O2-  O165  1  0.68103952  0.92961933  0.23485254  1
  O2-  O166  1  0.67818924  0.92492780  0.57781664  1
  O2-  O167  1  0.68360653  0.93047160  0.89869677  1
  O2-  O168  1  0.43112710  0.31815701  0.09855681  1
  O2-  O169  1  0.42657439  0.32055204  0.42963265  1
  O2-  O170  1  0.42810151  0.31925382  0.76669316  1
  O2-  O171  1  0.43356335  0.82327366  0.10071502  1
  O2-  O172  1  0.42598502  0.81752683  0.43273598  1
  O2-  O173  1  0.42594719  0.81955222  0.76711383  1
  O2-  O174  1  0.92795591  0.32105797  0.09008368  1
  O2-  O175  1  0.93380643  0.32158082  0.42434650  1
  O2-  O176  1  0.93033394  0.32218610  0.75770087  1
  O2-  O177  1  0.92809015  0.81755891  0.09754270  1
  O2-  O178  1  0.93312511  0.82395204  0.43145177  1
  O2-  O179  1  0.93240702  0.82206407  0.76549276  1
  O2-  O180  1  0.31794898  0.07193353  0.23507202  1
  O2-  O181  1  0.31837960  0.07633975  0.57735567  1
  O2-  O182  1  0.31730824  0.06869395  0.89901135  1
  O2-  O183  1  0.31667501  0.57473163  0.24386153  1
  O2-  O184  1  0.31674708  0.56923070  0.56563264  1
  O2-  O185  1  0.32254135  0.57209297  0.90507466  1
  O2-  O186  1  0.82928479  0.07089023  0.24171700  1
  O2-  O187  1  0.82210868  0.06810490  0.56641082  1
  O2-  O188  1  0.82552979  0.07590797  0.91265505  1
  O2-  O189  1  0.82155602  0.56906978  0.23498461  1
  O2-  O190  1  0.83053961  0.56914156  0.58077318  1
  O2-  O191  1  0.82075223  0.56756318  0.90826398  1
  O2-  O192  1  0.04326567  0.08973736  0.26594952  1
  O2-  O193  1  0.03682565  0.09022336  0.60224316  1
  O2-  O194  1  0.04349010  0.08936648  0.93429353  1
  O2-  O195  1  0.04831235  0.58069477  0.26856066  1
  O2-  O196  1  0.04621933  0.58275170  0.60342418  1
  O2-  O197  1  0.03927708  0.58453239  0.93454395  1
  O2-  O198  1  0.54263338  0.08060777  0.26505764  1
  O2-  O199  1  0.55205188  0.07942267  0.60048344  1
  O2-  O200  1  0.54628455  0.08505995  0.93688975  1
  O2-  O201  1  0.54662037  0.58458567  0.27074820  1
  O2-  O202  1  0.53649943  0.58217115  0.59866734  1
  O2-  O203  1  0.55130323  0.58191522  0.94214402  1
  O2-  O204  1  0.16207765  0.20904901  0.26933132  1
  O2-  O205  1  0.16079729  0.20409418  0.60035748  1
  O2-  O206  1  0.16086286  0.20978106  0.93417943  1
  O2-  O207  1  0.16285552  0.70389839  0.26430889  1
  O2-  O208  1  0.16398148  0.70261690  0.60488466  1
  O2-  O209  1  0.16617293  0.69636594  0.93867606  1
  O2-  O210  1  0.67323036  0.20470615  0.26241337  1
  O2-  O211  1  0.67208265  0.21154863  0.60138428  1
  O2-  O212  1  0.66993386  0.20082686  0.93871861  1
  O2-  O213  1  0.66614296  0.70250963  0.27389682  1
  O2-  O214  1  0.67133627  0.69607258  0.59988185  1
  O2-  O215  1  0.66345322  0.70628410  0.93609748  1
  O2-  O216  1  0.08024937  0.45791909  0.06837887  1
  O2-  O217  1  0.08873504  0.45668388  0.39898067  1
  O2-  O218  1  0.08160377  0.45305936  0.72991011  1
  O2-  O219  1  0.08399019  0.96244277  0.06507409  1
  O2-  O220  1  0.08495545  0.96108771  0.39398776  1
  O2-  O221  1  0.08792081  0.96952018  0.73603700  1
  O2-  O222  1  0.58800970  0.45342130  0.06436199  1
  O2-  O223  1  0.57825338  0.45603154  0.40099004  1
  O2-  O224  1  0.58438286  0.46201666  0.73723666  1
  O2-  O225  1  0.58659819  0.96104467  0.06719035  1
  O2-  O226  1  0.58474106  0.96191756  0.40454165  1
  O2-  O227  1  0.58235718  0.95074927  0.72864740  1
  O2-  O228  1  0.20388340  0.32965605  0.06675343  1
  O2-  O229  1  0.20254138  0.33544952  0.39677732  1
  O2-  O230  1  0.19418475  0.32969550  0.72568591  1
  O2-  O231  1  0.18801145  0.83047876  0.05970282  1
  O2-  O232  1  0.19528998  0.83166343  0.39033832  1
  O2-  O233  1  0.20121395  0.83254968  0.73487210  1
  O2-  O234  1  0.70945921  0.33550903  0.06320053  1
  O2-  O235  1  0.71160282  0.33047004  0.39967527  1
  O2-  O236  1  0.71597441  0.33733305  0.73886543  1
  O2-  O237  1  0.71386347  0.83310163  0.06593013  1
  O2-  O238  1  0.70962853  0.83481229  0.40292330  1
  O2-  O239  1  0.70377336  0.83077775  0.72758455  1
  O2-  O240  1  0.45440267  0.42157966  0.26467331  1
  O2-  O241  1  0.45873657  0.41818326  0.60243334  1
  O2-  O242  1  0.45930980  0.41895224  0.93582829  1
  O2-  O243  1  0.46192780  0.91757921  0.26971612  1
  O2-  O244  1  0.44884375  0.92191913  0.60226677  1
  O2-  O245  1  0.46277708  0.91658928  0.93271462  1
  O2-  O246  1  0.96062901  0.41386398  0.27185774  1
  O2-  O247  1  0.95507734  0.41418180  0.60401607  1
  O2-  O248  1  0.95608503  0.41331511  0.93694231  1
  O2-  O249  1  0.96142847  0.91486782  0.26141187  1
  O2-  O250  1  0.96635086  0.91809037  0.59994969  1
  O2-  O251  1  0.95711010  0.91973139  0.93319312  1
  O2-  O252  1  0.32803115  0.29230513  0.26589442  1
  O2-  O253  1  0.32650770  0.29887794  0.60120306  1
  O2-  O254  1  0.33291202  0.28745842  0.93378203  1
  O2-  O255  1  0.33120708  0.79174019  0.26555613  1
  O2-  O256  1  0.32745761  0.78977238  0.60204646  1
  O2-  O257  1  0.32748152  0.79734296  0.93909832  1
  O2-  O258  1  0.84027340  0.29573886  0.26975841  1
  O2-  O259  1  0.83884774  0.29097158  0.60542731  1
  O2-  O260  1  0.83640500  0.29408971  0.93655639  1
  O2-  O261  1  0.83116834  0.78907759  0.26529232  1
  O2-  O262  1  0.83370373  0.79450535  0.59826080  1
  O2-  O263  1  0.83460032  0.78559209  0.92953578  1
  O2-  O264  1  0.41802375  0.04127830  0.06648216  1
  O2-  O265  1  0.41725225  0.04327153  0.40254043  1
  O2-  O266  1  0.41952660  0.05607010  0.72585597  1
  O2-  O267  1  0.42239544  0.54682627  0.07184799  1
  O2-  O268  1  0.41227309  0.54844586  0.39437599  1
  O2-  O269  1  0.41481987  0.53981488  0.73597518  1
  O2-  O270  1  0.91934095  0.05003762  0.06275534  1
  O2-  O271  1  0.91964981  0.04512949  0.39291144  1
  O2-  O272  1  0.91568725  0.03935920  0.73568501  1
  O2-  O273  1  0.91084963  0.54165691  0.06189452  1
  O2-  O274  1  0.92059678  0.54209507  0.40227590  1
  O2-  O275  1  0.91636188  0.54377927  0.73433259  1
  O2-  O276  1  0.28326286  0.16167515  0.06709399  1
  O2-  O277  1  0.28328260  0.16464616  0.40321677  1
  O2-  O278  1  0.28833634  0.16481171  0.72936445  1
  O2-  O279  1  0.28995386  0.67031846  0.07216079  1
  O2-  O280  1  0.28569285  0.66320328  0.39606393  1
  O2-  O281  1  0.28537901  0.66289773  0.73602404  1
  O2-  O282  1  0.80101293  0.16801616  0.06468596  1
  O2-  O283  1  0.80468125  0.16712990  0.39157732  1
  O2-  O284  1  0.79334380  0.16576954  0.73631564  1
  O2-  O285  1  0.79143761  0.66115975  0.06011643  1
  O2-  O286  1  0.79887177  0.67135749  0.40122498  1
  O2-  O287  1  0.80170195  0.66912154  0.72859036  1
