# generated using pymatgen
data_Ca2Al2SiO7
_symmetry_space_group_name_H-M   'P 1'
_cell_length_a   15.47074606
_cell_length_b   15.47048510
_cell_length_c   15.29217963
_cell_angle_alpha   89.98908883
_cell_angle_beta   89.99986400
_cell_angle_gamma   90.02213990
_symmetry_Int_Tables_number   1
_chemical_formula_structural   Ca2Al2SiO7
_chemical_formula_sum   'Ca48 Al48 Si24 O168'
_cell_volume   3660.02911329
_cell_formula_units_Z   24
loop_
 _symmetry_equiv_pos_site_id
 _symmetry_equiv_pos_as_xyz
  1  'x, y, z'
loop_
 _atom_type_symbol
 _atom_type_oxidation_number
  Ca2+  2.0
  Al0+  0.0
  Si0+  0.0
  O2-  -2.0
loop_
 _atom_site_type_symbol
 _atom_site_label
 _atom_site_symmetry_multiplicity
 _atom_site_fract_x
 _atom_site_fract_y
 _atom_site_fract_z
 _atom_site_occupancy
  Ca2+  Ca0  1  0.15991467  0.07735235  0.16861772  1
  Ca2+  Ca1  1  0.16069826  0.07404726  0.50420104  1
  Ca2+  Ca2  1  0.17200664  0.07538612  0.84283504  1
  Ca2+  Ca3  1  0.16304600  0.57969976  0.17009570  1
  Ca2+  Ca4  1  0.17642913  0.58925689  0.50060882  1
  Ca2+  Ca5  1  0.16989465  0.57612099  0.84150441  1
  Ca2+  Ca6  1  0.67509995  0.08533830  0.17223640  1
  Ca2+  Ca7  1  0.67914373  0.07388619  0.50479504  1
  Ca2+  Ca8  1  0.67602235  0.08888693  0.83901353  1
  Ca2+  Ca9  1  0.67560319  0.58286685  0.16700979  1
  Ca2+  Ca10  1  0.66982576  0.57549652  0.50688664  1
  Ca2+  Ca11  1  0.67156348  0.57520535  0.83674714  1
  Ca2+  Ca12  1  0.08347137  0.32081721  0.16103564  1
  Ca2+  Ca13  1  0.07372041  0.32203152  0.48949009  1
  Ca2+  Ca14  1  0.08845671  0.32716091  0.83565137  1
  Ca2+  Ca15  1  0.09104197  0.82572553  0.16453824  1
  Ca2+  Ca16  1  0.08199626  0.83491585  0.48893230  1
  Ca2+  Ca17  1  0.09292146  0.83100034  0.83213834  1
  Ca2+  Ca18  1  0.57375934  0.32565453  0.15711193  1
  Ca2+  Ca19  1  0.57957821  0.33543830  0.50101735  1
  Ca2+  Ca20  1  0.57447388  0.32855968  0.82988744  1
  Ca2+  Ca21  1  0.58413253  0.83595708  0.16352910  1
  Ca2+  Ca22  1  0.58591926  0.83926101  0.49588108  1
  Ca2+  Ca23  1  0.58554143  0.83295352  0.82687470  1
  Ca2+  Ca24  1  0.32518198  0.41474937  0.16648430  1
  Ca2+  Ca25  1  0.33663344  0.42792941  0.50645533  1
  Ca2+  Ca26  1  0.33566929  0.41808043  0.83847585  1
  Ca2+  Ca27  1  0.32291925  0.92232450  0.16688160  1
  Ca2+  Ca28  1  0.31885412  0.92416513  0.50594932  1
  Ca2+  Ca29  1  0.32543164  0.92800125  0.83703053  1
  Ca2+  Ca30  1  0.84207075  0.42074555  0.16915409  1
  Ca2+  Ca31  1  0.82835404  0.41192149  0.50543958  1
  Ca2+  Ca32  1  0.82688909  0.41862747  0.84052899  1
  Ca2+  Ca33  1  0.83280901  0.92761134  0.17448598  1
  Ca2+  Ca34  1  0.83477311  0.92498518  0.50232659  1
  Ca2+  Ca35  1  0.82856636  0.92678175  0.83493916  1
  Ca2+  Ca36  1  0.42319236  0.16680784  0.15137837  1
  Ca2+  Ca37  1  0.41142863  0.17065069  0.49976913  1
  Ca2+  Ca38  1  0.40913937  0.17409536  0.82949741  1
  Ca2+  Ca39  1  0.41322666  0.66717271  0.16556636  1
  Ca2+  Ca40  1  0.41415780  0.66555218  0.49433208  1
  Ca2+  Ca41  1  0.41474476  0.66835784  0.82641784  1
  Ca2+  Ca42  1  0.92321200  0.16158689  0.16517804  1
  Ca2+  Ca43  1  0.91582018  0.16628473  0.49098395  1
  Ca2+  Ca44  1  0.92139349  0.15333578  0.83443026  1
  Ca2+  Ca45  1  0.92437693  0.67444418  0.15970052  1
  Ca2+  Ca46  1  0.92650759  0.67793594  0.48717482  1
  Ca2+  Ca47  1  0.92210385  0.66418299  0.83356876  1
  Al0+  Al48  1  -0.00330809  -0.00240817  0.00315007  1
  Al0+  Al49  1  -0.00140419  0.00023165  0.33407061  1
  Al0+  Al50  1  -0.00095674  -0.00331870  0.67341380  1
  Al0+  Al51  1  0.00146134  0.50165054  0.00304145  1
  Al0+  Al52  1  0.00099343  0.50011328  0.33096456  1
  Al0+  Al53  1  0.00209076  0.50041615  0.66236079  1
  Al0+  Al54  1  0.50046899  -0.00162246  -0.00329545  1
  Al0+  Al55  1  0.49929255  0.00026979  0.33585135  1
  Al0+  Al56  1  0.49981993  -0.00068967  0.66927436  1
  Al0+  Al57  1  0.50158965  0.50103053  -0.00267770  1
  Al0+  Al58  1  0.50020302  0.50155117  0.33496303  1
  Al0+  Al59  1  0.50172847  0.49987078  0.67041435  1
  Al0+  Al60  1  0.24930842  0.25178706  -0.00072940  1
  Al0+  Al61  1  0.24918857  0.25260867  0.33030535  1
  Al0+  Al62  1  0.24857848  0.25173664  0.65978248  1
  Al0+  Al63  1  0.25099906  0.74977238  -0.00289757  1
  Al0+  Al64  1  0.25275091  0.75131479  0.33657476  1
  Al0+  Al65  1  0.25283483  0.74821456  0.67203674  1
  Al0+  Al66  1  0.74804609  0.25094837  0.00210096  1
  Al0+  Al67  1  0.74684807  0.25145612  0.33355054  1
  Al0+  Al68  1  0.74910751  0.25075192  0.67485623  1
  Al0+  Al69  1  0.75101130  0.74848640  0.00162385  1
  Al0+  Al70  1  0.74843690  0.74754361  0.33175192  1
  Al0+  Al71  1  0.75248356  0.74997785  0.66694077  1
  Al0+  Al72  1  0.67665365  0.92687422  0.34701678  1
  Al0+  Al73  1  0.57214775  0.17699517  0.98405190  1
  Al0+  Al74  1  0.82025414  0.07149543  0.68336042  1
  Al0+  Al75  1  0.92623202  0.82137887  0.31754787  1
  Al0+  Al76  1  0.31993100  0.07496792  0.67951512  1
  Al0+  Al77  1  0.32119512  0.56894375  0.68114610  1
  Al0+  Al78  1  0.42792448  0.32126991  0.98478651  1
  Al0+  Al79  1  0.32137810  0.07210505  0.01409862  1
  Al0+  Al80  1  0.82153256  0.57022322  0.01398973  1
  Al0+  Al81  1  0.06842725  0.17706425  0.98517521  1
  Al0+  Al82  1  0.17858544  0.92847713  0.68201566  1
  Al0+  Al83  1  0.17892313  0.92782129  0.01663180  1
  Al0+  Al84  1  0.18019071  0.93129324  0.34541656  1
  Al0+  Al85  1  0.31988751  0.56864969  0.34567121  1
  Al0+  Al86  1  0.67984127  0.42939656  0.68149892  1
  Al0+  Al87  1  0.07465301  0.68159882  0.31839366  1
  Al0+  Al88  1  0.67894075  0.92665336  0.68159268  1
  Al0+  Al89  1  0.07136520  0.67955960  0.98422502  1
  Al0+  Al90  1  0.07104480  0.17822551  0.31855587  1
  Al0+  Al91  1  0.17957033  0.42926014  0.01352499  1
  Al0+  Al92  1  0.81993044  0.07181687  0.34799868  1
  Al0+  Al93  1  0.81899807  0.07187999  0.01649706  1
  Al0+  Al94  1  0.92472837  0.32107700  0.31921824  1
  Al0+  Al95  1  0.42926441  0.32119573  0.65031579  1
  Si0+  Si96  1  0.82288481  0.57085321  0.34865339  1
  Si0+  Si97  1  0.42945780  0.81970550  0.98306311  1
  Si0+  Si98  1  0.57206708  0.68028000  0.65112531  1
  Si0+  Si99  1  0.32326134  0.07519312  0.34820801  1
  Si0+  Si100  1  0.07386718  0.67798567  0.65092016  1
  Si0+  Si101  1  0.17629954  0.42894494  0.68123771  1
  Si0+  Si102  1  0.43002506  0.32431573  0.31933189  1
  Si0+  Si103  1  0.92776483  0.32265651  0.65473175  1
  Si0+  Si104  1  0.92893422  0.32308052  0.98363051  1
  Si0+  Si105  1  0.32410282  0.57215844  0.01593581  1
  Si0+  Si106  1  0.06811533  0.17747177  0.65343374  1
  Si0+  Si107  1  0.82429108  0.57136708  0.68092031  1
  Si0+  Si108  1  0.67741668  0.42962624  0.01904173  1
  Si0+  Si109  1  0.57040400  0.67625057  0.31784551  1
  Si0+  Si110  1  0.57405802  0.17749948  0.64854015  1
  Si0+  Si111  1  0.42869454  0.82081011  0.64999676  1
  Si0+  Si112  1  0.92589646  0.82022936  0.98047782  1
  Si0+  Si113  1  0.67837419  0.43140804  0.34792950  1
  Si0+  Si114  1  0.57304620  0.67962807  0.98371855  1
  Si0+  Si115  1  0.67775472  0.92609048  0.01575063  1
  Si0+  Si116  1  0.93067902  0.81919598  0.65184888  1
  Si0+  Si117  1  0.56720679  0.17924866  0.32069814  1
  Si0+  Si118  1  0.17640055  0.42632181  0.35214693  1
  Si0+  Si119  1  0.43088904  0.82126941  0.31906118  1
  O2-  O120  1  0.24675020  0.00427483  0.06605133  1
  O2-  O121  1  0.24937264  0.01173397  0.39119170  1
  O2-  O122  1  0.24789460  0.00373469  0.72975488  1
  O2-  O123  1  0.25623303  0.50319403  0.05927422  1
  O2-  O124  1  0.24477885  0.49612675  0.39517168  1
  O2-  O125  1  0.24743462  0.49405504  0.72679599  1
  O2-  O126  1  0.74164648  -0.00180325  0.06014814  1
  O2-  O127  1  0.75214700  -0.00522031  0.39664530  1
  O2-  O128  1  0.74395385  0.00334230  0.73268187  1
  O2-  O129  1  0.74935599  0.49438955  0.06358302  1
  O2-  O130  1  0.75465967  0.49686795  0.39082156  1
  O2-  O131  1  0.75851360  0.50090744  0.72611409  1
  O2-  O132  1  -0.00250994  0.24999455  0.26979029  1
  O2-  O133  1  -0.00468977  0.24827108  0.61300399  1
  O2-  O134  1  -0.00763305  0.25089103  0.93707293  1
  O2-  O135  1  0.00096975  0.75159165  0.26791383  1
  O2-  O136  1  0.00420816  0.75037139  0.60989763  1
  O2-  O137  1  -0.00123487  0.75551952  0.93579197  1
  O2-  O138  1  0.49276737  0.24639570  0.27786318  1
  O2-  O139  1  0.50193736  0.24340317  0.60347727  1
  O2-  O140  1  0.49630785  0.24561366  0.93486857  1
  O2-  O141  1  0.50475663  0.75257610  0.27660046  1
  O2-  O142  1  0.50313805  0.75250864  0.60733710  1
  O2-  O143  1  0.50195076  0.74950254  0.94093826  1
  O2-  O144  1  0.06759666  0.17796145  0.09772949  1
  O2-  O145  1  0.07151858  0.18043560  0.43304104  1
  O2-  O146  1  0.06877920  0.17871131  0.75835957  1
  O2-  O147  1  0.07129864  0.67986715  0.09689585  1
  O2-  O148  1  0.07401395  0.68351204  0.43285155  1
  O2-  O149  1  0.07145362  0.67436784  0.75574766  1
  O2-  O150  1  0.57128683  0.18024586  0.09864188  1
  O2-  O151  1  0.56707709  0.18107287  0.42571753  1
  O2-  O152  1  0.57584547  0.18123633  0.75355723  1
  O2-  O153  1  0.57319069  0.67938247  0.08901826  1
  O2-  O154  1  0.56854117  0.67078925  0.42279381  1
  O2-  O155  1  0.57203502  0.68098484  0.75636159  1
  O2-  O156  1  0.17871259  0.42466593  0.24682696  1
  O2-  O157  1  0.17439420  0.43263139  0.57577153  1
  O2-  O158  1  0.17887376  0.43207047  0.90004921  1
  O2-  O159  1  0.18556015  0.92750494  0.23313710  1
  O2-  O160  1  0.17786038  0.92842571  0.56805964  1
  O2-  O161  1  0.18375867  0.92665737  0.90320436  1
  O2-  O162  1  0.67359982  0.43543659  0.24342746  1
  O2-  O163  1  0.68071686  0.43170971  0.56763545  1
  O2-  O164  1  0.67701130  0.43325140  0.91348288  1
  O2-  O165  1  0.67217340  0.93117059  0.23373497  1
  O2-  O166  1  0.68428210  0.92436573  0.56840000  1
  O2-  O167  1  0.68091615  0.92176091  0.91041131  1
  O2-  O168  1  0.43226342  0.32487842  0.09908421  1
  O2-  O169  1  0.43368225  0.32714149  0.42447426  1
  O2-  O170  1  0.43075672  0.32367023  0.76251986  1
  O2-  O171  1  0.42996325  0.81769387  0.08851807  1
  O2-  O172  1  0.43095219  0.81912509  0.42413989  1
  O2-  O173  1  0.42800444  0.81639754  0.75503438  1
  O2-  O174  1  0.93198406  0.32395707  0.08894737  1
  O2-  O175  1  0.92463342  0.31997090  0.43388433  1
  O2-  O176  1  0.93042540  0.32943136  0.75907844  1
  O2-  O177  1  0.92146612  0.81611615  0.08549070  1
  O2-  O178  1  0.92676692  0.81801185  0.43206052  1
  O2-  O179  1  0.92800805  0.81621054  0.75658664  1
  O2-  O180  1  0.32928054  0.07193753  0.24326682  1
  O2-  O181  1  0.31638497  0.07317578  0.56528917  1
  O2-  O182  1  0.32012700  0.06945592  0.90070775  1
  O2-  O183  1  0.32394598  0.56587243  0.23306029  1
  O2-  O184  1  0.32080387  0.57072205  0.56788271  1
  O2-  O185  1  0.32436909  0.57195630  0.91025545  1
  O2-  O186  1  0.81525322  0.07413065  0.23482127  1
  O2-  O187  1  0.82207911  0.07128460  0.56998264  1
  O2-  O188  1  0.81847752  0.06906362  0.90347153  1
  O2-  O189  1  0.81942111  0.57147042  0.24381565  1
  O2-  O190  1  0.82244589  0.57078946  0.57513195  1
  O2-  O191  1  0.81806866  0.56865238  0.90040543  1
  O2-  O192  1  0.04422417  0.07986273  0.26676123  1
  O2-  O193  1  0.03972253  0.08447862  0.60844429  1
  O2-  O194  1  0.03698247  0.07950041  0.93263648  1
  O2-  O195  1  0.04925792  0.58102003  0.26967154  1
  O2-  O196  1  0.04566741  0.58730078  0.60053454  1
  O2-  O197  1  0.03719957  0.58358492  0.93035555  1
  O2-  O198  1  0.54264997  0.08679087  0.27310686  1
  O2-  O199  1  0.55249031  0.08153219  0.60514260  1
  O2-  O200  1  0.55215352  0.07593881  0.93333282  1
  O2-  O201  1  0.53629798  0.58797468  0.26703302  1
  O2-  O202  1  0.54270245  0.58868769  0.60435259  1
  O2-  O203  1  0.54630787  0.58809003  0.93528271  1
  O2-  O204  1  0.16982689  0.20753681  0.26512364  1
  O2-  O205  1  0.15798955  0.20577904  0.60273479  1
  O2-  O206  1  0.16439990  0.21114064  0.93223609  1
  O2-  O207  1  0.17334652  0.71065677  0.26644573  1
  O2-  O208  1  0.16731048  0.70474484  0.60654575  1
  O2-  O209  1  0.16914581  0.70762866  0.93001366  1
  O2-  O210  1  0.65694066  0.21136821  0.27246520  1
  O2-  O211  1  0.66687031  0.20923012  0.60309769  1
  O2-  O212  1  0.66902942  0.21174855  0.93117559  1
  O2-  O213  1  0.66293900  0.69805120  0.26952953  1
  O2-  O214  1  0.66517230  0.70499584  0.60355560  1
  O2-  O215  1  0.66439256  0.70729419  0.93530452  1
  O2-  O216  1  0.08530537  0.46246149  0.06923101  1
  O2-  O217  1  0.08205342  0.45060823  0.39738702  1
  O2-  O218  1  0.08408096  0.45758229  0.72876915  1
  O2-  O219  1  0.07806223  0.94919545  0.06558264  1
  O2-  O220  1  0.08237638  0.95642944  0.39933455  1
  O2-  O221  1  0.08043049  0.95144699  0.73615623  1
  O2-  O222  1  0.58569997  0.46165308  0.06557260  1
  O2-  O223  1  0.59013561  0.46632393  0.39854001  1
  O2-  O224  1  0.58718876  0.46606034  0.73741027  1
  O2-  O225  1  0.58170543  0.94499157  0.05856189  1
  O2-  O226  1  0.57961239  0.95838360  0.40248769  1
  O2-  O227  1  0.57704232  0.94436717  0.73021063  1
  O2-  O228  1  0.20982925  0.33409657  0.06974146  1
  O2-  O229  1  0.20342900  0.33331995  0.39919523  1
  O2-  O230  1  0.19848573  0.33367573  0.72347155  1
  O2-  O231  1  0.21493157  0.83032530  0.06741823  1
  O2-  O232  1  0.21743947  0.83773161  0.40188295  1
  O2-  O233  1  0.21105490  0.83135360  0.73420747  1
  O2-  O234  1  0.69822762  0.33535800  0.06424235  1
  O2-  O235  1  0.70032467  0.33876701  0.39598452  1
  O2-  O236  1  0.70689240  0.33454225  0.73855577  1
  O2-  O237  1  0.70522786  0.83334012  0.06300480  1
  O2-  O238  1  0.69622445  0.82420708  0.39542591  1
  O2-  O239  1  0.71124317  0.82907259  0.73519516  1
  O2-  O240  1  0.46645175  0.41247614  0.27086813  1
  O2-  O241  1  0.46643132  0.41786090  0.59793391  1
  O2-  O242  1  0.46094725  0.41961001  0.93219262  1
  O2-  O243  1  0.45653225  0.91346398  0.27119850  1
  O2-  O244  1  0.45160150  0.91400337  0.60283883  1
  O2-  O245  1  0.45593739  0.91064409  0.93407814  1
  O2-  O246  1  0.95151773  0.42082829  0.26874152  1
  O2-  O247  1  0.95687747  0.41287488  0.60282823  1
  O2-  O248  1  0.95773291  0.41557476  0.93710126  1
  O2-  O249  1  0.94928912  0.92149651  0.26859291  1
  O2-  O250  1  0.95744824  0.91184267  0.60550390  1
  O2-  O251  1  0.94724660  0.91522062  0.93689351  1
  O2-  O252  1  0.33518243  0.30614778  0.27513354  1
  O2-  O253  1  0.33147059  0.29597769  0.59375294  1
  O2-  O254  1  0.32851794  0.29944663  0.93185162  1
  O2-  O255  1  0.34204766  0.78846378  0.26999150  1
  O2-  O256  1  0.33829028  0.78729795  0.60250797  1
  O2-  O257  1  0.34006034  0.78892314  0.93333125  1
  O2-  O258  1  0.82451180  0.29865442  0.26662792  1
  O2-  O259  1  0.83376884  0.29823162  0.60987127  1
  O2-  O260  1  0.83198578  0.30341251  0.94233507  1
  O2-  O261  1  0.82830450  0.78972280  0.26466508  1
  O2-  O262  1  0.84020422  0.78883302  0.60258542  1
  O2-  O263  1  0.83433860  0.78780515  0.93279281  1
  O2-  O264  1  0.41998090  0.03894373  0.06534627  1
  O2-  O265  1  0.41363139  0.04451891  0.39806943  1
  O2-  O266  1  0.41912596  0.04819439  0.73007820  1
  O2-  O267  1  0.41920810  0.54969364  0.06072759  1
  O2-  O268  1  0.41628853  0.53693252  0.40165559  1
  O2-  O269  1  0.41811529  0.54151842  0.73492675  1
  O2-  O270  1  0.91399507  0.03820951  0.07041034  1
  O2-  O271  1  0.91893540  0.04745658  0.40102521  1
  O2-  O272  1  0.91545529  0.03607004  0.73778027  1
  O2-  O273  1  0.91726092  0.54198835  0.06900147  1
  O2-  O274  1  0.91584979  0.54781927  0.39586934  1
  O2-  O275  1  0.91912086  0.54784624  0.72495484  1
  O2-  O276  1  0.30047949  0.17288673  0.06352787  1
  O2-  O277  1  0.30336096  0.17172693  0.39080950  1
  O2-  O278  1  0.29305123  0.17497757  0.72880289  1
  O2-  O279  1  0.29826956  0.66565823  0.06075267  1
  O2-  O280  1  0.29267203  0.66560767  0.40111487  1
  O2-  O281  1  0.29189230  0.66427055  0.73709166  1
  O2-  O282  1  0.79056454  0.16989064  0.06868780  1
  O2-  O283  1  0.78606843  0.16947071  0.40109148  1
  O2-  O284  1  0.79788621  0.17061539  0.73682224  1
  O2-  O285  1  0.78607690  0.66471205  0.06920089  1
  O2-  O286  1  0.79044646  0.66048135  0.39732586  1
  O2-  O287  1  0.79599647  0.66303689  0.72799572  1
