# generated using pymatgen
data_Ca2Al2SiO7
_symmetry_space_group_name_H-M   'P 1'
_cell_length_a   15.45972656
_cell_length_b   15.45922834
_cell_length_c   15.28434493
_cell_angle_alpha   90.00977019
_cell_angle_beta   89.99206176
_cell_angle_gamma   89.97832906
_symmetry_Int_Tables_number   1
_chemical_formula_structural   Ca2Al2SiO7
_chemical_formula_sum   'Ca48 Al48 Si24 O168'
_cell_volume   3652.88843787
_cell_formula_units_Z   24
loop_
 _symmetry_equiv_pos_site_id
 _symmetry_equiv_pos_as_xyz
  1  'x, y, z'
loop_
 _atom_type_symbol
 _atom_type_oxidation_number
  Ca2+  2.0
  Al0+  0.0
  Si0+  0.0
  O2-  -2.0
loop_
 _atom_site_type_symbol
 _atom_site_label
 _atom_site_symmetry_multiplicity
 _atom_site_fract_x
 _atom_site_fract_y
 _atom_site_fract_z
 _atom_site_occupancy
  Ca2+  Ca0  1  0.17550982  0.08644039  0.17148635  1
  Ca2+  Ca1  1  0.16742156  0.08139097  0.49977690  1
  Ca2+  Ca2  1  0.16864505  0.08893132  0.83894910  1
  Ca2+  Ca3  1  0.15599695  0.57410875  0.17092646  1
  Ca2+  Ca4  1  0.16565481  0.57716881  0.50234649  1
  Ca2+  Ca5  1  0.17097236  0.57759272  0.83902611  1
  Ca2+  Ca6  1  0.66911253  0.07369842  0.17210535  1
  Ca2+  Ca7  1  0.67229065  0.08290389  0.50555745  1
  Ca2+  Ca8  1  0.67070903  0.08422208  0.83465326  1
  Ca2+  Ca9  1  0.67084167  0.58000024  0.17133947  1
  Ca2+  Ca10  1  0.66797390  0.58014135  0.50383761  1
  Ca2+  Ca11  1  0.66994291  0.58005001  0.83739769  1
  Ca2+  Ca12  1  0.08049864  0.33382726  0.15821557  1
  Ca2+  Ca13  1  0.07844537  0.33014026  0.49512682  1
  Ca2+  Ca14  1  0.08027746  0.32308578  0.83305882  1
  Ca2+  Ca15  1  0.09382764  0.82319741  0.16744022  1
  Ca2+  Ca16  1  0.07447695  0.83174436  0.48921282  1
  Ca2+  Ca17  1  0.08220566  0.82730561  0.82638307  1
  Ca2+  Ca18  1  0.56732526  0.33117998  0.16273354  1
  Ca2+  Ca19  1  0.57283418  0.32723718  0.49799463  1
  Ca2+  Ca20  1  0.57167929  0.32677824  0.82408300  1
  Ca2+  Ca21  1  0.58093840  0.84394900  0.16779158  1
  Ca2+  Ca22  1  0.57230880  0.83932447  0.49478217  1
  Ca2+  Ca23  1  0.57868326  0.83698683  0.83033964  1
  Ca2+  Ca24  1  0.32022189  0.40969214  0.17251474  1
  Ca2+  Ca25  1  0.33178698  0.41784923  0.50428083  1
  Ca2+  Ca26  1  0.33139680  0.41579794  0.83915388  1
  Ca2+  Ca27  1  0.32992866  0.93034283  0.17831526  1
  Ca2+  Ca28  1  0.33076222  0.91534238  0.50071609  1
  Ca2+  Ca29  1  0.33471447  0.92459464  0.83884498  1
  Ca2+  Ca30  1  0.84111387  0.41523273  0.17299268  1
  Ca2+  Ca31  1  0.83709771  0.41170228  0.50488945  1
  Ca2+  Ca32  1  0.83832522  0.41068508  0.83650463  1
  Ca2+  Ca33  1  0.82356351  0.91058676  0.17419915  1
  Ca2+  Ca34  1  0.83216386  0.91647229  0.50776826  1
  Ca2+  Ca35  1  0.83194117  0.92281368  0.83559279  1
  Ca2+  Ca36  1  0.40401347  0.17312559  0.16372210  1
  Ca2+  Ca37  1  0.41709276  0.17176329  0.49570595  1
  Ca2+  Ca38  1  0.41627191  0.17550840  0.82912837  1
  Ca2+  Ca39  1  0.41291384  0.67667342  0.16792306  1
  Ca2+  Ca40  1  0.40919593  0.67646979  0.49853851  1
  Ca2+  Ca41  1  0.41556337  0.67175914  0.82373047  1
  Ca2+  Ca42  1  0.92540218  0.17689154  0.15986573  1
  Ca2+  Ca43  1  0.91882791  0.17121238  0.50007621  1
  Ca2+  Ca44  1  0.92630551  0.16986202  0.82289084  1
  Ca2+  Ca45  1  0.92954430  0.67182482  0.16782763  1
  Ca2+  Ca46  1  0.92107961  0.67819091  0.49155606  1
  Ca2+  Ca47  1  0.92425860  0.67251719  0.83127963  1
  Al0+  Al48  1  -0.00064031  -0.00096250  -0.00036212  1
  Al0+  Al49  1  -0.00119990  0.00191254  0.33035037  1
  Al0+  Al50  1  -0.00080323  -0.00123411  0.66483507  1
  Al0+  Al51  1  0.00022974  0.50322667  -0.00536954  1
  Al0+  Al52  1  -0.00026120  0.50133128  0.33387666  1
  Al0+  Al53  1  0.00051744  0.49889869  0.66783597  1
  Al0+  Al54  1  0.50034212  0.00150065  0.00788283  1
  Al0+  Al55  1  0.50285343  0.00053361  0.33796948  1
  Al0+  Al56  1  0.49918514  -0.00085828  0.66079526  1
  Al0+  Al57  1  0.50076542  0.50290058  -0.00172873  1
  Al0+  Al58  1  0.50058184  0.49837487  0.32957260  1
  Al0+  Al59  1  0.50044811  0.50077580  0.66870331  1
  Al0+  Al60  1  0.24851957  0.25217567  -0.00103554  1
  Al0+  Al61  1  0.24972192  0.25124335  0.34077770  1
  Al0+  Al62  1  0.24854326  0.24900147  0.66032067  1
  Al0+  Al63  1  0.25152807  0.75005640  -0.00576025  1
  Al0+  Al64  1  0.25189360  0.75022407  0.32743932  1
  Al0+  Al65  1  0.25072522  0.74794236  0.66849045  1
  Al0+  Al66  1  0.74748505  0.25041359  0.00079461  1
  Al0+  Al67  1  0.74857145  0.24992516  0.32885661  1
  Al0+  Al68  1  0.74958232  0.24832977  0.66587973  1
  Al0+  Al69  1  0.74900378  0.74863813  0.00400739  1
  Al0+  Al70  1  0.74985486  0.74854084  0.33570144  1
  Al0+  Al71  1  0.74922624  0.74819344  0.66681958  1
  Al0+  Al72  1  0.42804423  0.32299744  0.65117203  1
  Al0+  Al73  1  0.92706274  0.82429632  0.31782966  1
  Al0+  Al74  1  0.18080988  0.43312464  0.01212313  1
  Al0+  Al75  1  0.42797298  0.32027473  0.31876310  1
  Al0+  Al76  1  0.07204042  0.68097070  0.98362292  1
  Al0+  Al77  1  0.92965047  0.32114546  0.65165752  1
  Al0+  Al78  1  0.17737576  0.43087100  0.34823183  1
  Al0+  Al79  1  0.68125671  0.92984087  0.01373173  1
  Al0+  Al80  1  0.07206076  0.17625459  0.64889566  1
  Al0+  Al81  1  0.42841585  0.32158865  0.98678160  1
  Al0+  Al82  1  0.17841382  0.92718258  0.34745999  1
  Al0+  Al83  1  0.42878889  0.82006904  0.65433243  1
  Al0+  Al84  1  0.92932592  0.32019327  0.31986843  1
  Al0+  Al85  1  0.07087340  0.17741231  0.98614911  1
  Al0+  Al86  1  0.32039765  0.56998068  0.68038669  1
  Al0+  Al87  1  0.68172956  0.92804472  0.35067650  1
  Al0+  Al88  1  0.32094652  0.07188362  0.35180816  1
  Al0+  Al89  1  0.57096502  0.17796414  0.65186318  1
  Al0+  Al90  1  0.43087796  0.82217958  0.31866954  1
  Al0+  Al91  1  0.31823523  0.07098075  0.01145529  1
  Al0+  Al92  1  0.07202127  0.68034932  0.31952589  1
  Al0+  Al93  1  0.82112351  0.07019714  0.68052857  1
  Al0+  Al94  1  0.92716434  0.32170487  0.98513035  1
  Al0+  Al95  1  0.92880440  0.81923188  0.65520909  1
  Si0+  Si96  1  0.57263798  0.67658964  0.31647312  1
  Si0+  Si97  1  0.32510868  0.57512565  0.01796396  1
  Si0+  Si98  1  0.92448224  0.82021643  0.98419153  1
  Si0+  Si99  1  0.67981634  0.42899989  0.68209229  1
  Si0+  Si100  1  0.81978842  0.56961226  0.01587074  1
  Si0+  Si101  1  0.17927432  0.92842166  0.68131042  1
  Si0+  Si102  1  0.32485785  0.57128566  0.34810945  1
  Si0+  Si103  1  0.57283001  0.67716076  0.65092609  1
  Si0+  Si104  1  0.17726556  0.42604217  0.68528281  1
  Si0+  Si105  1  0.82027162  0.56896757  0.34951941  1
  Si0+  Si106  1  0.32178764  0.07062232  0.68143659  1
  Si0+  Si107  1  0.82166908  0.57185093  0.68282532  1
  Si0+  Si108  1  0.67779232  0.42815539  0.34813532  1
  Si0+  Si109  1  0.57188583  0.17831673  0.31455452  1
  Si0+  Si110  1  0.67664510  0.92686241  0.68346810  1
  Si0+  Si111  1  0.43163445  0.82252801  0.98608413  1
  Si0+  Si112  1  0.17669199  0.92467097  0.01406947  1
  Si0+  Si113  1  0.67642959  0.42854376  0.01544356  1
  Si0+  Si114  1  0.82381729  0.07385889  0.01754615  1
  Si0+  Si115  1  0.07307536  0.17867339  0.31610767  1
  Si0+  Si116  1  0.07247420  0.67793180  0.65047407  1
  Si0+  Si117  1  0.57089017  0.17665406  0.98465517  1
  Si0+  Si118  1  0.57264516  0.67950765  0.98488228  1
  Si0+  Si119  1  0.82138769  0.07476215  0.34920250  1
  O2-  O120  1  0.24138254  -0.00250419  0.05673937  1
  O2-  O121  1  0.24999150  -0.00221307  0.40081810  1
  O2-  O122  1  0.24914358  0.00088254  0.72392836  1
  O2-  O123  1  0.25648134  0.50659283  0.06126753  1
  O2-  O124  1  0.25442780  0.50471616  0.39251825  1
  O2-  O125  1  0.24903057  0.49289811  0.72812400  1
  O2-  O126  1  0.75789577  0.00207618  0.06137582  1
  O2-  O127  1  0.75959612  0.00016175  0.39469115  1
  O2-  O128  1  0.74559072  -0.00487209  0.72735859  1
  O2-  O129  1  0.75303888  0.49384700  0.05797106  1
  O2-  O130  1  0.75003997  0.49705065  0.39180304  1
  O2-  O131  1  0.75328155  0.49796581  0.72502559  1
  O2-  O132  1  0.00447856  0.24771422  0.27230776  1
  O2-  O133  1  0.00186445  0.25099519  0.60055785  1
  O2-  O134  1  -0.00622870  0.24453020  0.93635138  1
  O2-  O135  1  0.00490239  0.75767822  0.26916808  1
  O2-  O136  1  0.00225673  0.74475707  0.60706392  1
  O2-  O137  1  0.00038240  0.75994937  0.93907570  1
  O2-  O138  1  0.49866323  0.24233259  0.27069359  1
  O2-  O139  1  0.49742138  0.24826412  0.60187677  1
  O2-  O140  1  0.50443967  0.24774945  0.94093010  1
  O2-  O141  1  0.50617858  0.74718953  0.27187110  1
  O2-  O142  1  0.50424224  0.74575938  0.60798256  1
  O2-  O143  1  0.50066333  0.74954338  0.94336175  1
  O2-  O144  1  0.07195311  0.18036721  0.09965489  1
  O2-  O145  1  0.07124442  0.17880546  0.42154576  1
  O2-  O146  1  0.07220702  0.17652098  0.76263518  1
  O2-  O147  1  0.06998569  0.67968345  0.09622863  1
  O2-  O148  1  0.06709361  0.67793114  0.43321022  1
  O2-  O149  1  0.07160845  0.68014755  0.75651971  1
  O2-  O150  1  0.57155534  0.17739759  0.09013225  1
  O2-  O151  1  0.57560132  0.18279102  0.41988326  1
  O2-  O152  1  0.56949016  0.17943632  0.76617723  1
  O2-  O153  1  0.57466418  0.67727050  0.08952822  1
  O2-  O154  1  0.57239037  0.67371369  0.42194454  1
  O2-  O155  1  0.57466704  0.67740793  0.75701783  1
  O2-  O156  1  0.17620520  0.43145963  0.23481736  1
  O2-  O157  1  0.17437433  0.42967168  0.57980382  1
  O2-  O158  1  0.18319755  0.43437334  0.89913484  1
  O2-  O159  1  0.18272817  0.92800283  0.23354052  1
  O2-  O160  1  0.18057850  0.92601228  0.57678975  1
  O2-  O161  1  0.18048686  0.92137724  0.90804435  1
  O2-  O162  1  0.67734532  0.43130689  0.24279526  1
  O2-  O163  1  0.67874580  0.43273579  0.57690246  1
  O2-  O164  1  0.67378076  0.43271865  0.91032415  1
  O2-  O165  1  0.68184445  0.92971327  0.23704022  1
  O2-  O166  1  0.67827100  0.92490948  0.57836259  1
  O2-  O167  1  0.68066911  0.92927769  0.90047914  1
  O2-  O168  1  0.42905948  0.32089113  0.09981104  1
  O2-  O169  1  0.43304676  0.32363555  0.43130526  1
  O2-  O170  1  0.43047704  0.32250890  0.76524979  1
  O2-  O171  1  0.43273978  0.82161247  0.09080312  1
  O2-  O172  1  0.43076458  0.81859952  0.43173126  1
  O2-  O173  1  0.43126063  0.82059314  0.76821669  1
  O2-  O174  1  0.92962525  0.32235277  0.09884647  1
  O2-  O175  1  0.92796525  0.31892100  0.43247900  1
  O2-  O176  1  0.93054790  0.32067253  0.76502709  1
  O2-  O177  1  0.91976937  0.81464108  0.08904092  1
  O2-  O178  1  0.92500121  0.81883389  0.43154618  1
  O2-  O179  1  0.93003481  0.81703912  0.76882363  1
  O2-  O180  1  0.31835872  0.07279594  0.23766946  1
  O2-  O181  1  0.32327467  0.06820751  0.57705104  1
  O2-  O182  1  0.32142597  0.06796009  0.89784240  1
  O2-  O183  1  0.32805421  0.56908482  0.24247267  1
  O2-  O184  1  0.31750677  0.57252064  0.56744384  1
  O2-  O185  1  0.32594878  0.57590951  0.91214375  1
  O2-  O186  1  0.81593670  0.07820332  0.24357358  1
  O2-  O187  1  0.81972623  0.06878096  0.56757626  1
  O2-  O188  1  0.82179054  0.07349778  0.91194043  1
  O2-  O189  1  0.81874695  0.56840754  0.24405389  1
  O2-  O190  1  0.81924577  0.57411372  0.57797102  1
  O2-  O191  1  0.81576293  0.57269163  0.91047502  1
  O2-  O192  1  0.04926147  0.08556156  0.26859248  1
  O2-  O193  1  0.04158245  0.07874177  0.59674761  1
  O2-  O194  1  0.04983827  0.07577392  0.93459956  1
  O2-  O195  1  0.03401306  0.58530546  0.26533339  1
  O2-  O196  1  0.04791341  0.58349414  0.60731177  1
  O2-  O197  1  0.03553355  0.58826865  0.92649404  1
  O2-  O198  1  0.55139263  0.08268635  0.27192871  1
  O2-  O199  1  0.54604941  0.07970519  0.59820294  1
  O2-  O200  1  0.54306725  0.08362123  0.93895809  1
  O2-  O201  1  0.54631474  0.58425557  0.26746056  1
  O2-  O202  1  0.54849926  0.58388360  0.60475311  1
  O2-  O203  1  0.54654930  0.58844287  0.93470730  1
  O2-  O204  1  0.16706775  0.20627132  0.27320968  1
  O2-  O205  1  0.17011916  0.20169276  0.59515282  1
  O2-  O206  1  0.16634017  0.21177801  0.93100653  1
  O2-  O207  1  0.17101142  0.70124013  0.26418089  1
  O2-  O208  1  0.16537754  0.70414234  0.60555447  1
  O2-  O209  1  0.16967459  0.70775227  0.92838488  1
  O2-  O210  1  0.66234203  0.20919581  0.26473084  1
  O2-  O211  1  0.66770792  0.20870200  0.59810231  1
  O2-  O212  1  0.66505054  0.20039128  0.93894032  1
  O2-  O213  1  0.66688549  0.69999575  0.27099692  1
  O2-  O214  1  0.66613652  0.70078375  0.60382026  1
  O2-  O215  1  0.66370164  0.70826481  0.93590671  1
  O2-  O216  1  0.08326027  0.46650600  0.06373431  1
  O2-  O217  1  0.08220932  0.46492736  0.40381271  1
  O2-  O218  1  0.08471881  0.45480241  0.73267669  1
  O2-  O219  1  0.08027981  0.94141078  0.05753045  1
  O2-  O220  1  0.07755775  0.95420892  0.39716414  1
  O2-  O221  1  0.08716400  0.95398288  0.72913611  1
  O2-  O222  1  0.58776493  0.46430832  0.06501263  1
  O2-  O223  1  0.58754496  0.45936843  0.39679652  1
  O2-  O224  1  0.59006579  0.46048380  0.73218721  1
  O2-  O225  1  0.58631835  0.96201251  0.07048274  1
  O2-  O226  1  0.58634388  0.96050295  0.40491068  1
  O2-  O227  1  0.58250799  0.95359836  0.72863317  1
  O2-  O228  1  0.21059514  0.33679270  0.06654125  1
  O2-  O229  1  0.20678414  0.33564011  0.40407230  1
  O2-  O230  1  0.20168223  0.33076087  0.72826601  1
  O2-  O231  1  0.20811501  0.83260459  0.06024803  1
  O2-  O232  1  0.20678599  0.82730280  0.39833400  1
  O2-  O233  1  0.20904492  0.83735160  0.73030496  1
  O2-  O234  1  0.69564132  0.33464055  0.06222512  1
  O2-  O235  1  0.70451521  0.33573013  0.39406684  1
  O2-  O236  1  0.70498941  0.33702432  0.72967630  1
  O2-  O237  1  0.70856224  0.83192428  0.06826528  1
  O2-  O238  1  0.70674341  0.82897208  0.40301778  1
  O2-  O239  1  0.70099600  0.83208125  0.72946526  1
  O2-  O240  1  0.46354088  0.41485832  0.26312515  1
  O2-  O241  1  0.46082051  0.42091533  0.60003292  1
  O2-  O242  1  0.45977941  0.41945845  0.93482819  1
  O2-  O243  1  0.46455889  0.91879860  0.26634828  1
  O2-  O244  1  0.45810079  0.91461834  0.59762644  1
  O2-  O245  1  0.46320403  0.91371779  0.93964226  1
  O2-  O246  1  0.95766922  0.41830701  0.26845486  1
  O2-  O247  1  0.95429317  0.42192526  0.60074107  1
  O2-  O248  1  0.95598292  0.41980665  0.93244442  1
  O2-  O249  1  0.94458196  0.92529584  0.26648355  1
  O2-  O250  1  0.95799820  0.91442786  0.60055093  1
  O2-  O251  1  0.94134915  0.91726078  0.94268906  1
  O2-  O252  1  0.32945848  0.29106230  0.26841580  1
  O2-  O253  1  0.32925749  0.29871947  0.59966935  1
  O2-  O254  1  0.33361160  0.29013714  0.93164695  1
  O2-  O255  1  0.33637910  0.79152589  0.26105463  1
  O2-  O256  1  0.33315443  0.78628863  0.60074347  1
  O2-  O257  1  0.34015232  0.79732070  0.93690100  1
  O2-  O258  1  0.83173398  0.29230007  0.26528326  1
  O2-  O259  1  0.83024929  0.29452861  0.60101472  1
  O2-  O260  1  0.82441825  0.30102948  0.93700142  1
  O2-  O261  1  0.83071598  0.78598117  0.26584006  1
  O2-  O262  1  0.83182565  0.78811712  0.60239813  1
  O2-  O263  1  0.83421887  0.78552792  0.93601574  1
  O2-  O264  1  0.41311455  0.03973120  0.06854319  1
  O2-  O265  1  0.42084764  0.04548168  0.40148662  1
  O2-  O266  1  0.41327189  0.04013528  0.72890523  1
  O2-  O267  1  0.42011366  0.55304517  0.06265344  1
  O2-  O268  1  0.41805309  0.54395430  0.39496125  1
  O2-  O269  1  0.41946414  0.54547335  0.73466620  1
  O2-  O270  1  0.91865256  0.05199891  0.06293108  1
  O2-  O271  1  0.91785188  0.05768027  0.39130337  1
  O2-  O272  1  0.91688301  0.03671372  0.73573116  1
  O2-  O273  1  0.91290768  0.54578994  0.06148557  1
  O2-  O274  1  0.91087606  0.54205368  0.39849540  1
  O2-  O275  1  0.91444313  0.54712495  0.73040250  1
  O2-  O276  1  0.28754265  0.16727956  0.06544729  1
  O2-  O277  1  0.29211716  0.16904054  0.40641532  1
  O2-  O278  1  0.29503393  0.16406214  0.72671891  1
  O2-  O279  1  0.29918209  0.66991117  0.06144043  1
  O2-  O280  1  0.30129158  0.66644089  0.39095692  1
  O2-  O281  1  0.28859809  0.66573413  0.73781448  1
  O2-  O282  1  0.79460610  0.16662527  0.06431328  1
  O2-  O283  1  0.78764697  0.16593460  0.39668229  1
  O2-  O284  1  0.78929934  0.16647258  0.73564622  1
  O2-  O285  1  0.78565055  0.65794074  0.06590043  1
  O2-  O286  1  0.78999718  0.65907997  0.39868550  1
  O2-  O287  1  0.78970947  0.66140988  0.73362663  1
