# generated using pymatgen
data_Ca2Al2SiO7
_symmetry_space_group_name_H-M   'P 1'
_cell_length_a   15.46326078
_cell_length_b   15.46196795
_cell_length_c   15.28676716
_cell_angle_alpha   89.99577680
_cell_angle_beta   89.99599400
_cell_angle_gamma   90.00919903
_symmetry_Int_Tables_number   1
_chemical_formula_structural   Ca2Al2SiO7
_chemical_formula_sum   'Ca48 Al48 Si24 O168'
_cell_volume   3654.95043324
_cell_formula_units_Z   24
loop_
 _symmetry_equiv_pos_site_id
 _symmetry_equiv_pos_as_xyz
  1  'x, y, z'
loop_
 _atom_type_symbol
 _atom_type_oxidation_number
  Ca2+  2.0
  Al0+  0.0
  Si0+  0.0
  O2-  -2.0
loop_
 _atom_site_type_symbol
 _atom_site_label
 _atom_site_symmetry_multiplicity
 _atom_site_fract_x
 _atom_site_fract_y
 _atom_site_fract_z
 _atom_site_occupancy
  Ca2+  Ca0  1  0.17427417  0.08230204  0.17442635  1
  Ca2+  Ca1  1  0.17080719  0.08138087  0.50365885  1
  Ca2+  Ca2  1  0.17615364  0.07391941  0.83981920  1
  Ca2+  Ca3  1  0.16521663  0.58390744  0.16682917  1
  Ca2+  Ca4  1  0.17505290  0.58004481  0.50620147  1
  Ca2+  Ca5  1  0.17379538  0.58597405  0.83850161  1
  Ca2+  Ca6  1  0.65867017  0.07393167  0.16891820  1
  Ca2+  Ca7  1  0.66499418  0.07620573  0.49815368  1
  Ca2+  Ca8  1  0.66101134  0.07797010  0.84322034  1
  Ca2+  Ca9  1  0.67606286  0.57814314  0.17289079  1
  Ca2+  Ca10  1  0.67589005  0.57890875  0.50184062  1
  Ca2+  Ca11  1  0.67522511  0.59006681  0.83867194  1
  Ca2+  Ca12  1  0.07407834  0.32821646  0.16620649  1
  Ca2+  Ca13  1  0.07886470  0.32588759  0.48845412  1
  Ca2+  Ca14  1  0.07669839  0.33576333  0.83449843  1
  Ca2+  Ca15  1  0.08282232  0.83235177  0.16292908  1
  Ca2+  Ca16  1  0.08082155  0.83745175  0.49146919  1
  Ca2+  Ca17  1  0.09100659  0.83283576  0.83283531  1
  Ca2+  Ca18  1  0.57533587  0.33078999  0.15974683  1
  Ca2+  Ca19  1  0.57273273  0.33650709  0.49290325  1
  Ca2+  Ca20  1  0.57277004  0.32637489  0.83106611  1
  Ca2+  Ca21  1  0.58913104  0.83071078  0.15836826  1
  Ca2+  Ca22  1  0.58757613  0.82594916  0.49505697  1
  Ca2+  Ca23  1  0.58918057  0.82392791  0.83171780  1
  Ca2+  Ca24  1  0.33881297  0.41366724  0.17052231  1
  Ca2+  Ca25  1  0.33685728  0.41619480  0.50558804  1
  Ca2+  Ca26  1  0.34221382  0.41770253  0.83305354  1
  Ca2+  Ca27  1  0.32460408  0.92876646  0.17310194  1
  Ca2+  Ca28  1  0.32101826  0.92945446  0.50664722  1
  Ca2+  Ca29  1  0.32850468  0.92664773  0.84266733  1
  Ca2+  Ca30  1  0.83490875  0.42346217  0.17468646  1
  Ca2+  Ca31  1  0.83418597  0.42462819  0.50252111  1
  Ca2+  Ca32  1  0.83421720  0.42768261  0.84307349  1
  Ca2+  Ca33  1  0.82292866  0.91050805  0.17207002  1
  Ca2+  Ca34  1  0.83163574  0.91149097  0.49663723  1
  Ca2+  Ca35  1  0.82611241  0.91985088  0.83946547  1
  Ca2+  Ca36  1  0.41496396  0.17233218  0.16035078  1
  Ca2+  Ca37  1  0.40686196  0.17357380  0.49515146  1
  Ca2+  Ca38  1  0.41030822  0.16991474  0.83365451  1
  Ca2+  Ca39  1  0.42758185  0.67121376  0.15745718  1
  Ca2+  Ca40  1  0.42189484  0.66332492  0.49919464  1
  Ca2+  Ca41  1  0.43064771  0.66347026  0.82500189  1
  Ca2+  Ca42  1  0.91739756  0.17620124  0.16414918  1
  Ca2+  Ca43  1  0.92647321  0.17138769  0.48618588  1
  Ca2+  Ca44  1  0.91292466  0.17508363  0.83109727  1
  Ca2+  Ca45  1  0.91536974  0.66892875  0.16166715  1
  Ca2+  Ca46  1  0.91341901  0.66906980  0.49354345  1
  Ca2+  Ca47  1  0.92067432  0.66253763  0.83343562  1
  Al0+  Al48  1  -0.00162541  0.00041444  0.00226006  1
  Al0+  Al49  1  -0.00111446  -0.00247320  0.32518055  1
  Al0+  Al50  1  -0.00211015  -0.00029872  0.67094994  1
  Al0+  Al51  1  0.00168269  0.50271481  -0.00378736  1
  Al0+  Al52  1  0.00281158  0.50124307  0.33557676  1
  Al0+  Al53  1  -0.00077698  0.50226488  0.66887131  1
  Al0+  Al54  1  0.49849588  0.00035412  0.00521445  1
  Al0+  Al55  1  0.49826359  -0.00069431  0.34454303  1
  Al0+  Al56  1  0.49917812  -0.00094000  0.66983529  1
  Al0+  Al57  1  0.50191768  0.50084405  -0.00762409  1
  Al0+  Al58  1  0.50281789  0.50019244  0.33166628  1
  Al0+  Al59  1  0.50170750  0.49823496  0.66148687  1
  Al0+  Al60  1  0.24745139  0.25230936  -0.00118604  1
  Al0+  Al61  1  0.25020291  0.25185452  0.32796424  1
  Al0+  Al62  1  0.24733953  0.24899871  0.66746488  1
  Al0+  Al63  1  0.25012585  0.74958139  0.00048271  1
  Al0+  Al64  1  0.25198208  0.75112819  0.33632643  1
  Al0+  Al65  1  0.25096202  0.74735283  0.67193040  1
  Al0+  Al66  1  0.74804655  0.25154558  -0.00943029  1
  Al0+  Al67  1  0.74687715  0.24931566  0.33424997  1
  Al0+  Al68  1  0.74779812  0.25021828  0.66404569  1
  Al0+  Al69  1  0.75255162  0.75055130  0.00243877  1
  Al0+  Al70  1  0.75192537  0.74837959  0.33695287  1
  Al0+  Al71  1  0.75146474  0.74863262  0.66548876  1
  Al0+  Al72  1  0.67919900  0.92798216  0.34829039  1
  Al0+  Al73  1  0.57342947  0.68106709  0.98715685  1
  Al0+  Al74  1  0.92640552  0.32319552  0.32024226  1
  Al0+  Al75  1  0.43110548  0.32131941  0.31916693  1
  Al0+  Al76  1  0.42936903  0.31706900  0.65118673  1
  Al0+  Al77  1  0.42653833  0.32154782  0.98316772  1
  Al0+  Al78  1  0.56938500  0.17657553  0.98600926  1
  Al0+  Al79  1  0.31913429  0.07390247  0.35016189  1
  Al0+  Al80  1  0.17686895  0.92799917  0.34824924  1
  Al0+  Al81  1  0.31921765  0.07345099  0.01783188  1
  Al0+  Al82  1  0.68062613  0.93061551  0.01213823  1
  Al0+  Al83  1  0.92907824  0.32180737  0.98586937  1
  Al0+  Al84  1  0.57267570  0.68031117  0.64971587  1
  Al0+  Al85  1  0.32302756  0.56816280  0.68003903  1
  Al0+  Al86  1  0.17755020  0.92652188  0.01800711  1
  Al0+  Al87  1  0.07144204  0.68128899  0.98592541  1
  Al0+  Al88  1  0.82206765  0.56944615  0.01464669  1
  Al0+  Al89  1  0.32080748  0.07259901  0.68418115  1
  Al0+  Al90  1  0.81985359  0.57012620  0.68320780  1
  Al0+  Al91  1  0.92871466  0.81857316  0.31925607  1
  Al0+  Al92  1  0.67728426  0.42653316  0.34773853  1
  Al0+  Al93  1  0.82308326  0.56896316  0.34892902  1
  Al0+  Al94  1  0.17617893  0.92844937  0.68271151  1
  Al0+  Al95  1  0.07121109  0.17799121  0.31745788  1
  Si0+  Si96  1  0.07633255  0.67840374  0.31850127  1
  Si0+  Si97  1  0.18071173  0.43054572  0.34666593  1
  Si0+  Si98  1  0.92808868  0.32344266  0.65145615  1
  Si0+  Si99  1  0.42900121  0.82145990  0.32030378  1
  Si0+  Si100  1  0.42829380  0.82114985  0.98478519  1
  Si0+  Si101  1  0.57358473  0.17418061  0.64716971  1
  Si0+  Si102  1  0.57117057  0.17392619  0.31870410  1
  Si0+  Si103  1  0.92763895  0.82300064  0.98203224  1
  Si0+  Si104  1  0.06642899  0.17892161  0.65357171  1
  Si0+  Si105  1  0.32410744  0.56981859  0.01430510  1
  Si0+  Si106  1  0.07040591  0.17739648  0.98144626  1
  Si0+  Si107  1  0.82021484  0.07246614  0.67992623  1
  Si0+  Si108  1  0.67813931  0.42633609  0.68521092  1
  Si0+  Si109  1  0.93060773  0.82100962  0.65245972  1
  Si0+  Si110  1  0.17856502  0.43136231  0.01512772  1
  Si0+  Si111  1  0.67751911  0.42805079  0.01441630  1
  Si0+  Si112  1  0.68030706  0.92872073  0.68078221  1
  Si0+  Si113  1  0.82193803  0.07224825  0.34775976  1
  Si0+  Si114  1  0.32356747  0.57184081  0.34605018  1
  Si0+  Si115  1  0.17665403  0.42832106  0.68345174  1
  Si0+  Si116  1  0.82154729  0.07644636  0.01569612  1
  Si0+  Si117  1  0.57096572  0.68101652  0.31776932  1
  Si0+  Si118  1  0.07285742  0.67840124  0.65135743  1
  Si0+  Si119  1  0.42714285  0.82178415  0.64962002  1
  O2-  O120  1  0.24571694  0.00231454  0.06674252  1
  O2-  O121  1  0.24467165  0.00329864  0.39851555  1
  O2-  O122  1  0.25213041  -0.00373870  0.73198982  1
  O2-  O123  1  0.25448326  0.49785497  0.05722119  1
  O2-  O124  1  0.25272263  0.50069255  0.38825151  1
  O2-  O125  1  0.24807420  0.49414186  0.72771463  1
  O2-  O126  1  0.75274431  0.00775408  0.05923822  1
  O2-  O127  1  0.75377668  0.00360015  0.39412036  1
  O2-  O128  1  0.74544627  0.00541879  0.72199724  1
  O2-  O129  1  0.74846870  0.49350384  0.05985655  1
  O2-  O130  1  0.75430678  0.49332741  0.39824760  1
  O2-  O131  1  0.74752790  0.49375811  0.73041473  1
  O2-  O132  1  -0.00461590  0.24829851  0.27035969  1
  O2-  O133  1  -0.00290387  0.25098794  0.60945892  1
  O2-  O134  1  -0.00060641  0.24380679  0.93640967  1
  O2-  O135  1  0.00626143  0.74573973  0.27517842  1
  O2-  O136  1  0.00510669  0.75300541  0.61084009  1
  O2-  O137  1  0.00077649  0.75924602  0.93755319  1
  O2-  O138  1  0.50480089  0.24493730  0.27497126  1
  O2-  O139  1  0.50228765  0.24051684  0.60397772  1
  O2-  O140  1  0.49570713  0.24608464  0.93471111  1
  O2-  O141  1  0.50211457  0.75379154  0.27544356  1
  O2-  O142  1  0.49671827  0.75444550  0.60320245  1
  O2-  O143  1  0.49840773  0.75469916  0.93896117  1
  O2-  O144  1  0.06996946  0.18033416  0.08669634  1
  O2-  O145  1  0.07045187  0.18115726  0.43218393  1
  O2-  O146  1  0.06231687  0.17981451  0.75848444  1
  O2-  O147  1  0.07018017  0.67881378  0.09889022  1
  O2-  O148  1  0.07896545  0.67781970  0.42433401  1
  O2-  O149  1  0.07110034  0.67557314  0.75623099  1
  O2-  O150  1  0.57085056  0.17809697  0.09948908  1
  O2-  O151  1  0.57010764  0.17317783  0.42444834  1
  O2-  O152  1  0.57847760  0.17558085  0.75224200  1
  O2-  O153  1  0.57129673  0.68084662  0.10055805  1
  O2-  O154  1  0.56910448  0.68094018  0.42309190  1
  O2-  O155  1  0.57448198  0.68384168  0.76287600  1
  O2-  O156  1  0.17903341  0.43267581  0.24160293  1
  O2-  O157  1  0.17438312  0.43043056  0.57759659  1
  O2-  O158  1  0.17616491  0.43368289  0.90990384  1
  O2-  O159  1  0.18220195  0.92409010  0.23549321  1
  O2-  O160  1  0.17257838  0.93252834  0.56941737  1
  O2-  O161  1  0.18160514  0.92699248  0.90421638  1
  O2-  O162  1  0.67293974  0.43239302  0.23433853  1
  O2-  O163  1  0.68108764  0.42616612  0.57966419  1
  O2-  O164  1  0.67866894  0.43035278  0.90867486  1
  O2-  O165  1  0.67929616  0.92693857  0.23552365  1
  O2-  O166  1  0.68324149  0.92737584  0.57571056  1
  O2-  O167  1  0.68412595  0.92924735  0.89836947  1
  O2-  O168  1  0.43016894  0.32450009  0.09661878  1
  O2-  O169  1  0.43000630  0.32282757  0.43229615  1
  O2-  O170  1  0.43145644  0.31751982  0.76369388  1
  O2-  O171  1  0.42915600  0.81701091  0.09074210  1
  O2-  O172  1  0.42902809  0.81640777  0.42535658  1
  O2-  O173  1  0.42994332  0.82043640  0.75520506  1
  O2-  O174  1  0.93127033  0.32204064  0.09852089  1
  O2-  O175  1  0.93193708  0.32236651  0.43457864  1
  O2-  O176  1  0.92930356  0.32294544  0.75664565  1
  O2-  O177  1  0.92413423  0.81920180  0.08724993  1
  O2-  O178  1  0.92791936  0.81616421  0.43319499  1
  O2-  O179  1  0.92793574  0.82133068  0.75728896  1
  O2-  O180  1  0.32048158  0.07260469  0.23701831  1
  O2-  O181  1  0.31634204  0.07461427  0.57085831  1
  O2-  O182  1  0.31775581  0.07148524  0.90414439  1
  O2-  O183  1  0.32353734  0.57281706  0.24080911  1
  O2-  O184  1  0.31998250  0.56755250  0.56632821  1
  O2-  O185  1  0.32347734  0.56943491  0.90922647  1
  O2-  O186  1  0.81965758  0.07300915  0.24250922  1
  O2-  O187  1  0.82327747  0.07114533  0.57507271  1
  O2-  O188  1  0.82176971  0.07410245  0.90925489  1
  O2-  O189  1  0.82111814  0.57029637  0.23548152  1
  O2-  O190  1  0.82140650  0.56944188  0.57047329  1
  O2-  O191  1  0.82094461  0.56956588  0.90118102  1
  O2-  O192  1  0.04610899  0.08002010  0.26371549  1
  O2-  O193  1  0.03554920  0.08784573  0.60626470  1
  O2-  O194  1  0.04669625  0.08255316  0.93675001  1
  O2-  O195  1  0.05296830  0.58405231  0.27335307  1
  O2-  O196  1  0.04159408  0.58758861  0.60290703  1
  O2-  O197  1  0.03902935  0.58690924  0.92839616  1
  O2-  O198  1  0.54356026  0.07958865  0.27493254  1
  O2-  O199  1  0.55159581  0.07818833  0.60416331  1
  O2-  O200  1  0.54330158  0.07676463  0.93372425  1
  O2-  O201  1  0.54074302  0.59071686  0.26969004  1
  O2-  O202  1  0.54224137  0.58355292  0.59651310  1
  O2-  O203  1  0.54306891  0.58623138  0.93018348  1
  O2-  O204  1  0.16589868  0.21353223  0.26257963  1
  O2-  O205  1  0.15821980  0.20583874  0.60643996  1
  O2-  O206  1  0.16183392  0.20797530  0.93426764  1
  O2-  O207  1  0.16967173  0.70412449  0.27102560  1
  O2-  O208  1  0.16677936  0.70022121  0.60516568  1
  O2-  O209  1  0.16985040  0.70723622  0.93150682  1
  O2-  O210  1  0.66607780  0.19396084  0.27343482  1
  O2-  O211  1  0.66699011  0.20092584  0.59941510  1
  O2-  O212  1  0.66656093  0.20406153  0.92823295  1
  O2-  O213  1  0.66339908  0.70823733  0.27287577  1
  O2-  O214  1  0.66842431  0.71450892  0.59539500  1
  O2-  O215  1  0.66915040  0.71482007  0.93293357  1
  O2-  O216  1  0.08997244  0.46591835  0.06388855  1
  O2-  O217  1  0.09093116  0.45812548  0.39849678  1
  O2-  O218  1  0.08486581  0.45808154  0.73118395  1
  O2-  O219  1  0.07524933  0.94885264  0.06513874  1
  O2-  O220  1  0.07475492  0.95058438  0.39573980  1
  O2-  O221  1  0.07864043  0.95932789  0.73744895  1
  O2-  O222  1  0.58458258  0.45746384  0.05958144  1
  O2-  O223  1  0.58198647  0.46367214  0.40347511  1
  O2-  O224  1  0.58459157  0.45326201  0.72867183  1
  O2-  O225  1  0.58338922  0.95539138  0.06732965  1
  O2-  O226  1  0.58423345  0.95634428  0.40670529  1
  O2-  O227  1  0.58677125  0.94924540  0.72743764  1
  O2-  O228  1  0.20050747  0.33839010  0.06194177  1
  O2-  O229  1  0.20807348  0.33922899  0.39440350  1
  O2-  O230  1  0.19752444  0.33382711  0.72863459  1
  O2-  O231  1  0.20783064  0.82781663  0.06956719  1
  O2-  O232  1  0.20918227  0.83062663  0.40322362  1
  O2-  O233  1  0.19997313  0.82741532  0.73160177  1
  O2-  O234  1  0.69962757  0.33243533  0.05691299  1
  O2-  O235  1  0.69547162  0.32560172  0.40019554  1
  O2-  O236  1  0.70187666  0.33128900  0.72989713  1
  O2-  O237  1  0.71505584  0.83600075  0.06771203  1
  O2-  O238  1  0.71361954  0.83325050  0.40372741  1
  O2-  O239  1  0.71517063  0.83952733  0.72841805  1
  O2-  O240  1  0.46183720  0.41840764  0.26484209  1
  O2-  O241  1  0.46116065  0.41348961  0.59676196  1
  O2-  O242  1  0.45887314  0.41844405  0.92867238  1
  O2-  O243  1  0.45493496  0.91502668  0.27686293  1
  O2-  O244  1  0.45157343  0.91647916  0.60498552  1
  O2-  O245  1  0.45213141  0.91553202  0.94104221  1
  O2-  O246  1  0.96084537  0.42052894  0.26863694  1
  O2-  O247  1  0.95847147  0.41495709  0.60523658  1
  O2-  O248  1  0.96663063  0.41563550  0.93024518  1
  O2-  O249  1  0.95105154  0.91525189  0.26240345  1
  O2-  O250  1  0.95445040  0.91441662  0.60545742  1
  O2-  O251  1  0.94595080  0.91951654  0.93799731  1
  O2-  O252  1  0.33398659  0.29546746  0.26471476  1
  O2-  O253  1  0.32901950  0.29144482  0.60023233  1
  O2-  O254  1  0.32578963  0.29923498  0.93171182  1
  O2-  O255  1  0.33898937  0.79061621  0.27122693  1
  O2-  O256  1  0.33351211  0.79321850  0.60488605  1
  O2-  O257  1  0.33601413  0.79366287  0.93804116  1
  O2-  O258  1  0.82621412  0.29844920  0.26972072  1
  O2-  O259  1  0.83498545  0.29798852  0.60603602  1
  O2-  O260  1  0.83297892  0.29546620  0.92801858  1
  O2-  O261  1  0.83282706  0.78417687  0.26508401  1
  O2-  O262  1  0.84068415  0.78933724  0.60354274  1
  O2-  O263  1  0.83679788  0.79191401  0.93330739  1
  O2-  O264  1  0.41729191  0.04470139  0.07039187  1
  O2-  O265  1  0.41543180  0.04398291  0.40649625  1
  O2-  O266  1  0.42153882  0.04770193  0.73479102  1
  O2-  O267  1  0.41672192  0.54328837  0.06104057  1
  O2-  O268  1  0.41475043  0.54380733  0.39372779  1
  O2-  O269  1  0.42030134  0.53718211  0.73227558  1
  O2-  O270  1  0.91528390  0.05289638  0.06142929  1
  O2-  O271  1  0.91553859  0.04498136  0.39280745  1
  O2-  O272  1  0.90849052  0.04134087  0.73192043  1
  O2-  O273  1  0.91971495  0.53954074  0.06595890  1
  O2-  O274  1  0.92338212  0.54629838  0.40218587  1
  O2-  O275  1  0.91760954  0.54095835  0.73630316  1
  O2-  O276  1  0.29086506  0.17375141  0.06698411  1
  O2-  O277  1  0.28954762  0.17366222  0.40004466  1
  O2-  O278  1  0.28698789  0.16955383  0.73693829  1
  O2-  O279  1  0.29539183  0.66093104  0.06219839  1
  O2-  O280  1  0.29601100  0.66224247  0.39615083  1
  O2-  O281  1  0.29401821  0.66389597  0.73597149  1
  O2-  O282  1  0.79647185  0.17120558  0.05858634  1
  O2-  O283  1  0.79775019  0.16509092  0.39678406  1
  O2-  O284  1  0.79623609  0.16607198  0.72627056  1
  O2-  O285  1  0.79117710  0.66589496  0.06737417  1
  O2-  O286  1  0.78906492  0.66471273  0.40376085  1
  O2-  O287  1  0.78804447  0.66724425  0.73551475  1
