# generated using pymatgen
data_Ca2Al2SiO7
_symmetry_space_group_name_H-M   'P 1'
_cell_length_a   15.46149447
_cell_length_b   15.45893771
_cell_length_c   15.28565999
_cell_angle_alpha   89.99539969
_cell_angle_beta   90.00930150
_cell_angle_gamma   90.01100852
_symmetry_Int_Tables_number   1
_chemical_formula_structural   Ca2Al2SiO7
_chemical_formula_sum   'Ca48 Al48 Si24 O168'
_cell_volume   3653.55203098
_cell_formula_units_Z   24
loop_
 _symmetry_equiv_pos_site_id
 _symmetry_equiv_pos_as_xyz
  1  'x, y, z'
loop_
 _atom_type_symbol
 _atom_type_oxidation_number
  Ca2+  2.0
  Al0+  0.0
  Si0+  0.0
  O2-  -2.0
loop_
 _atom_site_type_symbol
 _atom_site_label
 _atom_site_symmetry_multiplicity
 _atom_site_fract_x
 _atom_site_fract_y
 _atom_site_fract_z
 _atom_site_occupancy
  Ca2+  Ca0  1  0.16863232  0.08392861  0.16810169  1
  Ca2+  Ca1  1  0.16315141  0.07454714  0.49959401  1
  Ca2+  Ca2  1  0.17309925  0.08743375  0.84458471  1
  Ca2+  Ca3  1  0.16476635  0.57374934  0.17413908  1
  Ca2+  Ca4  1  0.15373788  0.57300485  0.49924888  1
  Ca2+  Ca5  1  0.16649484  0.56946204  0.83919139  1
  Ca2+  Ca6  1  0.66605231  0.07872233  0.17100046  1
  Ca2+  Ca7  1  0.68058714  0.08044104  0.50997391  1
  Ca2+  Ca8  1  0.65997341  0.07505267  0.83612816  1
  Ca2+  Ca9  1  0.67270749  0.58287521  0.17378466  1
  Ca2+  Ca10  1  0.67353197  0.57673019  0.50303706  1
  Ca2+  Ca11  1  0.67741490  0.58715864  0.83898478  1
  Ca2+  Ca12  1  0.07863530  0.33667799  0.16129268  1
  Ca2+  Ca13  1  0.07644055  0.33635581  0.49276030  1
  Ca2+  Ca14  1  0.08782761  0.33134199  0.83314573  1
  Ca2+  Ca15  1  0.07954172  0.83241921  0.16956130  1
  Ca2+  Ca16  1  0.07138491  0.82741379  0.48750199  1
  Ca2+  Ca17  1  0.07246387  0.82949814  0.82373670  1
  Ca2+  Ca18  1  0.57833303  0.32969313  0.15746349  1
  Ca2+  Ca19  1  0.59689723  0.33136264  0.49676229  1
  Ca2+  Ca20  1  0.58604032  0.32303349  0.82664617  1
  Ca2+  Ca21  1  0.59462665  0.82216136  0.16214092  1
  Ca2+  Ca22  1  0.58770156  0.82814680  0.49668972  1
  Ca2+  Ca23  1  0.59410443  0.83203014  0.83239964  1
  Ca2+  Ca24  1  0.32317053  0.40765138  0.16798384  1
  Ca2+  Ca25  1  0.32043482  0.41706041  0.50217735  1
  Ca2+  Ca26  1  0.32371538  0.40476789  0.83772395  1
  Ca2+  Ca27  1  0.33005498  0.92562836  0.17132899  1
  Ca2+  Ca28  1  0.32489449  0.91177973  0.49973744  1
  Ca2+  Ca29  1  0.33215158  0.92481445  0.84144935  1
  Ca2+  Ca30  1  0.83000798  0.42636237  0.17717267  1
  Ca2+  Ca31  1  0.82895312  0.42582141  0.50135782  1
  Ca2+  Ca32  1  0.82868406  0.42812407  0.83454264  1
  Ca2+  Ca33  1  0.83325264  0.92389916  0.17097378  1
  Ca2+  Ca34  1  0.83780998  0.92312994  0.50558382  1
  Ca2+  Ca35  1  0.82541441  0.91877442  0.83259057  1
  Ca2+  Ca36  1  0.42054951  0.17168707  0.15443976  1
  Ca2+  Ca37  1  0.42716052  0.16802769  0.49973474  1
  Ca2+  Ca38  1  0.42555999  0.16687850  0.83615280  1
  Ca2+  Ca39  1  0.43124535  0.66476624  0.16263305  1
  Ca2+  Ca40  1  0.42535717  0.66538047  0.49195175  1
  Ca2+  Ca41  1  0.42504316  0.66608037  0.83278278  1
  Ca2+  Ca42  1  0.91842439  0.17326612  0.16636620  1
  Ca2+  Ca43  1  0.90893502  0.17196936  0.49173242  1
  Ca2+  Ca44  1  0.92337011  0.16263077  0.82819243  1
  Ca2+  Ca45  1  0.91422142  0.66558745  0.16718523  1
  Ca2+  Ca46  1  0.91055660  0.67478509  0.49204018  1
  Ca2+  Ca47  1  0.90930351  0.66887170  0.82819314  1
  Al0+  Al48  1  -0.00136901  0.00004783  -0.00486431  1
  Al0+  Al49  1  0.00175549  0.00028214  0.33600073  1
  Al0+  Al50  1  0.00109910  -0.00190501  0.66617432  1
  Al0+  Al51  1  -0.00020934  0.50157011  0.00617778  1
  Al0+  Al52  1  -0.00138613  0.50056539  0.33314422  1
  Al0+  Al53  1  0.00121855  0.49787331  0.67619431  1
  Al0+  Al54  1  0.49846717  -0.00073721  0.00756842  1
  Al0+  Al55  1  0.49956787  0.00082711  0.33482505  1
  Al0+  Al56  1  0.49911361  0.00040687  0.66287218  1
  Al0+  Al57  1  0.49845177  0.50152557  -0.01172354  1
  Al0+  Al58  1  0.49829785  0.49816488  0.33212961  1
  Al0+  Al59  1  0.49735558  0.49841409  0.66802476  1
  Al0+  Al60  1  0.24884612  0.24819580  0.00190457  1
  Al0+  Al61  1  0.25214414  0.24941418  0.34046568  1
  Al0+  Al62  1  0.25116470  0.24896978  0.66658283  1
  Al0+  Al63  1  0.24880480  0.74790133  -0.00133019  1
  Al0+  Al64  1  0.25055996  0.75118036  0.33267093  1
  Al0+  Al65  1  0.25086652  0.74793374  0.66676579  1
  Al0+  Al66  1  0.75134629  0.25080540  -0.00588073  1
  Al0+  Al67  1  0.75113964  0.24862495  0.33208214  1
  Al0+  Al68  1  0.75350518  0.24997462  0.67028353  1
  Al0+  Al69  1  0.75085546  0.75169472  0.00414070  1
  Al0+  Al70  1  0.74951319  0.75176714  0.32733831  1
  Al0+  Al71  1  0.75035655  0.75184957  0.66665732  1
  Al0+  Al72  1  0.92879074  0.32079184  0.32085414  1
  Al0+  Al73  1  0.57229636  0.68140447  0.98452789  1
  Al0+  Al74  1  0.42800573  0.32087714  0.98452996  1
  Al0+  Al75  1  0.57211928  0.17981351  0.65119836  1
  Al0+  Al76  1  0.67691038  0.42745809  0.68274647  1
  Al0+  Al77  1  0.82048873  0.06991950  0.34469801  1
  Al0+  Al78  1  0.17829798  0.42922127  0.34698126  1
  Al0+  Al79  1  0.18048486  0.92902892  0.34645397  1
  Al0+  Al80  1  0.18205377  0.42961310  0.01546009  1
  Al0+  Al81  1  0.82456667  0.07184618  0.68314979  1
  Al0+  Al82  1  0.31915047  0.06899643  0.01395321  1
  Al0+  Al83  1  0.67772787  0.93077030  0.68031356  1
  Al0+  Al84  1  0.18052341  0.42906785  0.68154831  1
  Al0+  Al85  1  0.81918296  0.57172756  0.68111303  1
  Al0+  Al86  1  0.92924705  0.81951632  0.65243675  1
  Al0+  Al87  1  0.82021593  0.57332275  0.34801353  1
  Al0+  Al88  1  0.81878591  0.57061335  0.01655625  1
  Al0+  Al89  1  0.67643806  0.42827893  0.34494919  1
  Al0+  Al90  1  0.92830743  0.82375173  0.31557921  1
  Al0+  Al91  1  0.56974491  0.67905920  0.32061982  1
  Al0+  Al92  1  0.57289251  0.17696427  0.98579989  1
  Al0+  Al93  1  0.07136214  0.67837205  0.31752081  1
  Al0+  Al94  1  0.68016423  0.93198105  0.01552473  1
  Al0+  Al95  1  0.06767548  0.18036178  0.98806136  1
  Si0+  Si96  1  0.93174470  0.32113148  0.65282798  1
  Si0+  Si97  1  0.07448416  0.17894561  0.31896661  1
  Si0+  Si98  1  0.42580429  0.82147888  0.98455748  1
  Si0+  Si99  1  0.32231669  0.57198667  0.34825019  1
  Si0+  Si100  1  0.42665873  0.82146365  0.65099376  1
  Si0+  Si101  1  0.32403601  0.07255567  0.35403179  1
  Si0+  Si102  1  0.07279979  0.67632461  0.65197151  1
  Si0+  Si103  1  0.31967252  0.06899428  0.68136394  1
  Si0+  Si104  1  0.17970754  0.92682707  0.68178772  1
  Si0+  Si105  1  0.42724603  0.31926277  0.31936221  1
  Si0+  Si106  1  0.32355681  0.57480687  0.01684250  1
  Si0+  Si107  1  0.42668621  0.32115752  0.64692986  1
  Si0+  Si108  1  0.32340169  0.57363509  0.68467628  1
  Si0+  Si109  1  0.93025860  0.82067415  0.98357350  1
  Si0+  Si110  1  0.67664126  0.92844992  0.34976952  1
  Si0+  Si111  1  0.57034304  0.67913424  0.65189372  1
  Si0+  Si112  1  0.42762588  0.82424942  0.31581478  1
  Si0+  Si113  1  0.82503397  0.07392789  0.01618896  1
  Si0+  Si114  1  0.92853262  0.32617419  0.98169485  1
  Si0+  Si115  1  0.67568636  0.42702964  0.01352986  1
  Si0+  Si116  1  0.07376234  0.17839574  0.65078191  1
  Si0+  Si117  1  0.07162560  0.67748834  0.98396557  1
  Si0+  Si118  1  0.57142372  0.17917206  0.31903244  1
  Si0+  Si119  1  0.17493468  0.92540801  0.01466442  1
  O2-  O120  1  0.24486428  -0.00730024  0.05868854  1
  O2-  O121  1  0.25540040  0.00279553  0.39625909  1
  O2-  O122  1  0.24877660  -0.00150115  0.72498862  1
  O2-  O123  1  0.25804933  0.50359198  0.06128894  1
  O2-  O124  1  0.24914379  0.50838163  0.39322001  1
  O2-  O125  1  0.25557475  0.50374617  0.72767068  1
  O2-  O126  1  0.75043640  0.01188752  0.06029134  1
  O2-  O127  1  0.74743952  -0.00548677  0.39298620  1
  O2-  O128  1  0.74794044  0.00398602  0.73161047  1
  O2-  O129  1  0.74403023  0.49432425  0.05980171  1
  O2-  O130  1  0.74690116  0.50137873  0.39551505  1
  O2-  O131  1  0.74436020  0.50341687  0.73275532  1
  O2-  O132  1  0.00804324  0.24952074  0.27518321  1
  O2-  O133  1  0.00031665  0.24690163  0.60989856  1
  O2-  O134  1  -0.00672038  0.25313567  0.93757055  1
  O2-  O135  1  -0.00183115  0.74878086  0.26599220  1
  O2-  O136  1  0.00395000  0.74384572  0.60750947  1
  O2-  O137  1  0.00247920  0.75010809  0.94188816  1
  O2-  O138  1  0.50021458  0.25020571  0.27782600  1
  O2-  O139  1  0.50210017  0.25963514  0.60277493  1
  O2-  O140  1  0.50536452  0.25365676  0.93560845  1
  O2-  O141  1  0.49706020  0.75640911  0.27277356  1
  O2-  O142  1  0.49776866  0.74983121  0.61017843  1
  O2-  O143  1  0.49558801  0.75527492  0.93823199  1
  O2-  O144  1  0.06658606  0.17957064  0.10102305  1
  O2-  O145  1  0.07472079  0.17941434  0.42500902  1
  O2-  O146  1  0.07649760  0.17921074  0.75597284  1
  O2-  O147  1  0.07340836  0.67762858  0.08844382  1
  O2-  O148  1  0.07189661  0.68047259  0.43151587  1
  O2-  O149  1  0.07531254  0.67996889  0.75790877  1
  O2-  O150  1  0.57017513  0.17742491  0.09999179  1
  O2-  O151  1  0.57012874  0.17811246  0.42419058  1
  O2-  O152  1  0.56587475  0.17620688  0.76370708  1
  O2-  O153  1  0.57114941  0.68151749  0.09753784  1
  O2-  O154  1  0.56657671  0.67984523  0.43427161  1
  O2-  O155  1  0.56917790  0.68185271  0.75695661  1
  O2-  O156  1  0.18243768  0.42570133  0.23431618  1
  O2-  O157  1  0.17995048  0.42931881  0.56843400  1
  O2-  O158  1  0.18271499  0.43039920  0.90216936  1
  O2-  O159  1  0.18263111  0.93248336  0.23332737  1
  O2-  O160  1  0.18185616  0.92693128  0.57681845  1
  O2-  O161  1  0.17651366  0.92594682  0.90855507  1
  O2-  O162  1  0.67466962  0.42783174  0.23124308  1
  O2-  O163  1  0.68002858  0.42980000  0.56910838  1
  O2-  O164  1  0.67868974  0.42848667  0.90811549  1
  O2-  O165  1  0.67359545  0.93230566  0.24420467  1
  O2-  O166  1  0.67717433  0.93046167  0.56679263  1
  O2-  O167  1  0.68214313  0.93029934  0.90256261  1
  O2-  O168  1  0.42767360  0.31788751  0.09884304  1
  O2-  O169  1  0.42375361  0.31715911  0.42430111  1
  O2-  O170  1  0.42148610  0.31548308  0.75188125  1
  O2-  O171  1  0.42267812  0.81866301  0.08975412  1
  O2-  O172  1  0.42787163  0.82416429  0.42191741  1
  O2-  O173  1  0.42210128  0.82193014  0.75574555  1
  O2-  O174  1  0.93024276  0.32628111  0.08736067  1
  O2-  O175  1  0.92927818  0.31896185  0.43436821  1
  O2-  O176  1  0.93571765  0.32232333  0.75792249  1
  O2-  O177  1  0.93246027  0.82337080  0.08817546  1
  O2-  O178  1  0.93049449  0.82459542  0.42923067  1
  O2-  O179  1  0.93175234  0.81931872  0.76616308  1
  O2-  O180  1  0.32535684  0.07376761  0.24871956  1
  O2-  O181  1  0.31802464  0.06775180  0.57619482  1
  O2-  O182  1  0.31790983  0.06716915  0.90025663  1
  O2-  O183  1  0.32471508  0.56882868  0.24293265  1
  O2-  O184  1  0.32470179  0.57581147  0.57911994  1
  O2-  O185  1  0.31842304  0.58022050  0.91138642  1
  O2-  O186  1  0.81755804  0.07133944  0.23143420  1
  O2-  O187  1  0.82503071  0.07039212  0.56939949  1
  O2-  O188  1  0.83054671  0.06849426  0.91120686  1
  O2-  O189  1  0.81801096  0.57072235  0.23431681  1
  O2-  O190  1  0.81957508  0.57184516  0.56806753  1
  O2-  O191  1  0.81894003  0.57193481  0.90332749  1
  O2-  O192  1  0.04838026  0.08613448  0.27289842  1
  O2-  O193  1  0.04963449  0.08458610  0.60556637  1
  O2-  O194  1  0.04121238  0.08307162  0.93068295  1
  O2-  O195  1  0.04564949  0.57935311  0.26520445  1
  O2-  O196  1  0.04792608  0.58079881  0.61059149  1
  O2-  O197  1  0.04112660  0.58632798  0.93683317  1
  O2-  O198  1  0.54177757  0.08701422  0.27256815  1
  O2-  O199  1  0.53484300  0.08530048  0.59538983  1
  O2-  O200  1  0.53634983  0.07918163  0.93569796  1
  O2-  O201  1  0.53549151  0.58330881  0.26620907  1
  O2-  O202  1  0.54169699  0.58660580  0.60595550  1
  O2-  O203  1  0.54298348  0.58651469  0.92639723  1
  O2-  O204  1  0.17026465  0.20194349  0.27584280  1
  O2-  O205  1  0.16461260  0.20745040  0.60194594  1
  O2-  O206  1  0.16387550  0.21145250  0.93341638  1
  O2-  O207  1  0.17076966  0.70768753  0.26555720  1
  O2-  O208  1  0.16699971  0.70095429  0.60587195  1
  O2-  O209  1  0.16385108  0.70260098  0.93477014  1
  O2-  O210  1  0.66218323  0.20492944  0.27016389  1
  O2-  O211  1  0.67182830  0.20706719  0.60093325  1
  O2-  O212  1  0.67315927  0.19771540  0.93256539  1
  O2-  O213  1  0.66462371  0.70929564  0.26384204  1
  O2-  O214  1  0.66079535  0.70890411  0.60415399  1
  O2-  O215  1  0.66809412  0.71754159  0.93200375  1
  O2-  O216  1  0.08610524  0.46244425  0.06850680  1
  O2-  O217  1  0.08170523  0.45787713  0.40117275  1
  O2-  O218  1  0.08653252  0.45843677  0.74044716  1
  O2-  O219  1  0.08224357  0.95418079  0.05973785  1
  O2-  O220  1  0.08637637  0.96191568  0.40366471  1
  O2-  O221  1  0.08821794  0.95335714  0.72903532  1
  O2-  O222  1  0.57966024  0.45222861  0.05431502  1
  O2-  O223  1  0.57712608  0.45285731  0.39893057  1
  O2-  O224  1  0.57444038  0.44722182  0.73075169  1
  O2-  O225  1  0.58235567  0.95515826  0.07062712  1
  O2-  O226  1  0.58283339  0.95411889  0.39639240  1
  O2-  O227  1  0.57728622  0.95663331  0.73184535  1
  O2-  O228  1  0.21125670  0.33298700  0.06918230  1
  O2-  O229  1  0.21271393  0.33447391  0.40356367  1
  O2-  O230  1  0.21318125  0.33154438  0.73366817  1
  O2-  O231  1  0.19868511  0.83090136  0.05933105  1
  O2-  O232  1  0.21206248  0.83325820  0.40266188  1
  O2-  O233  1  0.20804309  0.83492442  0.72909765  1
  O2-  O234  1  0.69875679  0.33149481  0.05747713  1
  O2-  O235  1  0.70816847  0.33063270  0.39700507  1
  O2-  O236  1  0.70942396  0.33105400  0.73598565  1
  O2-  O237  1  0.71681251  0.83813535  0.07043311  1
  O2-  O238  1  0.69892209  0.83339066  0.39231796  1
  O2-  O239  1  0.70788172  0.83329468  0.73352284  1
  O2-  O240  1  0.45050653  0.41138662  0.27136790  1
  O2-  O241  1  0.44190185  0.41867364  0.60480223  1
  O2-  O242  1  0.44409741  0.42121949  0.93048190  1
  O2-  O243  1  0.45175711  0.91923201  0.27103446  1
  O2-  O244  1  0.45279296  0.91229344  0.60110294  1
  O2-  O245  1  0.44999510  0.91625131  0.94113486  1
  O2-  O246  1  0.95719289  0.41706931  0.26627750  1
  O2-  O247  1  0.96463474  0.41216412  0.60653286  1
  O2-  O248  1  0.96067518  0.41809949  0.93596408  1
  O2-  O249  1  0.96332340  0.92121103  0.26327233  1
  O2-  O250  1  0.96328430  0.91567055  0.59876821  1
  O2-  O251  1  0.95734161  0.91154668  0.93351137  1
  O2-  O252  1  0.33663712  0.28710667  0.27143821  1
  O2-  O253  1  0.33604591  0.28669986  0.59810011  1
  O2-  O254  1  0.33196167  0.28366705  0.93200583  1
  O2-  O255  1  0.33428021  0.80050658  0.26948556  1
  O2-  O256  1  0.33543477  0.79167016  0.60145404  1
  O2-  O257  1  0.33245308  0.79570921  0.93565453  1
  O2-  O258  1  0.83492917  0.28547376  0.26342447  1
  O2-  O259  1  0.83939328  0.29679504  0.60567669  1
  O2-  O260  1  0.83373357  0.30639506  0.93611841  1
  O2-  O261  1  0.82893523  0.80097311  0.26263794  1
  O2-  O262  1  0.83218994  0.79175794  0.59811402  1
  O2-  O263  1  0.83920182  0.78972530  0.93766782  1
  O2-  O264  1  0.41315113  0.03890200  0.07280788  1
  O2-  O265  1  0.41705666  0.04506955  0.40124220  1
  O2-  O266  1  0.41068673  0.03935735  0.72793738  1
  O2-  O267  1  0.41983111  0.55206677  0.05776721  1
  O2-  O268  1  0.41242969  0.54022565  0.39821262  1
  O2-  O269  1  0.41657736  0.54960029  0.73180971  1
  O2-  O270  1  0.91595923  0.04076880  0.06405790  1
  O2-  O271  1  0.91804051  0.04414400  0.39882659  1
  O2-  O272  1  0.92266509  0.03928436  0.73567022  1
  O2-  O273  1  0.91580779  0.54167633  0.06985766  1
  O2-  O274  1  0.91842193  0.54541838  0.40026737  1
  O2-  O275  1  0.91645872  0.54143186  0.73629970  1
  O2-  O276  1  0.28518140  0.16298718  0.06995088  1
  O2-  O277  1  0.29799173  0.16428439  0.40326130  1
  O2-  O278  1  0.29114111  0.16033538  0.72829658  1
  O2-  O279  1  0.29597200  0.66729505  0.06482301  1
  O2-  O280  1  0.30448983  0.66806283  0.39238865  1
  O2-  O281  1  0.29761627  0.66704821  0.73222845  1
  O2-  O282  1  0.80728789  0.17153634  0.05683997  1
  O2-  O283  1  0.78750676  0.16480704  0.40022069  1
  O2-  O284  1  0.80461920  0.17183618  0.73443390  1
  O2-  O285  1  0.78798948  0.66694551  0.06974230  1
  O2-  O286  1  0.79166589  0.67329085  0.39728213  1
  O2-  O287  1  0.79107238  0.67017052  0.73413789  1
