# generated using pymatgen
data_Ca2Al2SiO7
_symmetry_space_group_name_H-M   'P 1'
_cell_length_a   15.45815342
_cell_length_b   15.45987704
_cell_length_c   15.28423663
_cell_angle_alpha   89.99975073
_cell_angle_beta   89.99045134
_cell_angle_gamma   90.00251947
_symmetry_Int_Tables_number   1
_chemical_formula_structural   Ca2Al2SiO7
_chemical_formula_sum   'Ca48 Al48 Si24 O168'
_cell_volume   3652.64441135
_cell_formula_units_Z   24
loop_
 _symmetry_equiv_pos_site_id
 _symmetry_equiv_pos_as_xyz
  1  'x, y, z'
loop_
 _atom_type_symbol
 _atom_type_oxidation_number
  Ca2+  2.0
  Al0+  0.0
  Si0+  0.0
  O2-  -2.0
loop_
 _atom_site_type_symbol
 _atom_site_label
 _atom_site_symmetry_multiplicity
 _atom_site_fract_x
 _atom_site_fract_y
 _atom_site_fract_z
 _atom_site_occupancy
  Ca2+  Ca0  1  0.16287809  0.06934007  0.17061862  1
  Ca2+  Ca1  1  0.16547800  0.07724877  0.50313657  1
  Ca2+  Ca2  1  0.16289788  0.07920598  0.83793220  1
  Ca2+  Ca3  1  0.17179109  0.57709825  0.16400199  1
  Ca2+  Ca4  1  0.17372480  0.58441540  0.50982705  1
  Ca2+  Ca5  1  0.17667634  0.58572245  0.83826602  1
  Ca2+  Ca6  1  0.67624564  0.08597477  0.16960404  1
  Ca2+  Ca7  1  0.66918288  0.08957796  0.50026936  1
  Ca2+  Ca8  1  0.67341698  0.07413490  0.84456285  1
  Ca2+  Ca9  1  0.67574453  0.58256780  0.16866310  1
  Ca2+  Ca10  1  0.67344159  0.59398027  0.50325113  1
  Ca2+  Ca11  1  0.67651563  0.58234132  0.84028059  1
  Ca2+  Ca12  1  0.07786336  0.33208648  0.15507442  1
  Ca2+  Ca13  1  0.07777163  0.33029745  0.50113633  1
  Ca2+  Ca14  1  0.07249404  0.33753523  0.82976532  1
  Ca2+  Ca15  1  0.08000429  0.83564349  0.15899034  1
  Ca2+  Ca16  1  0.08567286  0.82615085  0.49784684  1
  Ca2+  Ca17  1  0.07817873  0.83005222  0.83259593  1
  Ca2+  Ca18  1  0.57846274  0.33442224  0.16173577  1
  Ca2+  Ca19  1  0.57714824  0.32956954  0.48988697  1
  Ca2+  Ca20  1  0.58216739  0.34115718  0.83811774  1
  Ca2+  Ca21  1  0.58730279  0.82834645  0.16348519  1
  Ca2+  Ca22  1  0.57270127  0.82324007  0.49403829  1
  Ca2+  Ca23  1  0.58080203  0.82674949  0.82484540  1
  Ca2+  Ca24  1  0.33570210  0.41492814  0.16496184  1
  Ca2+  Ca25  1  0.33612606  0.42151491  0.50637424  1
  Ca2+  Ca26  1  0.32919140  0.42826509  0.84497899  1
  Ca2+  Ca27  1  0.32154131  0.90929352  0.17285382  1
  Ca2+  Ca28  1  0.33314678  0.90614791  0.50119482  1
  Ca2+  Ca29  1  0.32826599  0.91512467  0.83909099  1
  Ca2+  Ca30  1  0.83261497  0.42366594  0.16841319  1
  Ca2+  Ca31  1  0.83079248  0.42551930  0.50702401  1
  Ca2+  Ca32  1  0.83451728  0.42394079  0.84158597  1
  Ca2+  Ca33  1  0.83194947  0.92484188  0.16680611  1
  Ca2+  Ca34  1  0.83106403  0.92337067  0.50077796  1
  Ca2+  Ca35  1  0.82896522  0.91993021  0.84679098  1
  Ca2+  Ca36  1  0.42142316  0.17615816  0.16306416  1
  Ca2+  Ca37  1  0.42399947  0.17441576  0.48800874  1
  Ca2+  Ca38  1  0.41452687  0.17494043  0.83279542  1
  Ca2+  Ca39  1  0.42105463  0.66726394  0.16456451  1
  Ca2+  Ca40  1  0.42506213  0.66918595  0.49564034  1
  Ca2+  Ca41  1  0.41999651  0.66737033  0.82440331  1
  Ca2+  Ca42  1  0.91189102  0.16858102  0.15751138  1
  Ca2+  Ca43  1  0.91741719  0.17063782  0.49819035  1
  Ca2+  Ca44  1  0.91833986  0.17714600  0.83008771  1
  Ca2+  Ca45  1  0.91246926  0.67022647  0.15816444  1
  Ca2+  Ca46  1  0.92058281  0.65840960  0.49805537  1
  Ca2+  Ca47  1  0.91729864  0.66666453  0.82846784  1
  Al0+  Al48  1  0.00022235  -0.00150520  0.00181068  1
  Al0+  Al49  1  0.00016329  -0.00135662  0.34445238  1
  Al0+  Al50  1  0.00019424  0.00117219  0.66402471  1
  Al0+  Al51  1  0.00373590  0.50030341  0.00217623  1
  Al0+  Al52  1  0.00115472  0.49896093  0.33726312  1
  Al0+  Al53  1  -0.00115681  0.50009358  0.66162385  1
  Al0+  Al54  1  0.49979376  -0.00063658  0.00268597  1
  Al0+  Al55  1  0.49849775  0.00049538  0.32464483  1
  Al0+  Al56  1  0.49779120  0.00081205  0.66421620  1
  Al0+  Al57  1  0.50156884  0.50087135  0.00230537  1
  Al0+  Al58  1  0.50017550  0.50097020  0.32612853  1
  Al0+  Al59  1  0.50131468  0.50044614  0.66630484  1
  Al0+  Al60  1  0.25154476  0.24986130  -0.00223652  1
  Al0+  Al61  1  0.24716909  0.24740818  0.33019635  1
  Al0+  Al62  1  0.24853185  0.24765139  0.66327825  1
  Al0+  Al63  1  0.25108531  0.74992318  0.00746113  1
  Al0+  Al64  1  0.24843672  0.74657767  0.33423049  1
  Al0+  Al65  1  0.24725556  0.75052985  0.66569946  1
  Al0+  Al66  1  0.74991143  0.25031414  0.00033777  1
  Al0+  Al67  1  0.75070525  0.25169276  0.33539703  1
  Al0+  Al68  1  0.74946320  0.25085463  0.66470751  1
  Al0+  Al69  1  0.75014294  0.75126160  0.00136743  1
  Al0+  Al70  1  0.75149888  0.75207746  0.33532894  1
  Al0+  Al71  1  0.74953782  0.75181769  0.66705833  1
  Al0+  Al72  1  0.17975044  0.42728832  0.01328068  1
  Al0+  Al73  1  0.82122615  0.57205751  0.34868431  1
  Al0+  Al74  1  0.57254689  0.67767209  0.65273292  1
  Al0+  Al75  1  0.42768237  0.82180288  0.65344982  1
  Al0+  Al76  1  0.32116574  0.57085876  0.67869329  1
  Al0+  Al77  1  0.92898406  0.82042002  0.98798071  1
  Al0+  Al78  1  0.92727199  0.32160449  0.64983406  1
  Al0+  Al79  1  0.57426704  0.68059120  0.31496881  1
  Al0+  Al80  1  0.67951355  0.42899492  0.01549231  1
  Al0+  Al81  1  0.07123815  0.17742992  0.65024904  1
  Al0+  Al82  1  0.82350058  0.57144961  0.01370057  1
  Al0+  Al83  1  0.57420203  0.17916555  0.31651026  1
  Al0+  Al84  1  0.42642194  0.81921896  0.31580528  1
  Al0+  Al85  1  0.42964712  0.32173301  0.98353214  1
  Al0+  Al86  1  0.92879477  0.32236816  0.98790458  1
  Al0+  Al87  1  0.82093329  0.57140601  0.68082149  1
  Al0+  Al88  1  0.32290009  0.57183932  0.01646683  1
  Al0+  Al89  1  0.81941701  0.07235147  0.34968502  1
  Al0+  Al90  1  0.67651806  0.92733665  0.01498683  1
  Al0+  Al91  1  0.06885572  0.68008396  0.65444154  1
  Al0+  Al92  1  0.18048861  0.92713059  0.35073761  1
  Al0+  Al93  1  0.18059997  0.93068025  0.01193509  1
  Al0+  Al94  1  0.82101760  0.07060431  0.01255996  1
  Al0+  Al95  1  0.42649758  0.32158445  0.31744592  1
  Si0+  Si96  1  0.92667850  0.82369839  0.64927646  1
  Si0+  Si97  1  0.07011295  0.67656737  0.31747075  1
  Si0+  Si98  1  0.32114872  0.07213285  0.34937149  1
  Si0+  Si99  1  0.82096319  0.07201197  0.68228891  1
  Si0+  Si100  1  0.32050660  0.56787873  0.34908443  1
  Si0+  Si101  1  0.67765540  0.42544252  0.68300964  1
  Si0+  Si102  1  0.56960804  0.17814990  0.65344421  1
  Si0+  Si103  1  0.17835631  0.92931856  0.68279774  1
  Si0+  Si104  1  0.93152927  0.82185866  0.32027126  1
  Si0+  Si105  1  0.67753123  0.43020958  0.35026167  1
  Si0+  Si106  1  0.57125966  0.68038818  0.98414844  1
  Si0+  Si107  1  0.06846131  0.17629490  0.31770445  1
  Si0+  Si108  1  0.32156874  0.07217617  0.68134697  1
  Si0+  Si109  1  0.07405968  0.67881331  0.98475817  1
  Si0+  Si110  1  0.07210898  0.17669762  0.98517965  1
  Si0+  Si111  1  0.17818527  0.42589739  0.34978676  1
  Si0+  Si112  1  0.32361744  0.07352085  0.01697833  1
  Si0+  Si113  1  0.57177756  0.17709200  0.98135442  1
  Si0+  Si114  1  0.17895400  0.42580395  0.68165083  1
  Si0+  Si115  1  0.93139331  0.32105925  0.31802141  1
  Si0+  Si116  1  0.67794796  0.93168731  0.67959978  1
  Si0+  Si117  1  0.67581547  0.92871556  0.35136087  1
  Si0+  Si118  1  0.42886584  0.32095370  0.65366951  1
  Si0+  Si119  1  0.42712078  0.82100610  0.98564031  1
  O2-  O120  1  0.25478164  0.00471235  0.06038780  1
  O2-  O121  1  0.25871715  -0.00100591  0.39677731  1
  O2-  O122  1  0.25010069  0.00094095  0.72315115  1
  O2-  O123  1  0.25334803  0.49639087  0.06533581  1
  O2-  O124  1  0.25375181  0.49239893  0.39129944  1
  O2-  O125  1  0.24791693  0.49444205  0.72512769  1
  O2-  O126  1  0.74762741  0.00072211  0.06358920  1
  O2-  O127  1  0.74056049  0.00139099  0.39675402  1
  O2-  O128  1  0.75081004  0.00012035  0.72328174  1
  O2-  O129  1  0.75426220  0.49796175  0.06526738  1
  O2-  O130  1  0.74286554  0.50122153  0.39583937  1
  O2-  O131  1  0.74608661  0.49576808  0.72496391  1
  O2-  O132  1  -0.00173068  0.24688800  0.27464157  1
  O2-  O133  1  -0.00084785  0.24891758  0.59962029  1
  O2-  O134  1  0.00558141  0.24821403  0.94232583  1
  O2-  O135  1  -0.00170958  0.74723347  0.27707004  1
  O2-  O136  1  -0.00786717  0.75180264  0.60512207  1
  O2-  O137  1  0.00139152  0.74363067  0.94088677  1
  O2-  O138  1  0.50052607  0.25071274  0.26881517  1
  O2-  O139  1  0.50061390  0.25108181  0.61139569  1
  O2-  O140  1  0.50367495  0.24616270  0.93576366  1
  O2-  O141  1  0.50246031  0.75274861  0.26418575  1
  O2-  O142  1  0.49760382  0.74766860  0.60427252  1
  O2-  O143  1  0.49966306  0.75208948  0.94295524  1
  O2-  O144  1  0.07059678  0.17531948  0.09111856  1
  O2-  O145  1  0.06877015  0.17843597  0.42276988  1
  O2-  O146  1  0.06990515  0.17479494  0.76360202  1
  O2-  O147  1  0.07522829  0.68113266  0.09069743  1
  O2-  O148  1  0.07076408  0.67663892  0.42288429  1
  O2-  O149  1  0.07116874  0.68378220  0.76720550  1
  O2-  O150  1  0.57041592  0.17648103  0.08642804  1
  O2-  O151  1  0.57238599  0.18276311  0.43152458  1
  O2-  O152  1  0.56804935  0.17477227  0.75817276  1
  O2-  O153  1  0.57195583  0.68168825  0.08901540  1
  O2-  O154  1  0.57271315  0.68115691  0.42874099  1
  O2-  O155  1  0.57314355  0.68030087  0.76655407  1
  O2-  O156  1  0.17443795  0.42788631  0.24522684  1
  O2-  O157  1  0.18258349  0.42528288  0.57537138  1
  O2-  O158  1  0.17978444  0.42946101  0.89949048  1
  O2-  O159  1  0.17736529  0.92959444  0.23777749  1
  O2-  O160  1  0.17854495  0.92944057  0.57774729  1
  O2-  O161  1  0.18169714  0.93093701  0.89841735  1
  O2-  O162  1  0.68133499  0.42832519  0.24515508  1
  O2-  O163  1  0.67720290  0.42096891  0.57746932  1
  O2-  O164  1  0.67917981  0.43308644  0.90135613  1
  O2-  O165  1  0.68152991  0.92667797  0.24629101  1
  O2-  O166  1  0.67808497  0.93504721  0.57463072  1
  O2-  O167  1  0.67629664  0.92880123  0.90033547  1
  O2-  O168  1  0.42991364  0.31793157  0.09597740  1
  O2-  O169  1  0.42703803  0.32049004  0.43234578  1
  O2-  O170  1  0.42812404  0.31962444  0.75850807  1
  O2-  O171  1  0.42542168  0.81871523  0.09023684  1
  O2-  O172  1  0.42614522  0.81405856  0.42957402  1
  O2-  O173  1  0.43010419  0.82444884  0.76739137  1
  O2-  O174  1  0.93078191  0.32048558  0.10144659  1
  O2-  O175  1  0.93412236  0.32119161  0.42309631  1
  O2-  O176  1  0.92751347  0.32029257  0.76339896  1
  O2-  O177  1  0.93229677  0.82192514  0.10140747  1
  O2-  O178  1  0.93366702  0.82223036  0.42574685  1
  O2-  O179  1  0.92853323  0.82654941  0.75476702  1
  O2-  O180  1  0.31427196  0.07505694  0.24426755  1
  O2-  O181  1  0.32334607  0.07430898  0.57665449  1
  O2-  O182  1  0.32382887  0.07213741  0.91061972  1
  O2-  O183  1  0.31726346  0.56949322  0.24441567  1
  O2-  O184  1  0.32031937  0.56780100  0.56512777  1
  O2-  O185  1  0.32087293  0.57411112  0.90236904  1
  O2-  O186  1  0.82322407  0.07007771  0.23725750  1
  O2-  O187  1  0.81892963  0.07185903  0.57698503  1
  O2-  O188  1  0.82029791  0.06872000  0.89831246  1
  O2-  O189  1  0.82489767  0.56922189  0.23620637  1
  O2-  O190  1  0.81952744  0.57000887  0.56751746  1
  O2-  O191  1  0.82157510  0.57202284  0.89991784  1
  O2-  O192  1  0.03982782  0.08298679  0.27441290  1
  O2-  O193  1  0.04253671  0.07957504  0.59544901  1
  O2-  O194  1  0.04371994  0.08460199  0.93751750  1
  O2-  O195  1  0.04312510  0.58402612  0.27144384  1
  O2-  O196  1  0.04334295  0.58359538  0.59742630  1
  O2-  O197  1  0.05470868  0.58398242  0.93969563  1
  O2-  O198  1  0.54965160  0.08052244  0.26353610  1
  O2-  O199  1  0.53995098  0.08875292  0.60255313  1
  O2-  O200  1  0.54427436  0.08305337  0.93541861  1
  O2-  O201  1  0.54658433  0.58211122  0.26306590  1
  O2-  O202  1  0.54763178  0.57843523  0.59907189  1
  O2-  O203  1  0.54361113  0.58872232  0.93733332  1
  O2-  O204  1  0.15996547  0.20202880  0.26948892  1
  O2-  O205  1  0.16991929  0.20421857  0.59520968  1
  O2-  O206  1  0.16698587  0.19724174  0.93952608  1
  O2-  O207  1  0.16107696  0.70485280  0.27007885  1
  O2-  O208  1  0.16321053  0.71390632  0.59724504  1
  O2-  O209  1  0.16636313  0.71083115  0.93898815  1
  O2-  O210  1  0.67292786  0.20922116  0.26554533  1
  O2-  O211  1  0.66181366  0.20419484  0.60598985  1
  O2-  O212  1  0.66517845  0.20238772  0.93468290  1
  O2-  O213  1  0.67380726  0.71013237  0.26442745  1
  O2-  O214  1  0.66925657  0.71129531  0.59905666  1
  O2-  O215  1  0.66248737  0.70948749  0.93630727  1
  O2-  O216  1  0.08401032  0.45734522  0.07045654  1
  O2-  O217  1  0.08942721  0.45880827  0.40055475  1
  O2-  O218  1  0.08420566  0.45192192  0.72335681  1
  O2-  O219  1  0.08538653  0.96144848  0.06821731  1
  O2-  O220  1  0.08673976  0.96112837  0.40827183  1
  O2-  O221  1  0.08612786  0.95853571  0.72909168  1
  O2-  O222  1  0.58267451  0.45891620  0.06907795  1
  O2-  O223  1  0.58138041  0.45193148  0.39339062  1
  O2-  O224  1  0.58368420  0.45009327  0.72853689  1
  O2-  O225  1  0.57747169  0.95187311  0.06779825  1
  O2-  O226  1  0.57910274  0.95011551  0.39273256  1
  O2-  O227  1  0.58645583  0.96135989  0.72705419  1
  O2-  O228  1  0.20499893  0.32749619  0.06538934  1
  O2-  O229  1  0.20062596  0.33166384  0.39531142  1
  O2-  O230  1  0.20277667  0.33141340  0.72655867  1
  O2-  O231  1  0.21031850  0.83583676  0.06906670  1
  O2-  O232  1  0.20865765  0.82862029  0.40323377  1
  O2-  O233  1  0.20534862  0.83828253  0.73118354  1
  O2-  O234  1  0.70271221  0.32913341  0.06629918  1
  O2-  O235  1  0.70588872  0.33794304  0.39832866  1
  O2-  O236  1  0.70271727  0.33199642  0.73071266  1
  O2-  O237  1  0.70761154  0.83133093  0.06905653  1
  O2-  O238  1  0.70754853  0.83795478  0.40033951  1
  O2-  O239  1  0.70368672  0.83968718  0.72731035  1
  O2-  O240  1  0.45212315  0.41976776  0.26452133  1
  O2-  O241  1  0.45581890  0.41232674  0.60524298  1
  O2-  O242  1  0.46167639  0.41901561  0.93094115  1
  O2-  O243  1  0.44327686  0.92117882  0.26652119  1
  O2-  O244  1  0.45643925  0.91983390  0.59843960  1
  O2-  O245  1  0.45027673  0.91511799  0.93997422  1
  O2-  O246  1  0.96413360  0.41173227  0.27166762  1
  O2-  O247  1  0.95682963  0.41829640  0.59448702  1
  O2-  O248  1  0.96177287  0.41872062  0.93367732  1
  O2-  O249  1  0.96452769  0.91287032  0.27495426  1
  O2-  O250  1  0.95597831  0.91553915  0.60159744  1
  O2-  O251  1  0.96299315  0.91563031  0.93204441  1
  O2-  O252  1  0.32781938  0.29107409  0.26557978  1
  O2-  O253  1  0.33777225  0.29242636  0.60543863  1
  O2-  O254  1  0.33323503  0.29001845  0.92819930  1
  O2-  O255  1  0.32841546  0.78497306  0.26460980  1
  O2-  O256  1  0.32846477  0.79631582  0.60219809  1
  O2-  O257  1  0.33543421  0.79143646  0.93830488  1
  O2-  O258  1  0.83773438  0.29736274  0.27410770  1
  O2-  O259  1  0.82910486  0.29159476  0.59611002  1
  O2-  O260  1  0.83265396  0.29172875  0.93281665  1
  O2-  O261  1  0.83829447  0.79939187  0.27464803  1
  O2-  O262  1  0.83197742  0.80289170  0.60420730  1
  O2-  O263  1  0.83174404  0.79337751  0.93283125  1
  O2-  O264  1  0.41663804  0.04921458  0.06328527  1
  O2-  O265  1  0.41838030  0.05406189  0.39104983  1
  O2-  O266  1  0.41278683  0.04453326  0.73060686  1
  O2-  O267  1  0.42081696  0.54496274  0.06871588  1
  O2-  O268  1  0.41463582  0.54389503  0.39394456  1
  O2-  O269  1  0.41860250  0.54218168  0.73199282  1
  O2-  O270  1  0.91810144  0.04111587  0.06685520  1
  O2-  O271  1  0.91318647  0.03686829  0.40720856  1
  O2-  O272  1  0.91394018  0.04510078  0.72690067  1
  O2-  O273  1  0.92321294  0.54859707  0.06533394  1
  O2-  O274  1  0.91723741  0.53665737  0.40277183  1
  O2-  O275  1  0.91928291  0.54179316  0.73195927  1
  O2-  O276  1  0.29882099  0.16691604  0.06219384  1
  O2-  O277  1  0.28964789  0.16383144  0.39796040  1
  O2-  O278  1  0.29261370  0.16347031  0.73018959  1
  O2-  O279  1  0.29077901  0.66716189  0.07276791  1
  O2-  O280  1  0.28678763  0.65709772  0.39767651  1
  O2-  O281  1  0.28774622  0.66713081  0.73195378  1
  O2-  O282  1  0.79325899  0.16839589  0.06575955  1
  O2-  O283  1  0.79164638  0.17008266  0.40446303  1
  O2-  O284  1  0.79190868  0.16389982  0.72836438  1
  O2-  O285  1  0.79199843  0.66866072  0.06643592  1
  O2-  O286  1  0.79586922  0.67081177  0.40184498  1
  O2-  O287  1  0.79283780  0.67013992  0.73290941  1
