# generated using pymatgen
data_Ca2Al2SiO7
_symmetry_space_group_name_H-M   'P 1'
_cell_length_a   15.45726151
_cell_length_b   15.45792954
_cell_length_c   15.28328698
_cell_angle_alpha   90.00115177
_cell_angle_beta   90.00161421
_cell_angle_gamma   90.01407813
_symmetry_Int_Tables_number   1
_chemical_formula_structural   Ca2Al2SiO7
_chemical_formula_sum   'Ca48 Al48 Si24 O168'
_cell_volume   3651.74659139
_cell_formula_units_Z   24
loop_
 _symmetry_equiv_pos_site_id
 _symmetry_equiv_pos_as_xyz
  1  'x, y, z'
loop_
 _atom_type_symbol
 _atom_type_oxidation_number
  Ca2+  2.0
  Al0+  0.0
  Si0+  0.0
  O2-  -2.0
loop_
 _atom_site_type_symbol
 _atom_site_label
 _atom_site_symmetry_multiplicity
 _atom_site_fract_x
 _atom_site_fract_y
 _atom_site_fract_z
 _atom_site_occupancy
  Ca2+  Ca0  1  0.17190383  0.08743925  0.16791614  1
  Ca2+  Ca1  1  0.16770207  0.08415586  0.50003102  1
  Ca2+  Ca2  1  0.16610857  0.07278573  0.84351831  1
  Ca2+  Ca3  1  0.17411166  0.57755129  0.17106382  1
  Ca2+  Ca4  1  0.16783942  0.57215110  0.50968043  1
  Ca2+  Ca5  1  0.17202416  0.58244941  0.83437719  1
  Ca2+  Ca6  1  0.66686340  0.08105160  0.16799533  1
  Ca2+  Ca7  1  0.67240763  0.08229814  0.50922222  1
  Ca2+  Ca8  1  0.67891997  0.07561064  0.83737096  1
  Ca2+  Ca9  1  0.67056827  0.58957858  0.16369615  1
  Ca2+  Ca10  1  0.67055746  0.57303053  0.50661439  1
  Ca2+  Ca11  1  0.66970366  0.57883372  0.84073362  1
  Ca2+  Ca12  1  0.08965940  0.32220225  0.16672482  1
  Ca2+  Ca13  1  0.07581028  0.33505456  0.49175648  1
  Ca2+  Ca14  1  0.07820459  0.32752318  0.82628193  1
  Ca2+  Ca15  1  0.07761699  0.83991858  0.16185680  1
  Ca2+  Ca16  1  0.08322958  0.82991999  0.50011193  1
  Ca2+  Ca17  1  0.09075490  0.82989766  0.82580546  1
  Ca2+  Ca18  1  0.57756199  0.32636115  0.16724149  1
  Ca2+  Ca19  1  0.57827952  0.32810311  0.49215208  1
  Ca2+  Ca20  1  0.58360591  0.33509084  0.82732650  1
  Ca2+  Ca21  1  0.57682814  0.83024866  0.15227415  1
  Ca2+  Ca22  1  0.58450961  0.83388865  0.49692408  1
  Ca2+  Ca23  1  0.58288343  0.83621422  0.83477144  1
  Ca2+  Ca24  1  0.33102659  0.41806322  0.17332829  1
  Ca2+  Ca25  1  0.32062502  0.41411093  0.50405075  1
  Ca2+  Ca26  1  0.32886394  0.42822231  0.83579074  1
  Ca2+  Ca27  1  0.33233683  0.92428543  0.16567938  1
  Ca2+  Ca28  1  0.32823613  0.92557358  0.50507470  1
  Ca2+  Ca29  1  0.32273135  0.91774831  0.84285917  1
  Ca2+  Ca30  1  0.83926996  0.42215638  0.16932572  1
  Ca2+  Ca31  1  0.83037406  0.40703559  0.50761231  1
  Ca2+  Ca32  1  0.83207082  0.41828325  0.83428656  1
  Ca2+  Ca33  1  0.83151577  0.92000988  0.16740055  1
  Ca2+  Ca34  1  0.83100465  0.92399053  0.50778631  1
  Ca2+  Ca35  1  0.82772214  0.92638429  0.84071802  1
  Ca2+  Ca36  1  0.41188689  0.16621513  0.16526636  1
  Ca2+  Ca37  1  0.42289139  0.17049218  0.48641843  1
  Ca2+  Ca38  1  0.41694345  0.16225369  0.83344052  1
  Ca2+  Ca39  1  0.42130100  0.67195193  0.15137685  1
  Ca2+  Ca40  1  0.41482405  0.66461571  0.50078271  1
  Ca2+  Ca41  1  0.41300777  0.66843821  0.83276945  1
  Ca2+  Ca42  1  0.92879244  0.16697580  0.16051505  1
  Ca2+  Ca43  1  0.92019019  0.17521217  0.49392554  1
  Ca2+  Ca44  1  0.91744748  0.16368798  0.82911313  1
  Ca2+  Ca45  1  0.91517548  0.67190565  0.16164916  1
  Ca2+  Ca46  1  0.92423672  0.67287914  0.49599322  1
  Ca2+  Ca47  1  0.92233398  0.66597786  0.82792342  1
  Al0+  Al48  1  -0.00112297  0.00054503  0.00180613  1
  Al0+  Al49  1  -0.00108486  -0.00081694  0.32779719  1
  Al0+  Al50  1  0.00125560  0.00030277  0.67148001  1
  Al0+  Al51  1  -0.00202889  0.49938220  0.00398496  1
  Al0+  Al52  1  0.00099459  0.50324887  0.33371114  1
  Al0+  Al53  1  0.00040765  0.49909157  0.66139762  1
  Al0+  Al54  1  0.49878786  0.00063385  0.00022462  1
  Al0+  Al55  1  0.50015387  -0.00189577  0.33478702  1
  Al0+  Al56  1  0.50068405  -0.00102332  0.66770712  1
  Al0+  Al57  1  0.49980225  0.49956590  0.00035644  1
  Al0+  Al58  1  0.50295599  0.50044239  0.33013256  1
  Al0+  Al59  1  0.50056641  0.50082159  0.67178488  1
  Al0+  Al60  1  0.24809755  0.24893775  -0.00543460  1
  Al0+  Al61  1  0.25038393  0.25146853  0.33598001  1
  Al0+  Al62  1  0.25030699  0.25122965  0.67015523  1
  Al0+  Al63  1  0.24931328  0.74906066  0.00596889  1
  Al0+  Al64  1  0.25081746  0.75050950  0.33414177  1
  Al0+  Al65  1  0.25149466  0.75121382  0.66511144  1
  Al0+  Al66  1  0.74912203  0.25109665  0.00394273  1
  Al0+  Al67  1  0.74971599  0.25047345  0.32494923  1
  Al0+  Al68  1  0.74995967  0.24970784  0.67172522  1
  Al0+  Al69  1  0.74964499  0.74794477  0.00154278  1
  Al0+  Al70  1  0.75097926  0.75016035  0.33183316  1
  Al0+  Al71  1  0.74821293  0.74949769  0.66670055  1
  Al0+  Al72  1  0.82129617  0.07118324  0.67980921  1
  Al0+  Al73  1  0.57154105  0.67835448  0.98212196  1
  Al0+  Al74  1  0.67697800  0.92637567  0.68133712  1
  Al0+  Al75  1  0.32043751  0.57092703  0.68101206  1
  Al0+  Al76  1  0.32070933  0.56964081  0.01480677  1
  Al0+  Al77  1  0.17784831  0.92712222  0.01662345  1
  Al0+  Al78  1  0.92930628  0.31868672  0.65443691  1
  Al0+  Al79  1  0.17989825  0.43057758  0.34676105  1
  Al0+  Al80  1  0.67968912  0.42897002  0.67851737  1
  Al0+  Al81  1  0.42871973  0.32147829  0.31935946  1
  Al0+  Al82  1  0.67952876  0.92921854  0.01593933  1
  Al0+  Al83  1  0.82098782  0.56931454  0.01313807  1
  Al0+  Al84  1  0.18081172  0.93083312  0.67783115  1
  Al0+  Al85  1  0.07109965  0.17942699  0.31892565  1
  Al0+  Al86  1  0.92777431  0.32426823  0.31679000  1
  Al0+  Al87  1  0.42750065  0.82196534  0.98350062  1
  Al0+  Al88  1  0.06981376  0.17896738  0.98332884  1
  Al0+  Al89  1  0.07250867  0.67985832  0.65332257  1
  Al0+  Al90  1  0.32086832  0.06977993  0.34792427  1
  Al0+  Al91  1  0.82126482  0.07289696  0.01868451  1
  Al0+  Al92  1  0.57108988  0.17593857  0.31809707  1
  Al0+  Al93  1  0.32020451  0.07266996  0.01444180  1
  Al0+  Al94  1  0.17527894  0.42722438  0.68304936  1
  Al0+  Al95  1  0.92918549  0.81985693  0.31964151  1
  Si0+  Si96  1  0.32516587  0.57343540  0.34963120  1
  Si0+  Si97  1  0.92719528  0.32318983  0.98266449  1
  Si0+  Si98  1  0.17592259  0.92711905  0.35131214  1
  Si0+  Si99  1  0.43002801  0.82118113  0.64961656  1
  Si0+  Si100  1  0.42930277  0.32327239  0.65306805  1
  Si0+  Si101  1  0.07006262  0.67737121  0.98662297  1
  Si0+  Si102  1  0.42871608  0.82030124  0.31949555  1
  Si0+  Si103  1  0.07361360  0.67939476  0.31546015  1
  Si0+  Si104  1  0.07376589  0.17595300  0.65035254  1
  Si0+  Si105  1  0.57146796  0.67960994  0.31904722  1
  Si0+  Si106  1  0.82117310  0.07158742  0.34729193  1
  Si0+  Si107  1  0.57208154  0.17951745  0.98287545  1
  Si0+  Si108  1  0.17765940  0.42806219  0.01635026  1
  Si0+  Si109  1  0.82045231  0.57299801  0.34970226  1
  Si0+  Si110  1  0.92892029  0.82009560  0.98410635  1
  Si0+  Si111  1  0.32339700  0.07339916  0.68203226  1
  Si0+  Si112  1  0.56908199  0.17952453  0.65403868  1
  Si0+  Si113  1  0.82253746  0.57263197  0.68015857  1
  Si0+  Si114  1  0.42836792  0.32099685  0.98286290  1
  Si0+  Si115  1  0.57190085  0.67707352  0.65014190  1
  Si0+  Si116  1  0.92687994  0.82273652  0.65219944  1
  Si0+  Si117  1  0.68022506  0.42887287  0.34738126  1
  Si0+  Si118  1  0.68010751  0.92807918  0.34835293  1
  Si0+  Si119  1  0.67597344  0.42745932  0.01975000  1
  O2-  O120  1  0.24940355  0.00009725  0.06522580  1
  O2-  O121  1  0.24439063  -0.00343010  0.39484652  1
  O2-  O122  1  0.25110841  0.00875551  0.72492308  1
  O2-  O123  1  0.24749830  0.49465486  0.06203680  1
  O2-  O124  1  0.25606540  0.50527046  0.39278654  1
  O2-  O125  1  0.24723457  0.50021353  0.73117172  1
  O2-  O126  1  0.74892262  0.00141813  0.06933125  1
  O2-  O127  1  0.74855552  0.00174398  0.39019437  1
  O2-  O128  1  0.75287283  -0.00510149  0.72861916  1
  O2-  O129  1  0.74585447  0.49597734  0.06217533  1
  O2-  O130  1  0.75491371  0.49618814  0.39084125  1
  O2-  O131  1  0.75417386  0.50391559  0.72416689  1
  O2-  O132  1  -0.00029540  0.25213836  0.26787453  1
  O2-  O133  1  0.00644396  0.24659568  0.60718378  1
  O2-  O134  1  -0.00758655  0.25196975  0.93796169  1
  O2-  O135  1  0.00666595  0.74915203  0.27086579  1
  O2-  O136  1  -0.00422502  0.75403776  0.60768213  1
  O2-  O137  1  0.00243995  0.75107263  0.94275239  1
  O2-  O138  1  0.49672802  0.24601753  0.26829961  1
  O2-  O139  1  0.49648702  0.24838531  0.61087195  1
  O2-  O140  1  0.50021888  0.25027414  0.94061448  1
  O2-  O141  1  0.49626634  0.74596856  0.27818875  1
  O2-  O142  1  0.50285332  0.75053917  0.60773324  1
  O2-  O143  1  0.49959822  0.75022917  0.93176042  1
  O2-  O144  1  0.07256649  0.18239875  0.09620760  1
  O2-  O145  1  0.06810831  0.17792842  0.43293002  1
  O2-  O146  1  0.07264031  0.17537878  0.75572866  1
  O2-  O147  1  0.06675742  0.67581116  0.09179228  1
  O2-  O148  1  0.07254277  0.68009033  0.42121165  1
  O2-  O149  1  0.07126618  0.68129120  0.76680127  1
  O2-  O150  1  0.57255712  0.18130210  0.08778924  1
  O2-  O151  1  0.57248853  0.17826542  0.43263928  1
  O2-  O152  1  0.56759109  0.18043111  0.75914670  1
  O2-  O153  1  0.56973978  0.67958270  0.09669498  1
  O2-  O154  1  0.57324505  0.67990924  0.42460825  1
  O2-  O155  1  0.57293928  0.67438520  0.75416847  1
  O2-  O156  1  0.18193720  0.43346264  0.23348289  1
  O2-  O157  1  0.17714679  0.42697344  0.56927481  1
  O2-  O158  1  0.17723740  0.43095472  0.91084583  1
  O2-  O159  1  0.17744132  0.92396528  0.24641801  1
  O2-  O160  1  0.18272763  0.93075967  0.56437551  1
  O2-  O161  1  0.17883752  0.92667631  0.90269222  1
  O2-  O162  1  0.67718155  0.43276372  0.24278353  1
  O2-  O163  1  0.67885341  0.42934363  0.56491905  1
  O2-  O164  1  0.67615088  0.42684336  0.91387585  1
  O2-  O165  1  0.68094959  0.92515471  0.24396188  1
  O2-  O166  1  0.67648507  0.92909589  0.56678581  1
  O2-  O167  1  0.68293551  0.93070439  0.90248935  1
  O2-  O168  1  0.42895204  0.32165556  0.08786300  1
  O2-  O169  1  0.43277124  0.32224937  0.43353318  1
  O2-  O170  1  0.43172995  0.32351977  0.75829632  1
  O2-  O171  1  0.42930151  0.81939204  0.09790515  1
  O2-  O172  1  0.43031951  0.82029016  0.42511776  1
  O2-  O173  1  0.42879179  0.82204671  0.75382463  1
  O2-  O174  1  0.93032631  0.32539264  0.08796838  1
  O2-  O175  1  0.92574875  0.32053443  0.43069360  1
  O2-  O176  1  0.92827560  0.31818821  0.76737308  1
  O2-  O177  1  0.92870382  0.81755401  0.08955288  1
  O2-  O178  1  0.92711661  0.81745414  0.43303009  1
  O2-  O179  1  0.92596478  0.82048838  0.75755222  1
  O2-  O180  1  0.32233871  0.06632959  0.23567124  1
  O2-  O181  1  0.32630655  0.07153514  0.57623385  1
  O2-  O182  1  0.31801769  0.07254457  0.90041096  1
  O2-  O183  1  0.32492010  0.57456173  0.24423087  1
  O2-  O184  1  0.32152455  0.56829588  0.56694831  1
  O2-  O185  1  0.31862950  0.56888315  0.90200835  1
  O2-  O186  1  0.82056672  0.06888589  0.24278148  1
  O2-  O187  1  0.81877566  0.07204617  0.56537639  1
  O2-  O188  1  0.81989544  0.07160566  0.90501257  1
  O2-  O189  1  0.81695882  0.57594137  0.24481644  1
  O2-  O190  1  0.81923369  0.57462802  0.57417447  1
  O2-  O191  1  0.82337321  0.56652834  0.89993475  1
  O2-  O192  1  0.04377908  0.08120762  0.26542370  1
  O2-  O193  1  0.04772250  0.08230738  0.60396663  1
  O2-  O194  1  0.03893902  0.08116562  0.93129297  1
  O2-  O195  1  0.04594245  0.58730864  0.26847997  1
  O2-  O196  1  0.04153572  0.58443897  0.59687115  1
  O2-  O197  1  0.03871848  0.58639062  0.93899355  1
  O2-  O198  1  0.54483172  0.07635412  0.26714051  1
  O2-  O199  1  0.54388282  0.08697311  0.60579087  1
  O2-  O200  1  0.54433340  0.08815751  0.93521633  1
  O2-  O201  1  0.54980393  0.58709001  0.27079298  1
  O2-  O202  1  0.54073227  0.58616935  0.60120299  1
  O2-  O203  1  0.54413471  0.57813800  0.93212893  1
  O2-  O204  1  0.16954687  0.20920968  0.26764280  1
  O2-  O205  1  0.16946113  0.19946846  0.60670154  1
  O2-  O206  1  0.16523034  0.21036881  0.92681827  1
  O2-  O207  1  0.16889503  0.70209911  0.27107741  1
  O2-  O208  1  0.16761930  0.71287753  0.59691182  1
  O2-  O209  1  0.16309096  0.70250447  0.94145249  1
  O2-  O210  1  0.66663822  0.20711745  0.26210065  1
  O2-  O211  1  0.66044197  0.20943674  0.60741382  1
  O2-  O212  1  0.66381823  0.20968958  0.93593573  1
  O2-  O213  1  0.66149926  0.71133404  0.27098901  1
  O2-  O214  1  0.66402528  0.70236598  0.60027656  1
  O2-  O215  1  0.67147779  0.70440384  0.93105150  1
  O2-  O216  1  0.08508145  0.45469313  0.06317047  1
  O2-  O217  1  0.08328537  0.46369706  0.40084576  1
  O2-  O218  1  0.07659650  0.45612741  0.73412375  1
  O2-  O219  1  0.07923310  0.95537262  0.06758507  1
  O2-  O220  1  0.08123622  0.95199254  0.39572141  1
  O2-  O221  1  0.08354208  0.95386815  0.73330902  1
  O2-  O222  1  0.58321699  0.45411197  0.06622620  1
  O2-  O223  1  0.58988066  0.46100004  0.39670193  1
  O2-  O224  1  0.58531821  0.46044247  0.73538589  1
  O2-  O225  1  0.58008553  0.95642202  0.06654137  1
  O2-  O226  1  0.58755631  0.95191439  0.39637425  1
  O2-  O227  1  0.58007361  0.95761407  0.73461688  1
  O2-  O228  1  0.20504232  0.33421937  0.05933824  1
  O2-  O229  1  0.20921500  0.33508135  0.40323792  1
  O2-  O230  1  0.20464664  0.32945757  0.73673322  1
  O2-  O231  1  0.20373580  0.82934842  0.07176189  1
  O2-  O232  1  0.20390344  0.83343430  0.39781070  1
  O2-  O233  1  0.21501982  0.83584935  0.73149403  1
  O2-  O234  1  0.70017205  0.33429304  0.06638013  1
  O2-  O235  1  0.70419798  0.33504199  0.39289624  1
  O2-  O236  1  0.70901996  0.33449315  0.73618559  1
  O2-  O237  1  0.70756926  0.83021487  0.06750170  1
  O2-  O238  1  0.71083394  0.83690891  0.39685320  1
  O2-  O239  1  0.69873270  0.82572359  0.73152590  1
  O2-  O240  1  0.46168336  0.41867921  0.26502035  1
  O2-  O241  1  0.46112340  0.41363103  0.60550872  1
  O2-  O242  1  0.45819324  0.41218068  0.93537389  1
  O2-  O243  1  0.45983411  0.91010114  0.27181220  1
  O2-  O244  1  0.45873397  0.91304692  0.60088234  1
  O2-  O245  1  0.45409388  0.92135003  0.93116456  1
  O2-  O246  1  0.95407368  0.42510618  0.26776812  1
  O2-  O247  1  0.95403949  0.41620893  0.59847451  1
  O2-  O248  1  0.95551137  0.41641254  0.93629921  1
  O2-  O249  1  0.95581020  0.91586632  0.26358477  1
  O2-  O250  1  0.95379167  0.91635327  0.60625278  1
  O2-  O251  1  0.95333403  0.91300738  0.93838416  1
  O2-  O252  1  0.32991528  0.29725034  0.26737795  1
  O2-  O253  1  0.33554063  0.29905331  0.60751172  1
  O2-  O254  1  0.33733185  0.29390519  0.93379588  1
  O2-  O255  1  0.33544952  0.79707752  0.27298009  1
  O2-  O256  1  0.34027591  0.79192712  0.59880696  1
  O2-  O257  1  0.32795095  0.79017665  0.93402638  1
  O2-  O258  1  0.82919979  0.30031472  0.26301259  1
  O2-  O259  1  0.83172545  0.28647874  0.60100319  1
  O2-  O260  1  0.83049377  0.30220452  0.94051964  1
  O2-  O261  1  0.83433474  0.78453561  0.26425465  1
  O2-  O262  1  0.83311679  0.79730361  0.60468127  1
  O2-  O263  1  0.83855791  0.78850470  0.93704164  1
  O2-  O264  1  0.41956722  0.04807292  0.06609827  1
  O2-  O265  1  0.41708159  0.03578916  0.40335311  1
  O2-  O266  1  0.41545634  0.04409267  0.72859052  1
  O2-  O267  1  0.41787132  0.53951930  0.06795684  1
  O2-  O268  1  0.42034718  0.54921175  0.39388867  1
  O2-  O269  1  0.41771347  0.54206212  0.73533432  1
  O2-  O270  1  0.91858240  0.04203468  0.07062928  1
  O2-  O271  1  0.91241025  0.04133230  0.39454213  1
  O2-  O272  1  0.91966462  0.04627472  0.73328401  1
  O2-  O273  1  0.91592379  0.53883045  0.07183342  1
  O2-  O274  1  0.91490152  0.55331592  0.39467508  1
  O2-  O275  1  0.91593674  0.54722044  0.72490498  1
  O2-  O276  1  0.29047530  0.17175429  0.06563556  1
  O2-  O277  1  0.29394971  0.16728780  0.40189439  1
  O2-  O278  1  0.30479534  0.16849095  0.72704266  1
  O2-  O279  1  0.28980469  0.66438069  0.07127189  1
  O2-  O280  1  0.30040345  0.66774487  0.39591189  1
  O2-  O281  1  0.29364971  0.67002926  0.73161606  1
  O2-  O282  1  0.79423069  0.17224424  0.06982798  1
  O2-  O283  1  0.79340360  0.16500065  0.39179086  1
  O2-  O284  1  0.78754264  0.16545886  0.73661214  1
  O2-  O285  1  0.79032014  0.66480088  0.06942545  1
  O2-  O286  1  0.78568901  0.66194354  0.39909246  1
  O2-  O287  1  0.79718919  0.66560267  0.72698272  1
