# generated using pymatgen
data_Ca2Al2SiO7
_symmetry_space_group_name_H-M   'P 1'
_cell_length_a   15.46638361
_cell_length_b   15.46814377
_cell_length_c   15.28976167
_cell_angle_alpha   89.99168075
_cell_angle_beta   89.99091425
_cell_angle_gamma   90.00300757
_symmetry_Int_Tables_number   1
_chemical_formula_structural   Ca2Al2SiO7
_chemical_formula_sum   'Ca48 Al48 Si24 O168'
_cell_volume   3657.86508409
_cell_formula_units_Z   24
loop_
 _symmetry_equiv_pos_site_id
 _symmetry_equiv_pos_as_xyz
  1  'x, y, z'
loop_
 _atom_type_symbol
 _atom_type_oxidation_number
  Ca2+  2.0
  Al0+  0.0
  Si0+  0.0
  O2-  -2.0
loop_
 _atom_site_type_symbol
 _atom_site_label
 _atom_site_symmetry_multiplicity
 _atom_site_fract_x
 _atom_site_fract_y
 _atom_site_fract_z
 _atom_site_occupancy
  Ca2+  Ca0  1  0.17942044  0.08521323  0.17361167  1
  Ca2+  Ca1  1  0.17272172  0.08318042  0.50070625  1
  Ca2+  Ca2  1  0.17395089  0.07839428  0.84145994  1
  Ca2+  Ca3  1  0.16066209  0.57803252  0.17141719  1
  Ca2+  Ca4  1  0.16469513  0.57710298  0.50623389  1
  Ca2+  Ca5  1  0.16262005  0.57682111  0.83492827  1
  Ca2+  Ca6  1  0.66832351  0.08410762  0.17124390  1
  Ca2+  Ca7  1  0.66294251  0.07845017  0.50196404  1
  Ca2+  Ca8  1  0.67077119  0.07461512  0.83622980  1
  Ca2+  Ca9  1  0.67501484  0.57673550  0.17633569  1
  Ca2+  Ca10  1  0.67744704  0.59081948  0.50094004  1
  Ca2+  Ca11  1  0.67949574  0.58072958  0.83933692  1
  Ca2+  Ca12  1  0.07799445  0.34496051  0.16720630  1
  Ca2+  Ca13  1  0.08097141  0.34204775  0.49309960  1
  Ca2+  Ca14  1  0.08962612  0.33509252  0.83097220  1
  Ca2+  Ca15  1  0.07935354  0.81985856  0.16416460  1
  Ca2+  Ca16  1  0.07203025  0.81944257  0.49389645  1
  Ca2+  Ca17  1  0.07690941  0.81774671  0.82325806  1
  Ca2+  Ca18  1  0.58389702  0.33678535  0.16571972  1
  Ca2+  Ca19  1  0.57256122  0.33374025  0.48705735  1
  Ca2+  Ca20  1  0.57924286  0.33432361  0.82723437  1
  Ca2+  Ca21  1  0.58575045  0.82521272  0.16993676  1
  Ca2+  Ca22  1  0.58187546  0.82939064  0.49859651  1
  Ca2+  Ca23  1  0.57847711  0.83548209  0.82517662  1
  Ca2+  Ca24  1  0.32023824  0.41127799  0.17401565  1
  Ca2+  Ca25  1  0.32669264  0.41692963  0.50647100  1
  Ca2+  Ca26  1  0.32629802  0.42000494  0.83118539  1
  Ca2+  Ca27  1  0.33714507  0.92957446  0.17260039  1
  Ca2+  Ca28  1  0.34143835  0.92338876  0.50411475  1
  Ca2+  Ca29  1  0.33527721  0.92030771  0.83959262  1
  Ca2+  Ca30  1  0.82713110  0.42596268  0.17506454  1
  Ca2+  Ca31  1  0.83234850  0.42682241  0.49804449  1
  Ca2+  Ca32  1  0.83020665  0.42924692  0.83973072  1
  Ca2+  Ca33  1  0.84125501  0.92291974  0.17163479  1
  Ca2+  Ca34  1  0.83044187  0.90852958  0.50648418  1
  Ca2+  Ca35  1  0.83283440  0.91717050  0.83310516  1
  Ca2+  Ca36  1  0.41623266  0.16938887  0.16959898  1
  Ca2+  Ca37  1  0.42021907  0.17766936  0.49136310  1
  Ca2+  Ca38  1  0.41501897  0.17324648  0.82776475  1
  Ca2+  Ca39  1  0.42708389  0.65812334  0.16630257  1
  Ca2+  Ca40  1  0.41833868  0.66850784  0.49610304  1
  Ca2+  Ca41  1  0.41788751  0.67060371  0.82231690  1
  Ca2+  Ca42  1  0.91032590  0.17621627  0.16319827  1
  Ca2+  Ca43  1  0.91998091  0.17697912  0.49090220  1
  Ca2+  Ca44  1  0.91551128  0.16733496  0.83142729  1
  Ca2+  Ca45  1  0.92376121  0.65712262  0.16591701  1
  Ca2+  Ca46  1  0.92173096  0.66479396  0.49328151  1
  Ca2+  Ca47  1  0.92365681  0.65958519  0.82709978  1
  Al0+  Al48  1  0.00041966  -0.00027205  0.00305088  1
  Al0+  Al49  1  0.00223313  0.00010613  0.33154159  1
  Al0+  Al50  1  0.00169874  0.00019894  0.66363586  1
  Al0+  Al51  1  -0.00074246  0.49901622  0.00027264  1
  Al0+  Al52  1  -0.00084523  0.49941046  0.33319221  1
  Al0+  Al53  1  -0.00043852  0.49676653  0.67159327  1
  Al0+  Al54  1  0.50085286  0.00178051  0.00391192  1
  Al0+  Al55  1  0.50092440  0.00280366  0.33462377  1
  Al0+  Al56  1  0.50227252  0.00000513  0.66861440  1
  Al0+  Al57  1  0.49842223  0.49931105  -0.00199991  1
  Al0+  Al58  1  0.49736192  0.49997316  0.32626862  1
  Al0+  Al59  1  0.49871723  0.49950289  0.66545166  1
  Al0+  Al60  1  0.25010202  0.24979957  0.00629957  1
  Al0+  Al61  1  0.25127828  0.24921390  0.33978471  1
  Al0+  Al62  1  0.25131986  0.24932359  0.66665658  1
  Al0+  Al63  1  0.24953554  0.74922963  -0.00444129  1
  Al0+  Al64  1  0.24769738  0.75230843  0.32836148  1
  Al0+  Al65  1  0.25061606  0.75144543  0.66021369  1
  Al0+  Al66  1  0.74811649  0.24738700  0.00152202  1
  Al0+  Al67  1  0.74986647  0.24953320  0.33032954  1
  Al0+  Al68  1  0.75153432  0.24785052  0.66555078  1
  Al0+  Al69  1  0.74971465  0.75084632  0.00222986  1
  Al0+  Al70  1  0.74890432  0.75298000  0.32835219  1
  Al0+  Al71  1  0.74895505  0.75142153  0.67640378  1
  Al0+  Al72  1  0.81956754  0.57001747  0.68051747  1
  Al0+  Al73  1  0.42874057  0.82267390  0.65420663  1
  Al0+  Al74  1  0.17972289  0.42838346  0.68256220  1
  Al0+  Al75  1  0.67990939  0.93015549  0.67997066  1
  Al0+  Al76  1  0.06919773  0.67753359  0.98331574  1
  Al0+  Al77  1  0.92730184  0.82257117  0.31702657  1
  Al0+  Al78  1  0.32258868  0.57412544  0.67977019  1
  Al0+  Al79  1  0.92992681  0.32020272  0.31959307  1
  Al0+  Al80  1  0.57085489  0.17927252  0.31696274  1
  Al0+  Al81  1  0.32123581  0.06897060  0.35111755  1
  Al0+  Al82  1  0.82087072  0.57133826  0.01633728  1
  Al0+  Al83  1  0.67623682  0.42835006  0.01326694  1
  Al0+  Al84  1  0.18124289  0.43039083  0.01450970  1
  Al0+  Al85  1  0.32096188  0.06990932  0.01417070  1
  Al0+  Al86  1  0.42984146  0.32110272  0.65339393  1
  Al0+  Al87  1  0.18023788  0.43174172  0.34736809  1
  Al0+  Al88  1  0.06985204  0.67523213  0.65087276  1
  Al0+  Al89  1  0.07017750  0.67777862  0.31702377  1
  Al0+  Al90  1  0.92757335  0.82122035  0.65334566  1
  Al0+  Al91  1  0.81866464  0.57233362  0.34920869  1
  Al0+  Al92  1  0.42699199  0.32187469  0.31612336  1
  Al0+  Al93  1  0.56987869  0.67924950  0.32064903  1
  Al0+  Al94  1  0.67654126  0.42730862  0.34875383  1
  Al0+  Al95  1  0.82183342  0.06886710  0.01367888  1
  Si0+  Si96  1  0.92785063  0.82498718  0.98208235  1
  Si0+  Si97  1  0.42669555  0.31982979  0.98341292  1
  Si0+  Si98  1  0.57127652  0.67787488  0.98362765  1
  Si0+  Si99  1  0.67722136  0.42479475  0.68047526  1
  Si0+  Si100  1  0.32199534  0.57496035  0.01590034  1
  Si0+  Si101  1  0.67693258  0.92885987  0.01923983  1
  Si0+  Si102  1  0.57086616  0.17800457  0.98222199  1
  Si0+  Si103  1  0.07298392  0.17795209  0.31667436  1
  Si0+  Si104  1  0.43188718  0.82207919  0.98684182  1
  Si0+  Si105  1  0.17791699  0.92964023  0.68100097  1
  Si0+  Si106  1  0.42809249  0.82384059  0.31683783  1
  Si0+  Si107  1  0.07233356  0.17849051  0.98618439  1
  Si0+  Si108  1  0.32090712  0.06918735  0.68252623  1
  Si0+  Si109  1  0.17708832  0.92736650  0.35213878  1
  Si0+  Si110  1  0.82515428  0.07320944  0.68176515  1
  Si0+  Si111  1  0.82350957  0.07169959  0.34869548  1
  Si0+  Si112  1  0.57188092  0.67833240  0.65307018  1
  Si0+  Si113  1  0.92858743  0.31919704  0.65299161  1
  Si0+  Si114  1  0.07252715  0.17809356  0.65277965  1
  Si0+  Si115  1  0.92814380  0.31833197  0.98385779  1
  Si0+  Si116  1  0.67997609  0.93068567  0.34852037  1
  Si0+  Si117  1  0.17883795  0.92594464  0.01640032  1
  Si0+  Si118  1  0.32251132  0.57603875  0.34745212  1
  Si0+  Si119  1  0.57293654  0.17840100  0.65132588  1
  O2-  O120  1  0.24748663  -0.00565534  0.06116247  1
  O2-  O121  1  0.24838119  -0.00728432  0.39813385  1
  O2-  O122  1  0.25180471  -0.00291530  0.72566315  1
  O2-  O123  1  0.25327771  0.50734152  0.06059441  1
  O2-  O124  1  0.25445886  0.50749191  0.39204107  1
  O2-  O125  1  0.24888703  0.50419791  0.73121189  1
  O2-  O126  1  0.75060970  -0.00774725  0.06248730  1
  O2-  O127  1  0.75415907  -0.00096751  0.39041334  1
  O2-  O128  1  0.75733405  0.00322988  0.72480880  1
  O2-  O129  1  0.74612553  0.50120536  0.06389631  1
  O2-  O130  1  0.74460534  0.50223128  0.39985436  1
  O2-  O131  1  0.74409046  0.49446381  0.72543139  1
  O2-  O132  1  0.00430830  0.24534037  0.27129246  1
  O2-  O133  1  0.00165550  0.24935174  0.61208773  1
  O2-  O134  1  0.00042094  0.24748631  0.94163200  1
  O2-  O135  1  -0.00371591  0.74833284  0.26683586  1
  O2-  O136  1  -0.00530362  0.74550018  0.60306490  1
  O2-  O137  1  -0.00721652  0.75250100  0.93882884  1
  O2-  O138  1  0.50269265  0.25383667  0.26512876  1
  O2-  O139  1  0.50956933  0.25134939  0.60791549  1
  O2-  O140  1  0.50125380  0.25125356  0.94130778  1
  O2-  O141  1  0.49109854  0.75046778  0.27223659  1
  O2-  O142  1  0.49948918  0.74377498  0.60926418  1
  O2-  O143  1  0.50037086  0.74991264  0.94234806  1
  O2-  O144  1  0.07308645  0.17839980  0.09061031  1
  O2-  O145  1  0.07013743  0.17657435  0.42281439  1
  O2-  O146  1  0.07275267  0.17565052  0.75831599  1
  O2-  O147  1  0.07074224  0.67917561  0.09582840  1
  O2-  O148  1  0.07058752  0.67826586  0.43029774  1
  O2-  O149  1  0.06840173  0.67698221  0.76498437  1
  O2-  O150  1  0.57067991  0.17442612  0.08645957  1
  O2-  O151  1  0.56802543  0.17570939  0.43083484  1
  O2-  O152  1  0.57209031  0.17730782  0.75744097  1
  O2-  O153  1  0.56965285  0.67844252  0.08853503  1
  O2-  O154  1  0.57098362  0.68432307  0.43377618  1
  O2-  O155  1  0.57100003  0.68097019  0.75915770  1
  O2-  O156  1  0.18049726  0.43170186  0.23399940  1
  O2-  O157  1  0.18062975  0.42527782  0.56956587  1
  O2-  O158  1  0.18441017  0.42697763  0.90169262  1
  O2-  O159  1  0.17831400  0.93019857  0.24633315  1
  O2-  O160  1  0.17664914  0.93547112  0.57657107  1
  O2-  O161  1  0.18099674  0.92852769  0.91028029  1
  O2-  O162  1  0.68071503  0.42876819  0.23521107  1
  O2-  O163  1  0.67946107  0.42212429  0.57567417  1
  O2-  O164  1  0.67735908  0.42944365  0.89880322  1
  O2-  O165  1  0.67757739  0.93265178  0.24337579  1
  O2-  O166  1  0.67720765  0.93323371  0.56706900  1
  O2-  O167  1  0.67280934  0.93226997  0.91365991  1
  O2-  O168  1  0.42477374  0.31781067  0.08774899  1
  O2-  O169  1  0.42629027  0.31791972  0.42984956  1
  O2-  O170  1  0.42894735  0.31635170  0.76730470  1
  O2-  O171  1  0.43417517  0.82335707  0.09167205  1
  O2-  O172  1  0.43150331  0.82548280  0.42235479  1
  O2-  O173  1  0.43240731  0.82695184  0.76790445  1
  O2-  O174  1  0.92864676  0.31672280  0.08858403  1
  O2-  O175  1  0.93152295  0.31817654  0.43328318  1
  O2-  O176  1  0.92559322  0.31562723  0.75834352  1
  O2-  O177  1  0.93146837  0.82965058  0.08706206  1
  O2-  O178  1  0.92838047  0.82345652  0.43043379  1
  O2-  O179  1  0.93214965  0.82515514  0.76695816  1
  O2-  O180  1  0.32020995  0.06715825  0.23773842  1
  O2-  O181  1  0.32029173  0.06893016  0.57787660  1
  O2-  O182  1  0.31981037  0.06894456  0.90041795  1
  O2-  O183  1  0.32118397  0.57616709  0.24153065  1
  O2-  O184  1  0.32424377  0.57203457  0.56651803  1
  O2-  O185  1  0.32343613  0.57562591  0.91043957  1
  O2-  O186  1  0.82293153  0.07062624  0.24345773  1
  O2-  O187  1  0.82548478  0.07735237  0.57667374  1
  O2-  O188  1  0.82000192  0.06922294  0.90020242  1
  O2-  O189  1  0.81861804  0.57026525  0.23591079  1
  O2-  O190  1  0.81924429  0.57097136  0.56794659  1
  O2-  O191  1  0.82015076  0.56877188  0.90217521  1
  O2-  O192  1  0.05030733  0.08425088  0.27003047  1
  O2-  O193  1  0.04509366  0.08794366  0.60226437  1
  O2-  O194  1  0.04618536  0.08569161  0.93837712  1
  O2-  O195  1  0.04076451  0.58007903  0.26416986  1
  O2-  O196  1  0.04282089  0.57489085  0.60220730  1
  O2-  O197  1  0.03775855  0.58044001  0.92998727  1
  O2-  O198  1  0.53840109  0.08182415  0.26295279  1
  O2-  O199  1  0.54196492  0.08692634  0.60516572  1
  O2-  O200  1  0.53950695  0.08665665  0.93448587  1
  O2-  O201  1  0.54130792  0.58440087  0.26211100  1
  O2-  O202  1  0.55227940  0.58375028  0.60773041  1
  O2-  O203  1  0.54321088  0.58663556  0.93501628  1
  O2-  O204  1  0.16714963  0.20370672  0.27368662  1
  O2-  O205  1  0.16425648  0.20441348  0.60515359  1
  O2-  O206  1  0.16385847  0.20823074  0.93802865  1
  O2-  O207  1  0.16816424  0.70805728  0.26200061  1
  O2-  O208  1  0.16754384  0.70574146  0.59886642  1
  O2-  O209  1  0.16690185  0.70856047  0.92975296  1
  O2-  O210  1  0.67076065  0.20113616  0.26478943  1
  O2-  O211  1  0.66900547  0.19581879  0.60674557  1
  O2-  O212  1  0.66300531  0.20316253  0.93341646  1
  O2-  O213  1  0.66243463  0.71593533  0.26272979  1
  O2-  O214  1  0.66365690  0.71081110  0.60862275  1
  O2-  O215  1  0.66360215  0.70627007  0.93720409  1
  O2-  O216  1  0.08292641  0.45782123  0.06511726  1
  O2-  O217  1  0.08321034  0.46044945  0.40069440  1
  O2-  O218  1  0.08052179  0.45085987  0.73691511  1
  O2-  O219  1  0.08590532  0.95197684  0.06195308  1
  O2-  O220  1  0.08516963  0.95781563  0.39921592  1
  O2-  O221  1  0.08835516  0.96193167  0.73099577  1
  O2-  O222  1  0.57616184  0.45373723  0.06379666  1
  O2-  O223  1  0.57423121  0.45188946  0.39453566  1
  O2-  O224  1  0.58289160  0.44795755  0.72577527  1
  O2-  O225  1  0.58649663  0.96042294  0.06776505  1
  O2-  O226  1  0.58970131  0.96176912  0.39704980  1
  O2-  O227  1  0.58577755  0.96581445  0.73810811  1
  O2-  O228  1  0.21189262  0.33468018  0.06981031  1
  O2-  O229  1  0.20859166  0.33446279  0.40127695  1
  O2-  O230  1  0.21171855  0.32964405  0.73565571  1
  O2-  O231  1  0.20544563  0.83263108  0.06142837  1
  O2-  O232  1  0.19949099  0.83239675  0.39588905  1
  O2-  O233  1  0.20361429  0.83696822  0.72657188  1
  O2-  O234  1  0.70227592  0.32866898  0.06298468  1
  O2-  O235  1  0.70701007  0.32840788  0.39984464  1
  O2-  O236  1  0.70393039  0.33089779  0.72746848  1
  O2-  O237  1  0.69614090  0.83309791  0.06234673  1
  O2-  O238  1  0.70451653  0.83860854  0.39581934  1
  O2-  O239  1  0.70568687  0.83590742  0.74080858  1
  O2-  O240  1  0.44612917  0.42134719  0.26196279  1
  O2-  O241  1  0.45415557  0.41883027  0.59948930  1
  O2-  O242  1  0.45111359  0.41292508  0.93603440  1
  O2-  O243  1  0.46150673  0.91472264  0.27001067  1
  O2-  O244  1  0.46552143  0.91767445  0.59985199  1
  O2-  O245  1  0.46182770  0.91388474  0.93924159  1
  O2-  O246  1  0.96176272  0.41495225  0.26411272  1
  O2-  O247  1  0.95602392  0.41040993  0.60636466  1
  O2-  O248  1  0.95673963  0.40950152  0.93640721  1
  O2-  O249  1  0.96025364  0.92078227  0.26436457  1
  O2-  O250  1  0.95734824  0.91960200  0.59990706  1
  O2-  O251  1  0.95618461  0.91812277  0.93489034  1
  O2-  O252  1  0.32996743  0.28437915  0.26517507  1
  O2-  O253  1  0.33527716  0.28396186  0.59992750  1
  O2-  O254  1  0.33650485  0.28557072  0.93627736  1
  O2-  O255  1  0.33236001  0.80744124  0.27206736  1
  O2-  O256  1  0.33204439  0.80124603  0.59710902  1
  O2-  O257  1  0.33880863  0.79862381  0.93965377  1
  O2-  O258  1  0.83513090  0.28730681  0.26411621  1
  O2-  O259  1  0.83827273  0.28954559  0.60330570  1
  O2-  O260  1  0.83710568  0.28736454  0.93610407  1
  O2-  O261  1  0.82725937  0.80377286  0.26426768  1
  O2-  O262  1  0.82508371  0.79900346  0.60739804  1
  O2-  O263  1  0.83064428  0.80482541  0.94063545  1
  O2-  O264  1  0.41681564  0.03904739  0.06889325  1
  O2-  O265  1  0.41793381  0.03762996  0.40458158  1
  O2-  O266  1  0.41304741  0.04300493  0.73002073  1
  O2-  O267  1  0.41569955  0.54779752  0.06046244  1
  O2-  O268  1  0.41709028  0.55270047  0.39135152  1
  O2-  O269  1  0.42076826  0.54414046  0.73502737  1
  O2-  O270  1  0.91961120  0.04396922  0.06859572  1
  O2-  O271  1  0.91706885  0.04761155  0.39458846  1
  O2-  O272  1  0.91903242  0.04850103  0.72851358  1
  O2-  O273  1  0.91765009  0.53816314  0.06760189  1
  O2-  O274  1  0.91585686  0.53872961  0.40067917  1
  O2-  O275  1  0.91373652  0.53470833  0.73624532  1
  O2-  O276  1  0.28784241  0.16395542  0.06977873  1
  O2-  O277  1  0.28787578  0.16338937  0.40675879  1
  O2-  O278  1  0.28990343  0.15952270  0.73071344  1
  O2-  O279  1  0.29965602  0.66953084  0.06124869  1
  O2-  O280  1  0.29934062  0.67161160  0.39120094  1
  O2-  O281  1  0.30020409  0.67599499  0.72969156  1
  O2-  O282  1  0.78824797  0.16406720  0.06744377  1
  O2-  O283  1  0.79429766  0.16239482  0.39660248  1
  O2-  O284  1  0.79741270  0.16525451  0.73117927  1
  O2-  O285  1  0.79683219  0.67199591  0.06588039  1
  O2-  O286  1  0.78968258  0.67278861  0.39812739  1
  O2-  O287  1  0.78929757  0.66489648  0.73826393  1
