# generated using pymatgen
data_Ca2Al2SiO7
_symmetry_space_group_name_H-M   'P 1'
_cell_length_a   15.46669239
_cell_length_b   15.46549568
_cell_length_c   15.28900605
_cell_angle_alpha   90.00362246
_cell_angle_beta   90.01326697
_cell_angle_gamma   89.97273642
_symmetry_Int_Tables_number   1
_chemical_formula_structural   Ca2Al2SiO7
_chemical_formula_sum   'Ca48 Al48 Si24 O168'
_cell_volume   3657.13071104
_cell_formula_units_Z   24
loop_
 _symmetry_equiv_pos_site_id
 _symmetry_equiv_pos_as_xyz
  1  'x, y, z'
loop_
 _atom_type_symbol
 _atom_type_oxidation_number
  Ca2+  2.0
  Al0+  0.0
  Si0+  0.0
  O2-  -2.0
loop_
 _atom_site_type_symbol
 _atom_site_label
 _atom_site_symmetry_multiplicity
 _atom_site_fract_x
 _atom_site_fract_y
 _atom_site_fract_z
 _atom_site_occupancy
  Ca2+  Ca0  1  0.17235366  0.08878133  0.17674346  1
  Ca2+  Ca1  1  0.17692253  0.08349031  0.50161876  1
  Ca2+  Ca2  1  0.16781821  0.08435255  0.84005068  1
  Ca2+  Ca3  1  0.16799024  0.57760055  0.17676989  1
  Ca2+  Ca4  1  0.15972855  0.57727141  0.50311543  1
  Ca2+  Ca5  1  0.16249907  0.58028120  0.83067841  1
  Ca2+  Ca6  1  0.66400645  0.08130972  0.17411159  1
  Ca2+  Ca7  1  0.66978744  0.09232151  0.50053887  1
  Ca2+  Ca8  1  0.66065882  0.07992336  0.83903171  1
  Ca2+  Ca9  1  0.67116100  0.57200594  0.17313157  1
  Ca2+  Ca10  1  0.65773953  0.57331618  0.50360763  1
  Ca2+  Ca11  1  0.66955462  0.57301709  0.84190811  1
  Ca2+  Ca12  1  0.07142643  0.33327109  0.16290366  1
  Ca2+  Ca13  1  0.07180941  0.34465354  0.49438825  1
  Ca2+  Ca14  1  0.07047152  0.33736783  0.82943199  1
  Ca2+  Ca15  1  0.07742910  0.83084188  0.17045074  1
  Ca2+  Ca16  1  0.08090812  0.81997455  0.49133791  1
  Ca2+  Ca17  1  0.07885215  0.82488582  0.82532895  1
  Ca2+  Ca18  1  0.59165732  0.32423727  0.16596348  1
  Ca2+  Ca19  1  0.58386808  0.32842624  0.48985904  1
  Ca2+  Ca20  1  0.59711981  0.32497421  0.82957173  1
  Ca2+  Ca21  1  0.58393659  0.83273818  0.16674039  1
  Ca2+  Ca22  1  0.57756768  0.81977035  0.49431379  1
  Ca2+  Ca23  1  0.58167931  0.82798941  0.82466272  1
  Ca2+  Ca24  1  0.32450450  0.40976793  0.17880388  1
  Ca2+  Ca25  1  0.32005710  0.40879582  0.50167992  1
  Ca2+  Ca26  1  0.32617966  0.41622027  0.83383569  1
  Ca2+  Ca27  1  0.33412832  0.92370124  0.17784089  1
  Ca2+  Ca28  1  0.34747539  0.91921783  0.49958750  1
  Ca2+  Ca29  1  0.33594571  0.91558445  0.83596269  1
  Ca2+  Ca30  1  0.82731863  0.41120547  0.17041160  1
  Ca2+  Ca31  1  0.82297099  0.40949950  0.50304256  1
  Ca2+  Ca32  1  0.82781805  0.41780379  0.83698104  1
  Ca2+  Ca33  1  0.82988676  0.92421863  0.17575741  1
  Ca2+  Ca34  1  0.84130285  0.92476035  0.49843980  1
  Ca2+  Ca35  1  0.82303635  0.91931690  0.84310005  1
  Ca2+  Ca36  1  0.42342692  0.16968525  0.16964946  1
  Ca2+  Ca37  1  0.42738746  0.17067874  0.49187611  1
  Ca2+  Ca38  1  0.42965985  0.16917185  0.83027379  1
  Ca2+  Ca39  1  0.42483692  0.66598579  0.17152022  1
  Ca2+  Ca40  1  0.42415963  0.67295262  0.49360761  1
  Ca2+  Ca41  1  0.42540932  0.67419758  0.82194993  1
  Ca2+  Ca42  1  0.91400272  0.17742363  0.16406545  1
  Ca2+  Ca43  1  0.91415108  0.17820677  0.49246240  1
  Ca2+  Ca44  1  0.91534859  0.18118314  0.83185021  1
  Ca2+  Ca45  1  0.91684673  0.66440644  0.16713054  1
  Ca2+  Ca46  1  0.92717771  0.66710816  0.49190210  1
  Ca2+  Ca47  1  0.91622856  0.66240988  0.82921407  1
  Al0+  Al48  1  0.00076913  -0.00304305  -0.00384957  1
  Al0+  Al49  1  0.00072299  -0.00137856  0.33648588  1
  Al0+  Al50  1  0.00207874  0.00293261  0.67091421  1
  Al0+  Al51  1  0.00185723  0.50129459  -0.00130120  1
  Al0+  Al52  1  -0.00097624  0.49963396  0.32759602  1
  Al0+  Al53  1  -0.00159618  0.50018333  0.66398047  1
  Al0+  Al54  1  0.49787408  0.00073481  0.00076450  1
  Al0+  Al55  1  0.50067612  -0.00116055  0.33306085  1
  Al0+  Al56  1  0.50167430  0.00265612  0.66157960  1
  Al0+  Al57  1  0.49867552  0.50067301  0.00337723  1
  Al0+  Al58  1  0.49710153  0.50023246  0.33016202  1
  Al0+  Al59  1  0.49691173  0.49772367  0.67091641  1
  Al0+  Al60  1  0.25183971  0.24934464  -0.00346378  1
  Al0+  Al61  1  0.25097739  0.24845739  0.34279591  1
  Al0+  Al62  1  0.24971294  0.24815425  0.67599071  1
  Al0+  Al63  1  0.24973567  0.75117245  0.00076219  1
  Al0+  Al64  1  0.25018428  0.74929746  0.32554804  1
  Al0+  Al65  1  0.24866573  0.75177068  0.66044694  1
  Al0+  Al66  1  0.75117254  0.24882021  -0.00637749  1
  Al0+  Al67  1  0.75115425  0.24877381  0.33345186  1
  Al0+  Al68  1  0.75252073  0.25032978  0.66459437  1
  Al0+  Al69  1  0.74950087  0.74980731  0.00753704  1
  Al0+  Al70  1  0.75121137  0.74957409  0.32774317  1
  Al0+  Al71  1  0.74991555  0.75231056  0.66195144  1
  Al0+  Al72  1  0.67915759  0.42985176  0.34692828  1
  Al0+  Al73  1  0.67680419  0.93045648  0.01355416  1
  Al0+  Al74  1  0.17676096  0.43000342  0.68216966  1
  Al0+  Al75  1  0.57092936  0.18283544  0.65252563  1
  Al0+  Al76  1  0.67724845  0.42870029  0.67931984  1
  Al0+  Al77  1  0.42960238  0.82192855  0.65256180  1
  Al0+  Al78  1  0.07006513  0.67751292  0.31547158  1
  Al0+  Al79  1  0.57192574  0.18077900  0.31844914  1
  Al0+  Al80  1  0.06797566  0.68024354  0.65371297  1
  Al0+  Al81  1  0.67924597  0.42621722  0.01605720  1
  Al0+  Al82  1  0.92910911  0.82345326  0.31783601  1
  Al0+  Al83  1  0.42603235  0.32075801  0.32107517  1
  Al0+  Al84  1  0.93184985  0.31942051  0.65077504  1
  Al0+  Al85  1  0.32243966  0.06959922  0.34911472  1
  Al0+  Al86  1  0.92909862  0.31975939  0.31970884  1
  Al0+  Al87  1  0.43078769  0.82093730  0.31608543  1
  Al0+  Al88  1  0.56904530  0.17983712  0.98630435  1
  Al0+  Al89  1  0.07357143  0.17733784  0.98614371  1
  Al0+  Al90  1  0.57290550  0.67569629  0.31592111  1
  Al0+  Al91  1  0.92993398  0.32224826  0.98276682  1
  Al0+  Al92  1  0.82322285  0.57084635  0.01546243  1
  Al0+  Al93  1  0.17790574  0.42975999  0.34634183  1
  Al0+  Al94  1  0.57281276  0.67514489  0.65401410  1
  Al0+  Al95  1  0.82084158  0.06999484  0.34693549  1
  Si0+  Si96  1  0.82358324  0.06993059  0.01469711  1
  Si0+  Si97  1  0.42336679  0.32152715  0.65234123  1
  Si0+  Si98  1  0.17869455  0.92875341  0.68281970  1
  Si0+  Si99  1  0.32098564  0.57387973  0.35038412  1
  Si0+  Si100  1  0.82028463  0.57379462  0.67926052  1
  Si0+  Si101  1  0.42664189  0.32468341  0.98213639  1
  Si0+  Si102  1  0.31987072  0.57468450  0.68326075  1
  Si0+  Si103  1  0.32299553  0.06901614  0.68522100  1
  Si0+  Si104  1  0.31923723  0.07007747  0.01491603  1
  Si0+  Si105  1  0.07283080  0.17737623  0.32220658  1
  Si0+  Si106  1  0.17887121  0.92651900  0.35107419  1
  Si0+  Si107  1  0.82271075  0.07184968  0.68376548  1
  Si0+  Si108  1  0.42917079  0.81994157  0.98538008  1
  Si0+  Si109  1  0.18178319  0.42962735  0.01410298  1
  Si0+  Si110  1  0.07274056  0.68118689  0.98354732  1
  Si0+  Si111  1  0.57163174  0.67855397  0.98554540  1
  Si0+  Si112  1  0.17837909  0.92713473  0.01509411  1
  Si0+  Si113  1  0.32039032  0.57413395  0.01489216  1
  Si0+  Si114  1  0.67983199  0.93077724  0.67967244  1
  Si0+  Si115  1  0.92726706  0.81981908  0.98428094  1
  Si0+  Si116  1  0.07455641  0.17654961  0.64951420  1
  Si0+  Si117  1  0.67796932  0.92586498  0.35235379  1
  Si0+  Si118  1  0.82200978  0.57265200  0.35050218  1
  Si0+  Si119  1  0.92703901  0.82675903  0.65186316  1
  O2-  O120  1  0.24265900  0.00437569  0.05603810  1
  O2-  O121  1  0.24979784  -0.00776203  0.39628726  1
  O2-  O122  1  0.25108565  -0.00214133  0.72691162  1
  O2-  O123  1  0.25386432  0.49890649  0.05670240  1
  O2-  O124  1  0.25267025  0.50447381  0.39384517  1
  O2-  O125  1  0.25241170  0.50468280  0.72884891  1
  O2-  O126  1  0.75152263  0.00534728  0.05920680  1
  O2-  O127  1  0.74729019  -0.00541519  0.39600753  1
  O2-  O128  1  0.75318023  -0.00155451  0.72443837  1
  O2-  O129  1  0.75326301  0.49683700  0.06498714  1
  O2-  O130  1  0.75042663  0.50767798  0.39524618  1
  O2-  O131  1  0.74656934  0.51040391  0.72340421  1
  O2-  O132  1  0.00483656  0.24470192  0.27583237  1
  O2-  O133  1  0.00914807  0.24673862  0.60467856  1
  O2-  O134  1  0.00258044  0.24894341  0.93421369  1
  O2-  O135  1  -0.00259645  0.74909847  0.26578598  1
  O2-  O136  1  -0.00658340  0.75572849  0.60919695  1
  O2-  O137  1  -0.00275771  0.74778705  0.94153547  1
  O2-  O138  1  0.50134501  0.25426685  0.26843230  1
  O2-  O139  1  0.49847096  0.26041619  0.60875664  1
  O2-  O140  1  0.50081214  0.26100749  0.93906192  1
  O2-  O141  1  0.50403225  0.75117824  0.26513036  1
  O2-  O142  1  0.49853075  0.74589656  0.60582510  1
  O2-  O143  1  0.50088092  0.75022784  0.94276762  1
  O2-  O144  1  0.07621611  0.17955000  0.09962472  1
  O2-  O145  1  0.07120579  0.17743365  0.42781428  1
  O2-  O146  1  0.07188690  0.17420899  0.75517208  1
  O2-  O147  1  0.07697347  0.68387963  0.08773039  1
  O2-  O148  1  0.06901872  0.67814443  0.42922409  1
  O2-  O149  1  0.06708449  0.68230603  0.76766211  1
  O2-  O150  1  0.56520532  0.17573517  0.09839509  1
  O2-  O151  1  0.57143953  0.18276042  0.43210362  1
  O2-  O152  1  0.56872875  0.17914329  0.76612376  1
  O2-  O153  1  0.56926331  0.67874868  0.08987876  1
  O2-  O154  1  0.56961157  0.67579918  0.42969277  1
  O2-  O155  1  0.57304746  0.67975793  0.76857954  1
  O2-  O156  1  0.17931802  0.42933902  0.23258347  1
  O2-  O157  1  0.17717221  0.43088953  0.56961372  1
  O2-  O158  1  0.18212707  0.43243774  0.90876962  1
  O2-  O159  1  0.17807859  0.93002390  0.24497264  1
  O2-  O160  1  0.17500217  0.93101643  0.57864821  1
  O2-  O161  1  0.18198199  0.92276579  0.90976759  1
  O2-  O162  1  0.68282099  0.42760179  0.23411201  1
  O2-  O163  1  0.67922303  0.42629339  0.56651880  1
  O2-  O164  1  0.67953407  0.42930361  0.90193074  1
  O2-  O165  1  0.67803093  0.92909478  0.24632712  1
  O2-  O166  1  0.68064001  0.93108572  0.57540727  1
  O2-  O167  1  0.67754529  0.92970928  0.89945377  1
  O2-  O168  1  0.41915126  0.32110505  0.08687260  1
  O2-  O169  1  0.42452411  0.31734595  0.43478638  1
  O2-  O170  1  0.41963202  0.31702205  0.75818695  1
  O2-  O171  1  0.42697117  0.81932953  0.08959056  1
  O2-  O172  1  0.43225372  0.81868348  0.42954478  1
  O2-  O173  1  0.43130351  0.82209962  0.76734942  1
  O2-  O174  1  0.93131003  0.32115328  0.09615498  1
  O2-  O175  1  0.92930363  0.31970502  0.43281799  1
  O2-  O176  1  0.93137680  0.31890493  0.76380695  1
  O2-  O177  1  0.93036070  0.82316112  0.08840605  1
  O2-  O178  1  0.93407202  0.82405510  0.43185884  1
  O2-  O179  1  0.92763152  0.82755741  0.75803647  1
  O2-  O180  1  0.31846053  0.07008176  0.23539371  1
  O2-  O181  1  0.32248598  0.06946013  0.58070431  1
  O2-  O182  1  0.32111575  0.06625522  0.90948556  1
  O2-  O183  1  0.31826981  0.57407209  0.24410850  1
  O2-  O184  1  0.31894947  0.57619548  0.57838967  1
  O2-  O185  1  0.31809131  0.57765336  0.90977280  1
  O2-  O186  1  0.82089376  0.06958798  0.23375069  1
  O2-  O187  1  0.82476173  0.07115043  0.57901276  1
  O2-  O188  1  0.82386935  0.06546264  0.90854542  1
  O2-  O189  1  0.82258593  0.56952888  0.24495824  1
  O2-  O190  1  0.82299155  0.57311279  0.57423361  1
  O2-  O191  1  0.82037605  0.57366093  0.90108276  1
  O2-  O192  1  0.05053871  0.08311499  0.27669265  1
  O2-  O193  1  0.04855421  0.08276496  0.60417805  1
  O2-  O194  1  0.04877129  0.07679735  0.93334194  1
  O2-  O195  1  0.04105887  0.58097106  0.26004317  1
  O2-  O196  1  0.03713735  0.58513948  0.59901180  1
  O2-  O197  1  0.04952524  0.58819902  0.93675557  1
  O2-  O198  1  0.54277684  0.08183146  0.26860380  1
  O2-  O199  1  0.53840933  0.08791293  0.59787814  1
  O2-  O200  1  0.53095080  0.08475153  0.93120231  1
  O2-  O201  1  0.53872847  0.58044092  0.26033682  1
  O2-  O202  1  0.54393617  0.57575866  0.60440639  1
  O2-  O203  1  0.54227659  0.58685026  0.93834640  1
  O2-  O204  1  0.16666308  0.20302666  0.27822897  1
  O2-  O205  1  0.17095616  0.19833542  0.60898033  1
  O2-  O206  1  0.17248550  0.20349379  0.93160193  1
  O2-  O207  1  0.16754072  0.70614486  0.26127852  1
  O2-  O208  1  0.16341521  0.71068728  0.59887472  1
  O2-  O209  1  0.16239160  0.71507285  0.93429060  1
  O2-  O210  1  0.66980455  0.20759836  0.26498901  1
  O2-  O211  1  0.66865133  0.20913558  0.60061471  1
  O2-  O212  1  0.66739276  0.20210721  0.93129737  1
  O2-  O213  1  0.67203269  0.70047094  0.26409503  1
  O2-  O214  1  0.66965762  0.70531953  0.59936865  1
  O2-  O215  1  0.66400030  0.70723455  0.94021699  1
  O2-  O216  1  0.09039079  0.45859687  0.06034847  1
  O2-  O217  1  0.08117993  0.46318365  0.39855787  1
  O2-  O218  1  0.08131298  0.46540722  0.73648624  1
  O2-  O219  1  0.08382244  0.94748913  0.05978164  1
  O2-  O220  1  0.08697481  0.95311430  0.39962170  1
  O2-  O221  1  0.08800013  0.95745908  0.73419209  1
  O2-  O222  1  0.57904387  0.45382576  0.06613618  1
  O2-  O223  1  0.57947079  0.45716584  0.39710522  1
  O2-  O224  1  0.57807909  0.44912177  0.73437460  1
  O2-  O225  1  0.58017767  0.96082208  0.06726554  1
  O2-  O226  1  0.58446899  0.95097723  0.39757148  1
  O2-  O227  1  0.58891536  0.96216416  0.72780042  1
  O2-  O228  1  0.20900059  0.33666700  0.05890553  1
  O2-  O229  1  0.20769302  0.33459918  0.40383542  1
  O2-  O230  1  0.20660072  0.33317140  0.73795479  1
  O2-  O231  1  0.21218271  0.83854240  0.06500863  1
  O2-  O232  1  0.20258569  0.83085548  0.39293808  1
  O2-  O233  1  0.20515296  0.83615929  0.73035247  1
  O2-  O234  1  0.70724153  0.32564851  0.06439557  1
  O2-  O235  1  0.71363663  0.33413054  0.40036160  1
  O2-  O236  1  0.71705623  0.33427971  0.73324858  1
  O2-  O237  1  0.70696583  0.83507172  0.06851118  1
  O2-  O238  1  0.70336064  0.83098730  0.39573326  1
  O2-  O239  1  0.70479416  0.83771109  0.72788050  1
  O2-  O240  1  0.44282698  0.42131354  0.26963666  1
  O2-  O241  1  0.43818679  0.41859780  0.61154937  1
  O2-  O242  1  0.44492231  0.42134193  0.93888664  1
  O2-  O243  1  0.45741920  0.91973487  0.26351847  1
  O2-  O244  1  0.46140460  0.91835930  0.59972516  1
  O2-  O245  1  0.45538185  0.91201856  0.93782738  1
  O2-  O246  1  0.95977532  0.41434538  0.26367897  1
  O2-  O247  1  0.96068273  0.41613413  0.59780151  1
  O2-  O248  1  0.96196820  0.42048915  0.93007585  1
  O2-  O249  1  0.96259829  0.92031460  0.26357497  1
  O2-  O250  1  0.95679534  0.91987603  0.60762487  1
  O2-  O251  1  0.95609896  0.90997918  0.93336008  1
  O2-  O252  1  0.32897669  0.28514542  0.26833583  1
  O2-  O253  1  0.33175211  0.28823225  0.60692669  1
  O2-  O254  1  0.33635000  0.29300890  0.93174217  1
  O2-  O255  1  0.33215728  0.79481972  0.26244522  1
  O2-  O256  1  0.32986383  0.80057998  0.60049565  1
  O2-  O257  1  0.33731869  0.79085197  0.93713620  1
  O2-  O258  1  0.83539629  0.28459264  0.26465046  1
  O2-  O259  1  0.83736865  0.28391226  0.59705213  1
  O2-  O260  1  0.83287972  0.29256048  0.92744595  1
  O2-  O261  1  0.83002093  0.80122670  0.26512125  1
  O2-  O262  1  0.83318890  0.80697715  0.60531354  1
  O2-  O263  1  0.83449000  0.79259164  0.93782850  1
  O2-  O264  1  0.40771809  0.03640661  0.06383959  1
  O2-  O265  1  0.41895336  0.03829518  0.40333421  1
  O2-  O266  1  0.41472970  0.03892792  0.73245847  1
  O2-  O267  1  0.41330391  0.55195822  0.06191255  1
  O2-  O268  1  0.41492364  0.55095253  0.39555227  1
  O2-  O269  1  0.41258659  0.54981843  0.73266065  1
  O2-  O270  1  0.91640119  0.04028251  0.06019240  1
  O2-  O271  1  0.91739092  0.03908338  0.40318127  1
  O2-  O272  1  0.91506838  0.04665547  0.73253188  1
  O2-  O273  1  0.92465759  0.54826169  0.06528446  1
  O2-  O274  1  0.91542661  0.54400961  0.39486505  1
  O2-  O275  1  0.91150876  0.54294948  0.72796355  1
  O2-  O276  1  0.29665921  0.16393497  0.06038618  1
  O2-  O277  1  0.28922014  0.16256011  0.40854932  1
  O2-  O278  1  0.29522934  0.15930906  0.73619093  1
  O2-  O279  1  0.28748473  0.66372768  0.06383811  1
  O2-  O280  1  0.29414366  0.66791774  0.39478781  1
  O2-  O281  1  0.29182893  0.66846267  0.72970031  1
  O2-  O282  1  0.80248408  0.16573158  0.05572205  1
  O2-  O283  1  0.78876584  0.16492112  0.40334960  1
  O2-  O284  1  0.79141306  0.16198438  0.73160679  1
  O2-  O285  1  0.79502510  0.66842525  0.06988500  1
  O2-  O286  1  0.80321585  0.66929669  0.39331334  1
  O2-  O287  1  0.80225735  0.67060522  0.72410541  1
