# generated using pymatgen
data_Ca2Al2SiO7
_symmetry_space_group_name_H-M   'P 1'
_cell_length_a   15.45180188
_cell_length_b   15.45225142
_cell_length_c   15.27968840
_cell_angle_alpha   89.99709416
_cell_angle_beta   90.00787978
_cell_angle_gamma   89.99627713
_symmetry_Int_Tables_number   1
_chemical_formula_structural   Ca2Al2SiO7
_chemical_formula_sum   'Ca48 Al48 Si24 O168'
_cell_volume   3648.25670199
_cell_formula_units_Z   24
loop_
 _symmetry_equiv_pos_site_id
 _symmetry_equiv_pos_as_xyz
  1  'x, y, z'
loop_
 _atom_type_symbol
 _atom_type_oxidation_number
  Ca2+  2.0
  Al0+  0.0
  Si0+  0.0
  O2-  -2.0
loop_
 _atom_site_type_symbol
 _atom_site_label
 _atom_site_symmetry_multiplicity
 _atom_site_fract_x
 _atom_site_fract_y
 _atom_site_fract_z
 _atom_site_occupancy
  Ca2+  Ca0  1  0.17244461  0.08921938  0.17160717  1
  Ca2+  Ca1  1  0.17371084  0.07948643  0.50674602  1
  Ca2+  Ca2  1  0.15535618  0.07846906  0.83567228  1
  Ca2+  Ca3  1  0.16428349  0.57515490  0.16942582  1
  Ca2+  Ca4  1  0.16086239  0.57780726  0.50032598  1
  Ca2+  Ca5  1  0.17428797  0.57750114  0.84732649  1
  Ca2+  Ca6  1  0.67327842  0.08869476  0.17124640  1
  Ca2+  Ca7  1  0.67025492  0.08374594  0.51203785  1
  Ca2+  Ca8  1  0.67216897  0.08513828  0.83368717  1
  Ca2+  Ca9  1  0.66151962  0.57903751  0.17425605  1
  Ca2+  Ca10  1  0.66465347  0.57418771  0.50510720  1
  Ca2+  Ca11  1  0.67054464  0.58248711  0.83564899  1
  Ca2+  Ca12  1  0.08109015  0.33348284  0.15506288  1
  Ca2+  Ca13  1  0.08397125  0.32935580  0.49673793  1
  Ca2+  Ca14  1  0.08146213  0.32443423  0.83301150  1
  Ca2+  Ca15  1  0.08158766  0.82307468  0.16521491  1
  Ca2+  Ca16  1  0.07648279  0.82959646  0.49266178  1
  Ca2+  Ca17  1  0.08684574  0.82830267  0.82823013  1
  Ca2+  Ca18  1  0.57219553  0.33660983  0.16559117  1
  Ca2+  Ca19  1  0.58591225  0.32660686  0.49240462  1
  Ca2+  Ca20  1  0.57885924  0.33255970  0.82782063  1
  Ca2+  Ca21  1  0.58390739  0.81904510  0.16242014  1
  Ca2+  Ca22  1  0.58251579  0.83247948  0.49620381  1
  Ca2+  Ca23  1  0.57962347  0.83105729  0.82689812  1
  Ca2+  Ca24  1  0.32485797  0.41153748  0.16964700  1
  Ca2+  Ca25  1  0.33156273  0.41318151  0.49627330  1
  Ca2+  Ca26  1  0.32943380  0.41996554  0.84527744  1
  Ca2+  Ca27  1  0.33252823  0.92641355  0.17311196  1
  Ca2+  Ca28  1  0.33191145  0.92035121  0.50765445  1
  Ca2+  Ca29  1  0.33068171  0.91461363  0.83260871  1
  Ca2+  Ca30  1  0.82870153  0.41539878  0.17269954  1
  Ca2+  Ca31  1  0.82036610  0.42360142  0.50724922  1
  Ca2+  Ca32  1  0.82848578  0.41415346  0.83342463  1
  Ca2+  Ca33  1  0.83809502  0.92148741  0.16801010  1
  Ca2+  Ca34  1  0.82709317  0.91913564  0.50981655  1
  Ca2+  Ca35  1  0.83028220  0.92938553  0.83492147  1
  Ca2+  Ca36  1  0.41610509  0.17632646  0.16729667  1
  Ca2+  Ca37  1  0.43042867  0.16768184  0.49068305  1
  Ca2+  Ca38  1  0.42080270  0.17549270  0.82692784  1
  Ca2+  Ca39  1  0.42731194  0.65501500  0.16195464  1
  Ca2+  Ca40  1  0.42136009  0.67523359  0.49665532  1
  Ca2+  Ca41  1  0.41978071  0.66756366  0.83175070  1
  Ca2+  Ca42  1  0.92249318  0.17477535  0.15400148  1
  Ca2+  Ca43  1  0.92109133  0.15964989  0.50105157  1
  Ca2+  Ca44  1  0.91922364  0.16542493  0.83207581  1
  Ca2+  Ca45  1  0.92710794  0.66898401  0.16392054  1
  Ca2+  Ca46  1  0.91633322  0.67249073  0.49125062  1
  Ca2+  Ca47  1  0.92378719  0.65954948  0.83006638  1
  Al0+  Al48  1  -0.00135750  -0.00088555  0.00397295  1
  Al0+  Al49  1  0.00059449  -0.00003439  0.32936710  1
  Al0+  Al50  1  0.00153122  -0.00141995  0.66926202  1
  Al0+  Al51  1  -0.00197219  0.50012749  -0.00532679  1
  Al0+  Al52  1  0.00052824  0.49962162  0.33591898  1
  Al0+  Al53  1  0.00063436  0.49807515  0.66886932  1
  Al0+  Al54  1  0.50006363  -0.00224793  0.00243742  1
  Al0+  Al55  1  0.50229082  0.00118432  0.33210399  1
  Al0+  Al56  1  0.49855767  0.00107001  0.66388814  1
  Al0+  Al57  1  0.50060149  0.50022954  -0.00720885  1
  Al0+  Al58  1  0.49772718  0.49952419  0.33304582  1
  Al0+  Al59  1  0.49830400  0.50096150  0.66927807  1
  Al0+  Al60  1  0.25017402  0.24878558  -0.00628001  1
  Al0+  Al61  1  0.25127659  0.24955842  0.34162366  1
  Al0+  Al62  1  0.24914933  0.25009566  0.66193465  1
  Al0+  Al63  1  0.25143735  0.75026196  0.00308485  1
  Al0+  Al64  1  0.24930880  0.74968648  0.32964458  1
  Al0+  Al65  1  0.25103081  0.75003078  0.66446450  1
  Al0+  Al66  1  0.75021913  0.24945695  0.00223946  1
  Al0+  Al67  1  0.75128917  0.24969646  0.33554714  1
  Al0+  Al68  1  0.75052393  0.25245832  0.67048785  1
  Al0+  Al69  1  0.74950990  0.74996870  -0.00377949  1
  Al0+  Al70  1  0.75058647  0.75286527  0.32389546  1
  Al0+  Al71  1  0.75121395  0.74919013  0.67512344  1
  Al0+  Al72  1  0.82240882  0.57144242  0.68182245  1
  Al0+  Al73  1  0.06951910  0.17746155  0.65044899  1
  Al0+  Al74  1  0.57132778  0.18203540  0.65486041  1
  Al0+  Al75  1  0.67772022  0.42976843  0.34549914  1
  Al0+  Al76  1  0.32286258  0.57149654  0.01596489  1
  Al0+  Al77  1  0.42950514  0.31943281  0.98563252  1
  Al0+  Al78  1  0.17791311  0.42947188  0.34853105  1
  Al0+  Al79  1  0.17879565  0.42832024  0.01317235  1
  Al0+  Al80  1  0.82206506  0.07111365  0.68148059  1
  Al0+  Al81  1  0.56901643  0.67993245  0.32215042  1
  Al0+  Al82  1  0.07131169  0.17790079  0.98598517  1
  Al0+  Al83  1  0.67667862  0.42954767  0.68340900  1
  Al0+  Al84  1  0.81954783  0.07048216  0.01631051  1
  Al0+  Al85  1  0.92583070  0.32249088  0.98423370  1
  Al0+  Al86  1  0.32198433  0.07026346  0.34797175  1
  Al0+  Al87  1  0.07164822  0.67644273  0.31836209  1
  Al0+  Al88  1  0.57118028  0.67875220  0.98394396  1
  Al0+  Al89  1  0.92816943  0.82325617  0.31755594  1
  Al0+  Al90  1  0.42901604  0.82023606  0.65314384  1
  Al0+  Al91  1  0.07136244  0.68028659  0.98520133  1
  Al0+  Al92  1  0.57471037  0.17789443  0.31702152  1
  Al0+  Al93  1  0.67517031  0.92856527  0.68162158  1
  Al0+  Al94  1  0.18080072  0.92879295  0.67924223  1
  Al0+  Al95  1  0.42806382  0.31992046  0.31878359  1
  Si0+  Si96  1  0.92903806  0.32310326  0.64724553  1
  Si0+  Si97  1  0.92962527  0.32029755  0.32150279  1
  Si0+  Si98  1  0.67722160  0.92678497  0.01906070  1
  Si0+  Si99  1  0.67928947  0.42995285  0.01547455  1
  Si0+  Si100  1  0.82098271  0.57270267  0.01646175  1
  Si0+  Si101  1  0.07185250  0.67756042  0.65223298  1
  Si0+  Si102  1  0.17808777  0.92753612  0.34943573  1
  Si0+  Si103  1  0.32216636  0.57374533  0.35171472  1
  Si0+  Si104  1  0.57364019  0.67857994  0.65042791  1
  Si0+  Si105  1  0.68079003  0.92797199  0.34653497  1
  Si0+  Si106  1  0.82123378  0.57336434  0.34662506  1
  Si0+  Si107  1  0.57179529  0.17607418  0.98431453  1
  Si0+  Si108  1  0.32225884  0.07064711  0.01338186  1
  Si0+  Si109  1  0.31881313  0.57151776  0.68060834  1
  Si0+  Si110  1  0.42830705  0.82435233  0.98399241  1
  Si0+  Si111  1  0.42696160  0.32488808  0.64841394  1
  Si0+  Si112  1  0.92972157  0.81957446  0.65466275  1
  Si0+  Si113  1  0.17943243  0.42725145  0.68268196  1
  Si0+  Si114  1  0.82240922  0.07091827  0.34848980  1
  Si0+  Si115  1  0.32135536  0.07314345  0.68399766  1
  Si0+  Si116  1  0.17850118  0.92830853  0.01679942  1
  Si0+  Si117  1  0.07134265  0.17986935  0.32038517  1
  Si0+  Si118  1  0.92878443  0.82194966  0.98032792  1
  Si0+  Si119  1  0.42710987  0.82371798  0.31624009  1
  O2-  O120  1  0.24881730  0.00159768  0.05622302  1
  O2-  O121  1  0.24960610  -0.00740417  0.39418345  1
  O2-  O122  1  0.25194986  0.00558022  0.72910018  1
  O2-  O123  1  0.24944374  0.50055227  0.06550264  1
  O2-  O124  1  0.25084086  0.50692567  0.39541481  1
  O2-  O125  1  0.25153684  0.49733190  0.72316263  1
  O2-  O126  1  0.74412807  -0.00323547  0.06419822  1
  O2-  O127  1  0.75026435  0.00046844  0.38929561  1
  O2-  O128  1  0.74588225  0.00252870  0.73059727  1
  O2-  O129  1  0.75046981  0.50098240  0.05851073  1
  O2-  O130  1  0.75017632  0.50764280  0.39112973  1
  O2-  O131  1  0.74872297  0.50184327  0.73321746  1
  O2-  O132  1  0.00143101  0.25101589  0.27803715  1
  O2-  O133  1  -0.00514075  0.25166468  0.60214660  1
  O2-  O134  1  -0.00069760  0.25029892  0.93661078  1
  O2-  O135  1  0.00022771  0.74993552  0.26977233  1
  O2-  O136  1  -0.00226882  0.74586497  0.61126804  1
  O2-  O137  1  -0.00291419  0.75359205  0.93497687  1
  O2-  O138  1  0.50225098  0.25006269  0.26844836  1
  O2-  O139  1  0.49811328  0.25767991  0.60668137  1
  O2-  O140  1  0.50343381  0.24405019  0.93916808  1
  O2-  O141  1  0.49274539  0.75208778  0.27263432  1
  O2-  O142  1  0.50829370  0.75039326  0.60603851  1
  O2-  O143  1  0.49584820  0.75429709  0.94051219  1
  O2-  O144  1  0.07107694  0.17898145  0.10041985  1
  O2-  O145  1  0.06840915  0.17786064  0.42552280  1
  O2-  O146  1  0.06958709  0.17877945  0.76297151  1
  O2-  O147  1  0.06911989  0.68152032  0.09796900  1
  O2-  O148  1  0.06849394  0.67777715  0.43274850  1
  O2-  O149  1  0.07387580  0.67907990  0.75723834  1
  O2-  O150  1  0.57061544  0.17663622  0.08982706  1
  O2-  O151  1  0.57613982  0.17774412  0.43075058  1
  O2-  O152  1  0.56709842  0.18265866  0.76828594  1
  O2-  O153  1  0.57139063  0.67923140  0.09749184  1
  O2-  O154  1  0.56949128  0.68269452  0.43531161  1
  O2-  O155  1  0.57008336  0.67804282  0.75587358  1
  O2-  O156  1  0.17601848  0.42708087  0.23601159  1
  O2-  O157  1  0.17814672  0.42885020  0.57728680  1
  O2-  O158  1  0.18202743  0.42932558  0.89910835  1
  O2-  O159  1  0.17808205  0.92999640  0.24360378  1
  O2-  O160  1  0.18166874  0.92784969  0.56613284  1
  O2-  O161  1  0.17892827  0.92656350  0.91154151  1
  O2-  O162  1  0.68004341  0.43080023  0.23205031  1
  O2-  O163  1  0.67721631  0.43147680  0.56938394  1
  O2-  O164  1  0.67985621  0.43093385  0.91054755  1
  O2-  O165  1  0.68185786  0.92722457  0.24150689  1
  O2-  O166  1  0.67909561  0.92667467  0.56731864  1
  O2-  O167  1  0.67613018  0.92783604  0.91376991  1
  O2-  O168  1  0.42889130  0.31824388  0.09847451  1
  O2-  O169  1  0.42960367  0.31783487  0.43245529  1
  O2-  O170  1  0.42500909  0.32377106  0.75420643  1
  O2-  O171  1  0.43076682  0.82938195  0.08946123  1
  O2-  O172  1  0.42825893  0.82341181  0.42201855  1
  O2-  O173  1  0.42562175  0.81523308  0.76609788  1
  O2-  O174  1  0.92507005  0.32094350  0.09889591  1
  O2-  O175  1  0.92962616  0.31874581  0.42650260  1
  O2-  O176  1  0.93261118  0.32535060  0.75241380  1
  O2-  O177  1  0.93065654  0.82096230  0.08607771  1
  O2-  O178  1  0.92747644  0.82369052  0.43186138  1
  O2-  O179  1  0.93333335  0.82016976  0.75948280  1
  O2-  O180  1  0.31775275  0.07039769  0.23409398  1
  O2-  O181  1  0.32015720  0.07086416  0.57836648  1
  O2-  O182  1  0.32560512  0.06750117  0.90856658  1
  O2-  O183  1  0.32354781  0.57271223  0.24664703  1
  O2-  O184  1  0.31764197  0.57277839  0.57543292  1
  O2-  O185  1  0.32082237  0.57126450  0.90155456  1
  O2-  O186  1  0.82307067  0.07127060  0.24349010  1
  O2-  O187  1  0.82311668  0.06639676  0.56713922  1
  O2-  O188  1  0.81869393  0.06886719  0.90364130  1
  O2-  O189  1  0.82251819  0.57010338  0.24087952  1
  O2-  O190  1  0.82237013  0.57179213  0.56763974  1
  O2-  O191  1  0.81958058  0.57364443  0.91161117  1
  O2-  O192  1  0.04521464  0.08856656  0.27138870  1
  O2-  O193  1  0.03981262  0.07972759  0.59712948  1
  O2-  O194  1  0.04076314  0.07852462  0.93592508  1
  O2-  O195  1  0.04094748  0.57850524  0.26577411  1
  O2-  O196  1  0.04631470  0.58429541  0.60636735  1
  O2-  O197  1  0.04057306  0.58457766  0.92998006  1
  O2-  O198  1  0.54727104  0.07925853  0.26388303  1
  O2-  O199  1  0.54074628  0.08551499  0.60012711  1
  O2-  O200  1  0.54669277  0.08138652  0.94024905  1
  O2-  O201  1  0.53890380  0.58363024  0.26738550  1
  O2-  O202  1  0.54239264  0.58598508  0.60483301  1
  O2-  O203  1  0.54071279  0.58429941  0.92680140  1
  O2-  O204  1  0.16405540  0.20734802  0.27642915  1
  O2-  O205  1  0.16634844  0.20919219  0.59610436  1
  O2-  O206  1  0.16895033  0.20193207  0.92998684  1
  O2-  O207  1  0.17022879  0.70324091  0.26486873  1
  O2-  O208  1  0.16159249  0.70814113  0.60304627  1
  O2-  O209  1  0.16924336  0.71187451  0.93358924  1
  O2-  O210  1  0.67367505  0.20708325  0.26541770  1
  O2-  O211  1  0.66956105  0.20995994  0.60198234  1
  O2-  O212  1  0.66532177  0.20252946  0.94004665  1
  O2-  O213  1  0.66371649  0.71088202  0.26443159  1
  O2-  O214  1  0.66960822  0.70006404  0.60796316  1
  O2-  O215  1  0.66747578  0.70996251  0.92962734  1
  O2-  O216  1  0.07815708  0.45600310  0.06249392  1
  O2-  O217  1  0.08166472  0.45974331  0.40570841  1
  O2-  O218  1  0.08810655  0.45496328  0.72972578  1
  O2-  O219  1  0.08690191  0.95434371  0.06514354  1
  O2-  O220  1  0.08486467  0.95688188  0.39493839  1
  O2-  O221  1  0.08499705  0.95697590  0.73552445  1
  O2-  O222  1  0.58741357  0.46029029  0.06058651  1
  O2-  O223  1  0.58095733  0.45875577  0.39975991  1
  O2-  O224  1  0.57741163  0.45692755  0.73589240  1
  O2-  O225  1  0.58278306  0.94917339  0.06556065  1
  O2-  O226  1  0.58772489  0.95202179  0.39302220  1
  O2-  O227  1  0.57599193  0.95555807  0.73373327  1
  O2-  O228  1  0.20769456  0.32830413  0.06342068  1
  O2-  O229  1  0.21088012  0.33506078  0.40622238  1
  O2-  O230  1  0.20669195  0.33455675  0.72808165  1
  O2-  O231  1  0.20879928  0.83851563  0.06657261  1
  O2-  O232  1  0.19901731  0.83181292  0.39343171  1
  O2-  O233  1  0.21428580  0.83274739  0.73377125  1
  O2-  O234  1  0.70518059  0.33787392  0.06312701  1
  O2-  O235  1  0.71289649  0.33460361  0.40038632  1
  O2-  O236  1  0.70611269  0.33261099  0.73791320  1
  O2-  O237  1  0.70627410  0.83313662  0.06401448  1
  O2-  O238  1  0.71039321  0.83657081  0.39431007  1
  O2-  O239  1  0.70397070  0.83136341  0.73628794  1
  O2-  O240  1  0.45279722  0.41922191  0.26671472  1
  O2-  O241  1  0.44937472  0.42007787  0.60400716  1
  O2-  O242  1  0.46144554  0.41421005  0.92926694  1
  O2-  O243  1  0.45566433  0.91591140  0.26938154  1
  O2-  O244  1  0.45361191  0.91816778  0.59910992  1
  O2-  O245  1  0.45516844  0.91671435  0.93493979  1
  O2-  O246  1  0.95485801  0.41279628  0.27479664  1
  O2-  O247  1  0.95932983  0.41543488  0.59973735  1
  O2-  O248  1  0.95033050  0.42049050  0.92973005  1
  O2-  O249  1  0.95969521  0.92014154  0.26186067  1
  O2-  O250  1  0.96032769  0.90948880  0.60542840  1
  O2-  O251  1  0.95609343  0.91561033  0.93643414  1
  O2-  O252  1  0.32967483  0.28659218  0.26808342  1
  O2-  O253  1  0.33382511  0.29836963  0.60191926  1
  O2-  O254  1  0.33487754  0.28834797  0.92829165  1
  O2-  O255  1  0.33203411  0.80361999  0.27128879  1
  O2-  O256  1  0.33510575  0.78415302  0.59560671  1
  O2-  O257  1  0.33397957  0.80003419  0.93940773  1
  O2-  O258  1  0.83912764  0.29135177  0.27267032  1
  O2-  O259  1  0.83353977  0.30125899  0.60420097  1
  O2-  O260  1  0.82807445  0.29098824  0.93170759  1
  O2-  O261  1  0.83191334  0.79741333  0.25949935  1
  O2-  O262  1  0.83633213  0.79405327  0.60862950  1
  O2-  O263  1  0.83440754  0.79826992  0.93611050  1
  O2-  O264  1  0.41241291  0.04090162  0.06398787  1
  O2-  O265  1  0.42031097  0.04125511  0.40015443  1
  O2-  O266  1  0.41406641  0.04668066  0.73022534  1
  O2-  O267  1  0.42230918  0.54041344  0.06477851  1
  O2-  O268  1  0.41397291  0.54574187  0.40050112  1
  O2-  O269  1  0.41147295  0.54801592  0.72829233  1
  O2-  O270  1  0.91572083  0.03801016  0.07178552  1
  O2-  O271  1  0.91496646  0.04207177  0.39465486  1
  O2-  O272  1  0.91807981  0.03720659  0.73547265  1
  O2-  O273  1  0.91311986  0.54516865  0.06283718  1
  O2-  O274  1  0.91308451  0.54613901  0.39521595  1
  O2-  O275  1  0.92066793  0.54039573  0.73506875  1
  O2-  O276  1  0.29419932  0.16244197  0.05995195  1
  O2-  O277  1  0.28906816  0.16342484  0.40618156  1
  O2-  O278  1  0.29651914  0.16827432  0.72723846  1
  O2-  O279  1  0.29953711  0.67158867  0.06823316  1
  O2-  O280  1  0.29867021  0.66931227  0.39622043  1
  O2-  O281  1  0.28763457  0.66136047  0.72918073  1
  O2-  O282  1  0.78982550  0.16739469  0.07142640  1
  O2-  O283  1  0.79696498  0.16244969  0.39742114  1
  O2-  O284  1  0.79889957  0.17094016  0.73250871  1
  O2-  O285  1  0.79309999  0.66528965  0.06268910  1
  O2-  O286  1  0.79782182  0.66943096  0.38846418  1
  O2-  O287  1  0.79907995  0.66906207  0.73857679  1
