# generated using pymatgen
data_Ca2Al2SiO7
_symmetry_space_group_name_H-M   'P 1'
_cell_length_a   15.46658198
_cell_length_b   15.46704086
_cell_length_c   15.29039718
_cell_angle_alpha   89.99993409
_cell_angle_beta   89.99537176
_cell_angle_gamma   90.00163407
_symmetry_Int_Tables_number   1
_chemical_formula_structural   Ca2Al2SiO7
_chemical_formula_sum   'Ca48 Al48 Si24 O168'
_cell_volume   3657.80329006
_cell_formula_units_Z   24
loop_
 _symmetry_equiv_pos_site_id
 _symmetry_equiv_pos_as_xyz
  1  'x, y, z'
loop_
 _atom_type_symbol
 _atom_type_oxidation_number
  Ca2+  2.0
  Al0+  0.0
  Si0+  0.0
  O2-  -2.0
loop_
 _atom_site_type_symbol
 _atom_site_label
 _atom_site_symmetry_multiplicity
 _atom_site_fract_x
 _atom_site_fract_y
 _atom_site_fract_z
 _atom_site_occupancy
  Ca2+  Ca0  1  0.16442340  0.08986693  0.16776114  1
  Ca2+  Ca1  1  0.17039195  0.08410934  0.51240938  1
  Ca2+  Ca2  1  0.16842534  0.08699345  0.83122824  1
  Ca2+  Ca3  1  0.16960673  0.57768108  0.16953761  1
  Ca2+  Ca4  1  0.17491493  0.57726325  0.51110954  1
  Ca2+  Ca5  1  0.17623647  0.58499934  0.83316548  1
  Ca2+  Ca6  1  0.66977702  0.08177226  0.16385503  1
  Ca2+  Ca7  1  0.67091601  0.07922707  0.51508073  1
  Ca2+  Ca8  1  0.66660146  0.07560192  0.83762974  1
  Ca2+  Ca9  1  0.67024740  0.57472816  0.16550487  1
  Ca2+  Ca10  1  0.67196010  0.57597647  0.50279155  1
  Ca2+  Ca11  1  0.67406788  0.58029521  0.84106746  1
  Ca2+  Ca12  1  0.07520278  0.32327179  0.15772771  1
  Ca2+  Ca13  1  0.08351205  0.31998650  0.49870024  1
  Ca2+  Ca14  1  0.07315725  0.32242277  0.83193985  1
  Ca2+  Ca15  1  0.07957698  0.82818033  0.16105635  1
  Ca2+  Ca16  1  0.07738631  0.83821985  0.50499513  1
  Ca2+  Ca17  1  0.07616322  0.83517567  0.82343542  1
  Ca2+  Ca18  1  0.57699108  0.34634617  0.16170348  1
  Ca2+  Ca19  1  0.57669202  0.33394141  0.50015603  1
  Ca2+  Ca20  1  0.57784738  0.33320434  0.82770602  1
  Ca2+  Ca21  1  0.58192644  0.82656051  0.15263556  1
  Ca2+  Ca22  1  0.57846267  0.83915114  0.50290774  1
  Ca2+  Ca23  1  0.58479304  0.83232380  0.82738916  1
  Ca2+  Ca24  1  0.33813588  0.41247726  0.17018682  1
  Ca2+  Ca25  1  0.33817397  0.41656071  0.50763252  1
  Ca2+  Ca26  1  0.34012721  0.41581149  0.83514272  1
  Ca2+  Ca27  1  0.33466966  0.91784663  0.16700663  1
  Ca2+  Ca28  1  0.32525908  0.92412930  0.51667823  1
  Ca2+  Ca29  1  0.33445542  0.91746025  0.83321947  1
  Ca2+  Ca30  1  0.82527953  0.42023961  0.17049998  1
  Ca2+  Ca31  1  0.83351461  0.42766794  0.50553643  1
  Ca2+  Ca32  1  0.83049344  0.42426078  0.84526287  1
  Ca2+  Ca33  1  0.82835078  0.92021139  0.16185075  1
  Ca2+  Ca34  1  0.82680719  0.92059806  0.51394145  1
  Ca2+  Ca35  1  0.82491944  0.92423299  0.83260999  1
  Ca2+  Ca36  1  0.42069622  0.17988833  0.16043492  1
  Ca2+  Ca37  1  0.42040339  0.17128583  0.50201205  1
  Ca2+  Ca38  1  0.42338632  0.17440104  0.82292710  1
  Ca2+  Ca39  1  0.42830415  0.67279651  0.15343319  1
  Ca2+  Ca40  1  0.41191508  0.67207168  0.50256921  1
  Ca2+  Ca41  1  0.42358593  0.67566786  0.82876686  1
  Ca2+  Ca42  1  0.92507178  0.16868541  0.15476691  1
  Ca2+  Ca43  1  0.92824946  0.15428596  0.49960767  1
  Ca2+  Ca44  1  0.92133814  0.15631298  0.82879752  1
  Ca2+  Ca45  1  0.91054001  0.66147426  0.16137589  1
  Ca2+  Ca46  1  0.90381256  0.67178583  0.50138214  1
  Ca2+  Ca47  1  0.90947202  0.67025560  0.82473239  1
  Al0+  Al48  1  0.00277846  -0.00333223  0.00158706  1
  Al0+  Al49  1  0.00022605  -0.00359857  0.32661099  1
  Al0+  Al50  1  -0.00065544  -0.00308689  0.66416762  1
  Al0+  Al51  1  0.00451021  0.49783181  0.00008567  1
  Al0+  Al52  1  0.00212452  0.50052874  0.33871491  1
  Al0+  Al53  1  0.00203193  0.49940968  0.66989229  1
  Al0+  Al54  1  0.49600470  0.00198354  0.00396287  1
  Al0+  Al55  1  0.49811936  0.00217928  0.33220229  1
  Al0+  Al56  1  0.49827091  0.00009061  0.66530736  1
  Al0+  Al57  1  0.50098512  0.50468453  -0.00519702  1
  Al0+  Al58  1  0.50097771  0.50268564  0.33414544  1
  Al0+  Al59  1  0.50014745  0.50215979  0.66657943  1
  Al0+  Al60  1  0.24986619  0.24957117  -0.00630019  1
  Al0+  Al61  1  0.25088215  0.24965866  0.32610179  1
  Al0+  Al62  1  0.24758869  0.25062312  0.66394658  1
  Al0+  Al63  1  0.24957052  0.75061349  -0.00054766  1
  Al0+  Al64  1  0.24744474  0.75079298  0.33224955  1
  Al0+  Al65  1  0.24982479  0.74801117  0.66992613  1
  Al0+  Al66  1  0.74954856  0.25104926  0.00681985  1
  Al0+  Al67  1  0.75003324  0.24885924  0.33834840  1
  Al0+  Al68  1  0.75100270  0.25191234  0.66486155  1
  Al0+  Al69  1  0.75091612  0.75023622  0.00323123  1
  Al0+  Al70  1  0.74872370  0.75160585  0.33449440  1
  Al0+  Al71  1  0.74942390  0.74904069  0.66718054  1
  Al0+  Al72  1  0.57351357  0.17812893  0.65330158  1
  Al0+  Al73  1  0.82189131  0.07313505  0.67892535  1
  Al0+  Al74  1  0.57363671  0.68187988  0.98323088  1
  Al0+  Al75  1  0.43099451  0.32218295  0.98596700  1
  Al0+  Al76  1  0.82473082  0.57044014  0.01423333  1
  Al0+  Al77  1  0.06926472  0.17844774  0.31875266  1
  Al0+  Al78  1  0.32055355  0.07347900  0.68193388  1
  Al0+  Al79  1  0.32211421  0.57002032  0.68130058  1
  Al0+  Al80  1  0.67697741  0.42886156  0.01354102  1
  Al0+  Al81  1  0.43280892  0.32106373  0.31952671  1
  Al0+  Al82  1  0.17870908  0.92882625  0.68206983  1
  Al0+  Al83  1  0.67665688  0.92942169  0.67994366  1
  Al0+  Al84  1  0.82093346  0.56931245  0.68105538  1
  Al0+  Al85  1  0.42957000  0.32217592  0.65159585  1
  Al0+  Al86  1  0.92644241  0.32132198  0.98691368  1
  Al0+  Al87  1  0.92862501  0.81786550  0.65358562  1
  Al0+  Al88  1  0.67647090  0.92992591  0.01513376  1
  Al0+  Al89  1  0.42771399  0.82070307  0.65236725  1
  Al0+  Al90  1  0.06922543  0.17650285  0.98229155  1
  Al0+  Al91  1  0.06684306  0.17905787  0.65269239  1
  Al0+  Al92  1  0.82184060  0.57126377  0.35034445  1
  Al0+  Al93  1  0.42731252  0.82343584  0.98499867  1
  Al0+  Al94  1  0.82344318  0.07066287  0.01565506  1
  Al0+  Al95  1  0.67630695  0.42759779  0.35129151  1
  Si0+  Si96  1  0.31970135  0.57213307  0.01565172  1
  Si0+  Si97  1  0.18246125  0.42730204  0.01589664  1
  Si0+  Si98  1  0.67792811  0.42839137  0.68340017  1
  Si0+  Si99  1  0.32019438  0.57238374  0.34650659  1
  Si0+  Si100  1  0.07241875  0.67607203  0.64978183  1
  Si0+  Si101  1  0.42619293  0.82238774  0.31894401  1
  Si0+  Si102  1  0.57209897  0.67927351  0.64675016  1
  Si0+  Si103  1  0.18110880  0.42761255  0.34773881  1
  Si0+  Si104  1  0.92848365  0.81805117  0.31631462  1
  Si0+  Si105  1  0.92746147  0.32589395  0.64937131  1
  Si0+  Si106  1  0.31907462  0.07362728  0.01702111  1
  Si0+  Si107  1  0.56999322  0.68259979  0.31859357  1
  Si0+  Si108  1  0.67776600  0.93089180  0.34760164  1
  Si0+  Si109  1  0.93072004  0.81839950  0.98580262  1
  Si0+  Si110  1  0.07332028  0.67789101  0.31845799  1
  Si0+  Si111  1  0.82320456  0.06868981  0.34687613  1
  Si0+  Si112  1  0.18033799  0.92733140  0.01753121  1
  Si0+  Si113  1  0.17808442  0.42668203  0.68556083  1
  Si0+  Si114  1  0.92837110  0.32446993  0.31891392  1
  Si0+  Si115  1  0.07277064  0.67680592  0.98558222  1
  Si0+  Si116  1  0.31868354  0.07136102  0.34711225  1
  Si0+  Si117  1  0.57245715  0.17718431  0.98600209  1
  Si0+  Si118  1  0.17848795  0.92734280  0.34803485  1
  Si0+  Si119  1  0.57377378  0.17548320  0.31579397  1
  O2-  O120  1  0.24972767  0.00003964  0.05972494  1
  O2-  O121  1  0.24868888  -0.00096755  0.38890577  1
  O2-  O122  1  0.25094682  -0.00056849  0.73308211  1
  O2-  O123  1  0.25372418  0.49764792  0.06029591  1
  O2-  O124  1  0.25213225  0.49900647  0.38942614  1
  O2-  O125  1  0.24984885  0.49319415  0.72832781  1
  O2-  O126  1  0.74797364  0.00206754  0.06682518  1
  O2-  O127  1  0.74586574  0.00469681  0.38893501  1
  O2-  O128  1  0.74377319  0.00713344  0.72729374  1
  O2-  O129  1  0.75369076  0.49707633  0.06324931  1
  O2-  O130  1  0.75311867  0.49596704  0.39970719  1
  O2-  O131  1  0.75062325  0.49209606  0.72768172  1
  O2-  O132  1  -0.00758960  0.25152169  0.27415030  1
  O2-  O133  1  -0.00968488  0.25157529  0.60466148  1
  O2-  O134  1  -0.00976154  0.24245833  0.93545651  1
  O2-  O135  1  -0.00263548  0.74345335  0.27569198  1
  O2-  O136  1  0.00175594  0.74187280  0.60440987  1
  O2-  O137  1  -0.00410190  0.74120186  0.94537519  1
  O2-  O138  1  0.51082968  0.25002244  0.27213498  1
  O2-  O139  1  0.50106149  0.24971520  0.60180012  1
  O2-  O140  1  0.50935729  0.25097105  0.94232580  1
  O2-  O141  1  0.49826112  0.75352622  0.27633180  1
  O2-  O142  1  0.50304854  0.74817626  0.60219998  1
  O2-  O143  1  0.50508244  0.75841696  0.93552279  1
  O2-  O144  1  0.07107547  0.18019263  0.09666716  1
  O2-  O145  1  0.07033391  0.17736062  0.43159070  1
  O2-  O146  1  0.06691043  0.18008906  0.76500169  1
  O2-  O147  1  0.07708818  0.67983654  0.09140748  1
  O2-  O148  1  0.08142905  0.68084236  0.42230809  1
  O2-  O149  1  0.07257783  0.67641972  0.75539492  1
  O2-  O150  1  0.56671408  0.17399216  0.09206972  1
  O2-  O151  1  0.56867364  0.16840204  0.42028433  1
  O2-  O152  1  0.57295963  0.17996253  0.76684025  1
  O2-  O153  1  0.56923713  0.68063041  0.09802526  1
  O2-  O154  1  0.56918901  0.68393248  0.42339946  1
  O2-  O155  1  0.57219979  0.67938070  0.75181341  1
  O2-  O156  1  0.18099710  0.42993046  0.24259525  1
  O2-  O157  1  0.17668748  0.42891238  0.57912688  1
  O2-  O158  1  0.18271978  0.42946466  0.91146593  1
  O2-  O159  1  0.18001930  0.92334651  0.24285592  1
  O2-  O160  1  0.17894530  0.93049492  0.56731440  1
  O2-  O161  1  0.17949830  0.92320392  0.91355821  1
  O2-  O162  1  0.67374095  0.43356760  0.23820007  1
  O2-  O163  1  0.67708890  0.43181070  0.57756108  1
  O2-  O164  1  0.67494905  0.43260938  0.90035133  1
  O2-  O165  1  0.67825112  0.92926077  0.24286813  1
  O2-  O166  1  0.67999385  0.92822521  0.56514559  1
  O2-  O167  1  0.67713260  0.93028708  0.90244468  1
  O2-  O168  1  0.42934968  0.32024255  0.09969953  1
  O2-  O169  1  0.42906744  0.31890614  0.43172467  1
  O2-  O170  1  0.43257464  0.32270150  0.76492957  1
  O2-  O171  1  0.42497438  0.81782249  0.10003021  1
  O2-  O172  1  0.42405230  0.82152606  0.42349242  1
  O2-  O173  1  0.42695198  0.81738517  0.76448370  1
  O2-  O174  1  0.93339604  0.32345113  0.10108390  1
  O2-  O175  1  0.93333530  0.32671146  0.42429616  1
  O2-  O176  1  0.93157450  0.33096420  0.75420423  1
  O2-  O177  1  0.93451411  0.81911908  0.09187355  1
  O2-  O178  1  0.92956814  0.82048405  0.42090586  1
  O2-  O179  1  0.92998433  0.81619174  0.76654869  1
  O2-  O180  1  0.31870171  0.06969518  0.24184118  1
  O2-  O181  1  0.31713030  0.07249274  0.56719971  1
  O2-  O182  1  0.31826447  0.07558723  0.91292859  1
  O2-  O183  1  0.31720030  0.57435675  0.24134884  1
  O2-  O184  1  0.31821457  0.57026043  0.56706692  1
  O2-  O185  1  0.31547273  0.57413923  0.91128534  1
  O2-  O186  1  0.82492215  0.06496943  0.24216230  1
  O2-  O187  1  0.82330998  0.06643842  0.56427582  1
  O2-  O188  1  0.82567236  0.06480134  0.90308542  1
  O2-  O189  1  0.82218731  0.57143491  0.23732150  1
  O2-  O190  1  0.81858248  0.56925851  0.56779406  1
  O2-  O191  1  0.82460329  0.57028284  0.90101700  1
  O2-  O192  1  0.04168078  0.08059749  0.26426278  1
  O2-  O193  1  0.03842391  0.08216214  0.59712128  1
  O2-  O194  1  0.04891416  0.07446292  0.93452370  1
  O2-  O195  1  0.05132079  0.58356983  0.27286481  1
  O2-  O196  1  0.05068465  0.58118930  0.60421147  1
  O2-  O197  1  0.05529051  0.58301245  0.93946215  1
  O2-  O198  1  0.54132696  0.08464332  0.26571890  1
  O2-  O199  1  0.54489674  0.08028237  0.59833507  1
  O2-  O200  1  0.53985307  0.08620136  0.93971087  1
  O2-  O201  1  0.54081036  0.59157857  0.27100570  1
  O2-  O202  1  0.54371718  0.58671753  0.60002222  1
  O2-  O203  1  0.53942756  0.58736261  0.92792854  1
  O2-  O204  1  0.16461436  0.21124436  0.26324921  1
  O2-  O205  1  0.16223440  0.21280097  0.59703832  1
  O2-  O206  1  0.16519287  0.21151331  0.93019502  1
  O2-  O207  1  0.16186939  0.71102111  0.26554597  1
  O2-  O208  1  0.16487557  0.70384509  0.60254557  1
  O2-  O209  1  0.16129893  0.71164045  0.93689180  1
  O2-  O210  1  0.67111005  0.19324449  0.27434056  1
  O2-  O211  1  0.67207338  0.20515779  0.59784092  1
  O2-  O212  1  0.66916822  0.19423583  0.94545179  1
  O2-  O213  1  0.66102349  0.71247539  0.27087938  1
  O2-  O214  1  0.66473321  0.70578640  0.59954619  1
  O2-  O215  1  0.67370000  0.70616832  0.93307561  1
  O2-  O216  1  0.09258089  0.45738927  0.06628347  1
  O2-  O217  1  0.09084456  0.45517838  0.39784143  1
  O2-  O218  1  0.08694113  0.45625065  0.73377006  1
  O2-  O219  1  0.08936553  0.95323695  0.06807489  1
  O2-  O220  1  0.08486212  0.95336480  0.39215872  1
  O2-  O221  1  0.08034467  0.95646967  0.73323377  1
  O2-  O222  1  0.58004472  0.46640008  0.06711230  1
  O2-  O223  1  0.57999208  0.46393343  0.40497759  1
  O2-  O224  1  0.58597646  0.45896758  0.72880152  1
  O2-  O225  1  0.57716694  0.95660778  0.06967835  1
  O2-  O226  1  0.58353705  0.95517461  0.39279248  1
  O2-  O227  1  0.57681237  0.95041789  0.73062413  1
  O2-  O228  1  0.21081287  0.33560058  0.06346940  1
  O2-  O229  1  0.21050763  0.33566774  0.39357520  1
  O2-  O230  1  0.20092912  0.33318528  0.73065491  1
  O2-  O231  1  0.21002477  0.83625369  0.06798087  1
  O2-  O232  1  0.20607367  0.83588066  0.39644218  1
  O2-  O233  1  0.20353275  0.82937288  0.73329144  1
  O2-  O234  1  0.69593821  0.32965356  0.06959954  1
  O2-  O235  1  0.69668882  0.32576009  0.40122013  1
  O2-  O236  1  0.69744381  0.33298882  0.72663032  1
  O2-  O237  1  0.70879385  0.83291801  0.06993384  1
  O2-  O238  1  0.70783675  0.84034531  0.39541339  1
  O2-  O239  1  0.71066005  0.83298183  0.73193135  1
  O2-  O240  1  0.45791704  0.42095089  0.26750523  1
  O2-  O241  1  0.45840229  0.42127403  0.59873682  1
  O2-  O242  1  0.45527810  0.42056295  0.93408850  1
  O2-  O243  1  0.45151866  0.91543255  0.27230342  1
  O2-  O244  1  0.45480990  0.91731502  0.59626999  1
  O2-  O245  1  0.44406756  0.92614222  0.93918779  1
  O2-  O246  1  0.95923209  0.41689311  0.27283933  1
  O2-  O247  1  0.96169364  0.41658660  0.60062394  1
  O2-  O248  1  0.96541598  0.41637342  0.93278836  1
  O2-  O249  1  0.96132193  0.90649484  0.26501277  1
  O2-  O250  1  0.96217592  0.91163471  0.59521957  1
  O2-  O251  1  0.96640626  0.90681211  0.93892051  1
  O2-  O252  1  0.33728879  0.28799877  0.26335365  1
  O2-  O253  1  0.32961866  0.29686196  0.60017634  1
  O2-  O254  1  0.33557412  0.28953836  0.93241373  1
  O2-  O255  1  0.33433252  0.79384453  0.27108737  1
  O2-  O256  1  0.33142504  0.78558968  0.59803424  1
  O2-  O257  1  0.33073301  0.78847212  0.93335675  1
  O2-  O258  1  0.83177456  0.30315680  0.27760266  1
  O2-  O259  1  0.83188225  0.30938606  0.60471196  1
  O2-  O260  1  0.82376719  0.30506017  0.93984009  1
  O2-  O261  1  0.83565995  0.79311034  0.26926444  1
  O2-  O262  1  0.83282020  0.78658604  0.59699789  1
  O2-  O263  1  0.83734589  0.79724559  0.94087267  1
  O2-  O264  1  0.40957695  0.04823660  0.06891581  1
  O2-  O265  1  0.41129803  0.04505145  0.39372174  1
  O2-  O266  1  0.41927853  0.04727766  0.73272993  1
  O2-  O267  1  0.41287339  0.54810907  0.06125182  1
  O2-  O268  1  0.41235417  0.54895647  0.39361545  1
  O2-  O269  1  0.41927561  0.54345599  0.73491716  1
  O2-  O270  1  0.92060580  0.03498847  0.06993101  1
  O2-  O271  1  0.91337957  0.03241455  0.39298178  1
  O2-  O272  1  0.91654595  0.03522354  0.73129154  1
  O2-  O273  1  0.92586569  0.54583270  0.06556450  1
  O2-  O274  1  0.92311162  0.54936548  0.40226392  1
  O2-  O275  1  0.92054848  0.54560866  0.73181793  1
  O2-  O276  1  0.28689472  0.16427305  0.06554763  1
  O2-  O277  1  0.28910449  0.16302450  0.39274388  1
  O2-  O278  1  0.28911006  0.17121989  0.73361247  1
  O2-  O279  1  0.28639462  0.66179777  0.06547771  1
  O2-  O280  1  0.28843533  0.66350235  0.39391927  1
  O2-  O281  1  0.28709338  0.66363380  0.73709785  1
  O2-  O282  1  0.79998331  0.16981535  0.07002358  1
  O2-  O283  1  0.80621153  0.16334271  0.39258092  1
  O2-  O284  1  0.80589694  0.17558646  0.72709684  1
  O2-  O285  1  0.79684299  0.66879677  0.06772986  1
  O2-  O286  1  0.78864377  0.67018747  0.40083956  1
  O2-  O287  1  0.78824719  0.66519446  0.73332581  1
