# generated using pymatgen
data_Ca2Al2SiO7
_symmetry_space_group_name_H-M   'P 1'
_cell_length_a   15.45840147
_cell_length_b   15.45806891
_cell_length_c   15.28454866
_cell_angle_alpha   89.99896159
_cell_angle_beta   89.99150764
_cell_angle_gamma   90.00324451
_symmetry_Int_Tables_number   1
_chemical_formula_structural   Ca2Al2SiO7
_chemical_formula_sum   'Ca48 Al48 Si24 O168'
_cell_volume   3652.35038412
_cell_formula_units_Z   24
loop_
 _symmetry_equiv_pos_site_id
 _symmetry_equiv_pos_as_xyz
  1  'x, y, z'
loop_
 _atom_type_symbol
 _atom_type_oxidation_number
  Ca2+  2.0
  Al0+  0.0
  Si0+  0.0
  O2-  -2.0
loop_
 _atom_site_type_symbol
 _atom_site_label
 _atom_site_symmetry_multiplicity
 _atom_site_fract_x
 _atom_site_fract_y
 _atom_site_fract_z
 _atom_site_occupancy
  Ca2+  Ca0  1  0.17379064  0.08353703  0.17595460  1
  Ca2+  Ca1  1  0.17959988  0.07897117  0.50897887  1
  Ca2+  Ca2  1  0.17021440  0.08260568  0.83068527  1
  Ca2+  Ca3  1  0.16916657  0.58712453  0.16455748  1
  Ca2+  Ca4  1  0.17313131  0.57805095  0.51308969  1
  Ca2+  Ca5  1  0.17139373  0.58384833  0.83199830  1
  Ca2+  Ca6  1  0.66838200  0.08202477  0.16730026  1
  Ca2+  Ca7  1  0.66582028  0.08182400  0.50959956  1
  Ca2+  Ca8  1  0.67282856  0.08107974  0.83240619  1
  Ca2+  Ca9  1  0.66651628  0.58229810  0.17335522  1
  Ca2+  Ca10  1  0.67136180  0.57820449  0.50937314  1
  Ca2+  Ca11  1  0.67295643  0.57574405  0.83039239  1
  Ca2+  Ca12  1  0.07212941  0.33238335  0.16292607  1
  Ca2+  Ca13  1  0.07322424  0.34072207  0.50057279  1
  Ca2+  Ca14  1  0.07247239  0.33822592  0.82509962  1
  Ca2+  Ca15  1  0.07751190  0.83079103  0.16192064  1
  Ca2+  Ca16  1  0.08198707  0.83157421  0.50050968  1
  Ca2+  Ca17  1  0.08933996  0.82344219  0.82495187  1
  Ca2+  Ca18  1  0.57877246  0.32653147  0.16905645  1
  Ca2+  Ca19  1  0.57541725  0.32550516  0.49977896  1
  Ca2+  Ca20  1  0.57980176  0.32781126  0.81915737  1
  Ca2+  Ca21  1  0.57987002  0.83288311  0.16757757  1
  Ca2+  Ca22  1  0.58157556  0.82843651  0.49314378  1
  Ca2+  Ca23  1  0.58754381  0.83707601  0.82914492  1
  Ca2+  Ca24  1  0.33500444  0.42060522  0.17278462  1
  Ca2+  Ca25  1  0.33272574  0.41816016  0.51229787  1
  Ca2+  Ca26  1  0.33342264  0.42516759  0.83272640  1
  Ca2+  Ca27  1  0.33362418  0.92077709  0.17600013  1
  Ca2+  Ca28  1  0.33635463  0.92537629  0.50600995  1
  Ca2+  Ca29  1  0.32975259  0.92120980  0.82845295  1
  Ca2+  Ca30  1  0.83668392  0.41425206  0.17056448  1
  Ca2+  Ca31  1  0.82876979  0.41757606  0.51193407  1
  Ca2+  Ca32  1  0.83356693  0.41263186  0.83062013  1
  Ca2+  Ca33  1  0.83155402  0.91897453  0.17076042  1
  Ca2+  Ca34  1  0.82711389  0.92114298  0.51130925  1
  Ca2+  Ca35  1  0.82272940  0.92740757  0.83754147  1
  Ca2+  Ca36  1  0.41891565  0.16519918  0.16933873  1
  Ca2+  Ca37  1  0.42303725  0.16777372  0.49474041  1
  Ca2+  Ca38  1  0.42354585  0.17101297  0.81851072  1
  Ca2+  Ca39  1  0.41945666  0.66901963  0.16446620  1
  Ca2+  Ca40  1  0.42176031  0.67075982  0.49423912  1
  Ca2+  Ca41  1  0.41196211  0.66513610  0.82712070  1
  Ca2+  Ca42  1  0.90956287  0.17706414  0.16107579  1
  Ca2+  Ca43  1  0.90926547  0.17790820  0.49964917  1
  Ca2+  Ca44  1  0.90816674  0.17245736  0.82703770  1
  Ca2+  Ca45  1  0.92206362  0.67497110  0.16134581  1
  Ca2+  Ca46  1  0.92065581  0.66878696  0.49872457  1
  Ca2+  Ca47  1  0.92844649  0.66318628  0.82345512  1
  Al0+  Al48  1  -0.00035186  0.00191481  0.00389773  1
  Al0+  Al49  1  -0.00034757  -0.00002900  0.33084780  1
  Al0+  Al50  1  0.00013523  -0.00040660  0.67411526  1
  Al0+  Al51  1  0.00019535  0.49999309  -0.00614743  1
  Al0+  Al52  1  0.00041121  0.50063617  0.32848946  1
  Al0+  Al53  1  0.00208435  0.50122539  0.66332559  1
  Al0+  Al54  1  0.49997538  -0.00105230  0.00280307  1
  Al0+  Al55  1  0.50120975  -0.00107408  0.32932778  1
  Al0+  Al56  1  0.49976429  -0.00112868  0.67057284  1
  Al0+  Al57  1  0.49993334  0.50159065  0.00471602  1
  Al0+  Al58  1  0.50137803  0.49836039  0.32792174  1
  Al0+  Al59  1  0.50151732  0.50056365  0.67051839  1
  Al0+  Al60  1  0.24849919  0.25180762  0.00118009  1
  Al0+  Al61  1  0.24892193  0.25054416  0.33465897  1
  Al0+  Al62  1  0.24779028  0.25139717  0.67258729  1
  Al0+  Al63  1  0.25130574  0.75034909  0.00160247  1
  Al0+  Al64  1  0.24986222  0.74898780  0.33087105  1
  Al0+  Al65  1  0.25047044  0.75001595  0.66654992  1
  Al0+  Al66  1  0.74753873  0.24986593  0.00014295  1
  Al0+  Al67  1  0.74866996  0.25048846  0.32568555  1
  Al0+  Al68  1  0.74835384  0.24965740  0.66469333  1
  Al0+  Al69  1  0.74833121  0.74942227  0.00309189  1
  Al0+  Al70  1  0.75236359  0.74955280  0.32582817  1
  Al0+  Al71  1  0.75140939  0.74946747  0.67476965  1
  Al0+  Al72  1  0.92849798  0.31868667  0.98415451  1
  Al0+  Al73  1  0.07216016  0.68016810  0.65100319  1
  Al0+  Al74  1  0.32261948  0.57120624  0.67908726  1
  Al0+  Al75  1  0.32162555  0.06998825  0.34707747  1
  Al0+  Al76  1  0.67808620  0.92760579  0.01979735  1
  Al0+  Al77  1  0.57089519  0.17755092  0.31636198  1
  Al0+  Al78  1  0.67756403  0.92694461  0.67946666  1
  Al0+  Al79  1  0.17885862  0.92835232  0.68060783  1
  Al0+  Al80  1  0.17761572  0.42801783  0.68134082  1
  Al0+  Al81  1  0.82316052  0.57115051  0.68033280  1
  Al0+  Al82  1  0.42849698  0.82025063  0.31893291  1
  Al0+  Al83  1  0.56979351  0.17705989  0.65222640  1
  Al0+  Al84  1  0.42577642  0.32066285  0.31820824  1
  Al0+  Al85  1  0.67947811  0.42848331  0.67976960  1
  Al0+  Al86  1  0.93022217  0.31927316  0.65244169  1
  Al0+  Al87  1  0.57218860  0.67785207  0.31899860  1
  Al0+  Al88  1  0.07086611  0.68253791  0.98464161  1
  Al0+  Al89  1  0.42678585  0.32301715  0.65440507  1
  Al0+  Al90  1  0.32044875  0.57077061  0.01691034  1
  Al0+  Al91  1  0.82029869  0.07216527  0.01798272  1
  Al0+  Al92  1  0.92990382  0.82245881  0.32071210  1
  Al0+  Al93  1  0.92950890  0.32093490  0.31972491  1
  Al0+  Al94  1  0.32180835  0.07253622  0.68150440  1
  Al0+  Al95  1  0.82124323  0.07269663  0.67900907  1
  Si0+  Si96  1  0.67996901  0.42833420  0.34745797  1
  Si0+  Si97  1  0.07447550  0.17691911  0.98313508  1
  Si0+  Si98  1  0.42812082  0.32295496  0.98543054  1
  Si0+  Si99  1  0.17656412  0.42876205  0.01891605  1
  Si0+  Si100  1  0.82256303  0.56936452  0.01576816  1
  Si0+  Si101  1  0.82084485  0.07262083  0.34795621  1
  Si0+  Si102  1  0.17623462  0.92651831  0.34920289  1
  Si0+  Si103  1  0.07266308  0.17443582  0.65049326  1
  Si0+  Si104  1  0.32193868  0.57042426  0.34758730  1
  Si0+  Si105  1  0.18022809  0.92881632  0.01590094  1
  Si0+  Si106  1  0.67865215  0.42971870  0.01723732  1
  Si0+  Si107  1  0.56718048  0.17902426  0.98407033  1
  Si0+  Si108  1  0.43037258  0.82080675  0.98350183  1
  Si0+  Si109  1  0.82196718  0.57135535  0.34612577  1
  Si0+  Si110  1  0.42954723  0.81981477  0.65314507  1
  Si0+  Si111  1  0.92630286  0.82390021  0.98184211  1
  Si0+  Si112  1  0.92735892  0.82243128  0.65304798  1
  Si0+  Si113  1  0.07166829  0.17792979  0.31838924  1
  Si0+  Si114  1  0.68148868  0.92787215  0.34774927  1
  Si0+  Si115  1  0.32010014  0.07226563  0.01529102  1
  Si0+  Si116  1  0.57135688  0.67731076  0.98283311  1
  Si0+  Si117  1  0.07195331  0.67781070  0.31548371  1
  Si0+  Si118  1  0.57369117  0.67917912  0.65483004  1
  Si0+  Si119  1  0.17741243  0.43045998  0.34724737  1
  O2-  O120  1  0.24653943  0.00413742  0.05830791  1
  O2-  O121  1  0.24740869  -0.00668933  0.39155324  1
  O2-  O122  1  0.24754123  0.00278849  0.73196265  1
  O2-  O123  1  0.24678629  0.49530641  0.06466593  1
  O2-  O124  1  0.25186136  0.49843674  0.38874028  1
  O2-  O125  1  0.25270156  0.49767247  0.72986980  1
  O2-  O126  1  0.75255528  -0.00299598  0.07007658  1
  O2-  O127  1  0.75122379  0.00014125  0.38983790  1
  O2-  O128  1  0.74907449  0.00013598  0.72759810  1
  O2-  O129  1  0.75149997  0.49920293  0.05989880  1
  O2-  O130  1  0.75085322  0.50057552  0.38803773  1
  O2-  O131  1  0.75394369  0.49714097  0.73149954  1
  O2-  O132  1  0.00172217  0.24441533  0.27246841  1
  O2-  O133  1  0.00410618  0.24320781  0.60545461  1
  O2-  O134  1  0.00272073  0.24244875  0.93990234  1
  O2-  O135  1  0.00598971  0.74967928  0.27261933  1
  O2-  O136  1  -0.00365655  0.75503590  0.60662212  1
  O2-  O137  1  -0.00425464  0.75664046  0.93724047  1
  O2-  O138  1  0.49567376  0.24721286  0.26667420  1
  O2-  O139  1  0.49441802  0.24702337  0.60420576  1
  O2-  O140  1  0.49503741  0.24903365  0.94279173  1
  O2-  O141  1  0.49853687  0.74724666  0.26701973  1
  O2-  O142  1  0.50289231  0.75025841  0.61266598  1
  O2-  O143  1  0.50211913  0.75036785  0.94122687  1
  O2-  O144  1  0.07878288  0.17942925  0.08902363  1
  O2-  O145  1  0.07150996  0.17766914  0.42337171  1
  O2-  O146  1  0.07121286  0.17471389  0.75622838  1
  O2-  O147  1  0.06886122  0.68503349  0.09847101  1
  O2-  O148  1  0.07133455  0.67543926  0.42052209  1
  O2-  O149  1  0.07286510  0.68229584  0.76415468  1
  O2-  O150  1  0.56607033  0.17988730  0.08929780  1
  O2-  O151  1  0.57315606  0.17852339  0.42914769  1
  O2-  O152  1  0.56912321  0.17836285  0.76655654  1
  O2-  O153  1  0.56967333  0.67543074  0.08786395  1
  O2-  O154  1  0.57323307  0.67874727  0.43280171  1
  O2-  O155  1  0.57305013  0.67961343  0.76016027  1
  O2-  O156  1  0.17520287  0.43314711  0.24187156  1
  O2-  O157  1  0.17615687  0.43226865  0.56698818  1
  O2-  O158  1  0.17722843  0.42820831  0.91416630  1
  O2-  O159  1  0.17560186  0.92829050  0.24294907  1
  O2-  O160  1  0.18136823  0.92830652  0.56677334  1
  O2-  O161  1  0.18310639  0.92718139  0.91141031  1
  O2-  O162  1  0.68159685  0.42919734  0.24164716  1
  O2-  O163  1  0.67930771  0.43158786  0.56574514  1
  O2-  O164  1  0.67683869  0.43065955  0.91268331  1
  O2-  O165  1  0.68338526  0.92761051  0.24278627  1
  O2-  O166  1  0.67924342  0.92333907  0.56535412  1
  O2-  O167  1  0.67704441  0.92966975  0.90679822  1
  O2-  O168  1  0.42940750  0.32183502  0.09063747  1
  O2-  O169  1  0.42721186  0.32335756  0.43090089  1
  O2-  O170  1  0.43136233  0.32316485  0.76876831  1
  O2-  O171  1  0.42975215  0.82011714  0.08854466  1
  O2-  O172  1  0.42997006  0.81896723  0.43252898  1
  O2-  O173  1  0.42833625  0.81882350  0.75866856  1
  O2-  O174  1  0.93102148  0.31958038  0.09791120  1
  O2-  O175  1  0.92919648  0.32302227  0.43214236  1
  O2-  O176  1  0.93051541  0.31819044  0.76544324  1
  O2-  O177  1  0.92877329  0.82129485  0.08812634  1
  O2-  O178  1  0.92841207  0.82126803  0.43348485  1
  O2-  O179  1  0.92738658  0.82003764  0.75844119  1
  O2-  O180  1  0.31741743  0.06867999  0.23295955  1
  O2-  O181  1  0.32316208  0.06872990  0.56789297  1
  O2-  O182  1  0.32070859  0.07133568  0.91079166  1
  O2-  O183  1  0.31939562  0.57091292  0.24220691  1
  O2-  O184  1  0.32246773  0.57289006  0.56504019  1
  O2-  O185  1  0.32184657  0.56995652  0.90464061  1
  O2-  O186  1  0.82004165  0.07202646  0.24291317  1
  O2-  O187  1  0.82094552  0.07070315  0.56464163  1
  O2-  O188  1  0.81670692  0.07333485  0.90506657  1
  O2-  O189  1  0.82257511  0.56952254  0.24047295  1
  O2-  O190  1  0.81937362  0.57336641  0.56604387  1
  O2-  O191  1  0.82130557  0.56891107  0.91130496  1
  O2-  O192  1  0.04941718  0.08402172  0.27070936  1
  O2-  O193  1  0.04905703  0.07970357  0.60536479  1
  O2-  O194  1  0.05329044  0.08101846  0.94011178  1
  O2-  O195  1  0.04258764  0.58692421  0.26554043  1
  O2-  O196  1  0.04132691  0.58520916  0.59473607  1
  O2-  O197  1  0.04154447  0.58536555  0.93242985  1
  O2-  O198  1  0.54458922  0.07953974  0.26181285  1
  O2-  O199  1  0.54301074  0.07717389  0.60096563  1
  O2-  O200  1  0.53965294  0.08627302  0.93897740  1
  O2-  O201  1  0.54594739  0.58001367  0.26365821  1
  O2-  O202  1  0.54614027  0.58803990  0.60672075  1
  O2-  O203  1  0.54120446  0.58567468  0.93649691  1
  O2-  O204  1  0.16362498  0.20609359  0.26986208  1
  O2-  O205  1  0.16695470  0.19980119  0.60612545  1
  O2-  O206  1  0.16744623  0.20465079  0.93598837  1
  O2-  O207  1  0.16593534  0.70103295  0.26889907  1
  O2-  O208  1  0.16796657  0.71307591  0.59601706  1
  O2-  O209  1  0.16834543  0.71440022  0.93348086  1
  O2-  O210  1  0.66595436  0.21166567  0.25909283  1
  O2-  O211  1  0.66655295  0.20700663  0.59784302  1
  O2-  O212  1  0.65858272  0.20910059  0.93859970  1
  O2-  O213  1  0.66906799  0.70661404  0.26279496  1
  O2-  O214  1  0.66585473  0.70660424  0.60774352  1
  O2-  O215  1  0.66475132  0.70273137  0.93748961  1
  O2-  O216  1  0.08319105  0.45808283  0.06443102  1
  O2-  O217  1  0.08654287  0.46263109  0.39452618  1
  O2-  O218  1  0.08173232  0.46214804  0.73480934  1
  O2-  O219  1  0.08646169  0.95135501  0.06264144  1
  O2-  O220  1  0.08294977  0.95330309  0.39518196  1
  O2-  O221  1  0.08084720  0.95070685  0.73672172  1
  O2-  O222  1  0.58855046  0.46054829  0.06682154  1
  O2-  O223  1  0.58742320  0.45542856  0.39296918  1
  O2-  O224  1  0.58463300  0.46089665  0.73714845  1
  O2-  O225  1  0.57938227  0.95880192  0.07202400  1
  O2-  O226  1  0.58833476  0.95318800  0.39262451  1
  O2-  O227  1  0.58022342  0.95265612  0.73491076  1
  O2-  O228  1  0.20050205  0.33427661  0.06557787  1
  O2-  O229  1  0.19896494  0.33714560  0.39322583  1
  O2-  O230  1  0.19706177  0.32952550  0.73717387  1
  O2-  O231  1  0.21267862  0.83975701  0.06598164  1
  O2-  O232  1  0.19871367  0.83099739  0.39251869  1
  O2-  O233  1  0.21388493  0.83298224  0.73527924  1
  O2-  O234  1  0.70495021  0.33758695  0.06449761  1
  O2-  O235  1  0.70953851  0.33653662  0.39274227  1
  O2-  O236  1  0.70580157  0.33058097  0.73313812  1
  O2-  O237  1  0.70257123  0.82682416  0.07114038  1
  O2-  O238  1  0.71107363  0.83526486  0.39271548  1
  O2-  O239  1  0.70669521  0.83129524  0.73750602  1
  O2-  O240  1  0.45790180  0.41708462  0.26242546  1
  O2-  O241  1  0.45938667  0.42082694  0.60172843  1
  O2-  O242  1  0.45962790  0.41469615  0.94092762  1
  O2-  O243  1  0.45841439  0.91652340  0.26313163  1
  O2-  O244  1  0.45635402  0.91165046  0.60622969  1
  O2-  O245  1  0.45724530  0.91343458  0.93697845  1
  O2-  O246  1  0.96240931  0.41635640  0.26331197  1
  O2-  O247  1  0.96162917  0.41561968  0.59786283  1
  O2-  O248  1  0.95919040  0.41528846  0.93114246  1
  O2-  O249  1  0.95881210  0.91855670  0.26336228  1
  O2-  O250  1  0.95216806  0.91673509  0.60788452  1
  O2-  O251  1  0.95005982  0.91964569  0.94053907  1
  O2-  O252  1  0.32638817  0.29519718  0.26448983  1
  O2-  O253  1  0.32487228  0.30187487  0.60638496  1
  O2-  O254  1  0.33363454  0.29996133  0.94166038  1
  O2-  O255  1  0.32919528  0.79417829  0.26487756  1
  O2-  O256  1  0.33974093  0.79074283  0.60354268  1
  O2-  O257  1  0.33887454  0.79159014  0.93701859  1
  O2-  O258  1  0.83415839  0.29152062  0.26294599  1
  O2-  O259  1  0.83342357  0.28976126  0.59791268  1
  O2-  O260  1  0.82977465  0.29027166  0.93343355  1
  O2-  O261  1  0.83707449  0.78884772  0.26124211  1
  O2-  O262  1  0.83390017  0.79459848  0.60710148  1
  O2-  O263  1  0.83153885  0.79708864  0.93993280  1
  O2-  O264  1  0.41049348  0.04100519  0.06317309  1
  O2-  O265  1  0.41932460  0.03894189  0.39793192  1
  O2-  O266  1  0.41691576  0.03892932  0.73748122  1
  O2-  O267  1  0.41734865  0.54060924  0.07181209  1
  O2-  O268  1  0.41568889  0.54493374  0.39144494  1
  O2-  O269  1  0.42036483  0.54660812  0.73493013  1
  O2-  O270  1  0.92170736  0.05032124  0.06987516  1
  O2-  O271  1  0.91430780  0.04723158  0.39265560  1
  O2-  O272  1  0.91851593  0.04731201  0.73518460  1
  O2-  O273  1  0.91456075  0.54108097  0.06306583  1
  O2-  O274  1  0.91466436  0.54406352  0.39182769  1
  O2-  O275  1  0.92159814  0.54429909  0.73138416  1
  O2-  O276  1  0.29467659  0.16532065  0.06259648  1
  O2-  O277  1  0.28994876  0.16683222  0.39950675  1
  O2-  O278  1  0.29555278  0.17005955  0.73639452  1
  O2-  O279  1  0.28825475  0.66754356  0.07095046  1
  O2-  O280  1  0.29408754  0.66281831  0.39387840  1
  O2-  O281  1  0.29139972  0.66796264  0.73329377  1
  O2-  O282  1  0.78570229  0.16968068  0.07093750  1
  O2-  O283  1  0.79119587  0.16522444  0.39232152  1
  O2-  O284  1  0.79040818  0.16918486  0.73303697  1
  O2-  O285  1  0.79498997  0.66162239  0.06322409  1
  O2-  O286  1  0.79484966  0.66381709  0.39195922  1
  O2-  O287  1  0.79368744  0.66642623  0.73838735  1
