# generated using pymatgen
data_Ca2Al2SiO7
_symmetry_space_group_name_H-M   'P 1'
_cell_length_a   15.45346855
_cell_length_b   15.45344183
_cell_length_c   15.28031315
_cell_angle_alpha   89.99039182
_cell_angle_beta   90.00708031
_cell_angle_gamma   90.01247558
_symmetry_Int_Tables_number   1
_chemical_formula_structural   Ca2Al2SiO7
_chemical_formula_sum   'Ca48 Al48 Si24 O168'
_cell_volume   3649.08037505
_cell_formula_units_Z   24
loop_
 _symmetry_equiv_pos_site_id
 _symmetry_equiv_pos_as_xyz
  1  'x, y, z'
loop_
 _atom_type_symbol
 _atom_type_oxidation_number
  Ca2+  2.0
  Al0+  0.0
  Si0+  0.0
  O2-  -2.0
loop_
 _atom_site_type_symbol
 _atom_site_label
 _atom_site_symmetry_multiplicity
 _atom_site_fract_x
 _atom_site_fract_y
 _atom_site_fract_z
 _atom_site_occupancy
  Ca2+  Ca0  1  0.16951635  0.07793375  0.16745029  1
  Ca2+  Ca1  1  0.16742114  0.07319467  0.51115028  1
  Ca2+  Ca2  1  0.17181840  0.07856715  0.83789513  1
  Ca2+  Ca3  1  0.18156039  0.58151515  0.17399984  1
  Ca2+  Ca4  1  0.16910844  0.58111961  0.50247106  1
  Ca2+  Ca5  1  0.17044363  0.58331727  0.84032170  1
  Ca2+  Ca6  1  0.65648744  0.07853776  0.16814422  1
  Ca2+  Ca7  1  0.67223536  0.07815436  0.50894143  1
  Ca2+  Ca8  1  0.66262524  0.07366713  0.83854700  1
  Ca2+  Ca9  1  0.66821796  0.57902885  0.17334448  1
  Ca2+  Ca10  1  0.66629927  0.58443796  0.50577172  1
  Ca2+  Ca11  1  0.67737114  0.59150969  0.83504667  1
  Ca2+  Ca12  1  0.08838645  0.32993434  0.16141050  1
  Ca2+  Ca13  1  0.08472503  0.32805042  0.49782100  1
  Ca2+  Ca14  1  0.08821366  0.31806269  0.82742883  1
  Ca2+  Ca15  1  0.07984052  0.84251157  0.16435670  1
  Ca2+  Ca16  1  0.08192547  0.83484250  0.49621890  1
  Ca2+  Ca17  1  0.08829650  0.82992907  0.82603703  1
  Ca2+  Ca18  1  0.58975133  0.32227033  0.16451789  1
  Ca2+  Ca19  1  0.57876619  0.33060677  0.49253194  1
  Ca2+  Ca20  1  0.57513517  0.32699684  0.82826280  1
  Ca2+  Ca21  1  0.57512501  0.82853600  0.15772277  1
  Ca2+  Ca22  1  0.59064409  0.82250995  0.49699935  1
  Ca2+  Ca23  1  0.57934241  0.83615563  0.83004416  1
  Ca2+  Ca24  1  0.33242183  0.42781396  0.17340858  1
  Ca2+  Ca25  1  0.33489371  0.41905773  0.49965674  1
  Ca2+  Ca26  1  0.33763017  0.42222417  0.83563447  1
  Ca2+  Ca27  1  0.32540966  0.91579116  0.16539657  1
  Ca2+  Ca28  1  0.32359220  0.92295855  0.50723097  1
  Ca2+  Ca29  1  0.32551155  0.92351595  0.84184004  1
  Ca2+  Ca30  1  0.82969978  0.42305675  0.17063334  1
  Ca2+  Ca31  1  0.82423222  0.42175108  0.50511169  1
  Ca2+  Ca32  1  0.83787310  0.43034638  0.83582216  1
  Ca2+  Ca33  1  0.82856067  0.91529387  0.16861370  1
  Ca2+  Ca34  1  0.82971439  0.91815850  0.50785255  1
  Ca2+  Ca35  1  0.82038456  0.91845696  0.83196219  1
  Ca2+  Ca36  1  0.42528689  0.16231328  0.15887335  1
  Ca2+  Ca37  1  0.41751105  0.16953983  0.49942384  1
  Ca2+  Ca38  1  0.41354394  0.16619879  0.82840602  1
  Ca2+  Ca39  1  0.41558261  0.66698322  0.16239138  1
  Ca2+  Ca40  1  0.42743095  0.66551398  0.49406596  1
  Ca2+  Ca41  1  0.41723602  0.67544763  0.82836022  1
  Ca2+  Ca42  1  0.92507264  0.17084089  0.15834056  1
  Ca2+  Ca43  1  0.92238092  0.15642159  0.49965345  1
  Ca2+  Ca44  1  0.92769076  0.15875461  0.82847331  1
  Ca2+  Ca45  1  0.91580663  0.67201372  0.16383499  1
  Ca2+  Ca46  1  0.91978318  0.67179910  0.49810714  1
  Ca2+  Ca47  1  0.92032716  0.66492071  0.82387686  1
  Al0+  Al48  1  -0.00266266  -0.00016117  -0.00280745  1
  Al0+  Al49  1  -0.00012837  -0.00020362  0.33065873  1
  Al0+  Al50  1  -0.00133468  -0.00162075  0.66974687  1
  Al0+  Al51  1  -0.00131781  0.50131267  0.00609385  1
  Al0+  Al52  1  0.00069437  0.50061003  0.33561528  1
  Al0+  Al53  1  0.00030266  0.49926537  0.66518077  1
  Al0+  Al54  1  0.49904498  -0.00196530  -0.00073585  1
  Al0+  Al55  1  0.49975518  -0.00140133  0.33218326  1
  Al0+  Al56  1  0.49789361  0.00080101  0.67062548  1
  Al0+  Al57  1  0.50272615  0.49907063  0.00362001  1
  Al0+  Al58  1  0.50157029  0.49906207  0.33555937  1
  Al0+  Al59  1  0.49935466  0.49914619  0.65950014  1
  Al0+  Al60  1  0.25076017  0.24933307  -0.00068283  1
  Al0+  Al61  1  0.25119031  0.25101333  0.33450625  1
  Al0+  Al62  1  0.24917351  0.25065753  0.65910484  1
  Al0+  Al63  1  0.24960161  0.74989313  0.00415488  1
  Al0+  Al64  1  0.25055587  0.75047104  0.34245831  1
  Al0+  Al65  1  0.25064639  0.74863635  0.66328709  1
  Al0+  Al66  1  0.75072821  0.25078006  -0.00830469  1
  Al0+  Al67  1  0.75152276  0.25067372  0.33304932  1
  Al0+  Al68  1  0.75043271  0.25139035  0.67213508  1
  Al0+  Al69  1  0.75115902  0.75072858  0.00862312  1
  Al0+  Al70  1  0.75076086  0.75067840  0.32358874  1
  Al0+  Al71  1  0.75014174  0.74947010  0.67021123  1
  Al0+  Al72  1  0.67864148  0.93088037  0.01634349  1
  Al0+  Al73  1  0.32227665  0.57109474  0.01104428  1
  Al0+  Al74  1  0.07305195  0.67689574  0.65316670  1
  Al0+  Al75  1  0.07115066  0.17957770  0.98626432  1
  Al0+  Al76  1  0.17642221  0.92871546  0.01554410  1
  Al0+  Al77  1  0.93106187  0.82123655  0.31875501  1
  Al0+  Al78  1  0.32117734  0.07238705  0.01608901  1
  Al0+  Al79  1  0.68169575  0.42789996  0.34683477  1
  Al0+  Al80  1  0.17922499  0.92635583  0.68226560  1
  Al0+  Al81  1  0.57052421  0.67792093  0.31747030  1
  Al0+  Al82  1  0.57174222  0.17896460  0.32125412  1
  Al0+  Al83  1  0.57037404  0.17801214  0.98434569  1
  Al0+  Al84  1  0.82011997  0.56889826  0.67799137  1
  Al0+  Al85  1  0.17744474  0.93213505  0.34841250  1
  Al0+  Al86  1  0.32257287  0.57156280  0.35192973  1
  Al0+  Al87  1  0.67804970  0.92832324  0.68001564  1
  Al0+  Al88  1  0.42761816  0.81809133  0.98645847  1
  Al0+  Al89  1  0.82185286  0.57136625  0.01629706  1
  Al0+  Al90  1  0.31909693  0.07393950  0.68112508  1
  Al0+  Al91  1  0.17784768  0.42768132  0.34983594  1
  Al0+  Al92  1  0.42930165  0.32049801  0.65127199  1
  Al0+  Al93  1  0.06779656  0.17812043  0.65151856  1
  Al0+  Al94  1  0.82158119  0.07346689  0.68214967  1
  Al0+  Al95  1  0.57104601  0.68199718  0.65496070  1
  Si0+  Si96  1  0.92865646  0.81951591  0.65191246  1
  Si0+  Si97  1  0.17837969  0.42789334  0.01414182  1
  Si0+  Si98  1  0.82105622  0.07332122  0.01681932  1
  Si0+  Si99  1  0.06946006  0.67945710  0.98783847  1
  Si0+  Si100  1  0.07337746  0.67720775  0.31631985  1
  Si0+  Si101  1  0.32432055  0.07186199  0.35015320  1
  Si0+  Si102  1  0.57346441  0.67681869  0.98438011  1
  Si0+  Si103  1  0.92853548  0.32474490  0.98217380  1
  Si0+  Si104  1  0.67857907  0.92846513  0.34615741  1
  Si0+  Si105  1  0.82058402  0.07069436  0.34510124  1
  Si0+  Si106  1  0.92917484  0.32231847  0.31898395  1
  Si0+  Si107  1  0.42674323  0.82143419  0.31720749  1
  Si0+  Si108  1  0.42801540  0.32112917  0.31453186  1
  Si0+  Si109  1  0.67913921  0.42643302  0.01591680  1
  Si0+  Si110  1  0.42726253  0.82400447  0.64892647  1
  Si0+  Si111  1  0.67458613  0.42813793  0.68440724  1
  Si0+  Si112  1  0.92681119  0.82056430  0.98297959  1
  Si0+  Si113  1  0.07103574  0.17960106  0.31842546  1
  Si0+  Si114  1  0.17876131  0.42991227  0.68157600  1
  Si0+  Si115  1  0.92720886  0.32368269  0.64954428  1
  Si0+  Si116  1  0.32269559  0.56949129  0.68098786  1
  Si0+  Si117  1  0.82087499  0.57464023  0.35058643  1
  Si0+  Si118  1  0.42860096  0.32377185  0.98470834  1
  Si0+  Si119  1  0.57338084  0.17682898  0.65077625  1
  O2-  O120  1  0.24735087  0.00187888  0.06556645  1
  O2-  O121  1  0.25268631  0.00637434  0.39402597  1
  O2-  O122  1  0.25008439  -0.00059491  0.73136291  1
  O2-  O123  1  0.24859758  0.49503099  0.05742607  1
  O2-  O124  1  0.24879684  0.50004635  0.40074517  1
  O2-  O125  1  0.24893564  0.50161235  0.72423203  1
  O2-  O126  1  0.75005982  0.00905533  0.06390487  1
  O2-  O127  1  0.74830532  0.00100320  0.38728325  1
  O2-  O128  1  0.74437029  0.00603989  0.73015674  1
  O2-  O129  1  0.74659174  0.49635584  0.06041582  1
  O2-  O130  1  0.75202499  0.50637177  0.39457942  1
  O2-  O131  1  0.74536944  0.49534211  0.72754964  1
  O2-  O132  1  0.00471822  0.25574643  0.27674398  1
  O2-  O133  1  -0.01089657  0.24921810  0.60418030  1
  O2-  O134  1  -0.00269910  0.25584316  0.93925875  1
  O2-  O135  1  0.00633158  0.74697408  0.27101299  1
  O2-  O136  1  0.00061367  0.75430328  0.60742724  1
  O2-  O137  1  -0.00034546  0.75032138  0.94280386  1
  O2-  O138  1  0.49579959  0.25115167  0.27140614  1
  O2-  O139  1  0.50516657  0.24556920  0.60607150  1
  O2-  O140  1  0.49414271  0.25236889  0.93996371  1
  O2-  O141  1  0.49359439  0.75087170  0.27246730  1
  O2-  O142  1  0.49927842  0.75817846  0.60540131  1
  O2-  O143  1  0.50279223  0.74282542  0.93996678  1
  O2-  O144  1  0.06878950  0.18246536  0.10020907  1
  O2-  O145  1  0.06739756  0.17729340  0.42332409  1
  O2-  O146  1  0.06924724  0.18104280  0.76447003  1
  O2-  O147  1  0.06752208  0.67833600  0.09282304  1
  O2-  O148  1  0.06974350  0.67641758  0.42187249  1
  O2-  O149  1  0.07135630  0.67437210  0.76691242  1
  O2-  O150  1  0.57142031  0.18116960  0.09789970  1
  O2-  O151  1  0.57288558  0.17980691  0.43422146  1
  O2-  O152  1  0.57237553  0.17872164  0.75626615  1
  O2-  O153  1  0.57208230  0.67734454  0.09012640  1
  O2-  O154  1  0.57372556  0.68155278  0.43076948  1
  O2-  O155  1  0.56939872  0.68103471  0.76811028  1
  O2-  O156  1  0.17955777  0.42757868  0.23572847  1
  O2-  O157  1  0.17799620  0.43092419  0.57674717  1
  O2-  O158  1  0.17648380  0.42977368  0.90833654  1
  O2-  O159  1  0.17569059  0.93560608  0.23558899  1
  O2-  O160  1  0.17963124  0.92847357  0.56826997  1
  O2-  O161  1  0.17756971  0.92675919  0.90252063  1
  O2-  O162  1  0.68691258  0.42602403  0.23368721  1
  O2-  O163  1  0.67603674  0.42822034  0.57855695  1
  O2-  O164  1  0.67832092  0.42749729  0.91046923  1
  O2-  O165  1  0.67859919  0.92990364  0.24124189  1
  O2-  O166  1  0.68253665  0.92650857  0.56557942  1
  O2-  O167  1  0.68088336  0.92893869  0.90359226  1
  O2-  O168  1  0.43029910  0.32603967  0.09006897  1
  O2-  O169  1  0.42850180  0.31938486  0.42022081  1
  O2-  O170  1  0.43103631  0.32377956  0.76464415  1
  O2-  O171  1  0.42793568  0.81563457  0.09986970  1
  O2-  O172  1  0.43049596  0.82379704  0.42278941  1
  O2-  O173  1  0.42527127  0.82009141  0.75453083  1
  O2-  O174  1  0.92816133  0.32421533  0.08835459  1
  O2-  O175  1  0.92660480  0.31995818  0.42372315  1
  O2-  O176  1  0.93338273  0.32868664  0.75481742  1
  O2-  O177  1  0.92713955  0.82023593  0.08838161  1
  O2-  O178  1  0.92935863  0.82114792  0.43179951  1
  O2-  O179  1  0.92667397  0.81594247  0.75757963  1
  O2-  O180  1  0.32511202  0.07113178  0.24475901  1
  O2-  O181  1  0.31778295  0.07287228  0.56690165  1
  O2-  O182  1  0.31850753  0.07328503  0.90291553  1
  O2-  O183  1  0.32119339  0.57010024  0.23774961  1
  O2-  O184  1  0.32314805  0.56718524  0.57637484  1
  O2-  O185  1  0.32025085  0.57009000  0.89743955  1
  O2-  O186  1  0.82202665  0.07107311  0.24010606  1
  O2-  O187  1  0.82093496  0.07031969  0.56739803  1
  O2-  O188  1  0.82161963  0.06967108  0.91171294  1
  O2-  O189  1  0.82078633  0.57214827  0.24480033  1
  O2-  O190  1  0.81876025  0.56846707  0.56496618  1
  O2-  O191  1  0.82391121  0.57094611  0.90305759  1
  O2-  O192  1  0.03724098  0.09105237  0.26881938  1
  O2-  O193  1  0.03707887  0.08045558  0.59835734  1
  O2-  O194  1  0.03729859  0.08393304  0.93227731  1
  O2-  O195  1  0.04707592  0.58349790  0.26975261  1
  O2-  O196  1  0.03898132  0.58196631  0.59767466  1
  O2-  O197  1  0.04138273  0.58670458  0.94129985  1
  O2-  O198  1  0.54194709  0.08142316  0.26751315  1
  O2-  O199  1  0.54850886  0.08259869  0.60511318  1
  O2-  O200  1  0.54087782  0.08111510  0.93198585  1
  O2-  O201  1  0.54312062  0.57937733  0.26546449  1
  O2-  O202  1  0.53965256  0.58628000  0.59939851  1
  O2-  O203  1  0.55317211  0.58109167  0.94048819  1
  O2-  O204  1  0.16481538  0.20363099  0.27287579  1
  O2-  O205  1  0.16162186  0.21305455  0.59515145  1
  O2-  O206  1  0.16757410  0.21046876  0.93173941  1
  O2-  O207  1  0.16912476  0.70163798  0.27478278  1
  O2-  O208  1  0.16976069  0.70383973  0.59740636  1
  O2-  O209  1  0.16168056  0.70523424  0.94065163  1
  O2-  O210  1  0.66811012  0.21139557  0.26632344  1
  O2-  O211  1  0.66875963  0.20191292  0.60727530  1
  O2-  O212  1  0.66685923  0.20837090  0.92903089  1
  O2-  O213  1  0.66573932  0.70945704  0.26132647  1
  O2-  O214  1  0.66825871  0.71126835  0.60019691  1
  O2-  O215  1  0.66774062  0.70638215  0.94193599  1
  O2-  O216  1  0.08571807  0.45347415  0.06242091  1
  O2-  O217  1  0.07814984  0.45351986  0.40240124  1
  O2-  O218  1  0.08738537  0.45658545  0.72986804  1
  O2-  O219  1  0.07639004  0.95738050  0.06586235  1
  O2-  O220  1  0.08081467  0.96493893  0.40173455  1
  O2-  O221  1  0.07954804  0.95095950  0.73264946  1
  O2-  O222  1  0.58630088  0.44958227  0.06485211  1
  O2-  O223  1  0.58407587  0.45352096  0.39971083  1
  O2-  O224  1  0.58144712  0.45629889  0.72910536  1
  O2-  O225  1  0.58173680  0.95904524  0.07011462  1
  O2-  O226  1  0.58658435  0.95336530  0.39420984  1
  O2-  O227  1  0.57835360  0.95125418  0.73213206  1
  O2-  O228  1  0.20229424  0.33442194  0.06036217  1
  O2-  O229  1  0.20566752  0.32852242  0.40254116  1
  O2-  O230  1  0.20908775  0.33837483  0.72707811  1
  O2-  O231  1  0.20554498  0.83118380  0.07014913  1
  O2-  O232  1  0.20408170  0.83472434  0.40189380  1
  O2-  O233  1  0.20788960  0.82657014  0.73277210  1
  O2-  O234  1  0.70808269  0.33287547  0.06083791  1
  O2-  O235  1  0.71689793  0.33347639  0.40310231  1
  O2-  O236  1  0.69717393  0.33432603  0.73111144  1
  O2-  O237  1  0.71284381  0.83635141  0.07234727  1
  O2-  O238  1  0.71044563  0.83672072  0.39092484  1
  O2-  O239  1  0.71192247  0.83330057  0.73627948  1
  O2-  O240  1  0.45506381  0.41473329  0.27015215  1
  O2-  O241  1  0.46102751  0.41513282  0.59348237  1
  O2-  O242  1  0.45859515  0.41613262  0.93659321  1
  O2-  O243  1  0.45418450  0.91398207  0.26967492  1
  O2-  O244  1  0.44860376  0.91939018  0.60463995  1
  O2-  O245  1  0.45919933  0.91376091  0.93232003  1
  O2-  O246  1  0.95256937  0.41598409  0.27200597  1
  O2-  O247  1  0.95865799  0.41359381  0.59922535  1
  O2-  O248  1  0.95544312  0.41922885  0.93811212  1
  O2-  O249  1  0.96139079  0.91749367  0.26221714  1
  O2-  O250  1  0.95029312  0.91400696  0.60616610  1
  O2-  O251  1  0.95038829  0.91308769  0.93590060  1
  O2-  O252  1  0.33330568  0.29834327  0.26874883  1
  O2-  O253  1  0.33386731  0.29139395  0.59405717  1
  O2-  O254  1  0.33368669  0.30290679  0.93915835  1
  O2-  O255  1  0.33160021  0.79666194  0.27389262  1
  O2-  O256  1  0.33601357  0.79400965  0.60052312  1
  O2-  O257  1  0.33111311  0.78603459  0.93230491  1
  O2-  O258  1  0.84069654  0.28963141  0.26788209  1
  O2-  O259  1  0.82974815  0.30544307  0.60793726  1
  O2-  O260  1  0.83561978  0.30236745  0.93376980  1
  O2-  O261  1  0.83625541  0.79079699  0.26042338  1
  O2-  O262  1  0.83698228  0.78947476  0.60414841  1
  O2-  O263  1  0.83539421  0.78883556  0.93748952  1
  O2-  O264  1  0.41866364  0.04116624  0.06822591  1
  O2-  O265  1  0.41661837  0.04296726  0.39796928  1
  O2-  O266  1  0.41892048  0.05085009  0.73271425  1
  O2-  O267  1  0.41908599  0.54214356  0.06611305  1
  O2-  O268  1  0.42060952  0.54068047  0.40365664  1
  O2-  O269  1  0.41323285  0.53778228  0.72831064  1
  O2-  O270  1  0.91318300  0.04421138  0.06421345  1
  O2-  O271  1  0.91115469  0.04014286  0.39320374  1
  O2-  O272  1  0.91694146  0.03949540  0.73681044  1
  O2-  O273  1  0.91679166  0.53956762  0.07418194  1
  O2-  O274  1  0.91518671  0.54951678  0.39474986  1
  O2-  O275  1  0.91647607  0.53642801  0.73296135  1
  O2-  O276  1  0.29523764  0.17209052  0.06906124  1
  O2-  O277  1  0.30224646  0.16730505  0.39317631  1
  O2-  O278  1  0.28873625  0.17289843  0.73150324  1
  O2-  O279  1  0.28824962  0.66408425  0.06881404  1
  O2-  O280  1  0.29717315  0.66970094  0.40628478  1
  O2-  O281  1  0.29738605  0.66255338  0.72626238  1
  O2-  O282  1  0.80121693  0.17056368  0.05798717  1
  O2-  O283  1  0.79540182  0.16221210  0.39367830  1
  O2-  O284  1  0.80347059  0.17456219  0.73435453  1
  O2-  O285  1  0.79232812  0.66645836  0.07259282  1
  O2-  O286  1  0.79444912  0.66917787  0.39342867  1
  O2-  O287  1  0.79021281  0.66408094  0.73470475  1
