# generated using pymatgen
data_Ca2Al2SiO7
_symmetry_space_group_name_H-M   'P 1'
_cell_length_a   15.46042560
_cell_length_b   15.46058569
_cell_length_c   15.28663106
_cell_angle_alpha   90.00300150
_cell_angle_beta   89.99911897
_cell_angle_gamma   89.99663692
_symmetry_Int_Tables_number   1
_chemical_formula_structural   Ca2Al2SiO7
_chemical_formula_sum   'Ca48 Al48 Si24 O168'
_cell_volume   3653.92113805
_cell_formula_units_Z   24
loop_
 _symmetry_equiv_pos_site_id
 _symmetry_equiv_pos_as_xyz
  1  'x, y, z'
loop_
 _atom_type_symbol
 _atom_type_oxidation_number
  Ca2+  2.0
  Al0+  0.0
  Si0+  0.0
  O2-  -2.0
loop_
 _atom_site_type_symbol
 _atom_site_label
 _atom_site_symmetry_multiplicity
 _atom_site_fract_x
 _atom_site_fract_y
 _atom_site_fract_z
 _atom_site_occupancy
  Ca2+  Ca0  1  0.16454108  0.07475944  0.17505996  1
  Ca2+  Ca1  1  0.17242282  0.08447751  0.50142368  1
  Ca2+  Ca2  1  0.17571718  0.08013642  0.83468667  1
  Ca2+  Ca3  1  0.17760535  0.58194340  0.16985035  1
  Ca2+  Ca4  1  0.17131695  0.57293516  0.50785941  1
  Ca2+  Ca5  1  0.17569945  0.57406262  0.83565294  1
  Ca2+  Ca6  1  0.67514839  0.08895479  0.17293596  1
  Ca2+  Ca7  1  0.66909440  0.08750548  0.50802438  1
  Ca2+  Ca8  1  0.66913961  0.08058358  0.83340047  1
  Ca2+  Ca9  1  0.66216162  0.57596007  0.17602187  1
  Ca2+  Ca10  1  0.66370625  0.58023751  0.50352146  1
  Ca2+  Ca11  1  0.66830720  0.58717670  0.83129702  1
  Ca2+  Ca12  1  0.07782112  0.32518626  0.16875381  1
  Ca2+  Ca13  1  0.07340440  0.32861441  0.49637374  1
  Ca2+  Ca14  1  0.07821876  0.33285020  0.82287877  1
  Ca2+  Ca15  1  0.08562876  0.84010269  0.16267580  1
  Ca2+  Ca16  1  0.08337481  0.83429296  0.49280119  1
  Ca2+  Ca17  1  0.08459868  0.83514647  0.83270366  1
  Ca2+  Ca18  1  0.58107779  0.32969925  0.16992185  1
  Ca2+  Ca19  1  0.58016361  0.32335353  0.49236097  1
  Ca2+  Ca20  1  0.57113809  0.32587363  0.82496684  1
  Ca2+  Ca21  1  0.58371862  0.83048151  0.16577515  1
  Ca2+  Ca22  1  0.57919373  0.82946537  0.49798490  1
  Ca2+  Ca23  1  0.58452090  0.83253864  0.82018540  1
  Ca2+  Ca24  1  0.34707816  0.42011666  0.16974856  1
  Ca2+  Ca25  1  0.32884958  0.40476942  0.50709173  1
  Ca2+  Ca26  1  0.33442727  0.41494445  0.83746656  1
  Ca2+  Ca27  1  0.32328077  0.91149398  0.17413307  1
  Ca2+  Ca28  1  0.33462498  0.91694681  0.50461814  1
  Ca2+  Ca29  1  0.33780652  0.92407184  0.83331610  1
  Ca2+  Ca30  1  0.82593172  0.41518945  0.17801970  1
  Ca2+  Ca31  1  0.82893275  0.41471464  0.50509877  1
  Ca2+  Ca32  1  0.83419141  0.41913735  0.82975850  1
  Ca2+  Ca33  1  0.82631749  0.92849666  0.17006588  1
  Ca2+  Ca34  1  0.82557801  0.93237336  0.50734481  1
  Ca2+  Ca35  1  0.81850722  0.92648518  0.83703972  1
  Ca2+  Ca36  1  0.41973999  0.17771315  0.16482415  1
  Ca2+  Ca37  1  0.42537395  0.16989034  0.49811078  1
  Ca2+  Ca38  1  0.41935965  0.17110668  0.82053823  1
  Ca2+  Ca39  1  0.41986167  0.66859963  0.16682389  1
  Ca2+  Ca40  1  0.42714216  0.67676095  0.49612770  1
  Ca2+  Ca41  1  0.42152447  0.67432570  0.82515077  1
  Ca2+  Ca42  1  0.91491451  0.16191610  0.16928162  1
  Ca2+  Ca43  1  0.91378024  0.17261290  0.49214857  1
  Ca2+  Ca44  1  0.91388848  0.16691156  0.82732773  1
  Ca2+  Ca45  1  0.92008981  0.67022089  0.16295451  1
  Ca2+  Ca46  1  0.91473711  0.66605383  0.49923546  1
  Ca2+  Ca47  1  0.91729456  0.66702014  0.82328418  1
  Al0+  Al48  1  -0.00032326  0.00000688  0.00369909  1
  Al0+  Al49  1  -0.00048390  -0.00082053  0.33919469  1
  Al0+  Al50  1  -0.00019240  -0.00096418  0.67009320  1
  Al0+  Al51  1  0.00210835  0.49997776  0.00001481  1
  Al0+  Al52  1  0.00192597  0.50083526  0.32838897  1
  Al0+  Al53  1  0.00099737  0.49889624  0.67101070  1
  Al0+  Al54  1  0.49991835  -0.00052228  0.00472479  1
  Al0+  Al55  1  0.49873320  -0.00040888  0.32327530  1
  Al0+  Al56  1  0.49803817  0.00032846  0.66698813  1
  Al0+  Al57  1  0.50054651  0.50086246  -0.00201539  1
  Al0+  Al58  1  0.50165854  0.50259812  0.33449077  1
  Al0+  Al59  1  0.49847277  0.50160106  0.66139719  1
  Al0+  Al60  1  0.24657617  0.25042675  -0.00291688  1
  Al0+  Al61  1  0.24817098  0.24965281  0.32478496  1
  Al0+  Al62  1  0.24635838  0.24728953  0.67324864  1
  Al0+  Al63  1  0.25130433  0.74679262  0.00526351  1
  Al0+  Al64  1  0.24943416  0.74883977  0.33569082  1
  Al0+  Al65  1  0.24874224  0.74708162  0.66367622  1
  Al0+  Al66  1  0.75042326  0.25167174  0.00119521  1
  Al0+  Al67  1  0.74912613  0.25308942  0.33450769  1
  Al0+  Al68  1  0.75005003  0.25296589  0.66653859  1
  Al0+  Al69  1  0.75194971  0.75099923  0.00292119  1
  Al0+  Al70  1  0.75159893  0.75076889  0.32856450  1
  Al0+  Al71  1  0.75238112  0.74918067  0.66882340  1
  Al0+  Al72  1  0.67847282  0.92990059  0.67824113  1
  Al0+  Al73  1  0.82180421  0.07530153  0.68194660  1
  Al0+  Al74  1  0.57257613  0.17798959  0.31771650  1
  Al0+  Al75  1  0.93022144  0.32139590  0.65452289  1
  Al0+  Al76  1  0.18004828  0.92889295  0.34883640  1
  Al0+  Al77  1  0.81811536  0.07077235  0.34875532  1
  Al0+  Al78  1  0.67907104  0.43141053  0.34820739  1
  Al0+  Al79  1  0.92852403  0.32216643  0.31801516  1
  Al0+  Al80  1  0.81897946  0.07223521  0.01645013  1
  Al0+  Al81  1  0.42983554  0.32093668  0.98488771  1
  Al0+  Al82  1  0.57252717  0.68078985  0.31684526  1
  Al0+  Al83  1  0.82041148  0.56941855  0.67900215  1
  Al0+  Al84  1  0.31959945  0.06899184  0.67806499  1
  Al0+  Al85  1  0.67637357  0.92650260  0.01724301  1
  Al0+  Al86  1  0.42700910  0.82080749  0.31612102  1
  Al0+  Al87  1  0.18254823  0.93025633  0.01237072  1
  Al0+  Al88  1  0.57477550  0.67931476  0.65192413  1
  Al0+  Al89  1  0.42485397  0.32090255  0.65328884  1
  Al0+  Al90  1  0.18045471  0.42821843  0.67950529  1
  Al0+  Al91  1  0.06938171  0.17689944  0.31852476  1
  Al0+  Al92  1  0.32148027  0.56732708  0.01385357  1
  Al0+  Al93  1  0.42762945  0.32140015  0.31936919  1
  Al0+  Al94  1  0.42709146  0.82214016  0.65319447  1
  Al0+  Al95  1  0.57098774  0.17956989  0.65339421  1
  Si0+  Si96  1  0.82509543  0.57358470  0.34803632  1
  Si0+  Si97  1  0.93057902  0.82114206  0.31809026  1
  Si0+  Si98  1  0.07035212  0.17499102  0.65150738  1
  Si0+  Si99  1  0.17857276  0.42840144  0.34725185  1
  Si0+  Si100  1  0.57225557  0.68047910  0.98469722  1
  Si0+  Si101  1  0.68091237  0.43238542  0.01341043  1
  Si0+  Si102  1  0.42721673  0.81994142  0.98589105  1
  Si0+  Si103  1  0.92887769  0.32279129  0.98370487  1
  Si0+  Si104  1  0.17707093  0.92387071  0.68308029  1
  Si0+  Si105  1  0.17612858  0.42661056  0.01956450  1
  Si0+  Si106  1  0.57297966  0.17781039  0.98318227  1
  Si0+  Si107  1  0.82436634  0.57173421  0.01518025  1
  Si0+  Si108  1  0.32241242  0.57272115  0.68244212  1
  Si0+  Si109  1  0.32228353  0.07518304  0.01777836  1
  Si0+  Si110  1  0.67495419  0.42897031  0.68432930  1
  Si0+  Si111  1  0.93061286  0.82100707  0.65228878  1
  Si0+  Si112  1  0.67624530  0.92649110  0.34939386  1
  Si0+  Si113  1  0.93067210  0.82045608  0.98408037  1
  Si0+  Si114  1  0.07232379  0.67827537  0.98370118  1
  Si0+  Si115  1  0.32089023  0.57012116  0.35054992  1
  Si0+  Si116  1  0.32232647  0.07388719  0.34762112  1
  Si0+  Si117  1  0.07015359  0.67795308  0.65188137  1
  Si0+  Si118  1  0.06864650  0.17708968  0.98315714  1
  Si0+  Si119  1  0.07172148  0.67863835  0.31720391  1
  O2-  O120  1  0.25676809  0.00331674  0.06171625  1
  O2-  O121  1  0.25629665  0.00238621  0.39272551  1
  O2-  O122  1  0.24757227  -0.00914593  0.72560241  1
  O2-  O123  1  0.25001804  0.48988353  0.06304438  1
  O2-  O124  1  0.25392111  0.49416956  0.39065343  1
  O2-  O125  1  0.26005978  0.49787980  0.72637386  1
  O2-  O126  1  0.74348407  0.00362983  0.06606381  1
  O2-  O127  1  0.73893467  0.00013235  0.39394122  1
  O2-  O128  1  0.74734722  0.00460432  0.72952150  1
  O2-  O129  1  0.75398825  0.50132078  0.05711789  1
  O2-  O130  1  0.75634354  0.50582280  0.39161681  1
  O2-  O131  1  0.74326006  0.49897342  0.72862528  1
  O2-  O132  1  -0.00343556  0.24730657  0.26645578  1
  O2-  O133  1  -0.00227409  0.23999472  0.60890617  1
  O2-  O134  1  -0.00098269  0.25050381  0.94206265  1
  O2-  O135  1  0.00112960  0.74960950  0.27452698  1
  O2-  O136  1  0.00348891  0.75218726  0.60868770  1
  O2-  O137  1  0.00026744  0.74776775  0.94080616  1
  O2-  O138  1  0.49850278  0.24886674  0.26861977  1
  O2-  O139  1  0.50078448  0.25379282  0.60388857  1
  O2-  O140  1  0.49862852  0.24065078  0.93911875  1
  O2-  O141  1  0.50192197  0.75260094  0.26456580  1
  O2-  O142  1  0.50198901  0.75210746  0.60503814  1
  O2-  O143  1  0.50576570  0.75658454  0.94400841  1
  O2-  O144  1  0.06865111  0.17664655  0.08790673  1
  O2-  O145  1  0.07084927  0.17980363  0.43195992  1
  O2-  O146  1  0.07125684  0.17589448  0.75769472  1
  O2-  O147  1  0.07039253  0.67715424  0.08889565  1
  O2-  O148  1  0.07077373  0.67664571  0.42232035  1
  O2-  O149  1  0.06978602  0.67833103  0.75730083  1
  O2-  O150  1  0.57555135  0.18232575  0.08841907  1
  O2-  O151  1  0.57230881  0.17899557  0.43095535  1
  O2-  O152  1  0.56902878  0.18035402  0.76769794  1
  O2-  O153  1  0.57110687  0.67796907  0.08947048  1
  O2-  O154  1  0.57261581  0.68161801  0.42982090  1
  O2-  O155  1  0.57343080  0.68060641  0.76663655  1
  O2-  O156  1  0.17519645  0.43316534  0.24218595  1
  O2-  O157  1  0.17831364  0.43121158  0.56618598  1
  O2-  O158  1  0.17171721  0.43016880  0.91410865  1
  O2-  O159  1  0.17973945  0.92834638  0.23542224  1
  O2-  O160  1  0.17491592  0.92340114  0.57787454  1
  O2-  O161  1  0.18267257  0.93037966  0.89926220  1
  O2-  O162  1  0.68033392  0.43382131  0.23398659  1
  O2-  O163  1  0.67697932  0.42907947  0.57919351  1
  O2-  O164  1  0.68231582  0.43426810  0.90841601  1
  O2-  O165  1  0.68262556  0.92367566  0.24385984  1
  O2-  O166  1  0.68236225  0.92830755  0.56484338  1
  O2-  O167  1  0.67964647  0.92199911  0.90403682  1
  O2-  O168  1  0.43495038  0.32263100  0.09753422  1
  O2-  O169  1  0.42541205  0.31847416  0.43233568  1
  O2-  O170  1  0.42682518  0.31865139  0.76740602  1
  O2-  O171  1  0.42331498  0.81447178  0.09038241  1
  O2-  O172  1  0.42506450  0.81760915  0.42924731  1
  O2-  O173  1  0.42455207  0.81881462  0.76766645  1
  O2-  O174  1  0.93001446  0.32657339  0.08827376  1
  O2-  O175  1  0.93259661  0.32582083  0.43124106  1
  O2-  O176  1  0.93423224  0.32359660  0.76837588  1
  O2-  O177  1  0.93259987  0.81776464  0.08935915  1
  O2-  O178  1  0.93139413  0.81835606  0.42322389  1
  O2-  O179  1  0.93305487  0.81878489  0.75770167  1
  O2-  O180  1  0.31788726  0.07432397  0.24179909  1
  O2-  O181  1  0.31626320  0.07094046  0.56534969  1
  O2-  O182  1  0.32038945  0.07447639  0.91196355  1
  O2-  O183  1  0.31818276  0.57104470  0.24492726  1
  O2-  O184  1  0.31636244  0.57747179  0.57728504  1
  O2-  O185  1  0.31831433  0.56846103  0.90097909  1
  O2-  O186  1  0.81983549  0.06669207  0.23558894  1
  O2-  O187  1  0.82489782  0.07187214  0.56872428  1
  O2-  O188  1  0.81990266  0.07117343  0.90316273  1
  O2-  O189  1  0.82671309  0.57303939  0.24183195  1
  O2-  O190  1  0.82422912  0.56810347  0.56643889  1
  O2-  O191  1  0.82585725  0.57224318  0.91028215  1
  O2-  O192  1  0.04033096  0.07747750  0.26722384  1
  O2-  O193  1  0.05101486  0.07942630  0.60685556  1
  O2-  O194  1  0.03972195  0.08567951  0.93549317  1
  O2-  O195  1  0.04460710  0.58866915  0.26548077  1
  O2-  O196  1  0.03795656  0.58810190  0.60414196  1
  O2-  O197  1  0.04482547  0.58608044  0.93605053  1
  O2-  O198  1  0.54944803  0.07984771  0.26193612  1
  O2-  O199  1  0.54183674  0.08200748  0.60110131  1
  O2-  O200  1  0.55278318  0.08066487  0.94192274  1
  O2-  O201  1  0.54061266  0.58340144  0.26379042  1
  O2-  O202  1  0.54646327  0.58157817  0.59857738  1
  O2-  O203  1  0.54067109  0.59077520  0.93575317  1
  O2-  O204  1  0.16502745  0.20679444  0.26051102  1
  O2-  O205  1  0.16176381  0.20593255  0.60561440  1
  O2-  O206  1  0.16065236  0.20375350  0.93487213  1
  O2-  O207  1  0.16276035  0.70708244  0.26937973  1
  O2-  O208  1  0.16181666  0.70123059  0.60242938  1
  O2-  O209  1  0.16377844  0.70789743  0.93709136  1
  O2-  O210  1  0.66844289  0.21337297  0.26392447  1
  O2-  O211  1  0.66973056  0.20732877  0.60197946  1
  O2-  O212  1  0.66491233  0.20970363  0.93663045  1
  O2-  O213  1  0.67243425  0.70478360  0.26259883  1
  O2-  O214  1  0.67412532  0.70524211  0.60005001  1
  O2-  O215  1  0.66738267  0.70292723  0.94056519  1
  O2-  O216  1  0.08501942  0.45947970  0.06730571  1
  O2-  O217  1  0.08864435  0.46280672  0.39496350  1
  O2-  O218  1  0.08824926  0.46695401  0.73766916  1
  O2-  O219  1  0.08558238  0.96005771  0.06621814  1
  O2-  O220  1  0.08393366  0.95780886  0.40418537  1
  O2-  O221  1  0.08468676  0.95092007  0.73143051  1
  O2-  O222  1  0.59072671  0.46394767  0.06079164  1
  O2-  O223  1  0.58380694  0.46402731  0.40326959  1
  O2-  O224  1  0.58074465  0.45495117  0.72980783  1
  O2-  O225  1  0.57522176  0.94567462  0.06812988  1
  O2-  O226  1  0.57842136  0.94479774  0.38798712  1
  O2-  O227  1  0.57928907  0.95301830  0.73164143  1
  O2-  O228  1  0.19438438  0.33025150  0.06173915  1
  O2-  O229  1  0.20178400  0.33435814  0.39139411  1
  O2-  O230  1  0.20341397  0.33184484  0.73725544  1
  O2-  O231  1  0.20991386  0.83261845  0.06659703  1
  O2-  O232  1  0.20705660  0.83046520  0.40201387  1
  O2-  O233  1  0.19898827  0.82862247  0.72804419  1
  O2-  O234  1  0.70760125  0.34067126  0.06098968  1
  O2-  O235  1  0.70964843  0.33613835  0.40315400  1
  O2-  O236  1  0.70331706  0.33742417  0.73293465  1
  O2-  O237  1  0.71219954  0.83006896  0.07151373  1
  O2-  O238  1  0.70891708  0.83421835  0.39453725  1
  O2-  O239  1  0.71286359  0.83352089  0.73301785  1
  O2-  O240  1  0.45855844  0.42039857  0.26925075  1
  O2-  O241  1  0.44322193  0.42248936  0.60411016  1
  O2-  O242  1  0.46454027  0.41672638  0.93070843  1
  O2-  O243  1  0.44689388  0.91987057  0.26145253  1
  O2-  O244  1  0.45058559  0.92071967  0.60055203  1
  O2-  O245  1  0.44619796  0.91621017  0.94331823  1
  O2-  O246  1  0.96039408  0.41963305  0.26261980  1
  O2-  O247  1  0.96799415  0.41582814  0.60126619  1
  O2-  O248  1  0.95878297  0.41491067  0.93643822  1
  O2-  O249  1  0.96123045  0.91144694  0.27077327  1
  O2-  O250  1  0.95747443  0.91303838  0.60496692  1
  O2-  O251  1  0.96152286  0.91134780  0.93737726  1
  O2-  O252  1  0.32964430  0.29714202  0.26234658  1
  O2-  O253  1  0.32615140  0.28828084  0.60420839  1
  O2-  O254  1  0.32826358  0.29841618  0.93619054  1
  O2-  O255  1  0.32922118  0.78490512  0.26435841  1
  O2-  O256  1  0.32904052  0.79102629  0.59973604  1
  O2-  O257  1  0.33819101  0.78408687  0.93769119  1
  O2-  O258  1  0.82981953  0.29710929  0.26597686  1
  O2-  O259  1  0.83148907  0.29989782  0.60260931  1
  O2-  O260  1  0.83613946  0.29735821  0.93700380  1
  O2-  O261  1  0.84040043  0.79382107  0.26721239  1
  O2-  O262  1  0.84128307  0.78951795  0.60404797  1
  O2-  O263  1  0.83886192  0.79172049  0.93724657  1
  O2-  O264  1  0.41735891  0.05510063  0.06194660  1
  O2-  O265  1  0.41793873  0.05055326  0.38966491  1
  O2-  O266  1  0.41470167  0.04074158  0.73650039  1
  O2-  O267  1  0.41893472  0.53913944  0.06794791  1
  O2-  O268  1  0.41407944  0.54914036  0.39619368  1
  O2-  O269  1  0.41830141  0.55509402  0.72649226  1
  O2-  O270  1  0.91623855  0.03852745  0.06884667  1
  O2-  O271  1  0.91294450  0.03528291  0.40307446  1
  O2-  O272  1  0.91978593  0.04297982  0.73538319  1
  O2-  O273  1  0.91702937  0.54528673  0.06237172  1
  O2-  O274  1  0.91997685  0.54937503  0.39260207  1
  O2-  O275  1  0.91533631  0.53684446  0.73689871  1
  O2-  O276  1  0.29188640  0.16796154  0.06264763  1
  O2-  O277  1  0.29183892  0.16667672  0.39268622  1
  O2-  O278  1  0.28384783  0.16125145  0.73845882  1
  O2-  O279  1  0.28554399  0.66070784  0.07128039  1
  O2-  O280  1  0.28513442  0.65853386  0.39868575  1
  O2-  O281  1  0.28795153  0.66282699  0.73180735  1
  O2-  O282  1  0.79516172  0.17292691  0.06792749  1
  O2-  O283  1  0.79308571  0.16976045  0.39890937  1
  O2-  O284  1  0.79649730  0.17454074  0.73476642  1
  O2-  O285  1  0.79910540  0.66383001  0.06279534  1
  O2-  O286  1  0.80133291  0.66851024  0.39218722  1
  O2-  O287  1  0.79448617  0.66615951  0.73618733  1
