# generated using pymatgen
data_Ca2Al2SiO7
_symmetry_space_group_name_H-M   'P 1'
_cell_length_a   15.46886958
_cell_length_b   15.47270697
_cell_length_c   15.29379095
_cell_angle_alpha   90.00968123
_cell_angle_beta   89.99480270
_cell_angle_gamma   89.96886521
_symmetry_Int_Tables_number   1
_chemical_formula_structural   Ca2Al2SiO7
_chemical_formula_sum   'Ca48 Al48 Si24 O168'
_cell_volume   3660.49616409
_cell_formula_units_Z   24
loop_
 _symmetry_equiv_pos_site_id
 _symmetry_equiv_pos_as_xyz
  1  'x, y, z'
loop_
 _atom_type_symbol
 _atom_type_oxidation_number
  Ca2+  2.0
  Al0+  0.0
  Si0+  0.0
  O2-  -2.0
loop_
 _atom_site_type_symbol
 _atom_site_label
 _atom_site_symmetry_multiplicity
 _atom_site_fract_x
 _atom_site_fract_y
 _atom_site_fract_z
 _atom_site_occupancy
  Ca2+  Ca0  1  0.16959898  0.08351117  0.17115253  1
  Ca2+  Ca1  1  0.17281838  0.08922994  0.50655216  1
  Ca2+  Ca2  1  0.16617985  0.07729677  0.83180128  1
  Ca2+  Ca3  1  0.15788838  0.57490806  0.17055254  1
  Ca2+  Ca4  1  0.15992708  0.58301930  0.50043424  1
  Ca2+  Ca5  1  0.16718796  0.57516710  0.84235622  1
  Ca2+  Ca6  1  0.66677280  0.07752560  0.17486863  1
  Ca2+  Ca7  1  0.67833163  0.08538192  0.49750659  1
  Ca2+  Ca8  1  0.67369739  0.07983572  0.83887468  1
  Ca2+  Ca9  1  0.66643063  0.58195327  0.16997062  1
  Ca2+  Ca10  1  0.66888774  0.57677487  0.50324106  1
  Ca2+  Ca11  1  0.66739854  0.58306015  0.84050789  1
  Ca2+  Ca12  1  0.07714039  0.32604401  0.16373549  1
  Ca2+  Ca13  1  0.07445332  0.31905813  0.49519161  1
  Ca2+  Ca14  1  0.07796340  0.32921744  0.82862809  1
  Ca2+  Ca15  1  0.07104900  0.84037393  0.16264554  1
  Ca2+  Ca16  1  0.07440397  0.83850885  0.49607067  1
  Ca2+  Ca17  1  0.07725608  0.84528253  0.82909237  1
  Ca2+  Ca18  1  0.57468208  0.31692837  0.16256584  1
  Ca2+  Ca19  1  0.57605512  0.32126008  0.48934915  1
  Ca2+  Ca20  1  0.57892984  0.32532944  0.83570048  1
  Ca2+  Ca21  1  0.58850066  0.83398466  0.15731223  1
  Ca2+  Ca22  1  0.57751344  0.84392506  0.49788772  1
  Ca2+  Ca23  1  0.58235690  0.83354860  0.83219540  1
  Ca2+  Ca24  1  0.33311216  0.40892405  0.16895020  1
  Ca2+  Ca25  1  0.33364503  0.41591797  0.50277082  1
  Ca2+  Ca26  1  0.32720203  0.41499518  0.84471512  1
  Ca2+  Ca27  1  0.32634856  0.92279640  0.17294367  1
  Ca2+  Ca28  1  0.32742394  0.92950165  0.50976011  1
  Ca2+  Ca29  1  0.32362733  0.91721791  0.83403465  1
  Ca2+  Ca30  1  0.83787126  0.41334348  0.17239570  1
  Ca2+  Ca31  1  0.84119848  0.41319435  0.50402207  1
  Ca2+  Ca32  1  0.84108720  0.41805038  0.84017329  1
  Ca2+  Ca33  1  0.82371572  0.91645369  0.17422414  1
  Ca2+  Ca34  1  0.83871060  0.92696754  0.50224448  1
  Ca2+  Ca35  1  0.83708878  0.92255007  0.83946680  1
  Ca2+  Ca36  1  0.42464244  0.16416596  0.16407444  1
  Ca2+  Ca37  1  0.41810024  0.16356771  0.48862070  1
  Ca2+  Ca38  1  0.41937521  0.16181611  0.83271647  1
  Ca2+  Ca39  1  0.42600362  0.66920568  0.16088612  1
  Ca2+  Ca40  1  0.41484246  0.67707661  0.49945791  1
  Ca2+  Ca41  1  0.42277297  0.67314745  0.83057512  1
  Ca2+  Ca42  1  0.91433427  0.17094226  0.16610096  1
  Ca2+  Ca43  1  0.92386638  0.16387549  0.49355137  1
  Ca2+  Ca44  1  0.92195099  0.17393071  0.82268826  1
  Ca2+  Ca45  1  0.91937316  0.67945517  0.16709817  1
  Ca2+  Ca46  1  0.92208463  0.68151024  0.49394206  1
  Ca2+  Ca47  1  0.91776025  0.68241436  0.83071550  1
  Al0+  Al48  1  0.00077379  0.00258324  0.00111604  1
  Al0+  Al49  1  -0.00173054  -0.00068865  0.32680238  1
  Al0+  Al50  1  0.00046828  0.00206436  0.66609707  1
  Al0+  Al51  1  0.00130378  0.50174803  0.00250677  1
  Al0+  Al52  1  -0.00064991  0.50143633  0.33049310  1
  Al0+  Al53  1  -0.00087420  0.50121416  0.66657365  1
  Al0+  Al54  1  0.50124706  -0.00093024  -0.00203237  1
  Al0+  Al55  1  0.49726426  -0.00117832  0.33621592  1
  Al0+  Al56  1  0.50096284  -0.00055327  0.66646352  1
  Al0+  Al57  1  0.50166519  0.50042500  -0.00666716  1
  Al0+  Al58  1  0.49858239  0.50090594  0.33333548  1
  Al0+  Al59  1  0.50144220  0.49966702  0.66817234  1
  Al0+  Al60  1  0.24955816  0.25084017  0.00167235  1
  Al0+  Al61  1  0.24628382  0.25253976  0.33223467  1
  Al0+  Al62  1  0.25038108  0.25173606  0.66935534  1
  Al0+  Al63  1  0.25025107  0.74911685  0.00655511  1
  Al0+  Al64  1  0.25142892  0.74608308  0.33004365  1
  Al0+  Al65  1  0.25269617  0.74872636  0.66747613  1
  Al0+  Al66  1  0.74935073  0.25237763  -0.00756587  1
  Al0+  Al67  1  0.74659361  0.24853923  0.33038337  1
  Al0+  Al68  1  0.74629970  0.25125694  0.66891597  1
  Al0+  Al69  1  0.75167594  0.75015300  -0.00510996  1
  Al0+  Al70  1  0.74856080  0.74701700  0.33734427  1
  Al0+  Al71  1  0.75122980  0.74634863  0.66219024  1
  Al0+  Al72  1  0.82097231  0.07157982  0.34691350  1
  Al0+  Al73  1  0.82060147  0.07169691  0.68055629  1
  Al0+  Al74  1  0.17912258  0.42929605  0.01582854  1
  Al0+  Al75  1  0.17917508  0.92801982  0.67951582  1
  Al0+  Al76  1  0.43024366  0.82068678  0.65326367  1
  Al0+  Al77  1  0.31679043  0.07159306  0.34511132  1
  Al0+  Al78  1  0.07175193  0.17987678  0.65226676  1
  Al0+  Al79  1  0.07255741  0.67951535  0.31799246  1
  Al0+  Al80  1  0.92975108  0.82225714  0.65312510  1
  Al0+  Al81  1  0.56844227  0.17558926  0.31887237  1
  Al0+  Al82  1  0.17782580  0.92882810  0.01548090  1
  Al0+  Al83  1  0.92688931  0.32230135  0.65252785  1
  Al0+  Al84  1  0.57141280  0.17550081  0.98222997  1
  Al0+  Al85  1  0.92746423  0.31978831  0.31895749  1
  Al0+  Al86  1  0.57192763  0.68027602  0.98685092  1
  Al0+  Al87  1  0.92727336  0.82168498  0.31792627  1
  Al0+  Al88  1  0.93051725  0.32238020  0.98607548  1
  Al0+  Al89  1  0.67761826  0.92548387  0.34926253  1
  Al0+  Al90  1  0.07156151  0.17679532  0.31659328  1
  Al0+  Al91  1  0.42830469  0.31907581  0.98417442  1
  Al0+  Al92  1  0.32352209  0.07354361  0.68274261  1
  Al0+  Al93  1  0.68130518  0.92929849  0.01052095  1
  Al0+  Al94  1  0.42732394  0.32320937  0.32044473  1
  Al0+  Al95  1  0.93130815  0.82189104  0.98592529  1
  Si0+  Si96  1  0.32391447  0.57081163  0.68320389  1
  Si0+  Si97  1  0.42571754  0.82202287  0.98433296  1
  Si0+  Si98  1  0.67991076  0.92579212  0.68300621  1
  Si0+  Si99  1  0.07262213  0.17844165  0.98189662  1
  Si0+  Si100  1  0.67723499  0.42971213  0.34709623  1
  Si0+  Si101  1  0.17968321  0.43171505  0.68121049  1
  Si0+  Si102  1  0.67699942  0.42980560  0.68410793  1
  Si0+  Si103  1  0.17808898  0.92499623  0.34779478  1
  Si0+  Si104  1  0.17693316  0.43143114  0.35063201  1
  Si0+  Si105  1  0.32344086  0.57071434  0.35065902  1
  Si0+  Si106  1  0.82122491  0.56922840  0.35020505  1
  Si0+  Si107  1  0.32240570  0.07092710  0.01670337  1
  Si0+  Si108  1  0.67875994  0.42955183  0.01561690  1
  Si0+  Si109  1  0.82068425  0.57119966  0.01580431  1
  Si0+  Si110  1  0.57203161  0.67624505  0.64782810  1
  Si0+  Si111  1  0.07308254  0.67887752  0.98387264  1
  Si0+  Si112  1  0.56992629  0.17860986  0.65070834  1
  Si0+  Si113  1  0.82128767  0.07529512  0.01524983  1
  Si0+  Si114  1  0.57019935  0.67763149  0.32035540  1
  Si0+  Si115  1  0.32443036  0.57100126  0.01796520  1
  Si0+  Si116  1  0.42968207  0.82013895  0.31843758  1
  Si0+  Si117  1  0.07327127  0.67720627  0.65319422  1
  Si0+  Si118  1  0.42958593  0.32233368  0.65293523  1
  Si0+  Si119  1  0.82082783  0.56996333  0.68337594  1
  O2-  O120  1  0.25427147  0.00190426  0.06104955  1
  O2-  O121  1  0.24090247  -0.00162824  0.39259834  1
  O2-  O122  1  0.25105889  0.00055505  0.73003261  1
  O2-  O123  1  0.25608151  0.50262118  0.06274357  1
  O2-  O124  1  0.25081573  0.50089832  0.39239716  1
  O2-  O125  1  0.25154753  0.50157355  0.72470010  1
  O2-  O126  1  0.75262960  0.00595156  0.05813543  1
  O2-  O127  1  0.75195271  -0.00399904  0.39744485  1
  O2-  O128  1  0.75030864  -0.00789699  0.72747185  1
  O2-  O129  1  0.75209731  0.49787235  0.05865768  1
  O2-  O130  1  0.75303689  0.49466634  0.39182634  1
  O2-  O131  1  0.75172752  0.49738553  0.72610594  1
  O2-  O132  1  -0.00387113  0.24610832  0.26772169  1
  O2-  O133  1  -0.00521171  0.24734748  0.60300643  1
  O2-  O134  1  0.00313244  0.24708405  0.93879861  1
  O2-  O135  1  0.00481181  0.75491754  0.26818623  1
  O2-  O136  1  0.00985387  0.75080534  0.61006589  1
  O2-  O137  1  0.01095717  0.75214103  0.93825910  1
  O2-  O138  1  0.49408756  0.24671533  0.27125200  1
  O2-  O139  1  0.49434426  0.24642594  0.61037720  1
  O2-  O140  1  0.49676161  0.24534735  0.93204840  1
  O2-  O141  1  0.50560132  0.75358057  0.27737892  1
  O2-  O142  1  0.50701847  0.74810839  0.60421540  1
  O2-  O143  1  0.49661601  0.75444744  0.94122919  1
  O2-  O144  1  0.07259127  0.17897045  0.08728025  1
  O2-  O145  1  0.07481129  0.18062036  0.43000337  1
  O2-  O146  1  0.07276699  0.18392518  0.76598950  1
  O2-  O147  1  0.06884248  0.67643997  0.08887774  1
  O2-  O148  1  0.07013225  0.67894063  0.43210804  1
  O2-  O149  1  0.06999819  0.67141273  0.75853257  1
  O2-  O150  1  0.57124468  0.17599590  0.09537240  1
  O2-  O151  1  0.56876631  0.17946663  0.43298088  1
  O2-  O152  1  0.57122609  0.18090934  0.75560726  1
  O2-  O153  1  0.57106886  0.67967386  0.10027120  1
  O2-  O154  1  0.56605129  0.67189099  0.42518391  1
  O2-  O155  1  0.57101101  0.67362037  0.75323616  1
  O2-  O156  1  0.17602154  0.43402391  0.24584767  1
  O2-  O157  1  0.18098743  0.43421329  0.57615981  1
  O2-  O158  1  0.17911339  0.43340858  0.90200012  1
  O2-  O159  1  0.18380294  0.92339982  0.24213981  1
  O2-  O160  1  0.18211109  0.92496169  0.56606556  1
  O2-  O161  1  0.17916529  0.92921170  0.90258452  1
  O2-  O162  1  0.67525083  0.43526717  0.24230071  1
  O2-  O163  1  0.67215812  0.43356921  0.57905460  1
  O2-  O164  1  0.67887043  0.43235439  0.91021128  1
  O2-  O165  1  0.67846056  0.92328790  0.23545259  1
  O2-  O166  1  0.67910385  0.92751294  0.57772057  1
  O2-  O167  1  0.68382908  0.92779190  0.89732280  1
  O2-  O168  1  0.43137354  0.31925765  0.09723895  1
  O2-  O169  1  0.43199271  0.32642891  0.43470829  1
  O2-  O170  1  0.43267167  0.32672479  0.75748037  1
  O2-  O171  1  0.42599367  0.82038861  0.09017775  1
  O2-  O172  1  0.42815595  0.81718355  0.42355254  1
  O2-  O173  1  0.43101759  0.81598081  0.76627501  1
  O2-  O174  1  0.93044950  0.32235936  0.09865761  1
  O2-  O175  1  0.93117639  0.32217280  0.43232364  1
  O2-  O176  1  0.93228023  0.32537504  0.76599315  1
  O2-  O177  1  0.92812954  0.81779687  0.09828822  1
  O2-  O178  1  0.92757929  0.81912623  0.43171514  1
  O2-  O179  1  0.92773595  0.81893650  0.76628156  1
  O2-  O180  1  0.31914657  0.06734645  0.23198905  1
  O2-  O181  1  0.32347331  0.07386204  0.56908892  1
  O2-  O182  1  0.32210136  0.06968803  0.91121280  1
  O2-  O183  1  0.32903900  0.57131263  0.24632690  1
  O2-  O184  1  0.32695185  0.56910742  0.57808770  1
  O2-  O185  1  0.32274363  0.57129999  0.91191112  1
  O2-  O186  1  0.81693167  0.07358726  0.23339178  1
  O2-  O187  1  0.81854473  0.07317175  0.56792991  1
  O2-  O188  1  0.82122178  0.07367981  0.90927405  1
  O2-  O189  1  0.81834190  0.57121219  0.24512224  1
  O2-  O190  1  0.81956486  0.57006007  0.57834336  1
  O2-  O191  1  0.81948601  0.57057256  0.91030475  1
  O2-  O192  1  0.04945960  0.07781499  0.26330441  1
  O2-  O193  1  0.04855271  0.08098173  0.59989737  1
  O2-  O194  1  0.04664426  0.08548245  0.93559395  1
  O2-  O195  1  0.03765559  0.58393104  0.26389549  1
  O2-  O196  1  0.04124904  0.58699058  0.60353332  1
  O2-  O197  1  0.04186907  0.58762638  0.93603892  1
  O2-  O198  1  0.53950638  0.07734725  0.26636837  1
  O2-  O199  1  0.54722452  0.08570248  0.60464590  1
  O2-  O200  1  0.54521364  0.07688841  0.92820065  1
  O2-  O201  1  0.53661469  0.58932252  0.26971786  1
  O2-  O202  1  0.54134539  0.58383539  0.60129802  1
  O2-  O203  1  0.54174178  0.58536859  0.92909697  1
  O2-  O204  1  0.16707844  0.21167064  0.26206245  1
  O2-  O205  1  0.16943274  0.21446481  0.60025684  1
  O2-  O206  1  0.16597674  0.20502922  0.93704460  1
  O2-  O207  1  0.17402195  0.69605226  0.26628446  1
  O2-  O208  1  0.16952221  0.69388656  0.60953089  1
  O2-  O209  1  0.17038850  0.69622197  0.94234958  1
  O2-  O210  1  0.66410749  0.20763202  0.26420709  1
  O2-  O211  1  0.65898762  0.21310961  0.60261185  1
  O2-  O212  1  0.66692716  0.21037084  0.92714845  1
  O2-  O213  1  0.66423560  0.69697279  0.27493392  1
  O2-  O214  1  0.66686277  0.69557588  0.60231468  1
  O2-  O215  1  0.66682733  0.70984721  0.92941534  1
  O2-  O216  1  0.08411838  0.46446371  0.07083368  1
  O2-  O217  1  0.08693620  0.46473543  0.39885919  1
  O2-  O218  1  0.08833608  0.46173099  0.72881219  1
  O2-  O219  1  0.08210911  0.96225601  0.06968063  1
  O2-  O220  1  0.08093271  0.94389737  0.38711703  1
  O2-  O221  1  0.08151748  0.95750860  0.73311686  1
  O2-  O222  1  0.58799917  0.46199385  0.06181420  1
  O2-  O223  1  0.58851734  0.46493955  0.39743058  1
  O2-  O224  1  0.58782339  0.46341084  0.73428282  1
  O2-  O225  1  0.58199902  0.95326531  0.06309647  1
  O2-  O226  1  0.57936704  0.95588355  0.40164162  1
  O2-  O227  1  0.58661394  0.95286030  0.72872245  1
  O2-  O228  1  0.20749071  0.33228363  0.06972306  1
  O2-  O229  1  0.20258116  0.33992070  0.39886640  1
  O2-  O230  1  0.20704477  0.34111985  0.73009432  1
  O2-  O231  1  0.20545515  0.83111828  0.06963230  1
  O2-  O232  1  0.20832782  0.83184227  0.39260956  1
  O2-  O233  1  0.20807453  0.82881786  0.73318973  1
  O2-  O234  1  0.70463403  0.33658980  0.06074137  1
  O2-  O235  1  0.69810775  0.33623846  0.39319759  1
  O2-  O236  1  0.69850800  0.33725507  0.73168376  1
  O2-  O237  1  0.71302576  0.83205958  0.06363444  1
  O2-  O238  1  0.69887767  0.82468701  0.40214335  1
  O2-  O239  1  0.70144385  0.82878359  0.72445884  1
  O2-  O240  1  0.46022787  0.41998284  0.26675602  1
  O2-  O241  1  0.46208256  0.41288090  0.60473629  1
  O2-  O242  1  0.45904813  0.41699174  0.93056361  1
  O2-  O243  1  0.45251584  0.91227043  0.27132409  1
  O2-  O244  1  0.46012538  0.91715793  0.59844432  1
  O2-  O245  1  0.45024306  0.91468535  0.93766683  1
  O2-  O246  1  0.95710548  0.41850692  0.26766322  1
  O2-  O247  1  0.95788565  0.42077320  0.60049730  1
  O2-  O248  1  0.96226505  0.42027887  0.93423621  1
  O2-  O249  1  0.94862320  0.91964965  0.26268292  1
  O2-  O250  1  0.95765079  0.91877415  0.59967428  1
  O2-  O251  1  0.95927838  0.92025462  0.93430687  1
  O2-  O252  1  0.32647168  0.30392042  0.27176195  1
  O2-  O253  1  0.33533258  0.30237675  0.60809240  1
  O2-  O254  1  0.32804506  0.29532084  0.93288519  1
  O2-  O255  1  0.34098452  0.78642585  0.26906476  1
  O2-  O256  1  0.33568479  0.78493685  0.59787206  1
  O2-  O257  1  0.33304915  0.79227026  0.93861742  1
  O2-  O258  1  0.82698849  0.29808900  0.26779568  1
  O2-  O259  1  0.82418705  0.30254561  0.60561925  1
  O2-  O260  1  0.83286914  0.29823339  0.93141042  1
  O2-  O261  1  0.83000835  0.78348348  0.26803524  1
  O2-  O262  1  0.83573443  0.78435349  0.59842556  1
  O2-  O263  1  0.83823845  0.78472186  0.92966172  1
  O2-  O264  1  0.41636531  0.04454560  0.06145791  1
  O2-  O265  1  0.41214377  0.03868537  0.40039952  1
  O2-  O266  1  0.42191491  0.04270436  0.73481818  1
  O2-  O267  1  0.41940844  0.54539810  0.06138462  1
  O2-  O268  1  0.41355395  0.54140387  0.40182898  1
  O2-  O269  1  0.41520350  0.54142733  0.73139384  1
  O2-  O270  1  0.91540256  0.05180887  0.05997570  1
  O2-  O271  1  0.92144309  0.04457894  0.39768979  1
  O2-  O272  1  0.91820491  0.04537612  0.73403757  1
  O2-  O273  1  0.91264321  0.54602441  0.06331516  1
  O2-  O274  1  0.91344459  0.54349609  0.39776889  1
  O2-  O275  1  0.91292188  0.54427346  0.73168680  1
  O2-  O276  1  0.29666554  0.16455582  0.06181323  1
  O2-  O277  1  0.29014483  0.17026989  0.39806330  1
  O2-  O278  1  0.29662491  0.17270642  0.73570356  1
  O2-  O279  1  0.30180497  0.66453186  0.06538778  1
  O2-  O280  1  0.29548080  0.66260108  0.39916100  1
  O2-  O281  1  0.29862122  0.66221260  0.73172416  1
  O2-  O282  1  0.79467737  0.16982207  0.05832576  1
  O2-  O283  1  0.78850372  0.16946888  0.40059818  1
  O2-  O284  1  0.78545011  0.16752115  0.73489972  1
  O2-  O285  1  0.78816069  0.66132723  0.06276397  1
  O2-  O286  1  0.78910670  0.65783342  0.40135551  1
  O2-  O287  1  0.79022395  0.66092827  0.73159488  1
