# generated using pymatgen
data_Ca2Al2SiO7
_symmetry_space_group_name_H-M   'P 1'
_cell_length_a   15.45823333
_cell_length_b   15.45903160
_cell_length_c   15.28386704
_cell_angle_alpha   90.00209201
_cell_angle_beta   90.00367223
_cell_angle_gamma   90.00565615
_symmetry_Int_Tables_number   1
_chemical_formula_structural   Ca2Al2SiO7
_chemical_formula_sum   'Ca48 Al48 Si24 O168'
_cell_volume   3652.37525036
_cell_formula_units_Z   24
loop_
 _symmetry_equiv_pos_site_id
 _symmetry_equiv_pos_as_xyz
  1  'x, y, z'
loop_
 _atom_type_symbol
 _atom_type_oxidation_number
  Ca2+  2.0
  Al0+  0.0
  Si0+  0.0
  O2-  -2.0
loop_
 _atom_site_type_symbol
 _atom_site_label
 _atom_site_symmetry_multiplicity
 _atom_site_fract_x
 _atom_site_fract_y
 _atom_site_fract_z
 _atom_site_occupancy
  Ca2+  Ca0  1  0.17199021  0.09086558  0.16510427  1
  Ca2+  Ca1  1  0.16802566  0.07405786  0.51061035  1
  Ca2+  Ca2  1  0.16842694  0.07971378  0.83960711  1
  Ca2+  Ca3  1  0.16433908  0.58349340  0.16427964  1
  Ca2+  Ca4  1  0.16579251  0.58268981  0.50759757  1
  Ca2+  Ca5  1  0.16258310  0.57449662  0.83965267  1
  Ca2+  Ca6  1  0.66003371  0.08093362  0.16398042  1
  Ca2+  Ca7  1  0.67377865  0.07544310  0.51110880  1
  Ca2+  Ca8  1  0.66913825  0.07624742  0.83713071  1
  Ca2+  Ca9  1  0.67305463  0.57768093  0.16427373  1
  Ca2+  Ca10  1  0.67445164  0.57981477  0.51416684  1
  Ca2+  Ca11  1  0.67462043  0.57651417  0.83607978  1
  Ca2+  Ca12  1  0.07823754  0.33348853  0.15859033  1
  Ca2+  Ca13  1  0.06876281  0.34276178  0.50138149  1
  Ca2+  Ca14  1  0.08407576  0.33303146  0.82754131  1
  Ca2+  Ca15  1  0.08343984  0.81991095  0.15958499  1
  Ca2+  Ca16  1  0.08237786  0.82481116  0.50115967  1
  Ca2+  Ca17  1  0.07999432  0.82137662  0.82311098  1
  Ca2+  Ca18  1  0.57921275  0.32958167  0.15745065  1
  Ca2+  Ca19  1  0.57138537  0.34175381  0.49898312  1
  Ca2+  Ca20  1  0.58031108  0.33839363  0.82614609  1
  Ca2+  Ca21  1  0.57753007  0.83769283  0.16031989  1
  Ca2+  Ca22  1  0.58745265  0.82692731  0.50111963  1
  Ca2+  Ca23  1  0.58743410  0.83042659  0.82654543  1
  Ca2+  Ca24  1  0.32866828  0.41917517  0.16608825  1
  Ca2+  Ca25  1  0.32752360  0.41273733  0.50936974  1
  Ca2+  Ca26  1  0.32446300  0.42000635  0.83844057  1
  Ca2+  Ca27  1  0.33654436  0.92298110  0.16922718  1
  Ca2+  Ca28  1  0.32929141  0.91339156  0.50440111  1
  Ca2+  Ca29  1  0.32658988  0.92090969  0.83735862  1
  Ca2+  Ca30  1  0.83400386  0.41734778  0.16566668  1
  Ca2+  Ca31  1  0.83007438  0.41849945  0.51291059  1
  Ca2+  Ca32  1  0.83168714  0.42613463  0.83558735  1
  Ca2+  Ca33  1  0.82646987  0.91602988  0.16660121  1
  Ca2+  Ca34  1  0.83429322  0.92397144  0.51545664  1
  Ca2+  Ca35  1  0.82715801  0.91461184  0.83251153  1
  Ca2+  Ca36  1  0.41897284  0.17179647  0.15705878  1
  Ca2+  Ca37  1  0.41632002  0.17966648  0.49913718  1
  Ca2+  Ca38  1  0.42073084  0.16955831  0.83170517  1
  Ca2+  Ca39  1  0.41172086  0.67361162  0.16102911  1
  Ca2+  Ca40  1  0.42625674  0.67053881  0.49810055  1
  Ca2+  Ca41  1  0.42446062  0.65880908  0.82797605  1
  Ca2+  Ca42  1  0.92305073  0.17398832  0.16019225  1
  Ca2+  Ca43  1  0.90904386  0.17773192  0.50115657  1
  Ca2+  Ca44  1  0.91895218  0.17138372  0.82707654  1
  Ca2+  Ca45  1  0.92608955  0.66152106  0.15954059  1
  Ca2+  Ca46  1  0.92637329  0.66265012  0.50406206  1
  Ca2+  Ca47  1  0.92053385  0.66435339  0.82490118  1
  Al0+  Al48  1  -0.00165813  0.00007898  -0.00227195  1
  Al0+  Al49  1  -0.00024609  -0.00097662  0.33364961  1
  Al0+  Al50  1  0.00206655  -0.00138092  0.67255921  1
  Al0+  Al51  1  -0.00046854  0.50033633  0.00346491  1
  Al0+  Al52  1  0.00005482  0.49927954  0.32538770  1
  Al0+  Al53  1  0.00114199  0.49807325  0.66653826  1
  Al0+  Al54  1  0.49863640  0.00183414  0.00239939  1
  Al0+  Al55  1  0.49969267  -0.00057186  0.33423630  1
  Al0+  Al56  1  0.49985700  0.00147842  0.66766751  1
  Al0+  Al57  1  0.49900281  0.50213346  0.00848613  1
  Al0+  Al58  1  0.49928326  0.50057807  0.32802457  1
  Al0+  Al59  1  0.49952314  0.50081749  0.65905860  1
  Al0+  Al60  1  0.24919336  0.24993762  0.00374491  1
  Al0+  Al61  1  0.25075924  0.25037247  0.33266658  1
  Al0+  Al62  1  0.25125569  0.25001834  0.66559804  1
  Al0+  Al63  1  0.24829799  0.75082689  -0.00261641  1
  Al0+  Al64  1  0.25154043  0.74967639  0.32626238  1
  Al0+  Al65  1  0.25205022  0.75051489  0.66766316  1
  Al0+  Al66  1  0.74901246  0.24809539  -0.00035855  1
  Al0+  Al67  1  0.74969373  0.24957927  0.32933322  1
  Al0+  Al68  1  0.74947857  0.24779377  0.66968087  1
  Al0+  Al69  1  0.74779900  0.75077013  0.01091110  1
  Al0+  Al70  1  0.75159128  0.74845810  0.33438519  1
  Al0+  Al71  1  0.75134150  0.75057866  0.66401236  1
  Al0+  Al72  1  0.82311648  0.07250040  0.68296654  1
  Al0+  Al73  1  0.06972274  0.67931321  0.98356345  1
  Al0+  Al74  1  0.07208138  0.17918283  0.98596556  1
  Al0+  Al75  1  0.17954103  0.42926360  0.67774903  1
  Al0+  Al76  1  0.32112606  0.57337384  0.01507013  1
  Al0+  Al77  1  0.43175130  0.81991835  0.31935064  1
  Al0+  Al78  1  0.42703816  0.32214350  0.31690798  1
  Al0+  Al79  1  0.92872882  0.31911947  0.65595761  1
  Al0+  Al80  1  0.07294764  0.67704591  0.65251423  1
  Al0+  Al81  1  0.06991862  0.68052053  0.31789453  1
  Al0+  Al82  1  0.67813412  0.42630052  0.01553606  1
  Al0+  Al83  1  0.82241262  0.57018237  0.67943535  1
  Al0+  Al84  1  0.67546990  0.42839894  0.67868687  1
  Al0+  Al85  1  0.82074917  0.57095030  0.01648222  1
  Al0+  Al86  1  0.92948941  0.82178337  0.65277167  1
  Al0+  Al87  1  0.57040365  0.17863629  0.98496784  1
  Al0+  Al88  1  0.31905102  0.06946797  0.01358041  1
  Al0+  Al89  1  0.92851537  0.31963151  0.31866826  1
  Al0+  Al90  1  0.18027113  0.92685909  0.68039499  1
  Al0+  Al91  1  0.67814827  0.92834038  0.68062113  1
  Al0+  Al92  1  0.67903004  0.93070783  0.01508357  1
  Al0+  Al93  1  0.42938928  0.32077802  0.65480734  1
  Al0+  Al94  1  0.57207586  0.67982522  0.65504049  1
  Al0+  Al95  1  0.17879206  0.42874222  0.01624073  1
  Si0+  Si96  1  0.92700557  0.82460847  0.31579299  1
  Si0+  Si97  1  0.82245429  0.56911096  0.34966702  1
  Si0+  Si98  1  0.82351492  0.07236753  0.01885691  1
  Si0+  Si99  1  0.57198144  0.17639384  0.64962592  1
  Si0+  Si100  1  0.92469669  0.82161473  0.98456634  1
  Si0+  Si101  1  0.32107179  0.57264529  0.34901981  1
  Si0+  Si102  1  0.57507974  0.67795631  0.31384560  1
  Si0+  Si103  1  0.42896206  0.82246440  0.98410860  1
  Si0+  Si104  1  0.42913117  0.32387934  0.98361529  1
  Si0+  Si105  1  0.57020368  0.17881127  0.31727607  1
  Si0+  Si106  1  0.32155472  0.07308911  0.68284655  1
  Si0+  Si107  1  0.32278954  0.57252983  0.67959890  1
  Si0+  Si108  1  0.17943771  0.42943210  0.34891583  1
  Si0+  Si109  1  0.17592264  0.92818435  0.01769438  1
  Si0+  Si110  1  0.82148852  0.07059626  0.34748694  1
  Si0+  Si111  1  0.42853196  0.82467702  0.65170800  1
  Si0+  Si112  1  0.67854852  0.92874634  0.34928784  1
  Si0+  Si113  1  0.07171508  0.17477495  0.31881251  1
  Si0+  Si114  1  0.32141471  0.07174368  0.35006222  1
  Si0+  Si115  1  0.67855899  0.42855540  0.34790954  1
  Si0+  Si116  1  0.57025255  0.68005370  0.98708085  1
  Si0+  Si117  1  0.07368374  0.17737057  0.65072927  1
  Si0+  Si118  1  0.18020527  0.92790750  0.34675715  1
  Si0+  Si119  1  0.92797086  0.32151596  0.98196516  1
  O2-  O120  1  0.24258189  -0.00208276  0.06382181  1
  O2-  O121  1  0.24843374  0.00168398  0.39052464  1
  O2-  O122  1  0.25394720  0.00308491  0.72581581  1
  O2-  O123  1  0.24927233  0.50226938  0.06713328  1
  O2-  O124  1  0.25219225  0.49929137  0.39132931  1
  O2-  O125  1  0.25132441  0.50693878  0.72294932  1
  O2-  O126  1  0.75375426  0.00473093  0.06379192  1
  O2-  O127  1  0.75247648  -0.00267665  0.38989894  1
  O2-  O128  1  0.75068392  -0.00048549  0.73052450  1
  O2-  O129  1  0.75177600  0.49583463  0.06724069  1
  O2-  O130  1  0.74861738  0.50028506  0.39083584  1
  O2-  O131  1  0.74933397  0.49837114  0.72795358  1
  O2-  O132  1  0.00406603  0.24437841  0.27493812  1
  O2-  O133  1  0.00296547  0.24395778  0.60636932  1
  O2-  O134  1  -0.00206977  0.25351809  0.93908051  1
  O2-  O135  1  -0.00556695  0.75514777  0.27174073  1
  O2-  O136  1  0.00130217  0.74961013  0.60193527  1
  O2-  O137  1  -0.00656332  0.75358657  0.94024163  1
  O2-  O138  1  0.50242356  0.24770259  0.27223507  1
  O2-  O139  1  0.50650216  0.24872408  0.60600699  1
  O2-  O140  1  0.50080374  0.25846147  0.93912599  1
  O2-  O141  1  0.50766756  0.74813280  0.26993876  1
  O2-  O142  1  0.49918845  0.75740637  0.60858397  1
  O2-  O143  1  0.49708317  0.74841856  0.94348108  1
  O2-  O144  1  0.06930482  0.18019632  0.09992576  1
  O2-  O145  1  0.07140668  0.17082765  0.42414071  1
  O2-  O146  1  0.07631101  0.18036616  0.75608037  1
  O2-  O147  1  0.06984298  0.68246034  0.09735527  1
  O2-  O148  1  0.07103585  0.68068761  0.43065789  1
  O2-  O149  1  0.07281426  0.67772406  0.76551381  1
  O2-  O150  1  0.56512110  0.17785815  0.09880230  1
  O2-  O151  1  0.56995389  0.17830152  0.42281358  1
  O2-  O152  1  0.56791599  0.17262193  0.75470973  1
  O2-  O153  1  0.56947079  0.68334229  0.09250183  1
  O2-  O154  1  0.57503958  0.67844005  0.41956353  1
  O2-  O155  1  0.56893002  0.67776274  0.76821157  1
  O2-  O156  1  0.18003467  0.42915248  0.24424697  1
  O2-  O157  1  0.18064134  0.42922930  0.56375323  1
  O2-  O158  1  0.18077230  0.42794954  0.90270877  1
  O2-  O159  1  0.18150179  0.92938248  0.24195078  1
  O2-  O160  1  0.18346048  0.92782403  0.56608590  1
  O2-  O161  1  0.17916934  0.92846137  0.91237330  1
  O2-  O162  1  0.67988713  0.42880759  0.24315236  1
  O2-  O163  1  0.67544679  0.43145094  0.56403941  1
  O2-  O164  1  0.67648096  0.42998091  0.90250433  1
  O2-  O165  1  0.67710553  0.93097397  0.24426763  1
  O2-  O166  1  0.67719941  0.93163913  0.56608865  1
  O2-  O167  1  0.67937066  0.92916913  0.90288077  1
  O2-  O168  1  0.42962350  0.32076951  0.08971974  1
  O2-  O169  1  0.42610350  0.32058596  0.43016920  1
  O2-  O170  1  0.42774118  0.31938501  0.76742233  1
  O2-  O171  1  0.43085128  0.82335028  0.08976605  1
  O2-  O172  1  0.43184900  0.81840068  0.43235732  1
  O2-  O173  1  0.42745060  0.82521162  0.75713505  1
  O2-  O174  1  0.92889551  0.31876970  0.08840283  1
  O2-  O175  1  0.92750136  0.32000203  0.43173928  1
  O2-  O176  1  0.93120726  0.31964243  0.76832977  1
  O2-  O177  1  0.92719104  0.82180989  0.09097885  1
  O2-  O178  1  0.92781738  0.82838227  0.42079943  1
  O2-  O179  1  0.93025890  0.82088003  0.76617446  1
  O2-  O180  1  0.32223380  0.07137523  0.24519835  1
  O2-  O181  1  0.32043142  0.07344985  0.57653872  1
  O2-  O182  1  0.31959571  0.06637618  0.90071680  1
  O2-  O183  1  0.31930111  0.57386045  0.24439576  1
  O2-  O184  1  0.32337129  0.57214165  0.57331571  1
  O2-  O185  1  0.32446308  0.57077255  0.90159599  1
  O2-  O186  1  0.82167923  0.06979657  0.24262542  1
  O2-  O187  1  0.82024849  0.07285296  0.56795688  1
  O2-  O188  1  0.82458844  0.07144153  0.91403061  1
  O2-  O189  1  0.82143365  0.56906441  0.24482863  1
  O2-  O190  1  0.82218488  0.56709413  0.56486866  1
  O2-  O191  1  0.81904415  0.57293295  0.90344202  1
  O2-  O192  1  0.04611462  0.08208968  0.27003510  1
  O2-  O193  1  0.05084633  0.08231676  0.60706280  1
  O2-  O194  1  0.04291959  0.08141285  0.93318324  1
  O2-  O195  1  0.03887358  0.58494595  0.26261997  1
  O2-  O196  1  0.04348808  0.57965359  0.59766430  1
  O2-  O197  1  0.04061939  0.58071639  0.93417335  1
  O2-  O198  1  0.54308035  0.08508899  0.27205367  1
  O2-  O199  1  0.54170275  0.08500574  0.59971844  1
  O2-  O200  1  0.53340270  0.08389284  0.93150105  1
  O2-  O201  1  0.54819761  0.58505664  0.26791541  1
  O2-  O202  1  0.53780346  0.58721272  0.59424934  1
  O2-  O203  1  0.54360776  0.58711496  0.94188573  1
  O2-  O204  1  0.16595130  0.20060373  0.27433622  1
  O2-  O205  1  0.16645749  0.20312082  0.60247167  1
  O2-  O206  1  0.16983088  0.20742606  0.93337162  1
  O2-  O207  1  0.16540113  0.71280391  0.26282266  1
  O2-  O208  1  0.17215738  0.70691298  0.60006669  1
  O2-  O209  1  0.16646476  0.71082014  0.93042778  1
  O2-  O210  1  0.66358799  0.20262427  0.26986595  1
  O2-  O211  1  0.66691087  0.19664337  0.60473326  1
  O2-  O212  1  0.67030581  0.19947026  0.93413721  1
  O2-  O213  1  0.66968926  0.70234755  0.26916645  1
  O2-  O214  1  0.66674076  0.70951442  0.59652619  1
  O2-  O215  1  0.66192208  0.71148151  0.94268719  1
  O2-  O216  1  0.08066637  0.45618702  0.06990208  1
  O2-  O217  1  0.08659888  0.45969802  0.39322829  1
  O2-  O218  1  0.08392140  0.45643664  0.73314189  1
  O2-  O219  1  0.08090565  0.95070395  0.06223564  1
  O2-  O220  1  0.08699340  0.95286912  0.39357838  1
  O2-  O221  1  0.08562147  0.95563055  0.73691561  1
  O2-  O222  1  0.58168233  0.45744498  0.07158896  1
  O2-  O223  1  0.58472719  0.45595702  0.39227267  1
  O2-  O224  1  0.57739160  0.45970381  0.72995206  1
  O2-  O225  1  0.58337607  0.96439055  0.07024663  1
  O2-  O226  1  0.58747714  0.95811715  0.39724398  1
  O2-  O227  1  0.57915151  0.95632260  0.73279440  1
  O2-  O228  1  0.20766558  0.33135150  0.07150856  1
  O2-  O229  1  0.20557830  0.33650754  0.39540349  1
  O2-  O230  1  0.21251040  0.33332447  0.73112616  1
  O2-  O231  1  0.20517791  0.83574881  0.06385164  1
  O2-  O232  1  0.21297560  0.83722656  0.39336676  1
  O2-  O233  1  0.21366344  0.83226232  0.73643463  1
  O2-  O234  1  0.70385353  0.32647491  0.06823475  1
  O2-  O235  1  0.70547396  0.33547907  0.39319160  1
  O2-  O236  1  0.69690493  0.32822665  0.72841045  1
  O2-  O237  1  0.70768267  0.83640103  0.07539952  1
  O2-  O238  1  0.70323678  0.83451713  0.39369245  1
  O2-  O239  1  0.70464630  0.82959514  0.73201592  1
  O2-  O240  1  0.45544661  0.41927257  0.26335474  1
  O2-  O241  1  0.45697463  0.41593945  0.59523004  1
  O2-  O242  1  0.45192220  0.41972823  0.94172739  1
  O2-  O243  1  0.46105375  0.91784474  0.26576909  1
  O2-  O244  1  0.45062792  0.91884620  0.60425990  1
  O2-  O245  1  0.46012611  0.91275062  0.93725103  1
  O2-  O246  1  0.96069530  0.41392402  0.26199807  1
  O2-  O247  1  0.96167823  0.41363826  0.59838819  1
  O2-  O248  1  0.95288896  0.41603089  0.93958505  1
  O2-  O249  1  0.95230369  0.91787414  0.26801276  1
  O2-  O250  1  0.96040274  0.92073663  0.60026473  1
  O2-  O251  1  0.94729672  0.91602393  0.93981265  1
  O2-  O252  1  0.33088586  0.28943434  0.26335168  1
  O2-  O253  1  0.33502752  0.28567124  0.59679890  1
  O2-  O254  1  0.33592342  0.29423644  0.94033353  1
  O2-  O255  1  0.33675159  0.78953862  0.26232037  1
  O2-  O256  1  0.33673519  0.79634826  0.60313699  1
  O2-  O257  1  0.33576458  0.79919255  0.93815596  1
  O2-  O258  1  0.83295162  0.28775364  0.26291121  1
  O2-  O259  1  0.83162554  0.28890829  0.60043013  1
  O2-  O260  1  0.83426235  0.29505504  0.93821042  1
  O2-  O261  1  0.83243618  0.79874912  0.27112130  1
  O2-  O262  1  0.83144929  0.79716054  0.59704347  1
  O2-  O263  1  0.82942830  0.79573025  0.94329378  1
  O2-  O264  1  0.41317856  0.03575265  0.07089121  1
  O2-  O265  1  0.41239476  0.04173729  0.39809336  1
  O2-  O266  1  0.41510820  0.04870116  0.72832052  1
  O2-  O267  1  0.41817591  0.54826935  0.07291987  1
  O2-  O268  1  0.41553558  0.54776537  0.39344224  1
  O2-  O269  1  0.41468391  0.54240351  0.72532989  1
  O2-  O270  1  0.91654471  0.04512551  0.06670558  1
  O2-  O271  1  0.91408791  0.04546799  0.39518560  1
  O2-  O272  1  0.92153870  0.04675096  0.73558340  1
  O2-  O273  1  0.91827566  0.54230372  0.07105309  1
  O2-  O274  1  0.91465351  0.53848584  0.39422133  1
  O2-  O275  1  0.91927291  0.54000116  0.73282037  1
  O2-  O276  1  0.29016469  0.16547758  0.06998622  1
  O2-  O277  1  0.29443995  0.16394438  0.39764904  1
  O2-  O278  1  0.29483353  0.16521080  0.73001898  1
  O2-  O279  1  0.29223782  0.67303499  0.06685843  1
  O2-  O280  1  0.29163221  0.66447594  0.39569047  1
  O2-  O281  1  0.30468342  0.66708374  0.72567197  1
  O2-  O282  1  0.79797626  0.16556975  0.06570999  1
  O2-  O283  1  0.79071802  0.16223666  0.39409439  1
  O2-  O284  1  0.79439840  0.16919512  0.73771983  1
  O2-  O285  1  0.78924765  0.66667956  0.07444495  1
  O2-  O286  1  0.79767771  0.66287431  0.39559210  1
  O2-  O287  1  0.79574306  0.66913465  0.72944011  1
