# generated using pymatgen
data_Ca2Al2SiO7
_symmetry_space_group_name_H-M   'P 1'
_cell_length_a   15.45738407
_cell_length_b   15.45698974
_cell_length_c   15.28398564
_cell_angle_alpha   89.99626498
_cell_angle_beta   89.99695620
_cell_angle_gamma   89.99524274
_symmetry_Int_Tables_number   1
_chemical_formula_structural   Ca2Al2SiO7
_chemical_formula_sum   'Ca48 Al48 Si24 O168'
_cell_volume   3651.72054005
_cell_formula_units_Z   24
loop_
 _symmetry_equiv_pos_site_id
 _symmetry_equiv_pos_as_xyz
  1  'x, y, z'
loop_
 _atom_type_symbol
 _atom_type_oxidation_number
  Ca2+  2.0
  Al0+  0.0
  Si0+  0.0
  O2-  -2.0
loop_
 _atom_site_type_symbol
 _atom_site_label
 _atom_site_symmetry_multiplicity
 _atom_site_fract_x
 _atom_site_fract_y
 _atom_site_fract_z
 _atom_site_occupancy
  Ca2+  Ca0  1  0.17360079  0.07918166  0.16447873  1
  Ca2+  Ca1  1  0.16604111  0.08272323  0.50706797  1
  Ca2+  Ca2  1  0.17246174  0.07660049  0.84203245  1
  Ca2+  Ca3  1  0.17379201  0.57835472  0.16763508  1
  Ca2+  Ca4  1  0.17554693  0.57944445  0.50455337  1
  Ca2+  Ca5  1  0.17116740  0.58435779  0.84149070  1
  Ca2+  Ca6  1  0.66213530  0.08238271  0.16306436  1
  Ca2+  Ca7  1  0.67123942  0.09059848  0.50768735  1
  Ca2+  Ca8  1  0.67296170  0.08424047  0.84153749  1
  Ca2+  Ca9  1  0.67481432  0.58957394  0.16803939  1
  Ca2+  Ca10  1  0.66528885  0.57478680  0.50846517  1
  Ca2+  Ca11  1  0.67140450  0.57707196  0.83619273  1
  Ca2+  Ca12  1  0.08625323  0.34195349  0.16190992  1
  Ca2+  Ca13  1  0.08875460  0.32837646  0.49831770  1
  Ca2+  Ca14  1  0.08505597  0.32840437  0.83020690  1
  Ca2+  Ca15  1  0.08133951  0.82835909  0.15795066  1
  Ca2+  Ca16  1  0.07255652  0.82796246  0.50145072  1
  Ca2+  Ca17  1  0.08527616  0.82210606  0.82747381  1
  Ca2+  Ca18  1  0.57669366  0.32354499  0.16213814  1
  Ca2+  Ca19  1  0.57744609  0.33031484  0.49821427  1
  Ca2+  Ca20  1  0.58023291  0.32427325  0.82426769  1
  Ca2+  Ca21  1  0.57718069  0.83425612  0.15593148  1
  Ca2+  Ca22  1  0.57599873  0.83326492  0.49991487  1
  Ca2+  Ca23  1  0.57242429  0.83970618  0.83318449  1
  Ca2+  Ca24  1  0.32536558  0.42286637  0.17531856  1
  Ca2+  Ca25  1  0.34158198  0.42428768  0.50539185  1
  Ca2+  Ca26  1  0.33112086  0.42624253  0.83918949  1
  Ca2+  Ca27  1  0.33277335  0.91756346  0.16002823  1
  Ca2+  Ca28  1  0.33275404  0.91695985  0.50675431  1
  Ca2+  Ca29  1  0.33124172  0.91776945  0.84476375  1
  Ca2+  Ca30  1  0.83500217  0.42507551  0.16525159  1
  Ca2+  Ca31  1  0.82304097  0.41442911  0.50839379  1
  Ca2+  Ca32  1  0.82587910  0.41779336  0.83808128  1
  Ca2+  Ca33  1  0.82982018  0.91915794  0.16809712  1
  Ca2+  Ca34  1  0.83521634  0.91799395  0.50877513  1
  Ca2+  Ca35  1  0.83085360  0.92506321  0.83965913  1
  Ca2+  Ca36  1  0.42319397  0.16767547  0.15868051  1
  Ca2+  Ca37  1  0.42735092  0.18094117  0.49335603  1
  Ca2+  Ca38  1  0.42654379  0.16736676  0.82638732  1
  Ca2+  Ca39  1  0.40912474  0.66884436  0.15952907  1
  Ca2+  Ca40  1  0.40975040  0.66648655  0.50187302  1
  Ca2+  Ca41  1  0.40339051  0.67688014  0.83022877  1
  Ca2+  Ca42  1  0.91656701  0.16911254  0.16089438  1
  Ca2+  Ca43  1  0.92184670  0.16160283  0.50312524  1
  Ca2+  Ca44  1  0.92093832  0.15841940  0.82680356  1
  Ca2+  Ca45  1  0.92222199  0.66993302  0.15589281  1
  Ca2+  Ca46  1  0.91867509  0.67636115  0.49604963  1
  Ca2+  Ca47  1  0.92833384  0.66757555  0.82768886  1
  Al0+  Al48  1  -0.00122251  0.00085272  0.00829831  1
  Al0+  Al49  1  -0.00130010  0.00003539  0.32894722  1
  Al0+  Al50  1  0.00000743  -0.00081035  0.66351335  1
  Al0+  Al51  1  -0.00171671  0.50037697  0.00106336  1
  Al0+  Al52  1  0.00197673  0.50034151  0.33914462  1
  Al0+  Al53  1  0.00161847  0.49896867  0.66078446  1
  Al0+  Al54  1  0.50110697  0.00033719  -0.00125219  1
  Al0+  Al55  1  0.50095023  -0.00187918  0.33154020  1
  Al0+  Al56  1  0.50075068  -0.00009747  0.65680552  1
  Al0+  Al57  1  0.50038755  0.49976435  0.00325222  1
  Al0+  Al58  1  0.50137781  0.50038282  0.33185937  1
  Al0+  Al59  1  0.49974984  0.50141848  0.67561752  1
  Al0+  Al60  1  0.24931866  0.25023130  0.00619492  1
  Al0+  Al61  1  0.25028932  0.24881738  0.33282453  1
  Al0+  Al62  1  0.25069487  0.25048687  0.65900657  1
  Al0+  Al63  1  0.24821665  0.74967198  0.00038733  1
  Al0+  Al64  1  0.24807385  0.74997714  0.33783087  1
  Al0+  Al65  1  0.24882612  0.74966716  0.65979768  1
  Al0+  Al66  1  0.74984527  0.25036241  0.00081448  1
  Al0+  Al67  1  0.75254642  0.24892479  0.32904141  1
  Al0+  Al68  1  0.75152117  0.24918738  0.67273156  1
  Al0+  Al69  1  0.74881324  0.75036547  0.00535463  1
  Al0+  Al70  1  0.74943686  0.75361481  0.33136295  1
  Al0+  Al71  1  0.74817886  0.75048986  0.66530842  1
  Al0+  Al72  1  0.07226348  0.67595492  0.64879513  1
  Al0+  Al73  1  0.31858296  0.57130961  0.68308421  1
  Al0+  Al74  1  0.07110045  0.17891781  0.65523271  1
  Al0+  Al75  1  0.57266824  0.17840840  0.31577243  1
  Al0+  Al76  1  0.92784794  0.82020796  0.65461907  1
  Al0+  Al77  1  0.17836674  0.42862260  0.01304785  1
  Al0+  Al78  1  0.17871890  0.42677075  0.35231335  1
  Al0+  Al79  1  0.42877559  0.32284657  0.31568742  1
  Al0+  Al80  1  0.17811269  0.92731091  0.01356890  1
  Al0+  Al81  1  0.43029912  0.81777118  0.98757315  1
  Al0+  Al82  1  0.67875837  0.92987315  0.01456407  1
  Al0+  Al83  1  0.67938776  0.42902822  0.68080593  1
  Al0+  Al84  1  0.42877994  0.82103361  0.65266480  1
  Al0+  Al85  1  0.82150912  0.07291074  0.01757307  1
  Al0+  Al86  1  0.42963035  0.32363462  0.65372874  1
  Al0+  Al87  1  0.32259749  0.57120407  0.35110929  1
  Al0+  Al88  1  0.06883989  0.67937223  0.98732619  1
  Al0+  Al89  1  0.32148480  0.57185088  0.01454057  1
  Al0+  Al90  1  0.57367523  0.17922291  0.65166123  1
  Al0+  Al91  1  0.92853590  0.82113057  0.31624238  1
  Al0+  Al92  1  0.56977552  0.18050869  0.98374587  1
  Al0+  Al93  1  0.81966669  0.57031107  0.01145279  1
  Al0+  Al94  1  0.82094656  0.06819668  0.67959855  1
  Al0+  Al95  1  0.32266759  0.07139275  0.01271538  1
  Si0+  Si96  1  0.82075681  0.57371406  0.34880844  1
  Si0+  Si97  1  0.57150344  0.67964635  0.31937601  1
  Si0+  Si98  1  0.07052760  0.67844744  0.31528987  1
  Si0+  Si99  1  0.17723993  0.93063921  0.35016509  1
  Si0+  Si100  1  0.92774291  0.32181307  0.65113565  1
  Si0+  Si101  1  0.93009416  0.32204943  0.31887432  1
  Si0+  Si102  1  0.17704125  0.42536046  0.68323276  1
  Si0+  Si103  1  0.82122736  0.07083186  0.34995042  1
  Si0+  Si104  1  0.32210193  0.07167120  0.67734240  1
  Si0+  Si105  1  0.67841438  0.92893898  0.35090351  1
  Si0+  Si106  1  0.57220249  0.67775075  0.65185614  1
  Si0+  Si107  1  0.57487736  0.67537853  0.98320099  1
  Si0+  Si108  1  0.18028856  0.93061381  0.67920642  1
  Si0+  Si109  1  0.42718074  0.81981817  0.31793638  1
  Si0+  Si110  1  0.32240616  0.06887699  0.34951259  1
  Si0+  Si111  1  0.42563499  0.32309871  0.98347977  1
  Si0+  Si112  1  0.07119111  0.17828768  0.31673802  1
  Si0+  Si113  1  0.92600056  0.82365138  0.98417670  1
  Si0+  Si114  1  0.07123003  0.17787246  0.98717925  1
  Si0+  Si115  1  0.68246123  0.42891566  0.34628712  1
  Si0+  Si116  1  0.82366376  0.57326541  0.68064840  1
  Si0+  Si117  1  0.67489246  0.92657101  0.68222828  1
  Si0+  Si118  1  0.67777319  0.42717793  0.01864671  1
  Si0+  Si119  1  0.92946101  0.32110281  0.98532487  1
  O2-  O120  1  0.24993105  -0.00011764  0.06360531  1
  O2-  O121  1  0.24968769  -0.00008712  0.39327242  1
  O2-  O122  1  0.25278083  0.00001041  0.72116737  1
  O2-  O123  1  0.25328246  0.49647152  0.06401843  1
  O2-  O124  1  0.25404750  0.49569123  0.40137987  1
  O2-  O125  1  0.24309859  0.49586269  0.72737680  1
  O2-  O126  1  0.75101055  -0.00005761  0.06796102  1
  O2-  O127  1  0.74823361  0.00176890  0.39199458  1
  O2-  O128  1  0.74428379  -0.00494709  0.72469007  1
  O2-  O129  1  0.74238403  0.50018073  0.06253269  1
  O2-  O130  1  0.75146467  0.50128801  0.39098161  1
  O2-  O131  1  0.75689502  0.50291431  0.72476198  1
  O2-  O132  1  0.00514124  0.25516179  0.27662958  1
  O2-  O133  1  -0.00163247  0.25514139  0.60680594  1
  O2-  O134  1  -0.00068471  0.24810186  0.94474683  1
  O2-  O135  1  0.00089697  0.74510321  0.26940011  1
  O2-  O136  1  -0.00539019  0.74445503  0.60219518  1
  O2-  O137  1  -0.00436296  0.75622563  0.94057822  1
  O2-  O138  1  0.49795548  0.24764967  0.26620760  1
  O2-  O139  1  0.50171921  0.25167101  0.60307124  1
  O2-  O140  1  0.49473668  0.25535980  0.93833620  1
  O2-  O141  1  0.49560503  0.74555666  0.27785533  1
  O2-  O142  1  0.50403362  0.74636467  0.60632959  1
  O2-  O143  1  0.50308602  0.74097349  0.93992602  1
  O2-  O144  1  0.07005078  0.17876423  0.09255531  1
  O2-  O145  1  0.06778559  0.17445409  0.42195033  1
  O2-  O146  1  0.07073169  0.17753499  0.76831075  1
  O2-  O147  1  0.06629482  0.67928094  0.10064046  1
  O2-  O148  1  0.06828741  0.68075655  0.42073346  1
  O2-  O149  1  0.07242102  0.67783383  0.76253907  1
  O2-  O150  1  0.56931276  0.18260327  0.09694140  1
  O2-  O151  1  0.57500586  0.18165801  0.42919576  1
  O2-  O152  1  0.57212462  0.17831521  0.76509778  1
  O2-  O153  1  0.57677201  0.67773919  0.08928138  1
  O2-  O154  1  0.57586563  0.68189244  0.42442289  1
  O2-  O155  1  0.57590032  0.67904037  0.75680979  1
  O2-  O156  1  0.17515596  0.43158388  0.23911275  1
  O2-  O157  1  0.17792958  0.42478373  0.57792030  1
  O2-  O158  1  0.17710248  0.42706832  0.89947576  1
  O2-  O159  1  0.17765117  0.93129585  0.24537723  1
  O2-  O160  1  0.18025094  0.93337166  0.57340277  1
  O2-  O161  1  0.17832755  0.92898119  0.89949756  1
  O2-  O162  1  0.68601657  0.43066436  0.24142050  1
  O2-  O163  1  0.68116804  0.43067977  0.56669736  1
  O2-  O164  1  0.68084860  0.42629486  0.91311330  1
  O2-  O165  1  0.67827009  0.92650624  0.24632749  1
  O2-  O166  1  0.67543572  0.92564430  0.57617413  1
  O2-  O167  1  0.67943548  0.93086361  0.90096367  1
  O2-  O168  1  0.42799054  0.32181156  0.08902288  1
  O2-  O169  1  0.43381082  0.32351399  0.42931757  1
  O2-  O170  1  0.42899664  0.32057011  0.76723212  1
  O2-  O171  1  0.43149933  0.81686263  0.10129501  1
  O2-  O172  1  0.42936945  0.82227039  0.42314231  1
  O2-  O173  1  0.42759577  0.82292739  0.76526202  1
  O2-  O174  1  0.92991618  0.32221737  0.09097799  1
  O2-  O175  1  0.92523324  0.31912924  0.42371367  1
  O2-  O176  1  0.92795367  0.32283432  0.75664318  1
  O2-  O177  1  0.92691267  0.82071082  0.09016719  1
  O2-  O178  1  0.92849835  0.82039035  0.42931964  1
  O2-  O179  1  0.93041373  0.82106539  0.76779668  1
  O2-  O180  1  0.32173946  0.06611990  0.24461454  1
  O2-  O181  1  0.31908066  0.06898305  0.57180561  1
  O2-  O182  1  0.32033840  0.07111580  0.89849829  1
  O2-  O183  1  0.31973473  0.57418782  0.23801944  1
  O2-  O184  1  0.31937211  0.57056055  0.57007224  1
  O2-  O185  1  0.31794687  0.57264906  0.90108728  1
  O2-  O186  1  0.82271235  0.07080846  0.24537919  1
  O2-  O187  1  0.82180097  0.06739409  0.56577082  1
  O2-  O188  1  0.82344397  0.07181685  0.90407588  1
  O2-  O189  1  0.81974122  0.57285784  0.24363198  1
  O2-  O190  1  0.81992514  0.57261039  0.57443074  1
  O2-  O191  1  0.82001199  0.56599446  0.89852575  1
  O2-  O192  1  0.03714565  0.08964419  0.26731222  1
  O2-  O193  1  0.03747821  0.08491180  0.59702954  1
  O2-  O194  1  0.04323842  0.08538692  0.94097597  1
  O2-  O195  1  0.04531316  0.58330186  0.27257684  1
  O2-  O196  1  0.04878932  0.57672122  0.59493550  1
  O2-  O197  1  0.03444886  0.58398287  0.93278335  1
  O2-  O198  1  0.54503787  0.07788031  0.26636968  1
  O2-  O199  1  0.54723033  0.08194922  0.59559756  1
  O2-  O200  1  0.54075793  0.08361169  0.93068710  1
  O2-  O201  1  0.55202468  0.58644766  0.27177841  1
  O2-  O202  1  0.54502318  0.58453586  0.60635933  1
  O2-  O203  1  0.55494818  0.57915231  0.94003794  1
  O2-  O204  1  0.16505168  0.19853243  0.27104491  1
  O2-  O205  1  0.16604720  0.20668934  0.59604993  1
  O2-  O206  1  0.16329265  0.20516270  0.94012934  1
  O2-  O207  1  0.16426571  0.70753129  0.27175175  1
  O2-  O208  1  0.16577503  0.71237112  0.59207686  1
  O2-  O209  1  0.16457829  0.71035644  0.93283711  1
  O2-  O210  1  0.67134141  0.20817760  0.26337440  1
  O2-  O211  1  0.67298883  0.20929717  0.60125734  1
  O2-  O212  1  0.66786189  0.21237203  0.93273417  1
  O2-  O213  1  0.66089440  0.71296208  0.26972241  1
  O2-  O214  1  0.66509356  0.70148259  0.60185850  1
  O2-  O215  1  0.66814356  0.70280386  0.93699935  1
  O2-  O216  1  0.08058924  0.45906641  0.06663644  1
  O2-  O217  1  0.07975912  0.45519960  0.40649742  1
  O2-  O218  1  0.08051782  0.44677324  0.72598678  1
  O2-  O219  1  0.08155952  0.95571177  0.07000902  1
  O2-  O220  1  0.08567557  0.96265011  0.39631032  1
  O2-  O221  1  0.08954937  0.96003196  0.72625799  1
  O2-  O222  1  0.58317784  0.44777206  0.06404387  1
  O2-  O223  1  0.59071798  0.45611263  0.39319108  1
  O2-  O224  1  0.58634781  0.46177978  0.73913661  1
  O2-  O225  1  0.58186032  0.96001993  0.06934268  1
  O2-  O226  1  0.58521871  0.95364700  0.39780200  1
  O2-  O227  1  0.58044091  0.95310751  0.72582992  1
  O2-  O228  1  0.20080054  0.33008249  0.06870754  1
  O2-  O229  1  0.20003906  0.32410928  0.40020236  1
  O2-  O230  1  0.20307416  0.33070337  0.72757561  1
  O2-  O231  1  0.20802357  0.83142174  0.06960303  1
  O2-  O232  1  0.20324990  0.83868606  0.39798225  1
  O2-  O233  1  0.20726477  0.83797377  0.72365633  1
  O2-  O234  1  0.71004301  0.33690231  0.06663499  1
  O2-  O235  1  0.71474510  0.33792363  0.39319744  1
  O2-  O236  1  0.71226329  0.33460987  0.73719472  1
  O2-  O237  1  0.70327652  0.83110748  0.06986958  1
  O2-  O238  1  0.70825104  0.83777708  0.39940076  1
  O2-  O239  1  0.69737800  0.83207458  0.72799009  1
  O2-  O240  1  0.46010870  0.42078451  0.26306972  1
  O2-  O241  1  0.46124915  0.42243594  0.60348658  1
  O2-  O242  1  0.45112232  0.41804058  0.93960823  1
  O2-  O243  1  0.45851550  0.91003468  0.27005162  1
  O2-  O244  1  0.45947529  0.91515360  0.59279327  1
  O2-  O245  1  0.46209760  0.91397335  0.93353472  1
  O2-  O246  1  0.95450333  0.41620868  0.27361992  1
  O2-  O247  1  0.94812291  0.41540405  0.60229753  1
  O2-  O248  1  0.95768367  0.41141103  0.93606451  1
  O2-  O249  1  0.96014000  0.91752479  0.26283931  1
  O2-  O250  1  0.96231127  0.91509641  0.59723471  1
  O2-  O251  1  0.94987185  0.91954524  0.94278768  1
  O2-  O252  1  0.32836659  0.29553520  0.26648051  1
  O2-  O253  1  0.33279632  0.29602748  0.59718413  1
  O2-  O254  1  0.33087897  0.29803398  0.94001018  1
  O2-  O255  1  0.33325545  0.79552076  0.27352176  1
  O2-  O256  1  0.33393812  0.79072884  0.59534976  1
  O2-  O257  1  0.33279010  0.79010648  0.93395966  1
  O2-  O258  1  0.84140663  0.29088356  0.26721070  1
  O2-  O259  1  0.83563386  0.29252906  0.60420120  1
  O2-  O260  1  0.83718260  0.29519198  0.93843185  1
  O2-  O261  1  0.83059591  0.79241475  0.26369833  1
  O2-  O262  1  0.82771772  0.79705442  0.60052934  1
  O2-  O263  1  0.83174941  0.79763023  0.94049021  1
  O2-  O264  1  0.41871787  0.04029684  0.06733084  1
  O2-  O265  1  0.41374889  0.03807698  0.39653422  1
  O2-  O266  1  0.41537212  0.04448968  0.72122188  1
  O2-  O267  1  0.42276009  0.55088920  0.06587814  1
  O2-  O268  1  0.42458144  0.54751017  0.40081376  1
  O2-  O269  1  0.41559714  0.54544296  0.73813913  1
  O2-  O270  1  0.91919635  0.04754087  0.07346020  1
  O2-  O271  1  0.91329038  0.04071300  0.39632679  1
  O2-  O272  1  0.91768328  0.03577038  0.73311662  1
  O2-  O273  1  0.91253123  0.53457785  0.06956601  1
  O2-  O274  1  0.91271860  0.54801854  0.39589280  1
  O2-  O275  1  0.91880898  0.54889667  0.72341227  1
  O2-  O276  1  0.29289448  0.16734590  0.06957634  1
  O2-  O277  1  0.29572403  0.16140135  0.39542028  1
  O2-  O278  1  0.29387337  0.16358699  0.72323534  1
  O2-  O279  1  0.28898335  0.66807320  0.06840107  1
  O2-  O280  1  0.29115817  0.66993154  0.40409743  1
  O2-  O281  1  0.28538716  0.66977786  0.73222219  1
  O2-  O282  1  0.79320633  0.17189104  0.06988764  1
  O2-  O283  1  0.79589891  0.16434780  0.39596337  1
  O2-  O284  1  0.79636910  0.16539230  0.73465450  1
  O2-  O285  1  0.79238522  0.66624259  0.06890030  1
  O2-  O286  1  0.78952494  0.66518528  0.39492895  1
  O2-  O287  1  0.79648956  0.66605584  0.72706755  1
