# generated using pymatgen
data_Ca2Al2SiO7
_symmetry_space_group_name_H-M   'P 1'
_cell_length_a   15.45892770
_cell_length_b   15.45939534
_cell_length_c   15.28351352
_cell_angle_alpha   90.00273170
_cell_angle_beta   90.00555043
_cell_angle_gamma   90.01686753
_symmetry_Int_Tables_number   1
_chemical_formula_structural   Ca2Al2SiO7
_chemical_formula_sum   'Ca48 Al48 Si24 O168'
_cell_volume   3652.54061373
_cell_formula_units_Z   24
loop_
 _symmetry_equiv_pos_site_id
 _symmetry_equiv_pos_as_xyz
  1  'x, y, z'
loop_
 _atom_type_symbol
 _atom_type_oxidation_number
  Ca2+  2.0
  Al0+  0.0
  Si0+  0.0
  O2-  -2.0
loop_
 _atom_site_type_symbol
 _atom_site_label
 _atom_site_symmetry_multiplicity
 _atom_site_fract_x
 _atom_site_fract_y
 _atom_site_fract_z
 _atom_site_occupancy
  Ca2+  Ca0  1  0.16704540  0.08132852  0.17511932  1
  Ca2+  Ca1  1  0.17541382  0.09469198  0.50264986  1
  Ca2+  Ca2  1  0.16675799  0.08215177  0.83248453  1
  Ca2+  Ca3  1  0.16556550  0.57243287  0.17275889  1
  Ca2+  Ca4  1  0.16688671  0.58064000  0.49949945  1
  Ca2+  Ca5  1  0.17685149  0.58208344  0.84334963  1
  Ca2+  Ca6  1  0.66976317  0.07470667  0.17917231  1
  Ca2+  Ca7  1  0.68044804  0.08761771  0.49924929  1
  Ca2+  Ca8  1  0.67583243  0.07750158  0.83804733  1
  Ca2+  Ca9  1  0.67060486  0.57552807  0.17153606  1
  Ca2+  Ca10  1  0.65778552  0.57293637  0.50006059  1
  Ca2+  Ca11  1  0.67406648  0.57175020  0.84070146  1
  Ca2+  Ca12  1  0.08463100  0.33039740  0.16158845  1
  Ca2+  Ca13  1  0.08591453  0.32366353  0.49138843  1
  Ca2+  Ca14  1  0.07784700  0.33451835  0.83233497  1
  Ca2+  Ca15  1  0.07944896  0.83192504  0.16515087  1
  Ca2+  Ca16  1  0.07177302  0.82947780  0.49120484  1
  Ca2+  Ca17  1  0.07972366  0.83433673  0.82621959  1
  Ca2+  Ca18  1  0.58570957  0.33237228  0.16662103  1
  Ca2+  Ca19  1  0.57689098  0.33203106  0.48753740  1
  Ca2+  Ca20  1  0.58581794  0.33811202  0.83035526  1
  Ca2+  Ca21  1  0.59135601  0.83047831  0.16460548  1
  Ca2+  Ca22  1  0.58459672  0.82647598  0.48802084  1
  Ca2+  Ca23  1  0.58551025  0.83196644  0.83228959  1
  Ca2+  Ca24  1  0.32412479  0.41418261  0.17212596  1
  Ca2+  Ca25  1  0.32880654  0.41632292  0.49994644  1
  Ca2+  Ca26  1  0.32660549  0.42799460  0.83917345  1
  Ca2+  Ca27  1  0.32593985  0.92251503  0.17148098  1
  Ca2+  Ca28  1  0.33616602  0.93267422  0.50205777  1
  Ca2+  Ca29  1  0.32600225  0.92401426  0.83965167  1
  Ca2+  Ca30  1  0.82841776  0.41606225  0.16957558  1
  Ca2+  Ca31  1  0.81696075  0.41016527  0.50183492  1
  Ca2+  Ca32  1  0.82641321  0.41721909  0.84384144  1
  Ca2+  Ca33  1  0.82529545  0.91955001  0.17692001  1
  Ca2+  Ca34  1  0.83767932  0.92154033  0.49833073  1
  Ca2+  Ca35  1  0.83612607  0.92151034  0.83525906  1
  Ca2+  Ca36  1  0.41806381  0.16970420  0.17178276  1
  Ca2+  Ca37  1  0.42024726  0.17009950  0.48599991  1
  Ca2+  Ca38  1  0.41858935  0.16786986  0.82775650  1
  Ca2+  Ca39  1  0.42335235  0.66104927  0.16404239  1
  Ca2+  Ca40  1  0.41963573  0.66656255  0.49354845  1
  Ca2+  Ca41  1  0.41283140  0.66326647  0.82932375  1
  Ca2+  Ca42  1  0.91718356  0.17078236  0.16569175  1
  Ca2+  Ca43  1  0.92592605  0.15830872  0.49435146  1
  Ca2+  Ca44  1  0.92106497  0.17078801  0.82693917  1
  Ca2+  Ca45  1  0.91717625  0.66661331  0.16555160  1
  Ca2+  Ca46  1  0.91747409  0.67965654  0.48984648  1
  Ca2+  Ca47  1  0.91392198  0.67166542  0.82944067  1
  Al0+  Al48  1  0.00188098  -0.00017588  0.00197372  1
  Al0+  Al49  1  -0.00047985  -0.00087362  0.32692803  1
  Al0+  Al50  1  -0.00034365  0.00036976  0.66264117  1
  Al0+  Al51  1  0.00103327  0.50031929  -0.00057947  1
  Al0+  Al52  1  -0.00001290  0.50041288  0.33779288  1
  Al0+  Al53  1  -0.00261299  0.49944411  0.66417759  1
  Al0+  Al54  1  0.50093457  -0.00077435  0.00042528  1
  Al0+  Al55  1  0.49903088  -0.00043977  0.33672890  1
  Al0+  Al56  1  0.49984428  -0.00018871  0.67116571  1
  Al0+  Al57  1  0.50167429  0.49939879  0.00278438  1
  Al0+  Al58  1  0.49805990  0.50149511  0.32774136  1
  Al0+  Al59  1  0.49837671  0.49942871  0.67458286  1
  Al0+  Al60  1  0.25335652  0.25015857  -0.00177458  1
  Al0+  Al61  1  0.24911191  0.25087626  0.33188688  1
  Al0+  Al62  1  0.25063256  0.25137221  0.67019886  1
  Al0+  Al63  1  0.25175530  0.75301039  0.00649148  1
  Al0+  Al64  1  0.24885126  0.74951194  0.33026867  1
  Al0+  Al65  1  0.25089758  0.75041593  0.66723864  1
  Al0+  Al66  1  0.75132012  0.24908453  -0.00288111  1
  Al0+  Al67  1  0.74966155  0.24887016  0.33817733  1
  Al0+  Al68  1  0.74918478  0.24744785  0.67589509  1
  Al0+  Al69  1  0.75041923  0.74968014  0.00260301  1
  Al0+  Al70  1  0.74891865  0.74984595  0.32846429  1
  Al0+  Al71  1  0.74846529  0.74831330  0.66085377  1
  Al0+  Al72  1  0.17763468  0.42892875  0.34838369  1
  Al0+  Al73  1  0.92890925  0.81967149  0.65294926  1
  Al0+  Al74  1  0.92897724  0.82075042  0.31422336  1
  Al0+  Al75  1  0.68036330  0.42628836  0.01688743  1
  Al0+  Al76  1  0.67979056  0.93023438  0.01239498  1
  Al0+  Al77  1  0.92977601  0.32099220  0.98648474  1
  Al0+  Al78  1  0.17964265  0.42867548  0.01423079  1
  Al0+  Al79  1  0.82251879  0.57180481  0.01457531  1
  Al0+  Al80  1  0.56923931  0.67938786  0.31840188  1
  Al0+  Al81  1  0.67794901  0.43016404  0.34665270  1
  Al0+  Al82  1  0.07071158  0.18033819  0.31903728  1
  Al0+  Al83  1  0.32268954  0.07317888  0.68144090  1
  Al0+  Al84  1  0.31823727  0.07048155  0.34569857  1
  Al0+  Al85  1  0.07179707  0.67686836  0.31697272  1
  Al0+  Al86  1  0.57265683  0.17828368  0.31982217  1
  Al0+  Al87  1  0.67828235  0.92670446  0.34963232  1
  Al0+  Al88  1  0.07035494  0.18255890  0.65343085  1
  Al0+  Al89  1  0.82270031  0.06807781  0.68211468  1
  Al0+  Al90  1  0.82240908  0.07096007  0.34804597  1
  Al0+  Al91  1  0.67933604  0.42924060  0.68091383  1
  Al0+  Al92  1  0.17821001  0.93105484  0.01355332  1
  Al0+  Al93  1  0.42833825  0.32156370  0.31768304  1
  Al0+  Al94  1  0.31827938  0.57103978  0.67884557  1
  Al0+  Al95  1  0.32219505  0.57278978  0.01713515  1
  Si0+  Si96  1  0.42913237  0.82183242  0.98365078  1
  Si0+  Si97  1  0.82329967  0.07151812  0.01606037  1
  Si0+  Si98  1  0.82182220  0.57201384  0.35148709  1
  Si0+  Si99  1  0.17950753  0.92933263  0.68020842  1
  Si0+  Si100  1  0.07295940  0.68071549  0.98470533  1
  Si0+  Si101  1  0.07453671  0.67659486  0.65134778  1
  Si0+  Si102  1  0.17719498  0.92636436  0.35069809  1
  Si0+  Si103  1  0.32113452  0.57288395  0.34967226  1
  Si0+  Si104  1  0.42987380  0.32169226  0.98193164  1
  Si0+  Si105  1  0.42671618  0.82376290  0.31634333  1
  Si0+  Si106  1  0.42761066  0.82273175  0.65251554  1
  Si0+  Si107  1  0.82139594  0.57362953  0.68073936  1
  Si0+  Si108  1  0.92917750  0.82115735  0.98382938  1
  Si0+  Si109  1  0.57128130  0.17689085  0.65350248  1
  Si0+  Si110  1  0.57129608  0.67894403  0.98273968  1
  Si0+  Si111  1  0.17566230  0.42759032  0.68302689  1
  Si0+  Si112  1  0.32351186  0.07230957  0.01670692  1
  Si0+  Si113  1  0.92634319  0.32254998  0.31974108  1
  Si0+  Si114  1  0.07403747  0.17679966  0.98226561  1
  Si0+  Si115  1  0.57074530  0.17726656  0.98338065  1
  Si0+  Si116  1  0.43148552  0.32111154  0.65392859  1
  Si0+  Si117  1  0.67768652  0.92496838  0.68282189  1
  Si0+  Si118  1  0.92435711  0.32278903  0.64955355  1
  Si0+  Si119  1  0.56755814  0.67863372  0.65352591  1
  O2-  O120  1  0.24986013  0.00866315  0.05929662  1
  O2-  O121  1  0.24450447  -0.00398843  0.39537077  1
  O2-  O122  1  0.24804966  -0.00242965  0.72627856  1
  O2-  O123  1  0.25075988  0.50041424  0.06597766  1
  O2-  O124  1  0.25129285  0.50559648  0.39413515  1
  O2-  O125  1  0.23815473  0.50268491  0.72579706  1
  O2-  O126  1  0.75437999  0.00344062  0.05934742  1
  O2-  O127  1  0.74966548  -0.00062877  0.39894379  1
  O2-  O128  1  0.74778393  -0.00774899  0.72727747  1
  O2-  O129  1  0.75298704  0.49798965  0.06509595  1
  O2-  O130  1  0.75248899  0.50382830  0.39609825  1
  O2-  O131  1  0.75865638  0.50000657  0.72564999  1
  O2-  O132  1  -0.00453665  0.25496605  0.27430664  1
  O2-  O133  1  -0.00356063  0.25784637  0.60562350  1
  O2-  O134  1  0.00596221  0.24680832  0.93926966  1
  O2-  O135  1  0.00072672  0.74813362  0.26463678  1
  O2-  O136  1  0.00246780  0.74232833  0.60864281  1
  O2-  O137  1  0.00123609  0.75103772  0.94093049  1
  O2-  O138  1  0.50318933  0.25182821  0.26791966  1
  O2-  O139  1  0.50007278  0.24791299  0.61180466  1
  O2-  O140  1  0.50188926  0.25065146  0.94009823  1
  O2-  O141  1  0.49637059  0.75631508  0.27172775  1
  O2-  O142  1  0.49924729  0.75220067  0.61098271  1
  O2-  O143  1  0.49821446  0.74867544  0.94011880  1
  O2-  O144  1  0.07390211  0.17553898  0.08745819  1
  O2-  O145  1  0.07233858  0.18200842  0.43247555  1
  O2-  O146  1  0.06944400  0.18327075  0.76692403  1
  O2-  O147  1  0.07262599  0.68198022  0.08897785  1
  O2-  O148  1  0.07080388  0.67946917  0.43144501  1
  O2-  O149  1  0.07663219  0.67903667  0.75731842  1
  O2-  O150  1  0.56907964  0.17492777  0.08772035  1
  O2-  O151  1  0.57111254  0.18061883  0.43415930  1
  O2-  O152  1  0.56951176  0.17667338  0.75923747  1
  O2-  O153  1  0.57135152  0.68077854  0.08726524  1
  O2-  O154  1  0.56497541  0.67765932  0.43257662  1
  O2-  O155  1  0.56736314  0.68009808  0.75887077  1
  O2-  O156  1  0.17878094  0.42790266  0.23568077  1
  O2-  O157  1  0.17899698  0.42510544  0.57778947  1
  O2-  O158  1  0.18107574  0.43088507  0.89985614  1
  O2-  O159  1  0.18018148  0.92744615  0.24479820  1
  O2-  O160  1  0.18268985  0.92761297  0.57524686  1
  O2-  O161  1  0.17918868  0.93091247  0.89965223  1
  O2-  O162  1  0.68061552  0.43072238  0.23427660  1
  O2-  O163  1  0.67505590  0.43102989  0.56805113  1
  O2-  O164  1  0.68053570  0.42933533  0.90260076  1
  O2-  O165  1  0.67983508  0.92851278  0.23576880  1
  O2-  O166  1  0.67484283  0.92438668  0.57823104  1
  O2-  O167  1  0.68051511  0.93119565  0.89857046  1
  O2-  O168  1  0.42694904  0.32012305  0.08615514  1
  O2-  O169  1  0.42885797  0.32111108  0.43240298  1
  O2-  O170  1  0.43340896  0.32106766  0.75943156  1
  O2-  O171  1  0.43077641  0.82465259  0.08804299  1
  O2-  O172  1  0.42603308  0.82158014  0.42264481  1
  O2-  O173  1  0.42700778  0.82269161  0.75787832  1
  O2-  O174  1  0.92843381  0.31743408  0.09926516  1
  O2-  O175  1  0.92679361  0.32137242  0.42566880  1
  O2-  O176  1  0.92556678  0.32264881  0.75539750  1
  O2-  O177  1  0.92948329  0.82148842  0.08789912  1
  O2-  O178  1  0.93095447  0.81975497  0.42841310  1
  O2-  O179  1  0.93023158  0.81848576  0.76696566  1
  O2-  O180  1  0.31668083  0.06849438  0.23245927  1
  O2-  O181  1  0.32446839  0.07337253  0.56891317  1
  O2-  O182  1  0.32492347  0.06996565  0.91049138  1
  O2-  O183  1  0.32100250  0.57244747  0.24451307  1
  O2-  O184  1  0.32128791  0.56956606  0.56630582  1
  O2-  O185  1  0.31978212  0.57210539  0.90266698  1
  O2-  O186  1  0.82114156  0.07120717  0.23425401  1
  O2-  O187  1  0.82259622  0.06900468  0.56995552  1
  O2-  O188  1  0.82348103  0.06905522  0.90978380  1
  O2-  O189  1  0.82188286  0.56976228  0.24596813  1
  O2-  O190  1  0.81817521  0.57599135  0.57573947  1
  O2-  O191  1  0.81886040  0.57415551  0.90010697  1
  O2-  O192  1  0.04295807  0.08380399  0.26421337  1
  O2-  O193  1  0.04157595  0.08557521  0.60000431  1
  O2-  O194  1  0.04626505  0.08336914  0.93546074  1
  O2-  O195  1  0.04308313  0.57742849  0.26665115  1
  O2-  O196  1  0.05305888  0.58116069  0.60688198  1
  O2-  O197  1  0.04738730  0.58902558  0.93566608  1
  O2-  O198  1  0.54123515  0.07995109  0.26809668  1
  O2-  O199  1  0.54445884  0.08438649  0.60782266  1
  O2-  O200  1  0.53970274  0.08658958  0.93374098  1
  O2-  O201  1  0.53653663  0.58563417  0.26098394  1
  O2-  O202  1  0.53479150  0.58742698  0.60773355  1
  O2-  O203  1  0.54500001  0.58610340  0.93563057  1
  O2-  O204  1  0.16548077  0.21233780  0.26349657  1
  O2-  O205  1  0.16863331  0.21335289  0.60167188  1
  O2-  O206  1  0.16918771  0.19988350  0.93700859  1
  O2-  O207  1  0.17068823  0.70342026  0.26406824  1
  O2-  O208  1  0.16706217  0.70457326  0.60398759  1
  O2-  O209  1  0.16525172  0.71193208  0.93850680  1
  O2-  O210  1  0.67179578  0.20456445  0.26779703  1
  O2-  O211  1  0.66447208  0.20428531  0.60960869  1
  O2-  O212  1  0.66338508  0.20238142  0.93533585  1
  O2-  O213  1  0.66549164  0.70716951  0.26333302  1
  O2-  O214  1  0.65924161  0.70178493  0.60424641  1
  O2-  O215  1  0.66229280  0.71008064  0.93447473  1
  O2-  O216  1  0.08106284  0.45474295  0.06537949  1
  O2-  O217  1  0.08167748  0.45771427  0.40546747  1
  O2-  O218  1  0.07857611  0.44632713  0.72518137  1
  O2-  O219  1  0.08191047  0.95819256  0.06910695  1
  O2-  O220  1  0.08259507  0.95094717  0.39301103  1
  O2-  O221  1  0.08649698  0.95609372  0.72660217  1
  O2-  O222  1  0.58170420  0.45402160  0.06689511  1
  O2-  O223  1  0.58041731  0.46343896  0.39833359  1
  O2-  O224  1  0.58560742  0.46457292  0.73798560  1
  O2-  O225  1  0.58290804  0.95923771  0.06557927  1
  O2-  O226  1  0.57823441  0.95007708  0.40098174  1
  O2-  O227  1  0.58505383  0.95188227  0.73144542  1
  O2-  O228  1  0.20892880  0.32901890  0.06404664  1
  O2-  O229  1  0.21278041  0.33422986  0.40295405  1
  O2-  O230  1  0.20795160  0.33808753  0.73304988  1
  O2-  O231  1  0.21202149  0.83767694  0.06998494  1
  O2-  O232  1  0.20296691  0.83255135  0.39619169  1
  O2-  O233  1  0.20493160  0.83613073  0.72827361  1
  O2-  O234  1  0.70700306  0.32634729  0.06601311  1
  O2-  O235  1  0.70742470  0.33415545  0.40266060  1
  O2-  O236  1  0.70536332  0.33237850  0.73655707  1
  O2-  O237  1  0.70844864  0.83359101  0.06492920  1
  O2-  O238  1  0.70667253  0.82725735  0.40068598  1
  O2-  O239  1  0.70180020  0.83004599  0.72774581  1
  O2-  O240  1  0.45220446  0.41996580  0.26434062  1
  O2-  O241  1  0.46136937  0.41258426  0.60728849  1
  O2-  O242  1  0.45836445  0.41402299  0.93464838  1
  O2-  O243  1  0.44967326  0.91762366  0.27057475  1
  O2-  O244  1  0.45535891  0.91515097  0.60612980  1
  O2-  O245  1  0.45945390  0.91267849  0.93374419  1
  O2-  O246  1  0.95006806  0.41704063  0.27610137  1
  O2-  O247  1  0.94267942  0.41855951  0.60428136  1
  O2-  O248  1  0.95920546  0.41800446  0.93026929  1
  O2-  O249  1  0.95792344  0.91774442  0.25958514  1
  O2-  O250  1  0.96188078  0.91453323  0.59816285  1
  O2-  O251  1  0.95786433  0.91380134  0.93682371  1
  O2-  O252  1  0.33268634  0.28755085  0.26344756  1
  O2-  O253  1  0.33796799  0.29668313  0.60909995  1
  O2-  O254  1  0.33905703  0.29304935  0.93122160  1
  O2-  O255  1  0.33345770  0.79816231  0.26991960  1
  O2-  O256  1  0.33667099  0.79504703  0.60367327  1
  O2-  O257  1  0.33625807  0.79582714  0.93618253  1
  O2-  O258  1  0.83348679  0.29569031  0.27345123  1
  O2-  O259  1  0.83044445  0.29248922  0.60703437  1
  O2-  O260  1  0.83398921  0.28878797  0.92921726  1
  O2-  O261  1  0.83057688  0.79251140  0.26240102  1
  O2-  O262  1  0.83214512  0.79034990  0.59808506  1
  O2-  O263  1  0.83743997  0.79229726  0.93577778  1
  O2-  O264  1  0.41454715  0.04054254  0.06275708  1
  O2-  O265  1  0.41408109  0.04018434  0.40187734  1
  O2-  O266  1  0.41795613  0.04078762  0.73816696  1
  O2-  O267  1  0.42159569  0.54572310  0.06601889  1
  O2-  O268  1  0.41426947  0.54597650  0.39565567  1
  O2-  O269  1  0.41147385  0.53616688  0.73752423  1
  O2-  O270  1  0.91705556  0.04754622  0.06082189  1
  O2-  O271  1  0.92125655  0.03951052  0.39908348  1
  O2-  O272  1  0.91906989  0.03641898  0.73658356  1
  O2-  O273  1  0.92216594  0.54830773  0.06474012  1
  O2-  O274  1  0.91482923  0.54881219  0.39948934  1
  O2-  O275  1  0.91784459  0.55516646  0.72494612  1
  O2-  O276  1  0.30418380  0.16786789  0.05928584  1
  O2-  O277  1  0.28727802  0.16650459  0.40002714  1
  O2-  O278  1  0.29167154  0.16883369  0.73748077  1
  O2-  O279  1  0.29869274  0.67210901  0.06828932  1
  O2-  O280  1  0.29702669  0.66743071  0.39565490  1
  O2-  O281  1  0.29391077  0.66967777  0.73371470  1
  O2-  O282  1  0.79759065  0.16506960  0.05956087  1
  O2-  O283  1  0.79525681  0.16830857  0.40441201  1
  O2-  O284  1  0.79040568  0.16272611  0.73963499  1
  O2-  O285  1  0.79161088  0.66854597  0.06815981  1
  O2-  O286  1  0.79446845  0.66598781  0.39463265  1
  O2-  O287  1  0.79033193  0.66515489  0.72883745  1
