# generated using pymatgen
data_Ca2Al2SiO7
_symmetry_space_group_name_H-M   'P 1'
_cell_length_a   15.46313577
_cell_length_b   15.46344223
_cell_length_c   15.28652573
_cell_angle_alpha   90.01490642
_cell_angle_beta   90.00427689
_cell_angle_gamma   90.01886940
_symmetry_Int_Tables_number   1
_chemical_formula_structural   Ca2Al2SiO7
_chemical_formula_sum   'Ca48 Al48 Si24 O168'
_cell_volume   3655.21138180
_cell_formula_units_Z   24
loop_
 _symmetry_equiv_pos_site_id
 _symmetry_equiv_pos_as_xyz
  1  'x, y, z'
loop_
 _atom_type_symbol
 _atom_type_oxidation_number
  Ca2+  2.0
  Al0+  0.0
  Si0+  0.0
  O2-  -2.0
loop_
 _atom_site_type_symbol
 _atom_site_label
 _atom_site_symmetry_multiplicity
 _atom_site_fract_x
 _atom_site_fract_y
 _atom_site_fract_z
 _atom_site_occupancy
  Ca2+  Ca0  1  0.17724140  0.08206899  0.16640271  1
  Ca2+  Ca1  1  0.17420424  0.07805416  0.50413973  1
  Ca2+  Ca2  1  0.16721914  0.07241736  0.84075518  1
  Ca2+  Ca3  1  0.17546276  0.58139416  0.17044188  1
  Ca2+  Ca4  1  0.17515508  0.57683314  0.50663621  1
  Ca2+  Ca5  1  0.17452357  0.58910563  0.83576571  1
  Ca2+  Ca6  1  0.66493129  0.07689739  0.16465965  1
  Ca2+  Ca7  1  0.67127305  0.07794194  0.51031815  1
  Ca2+  Ca8  1  0.67155647  0.07255473  0.83440858  1
  Ca2+  Ca9  1  0.66083387  0.57396773  0.16531100  1
  Ca2+  Ca10  1  0.66494071  0.57060184  0.50376568  1
  Ca2+  Ca11  1  0.66515721  0.57395905  0.84189331  1
  Ca2+  Ca12  1  0.07887155  0.33800462  0.15870060  1
  Ca2+  Ca13  1  0.08133884  0.34277005  0.49834111  1
  Ca2+  Ca14  1  0.07141597  0.33718937  0.82464276  1
  Ca2+  Ca15  1  0.07949100  0.82772312  0.15349208  1
  Ca2+  Ca16  1  0.09362917  0.82714211  0.50188084  1
  Ca2+  Ca17  1  0.09303749  0.82671196  0.83026451  1
  Ca2+  Ca18  1  0.57285056  0.33987683  0.16079600  1
  Ca2+  Ca19  1  0.57928889  0.33632460  0.49434744  1
  Ca2+  Ca20  1  0.57838528  0.34099655  0.83161949  1
  Ca2+  Ca21  1  0.57726516  0.82614340  0.15747024  1
  Ca2+  Ca22  1  0.57736447  0.83290842  0.49285205  1
  Ca2+  Ca23  1  0.58799950  0.82944742  0.83116919  1
  Ca2+  Ca24  1  0.33677561  0.42616611  0.17333879  1
  Ca2+  Ca25  1  0.32664391  0.42419437  0.50327682  1
  Ca2+  Ca26  1  0.32924401  0.42593032  0.83918547  1
  Ca2+  Ca27  1  0.33395618  0.92448890  0.16921938  1
  Ca2+  Ca28  1  0.33605858  0.92166487  0.50422194  1
  Ca2+  Ca29  1  0.32222044  0.92166703  0.84146324  1
  Ca2+  Ca30  1  0.82146240  0.41025217  0.16754540  1
  Ca2+  Ca31  1  0.82217612  0.41091849  0.50750263  1
  Ca2+  Ca32  1  0.82507702  0.40870205  0.83780072  1
  Ca2+  Ca33  1  0.82797201  0.90512128  0.16382330  1
  Ca2+  Ca34  1  0.82595740  0.92481728  0.51203978  1
  Ca2+  Ca35  1  0.82759346  0.91424592  0.84030413  1
  Ca2+  Ca36  1  0.40778673  0.17703210  0.16177583  1
  Ca2+  Ca37  1  0.41699830  0.17292318  0.48945687  1
  Ca2+  Ca38  1  0.41266447  0.17156484  0.83490785  1
  Ca2+  Ca39  1  0.41540614  0.66694039  0.16094192  1
  Ca2+  Ca40  1  0.40941440  0.66940614  0.49604109  1
  Ca2+  Ca41  1  0.41956458  0.65804833  0.83249691  1
  Ca2+  Ca42  1  0.92136111  0.17429223  0.15874895  1
  Ca2+  Ca43  1  0.91497537  0.16919230  0.50278766  1
  Ca2+  Ca44  1  0.90927311  0.17544448  0.82859724  1
  Ca2+  Ca45  1  0.92753714  0.66906587  0.15330121  1
  Ca2+  Ca46  1  0.92562927  0.66389121  0.50057086  1
  Ca2+  Ca47  1  0.93096181  0.67100490  0.83091538  1
  Al0+  Al48  1  -0.00162307  0.00094032  0.00156189  1
  Al0+  Al49  1  -0.00059481  0.00051947  0.33207139  1
  Al0+  Al50  1  0.00059984  0.00250715  0.67234236  1
  Al0+  Al51  1  -0.00105778  0.50105903  -0.01015583  1
  Al0+  Al52  1  -0.00151840  0.50066373  0.33349047  1
  Al0+  Al53  1  -0.00113166  0.50050656  0.65778335  1
  Al0+  Al54  1  0.50166239  0.00169216  0.00677695  1
  Al0+  Al55  1  0.50030193  -0.00067947  0.33240657  1
  Al0+  Al56  1  0.50160290  0.00094841  0.66988131  1
  Al0+  Al57  1  0.49857706  0.49953492  -0.00056802  1
  Al0+  Al58  1  0.50127581  0.50008344  0.33853782  1
  Al0+  Al59  1  0.50033265  0.50074206  0.67030833  1
  Al0+  Al60  1  0.24886061  0.25048367  -0.00351056  1
  Al0+  Al61  1  0.24912883  0.24812398  0.33718604  1
  Al0+  Al62  1  0.24899146  0.25221398  0.66768676  1
  Al0+  Al63  1  0.25130992  0.75099319  0.00512065  1
  Al0+  Al64  1  0.24969475  0.75047336  0.32948233  1
  Al0+  Al65  1  0.25267808  0.75133665  0.66808950  1
  Al0+  Al66  1  0.74768020  0.24786901  0.00195683  1
  Al0+  Al67  1  0.75059940  0.24790229  0.33578013  1
  Al0+  Al68  1  0.74820655  0.24865122  0.66911373  1
  Al0+  Al69  1  0.75008966  0.74785643  -0.00305426  1
  Al0+  Al70  1  0.75048641  0.74905499  0.33506757  1
  Al0+  Al71  1  0.74996500  0.74759191  0.66519543  1
  Al0+  Al72  1  0.82097824  0.07090375  0.68236700  1
  Al0+  Al73  1  0.32066832  0.56954387  0.01490123  1
  Al0+  Al74  1  0.67812631  0.92636134  0.68090193  1
  Al0+  Al75  1  0.92836514  0.82212437  0.98451618  1
  Al0+  Al76  1  0.32128086  0.07331451  0.01514398  1
  Al0+  Al77  1  0.42844332  0.32083811  0.98556783  1
  Al0+  Al78  1  0.17749530  0.92862034  0.01688479  1
  Al0+  Al79  1  0.68044112  0.43005636  0.68156087  1
  Al0+  Al80  1  0.31981949  0.57081336  0.68300280  1
  Al0+  Al81  1  0.17644236  0.42829525  0.34650532  1
  Al0+  Al82  1  0.07479887  0.68025233  0.98384967  1
  Al0+  Al83  1  0.92752487  0.32002438  0.98664655  1
  Al0+  Al84  1  0.67937421  0.42792567  0.01425869  1
  Al0+  Al85  1  0.32169071  0.06990997  0.34785310  1
  Al0+  Al86  1  0.68041872  0.42866748  0.34711447  1
  Al0+  Al87  1  0.42944307  0.32036357  0.32139640  1
  Al0+  Al88  1  0.32132159  0.57278551  0.34834288  1
  Al0+  Al89  1  0.92792225  0.31935338  0.65066198  1
  Al0+  Al90  1  0.18162326  0.93051106  0.67862532  1
  Al0+  Al91  1  0.68083101  0.92595829  0.01538641  1
  Al0+  Al92  1  0.42876819  0.82147917  0.31892403  1
  Al0+  Al93  1  0.56854375  0.67896278  0.98657929  1
  Al0+  Al94  1  0.07328298  0.68140887  0.64993997  1
  Al0+  Al95  1  0.17608354  0.42836501  0.68265936  1
  Si0+  Si96  1  0.82086598  0.07222325  0.01919897  1
  Si0+  Si97  1  0.07178033  0.17852412  0.98277134  1
  Si0+  Si98  1  0.82257027  0.57032247  0.01473465  1
  Si0+  Si99  1  0.82250886  0.57323537  0.35030734  1
  Si0+  Si100  1  0.42950072  0.82482684  0.98338486  1
  Si0+  Si101  1  0.17524497  0.42891333  0.01325514  1
  Si0+  Si102  1  0.06968423  0.67901566  0.31775645  1
  Si0+  Si103  1  0.82230074  0.07016064  0.34824121  1
  Si0+  Si104  1  0.92843234  0.82199630  0.32012527  1
  Si0+  Si105  1  0.57181461  0.17649045  0.98218106  1
  Si0+  Si106  1  0.92810221  0.32034394  0.31836954  1
  Si0+  Si107  1  0.17639247  0.92929998  0.34914411  1
  Si0+  Si108  1  0.32405510  0.07452623  0.68258041  1
  Si0+  Si109  1  0.57420053  0.17716737  0.31640722  1
  Si0+  Si110  1  0.68014370  0.92811552  0.34765410  1
  Si0+  Si111  1  0.42861472  0.32265184  0.65087888  1
  Si0+  Si112  1  0.43221262  0.82196554  0.65356616  1
  Si0+  Si113  1  0.92757909  0.82337977  0.64934889  1
  Si0+  Si114  1  0.07013759  0.17720166  0.31855396  1
  Si0+  Si115  1  0.57390739  0.67850027  0.31740275  1
  Si0+  Si116  1  0.56824611  0.17903864  0.65215872  1
  Si0+  Si117  1  0.82342630  0.57255851  0.68310135  1
  Si0+  Si118  1  0.07365097  0.17694543  0.64866601  1
  Si0+  Si119  1  0.57217734  0.67697478  0.65023264  1
  O2-  O120  1  0.25100313  -0.00023835  0.06565115  1
  O2-  O121  1  0.24903693  -0.00680501  0.39443399  1
  O2-  O122  1  0.25227714  0.00889319  0.72493633  1
  O2-  O123  1  0.24390636  0.49591712  0.05952881  1
  O2-  O124  1  0.24966315  0.49934378  0.39618350  1
  O2-  O125  1  0.24663253  0.50050882  0.73335002  1
  O2-  O126  1  0.75721271  -0.00125563  0.06386404  1
  O2-  O127  1  0.75051330  -0.00045752  0.38961498  1
  O2-  O128  1  0.75564665  -0.00786403  0.73051636  1
  O2-  O129  1  0.75593239  0.50070739  0.06117426  1
  O2-  O130  1  0.75520380  0.50308304  0.39414181  1
  O2-  O131  1  0.75628116  0.50309806  0.72794700  1
  O2-  O132  1  0.00339260  0.25343863  0.27700121  1
  O2-  O133  1  0.00631295  0.24746063  0.60374238  1
  O2-  O134  1  0.00294516  0.24698182  0.93896772  1
  O2-  O135  1  -0.00121766  0.75115934  0.27745415  1
  O2-  O136  1  -0.00210113  0.75722935  0.60294066  1
  O2-  O137  1  0.00595400  0.75651250  0.93491937  1
  O2-  O138  1  0.50519639  0.24603682  0.27372735  1
  O2-  O139  1  0.49637885  0.24821466  0.60861132  1
  O2-  O140  1  0.50240009  0.24483094  0.93863678  1
  O2-  O141  1  0.50252444  0.74473131  0.27413939  1
  O2-  O142  1  0.50440164  0.75210487  0.61007859  1
  O2-  O143  1  0.49660326  0.75550283  0.93774967  1
  O2-  O144  1  0.07091335  0.18064831  0.08911582  1
  O2-  O145  1  0.06569000  0.17136960  0.42318089  1
  O2-  O146  1  0.07424641  0.17657275  0.75378224  1
  O2-  O147  1  0.07067832  0.67756579  0.09821342  1
  O2-  O148  1  0.06922748  0.67999728  0.42291676  1
  O2-  O149  1  0.07407912  0.68406134  0.76218289  1
  O2-  O150  1  0.57390082  0.17721987  0.08799969  1
  O2-  O151  1  0.57572185  0.17642774  0.42243342  1
  O2-  O152  1  0.56668142  0.17730478  0.75676426  1
  O2-  O153  1  0.56720305  0.67925940  0.10009806  1
  O2-  O154  1  0.57853164  0.68238041  0.42316188  1
  O2-  O155  1  0.57200015  0.67498876  0.75499367  1
  O2-  O156  1  0.17166483  0.43146827  0.23291111  1
  O2-  O157  1  0.18044310  0.42912833  0.56888821  1
  O2-  O158  1  0.17574122  0.42932402  0.90805432  1
  O2-  O159  1  0.17254739  0.93319723  0.24431188  1
  O2-  O160  1  0.18588231  0.93061060  0.56484500  1
  O2-  O161  1  0.18011403  0.93045935  0.90308596  1
  O2-  O162  1  0.68153550  0.42831742  0.23421979  1
  O2-  O163  1  0.67959917  0.43063311  0.56802089  1
  O2-  O164  1  0.68042047  0.42934773  0.90137863  1
  O2-  O165  1  0.68245411  0.92643069  0.24286674  1
  O2-  O166  1  0.67644145  0.93046458  0.56637957  1
  O2-  O167  1  0.68110805  0.92775905  0.90273141  1
  O2-  O168  1  0.42981835  0.32127261  0.09900705  1
  O2-  O169  1  0.43226877  0.31788495  0.43493043  1
  O2-  O170  1  0.43040597  0.32224611  0.75582775  1
  O2-  O171  1  0.43230590  0.82402880  0.08928639  1
  O2-  O172  1  0.43253289  0.82392675  0.43271964  1
  O2-  O173  1  0.43328373  0.82372664  0.75815064  1
  O2-  O174  1  0.92839346  0.31830016  0.10078535  1
  O2-  O175  1  0.92497227  0.31742074  0.42315239  1
  O2-  O176  1  0.92566330  0.31586244  0.76344386  1
  O2-  O177  1  0.92801461  0.81621597  0.09927063  1
  O2-  O178  1  0.92758800  0.82326286  0.42503723  1
  O2-  O179  1  0.92552279  0.82024525  0.75412997  1
  O2-  O180  1  0.31913612  0.07103133  0.23557839  1
  O2-  O181  1  0.32635904  0.07220259  0.57662120  1
  O2-  O182  1  0.31921496  0.07203403  0.90113067  1
  O2-  O183  1  0.32006249  0.57220671  0.23481401  1
  O2-  O184  1  0.32070741  0.57082397  0.56928233  1
  O2-  O185  1  0.32181724  0.56760748  0.90221383  1
  O2-  O186  1  0.82336869  0.07141856  0.24357292  1
  O2-  O187  1  0.81706227  0.07051828  0.56762330  1
  O2-  O188  1  0.81713635  0.07498836  0.91419147  1
  O2-  O189  1  0.82376454  0.57459103  0.24500814  1
  O2-  O190  1  0.81965086  0.57307094  0.57681500  1
  O2-  O191  1  0.82092105  0.56955236  0.90940559  1
  O2-  O192  1  0.03626327  0.08859951  0.26748063  1
  O2-  O193  1  0.04613483  0.08367071  0.60120695  1
  O2-  O194  1  0.04584855  0.08462069  0.93829431  1
  O2-  O195  1  0.03948960  0.58801284  0.26988653  1
  O2-  O196  1  0.04041324  0.58639309  0.59325287  1
  O2-  O197  1  0.04284506  0.58441897  0.92795744  1
  O2-  O198  1  0.54979881  0.08321333  0.27090941  1
  O2-  O199  1  0.54237669  0.08668836  0.60272254  1
  O2-  O200  1  0.54649649  0.08250200  0.93653307  1
  O2-  O201  1  0.55123937  0.58321361  0.27472113  1
  O2-  O202  1  0.53990033  0.58673737  0.60148748  1
  O2-  O203  1  0.53609660  0.58388586  0.93119893  1
  O2-  O204  1  0.16333527  0.20024077  0.27285658  1
  O2-  O205  1  0.16848344  0.20047347  0.60237961  1
  O2-  O206  1  0.16460938  0.20155828  0.93504127  1
  O2-  O207  1  0.16109959  0.70544903  0.26979728  1
  O2-  O208  1  0.16971411  0.71593280  0.59601778  1
  O2-  O209  1  0.17420395  0.70843410  0.93317624  1
  O2-  O210  1  0.66845707  0.20168067  0.27055804  1
  O2-  O211  1  0.65940156  0.20784400  0.60391647  1
  O2-  O212  1  0.66476996  0.20273794  0.93604085  1
  O2-  O213  1  0.66686276  0.70648918  0.27010407  1
  O2-  O214  1  0.66488867  0.70000154  0.60128166  1
  O2-  O215  1  0.66561511  0.70647313  0.93250242  1
  O2-  O216  1  0.08053929  0.45460813  0.05760351  1
  O2-  O217  1  0.07776259  0.45786221  0.39982381  1
  O2-  O218  1  0.07426774  0.45362214  0.72801554  1
  O2-  O219  1  0.07815084  0.95674949  0.06875203  1
  O2-  O220  1  0.08411720  0.95879760  0.39687891  1
  O2-  O221  1  0.08406931  0.95572555  0.73212775  1
  O2-  O222  1  0.58422324  0.46309290  0.06737101  1
  O2-  O223  1  0.58571024  0.45955231  0.40409727  1
  O2-  O224  1  0.58502436  0.46284323  0.73508043  1
  O2-  O225  1  0.58614513  0.95951021  0.07141693  1
  O2-  O226  1  0.58863997  0.95596525  0.39479227  1
  O2-  O227  1  0.58276058  0.96043955  0.73588387  1
  O2-  O228  1  0.19800905  0.33406240  0.05746509  1
  O2-  O229  1  0.20013623  0.32895042  0.39914937  1
  O2-  O230  1  0.20223834  0.32904281  0.73456427  1
  O2-  O231  1  0.20509343  0.83113992  0.07106267  1
  O2-  O232  1  0.19892837  0.83376333  0.39135446  1
  O2-  O233  1  0.21715952  0.83711491  0.73368459  1
  O2-  O234  1  0.70854436  0.33116026  0.06896855  1
  O2-  O235  1  0.71144366  0.33141095  0.40079162  1
  O2-  O236  1  0.70796994  0.33281235  0.73386005  1
  O2-  O237  1  0.71152243  0.82907804  0.06971876  1
  O2-  O238  1  0.70779870  0.83669124  0.39643761  1
  O2-  O239  1  0.70026147  0.82510162  0.72922331  1
  O2-  O240  1  0.46164154  0.41796192  0.26963878  1
  O2-  O241  1  0.46181409  0.41310851  0.60403444  1
  O2-  O242  1  0.46282663  0.41508536  0.93033989  1
  O2-  O243  1  0.46216615  0.91714238  0.26439441  1
  O2-  O244  1  0.45962977  0.91448040  0.60515879  1
  O2-  O245  1  0.45604123  0.91897556  0.93944562  1
  O2-  O246  1  0.95056228  0.41413536  0.27240381  1
  O2-  O247  1  0.95213773  0.41671647  0.59415143  1
  O2-  O248  1  0.95334723  0.41604028  0.93025730  1
  O2-  O249  1  0.95462875  0.91373230  0.27149919  1
  O2-  O250  1  0.95049676  0.91950724  0.60670489  1
  O2-  O251  1  0.94645944  0.92470974  0.93700373  1
  O2-  O252  1  0.33183207  0.28904851  0.26960725  1
  O2-  O253  1  0.33535442  0.29810387  0.60462816  1
  O2-  O254  1  0.33201283  0.29101242  0.93013042  1
  O2-  O255  1  0.33129698  0.79501087  0.26451789  1
  O2-  O256  1  0.34187043  0.79314385  0.60405423  1
  O2-  O257  1  0.33469115  0.80065343  0.94083960  1
  O2-  O258  1  0.83802356  0.28681295  0.27020383  1
  O2-  O259  1  0.83152107  0.28290834  0.59718186  1
  O2-  O260  1  0.83096162  0.28559551  0.93480291  1
  O2-  O261  1  0.83592288  0.79421742  0.27334677  1
  O2-  O262  1  0.83434868  0.79535511  0.60112606  1
  O2-  O263  1  0.83224802  0.78926409  0.93071937  1
  O2-  O264  1  0.42021981  0.04937489  0.06863630  1
  O2-  O265  1  0.41980140  0.04114389  0.40129202  1
  O2-  O266  1  0.41587600  0.04650814  0.72981153  1
  O2-  O267  1  0.41572183  0.53571285  0.06955766  1
  O2-  O268  1  0.42037274  0.54809363  0.40124644  1
  O2-  O269  1  0.41780829  0.54051937  0.73488644  1
  O2-  O270  1  0.91626457  0.05380942  0.06418413  1
  O2-  O271  1  0.91308250  0.04089888  0.39696584  1
  O2-  O272  1  0.92144786  0.05388548  0.73365348  1
  O2-  O273  1  0.91713662  0.54534821  0.05956016  1
  O2-  O274  1  0.91560965  0.54816734  0.39715764  1
  O2-  O275  1  0.91822667  0.54914474  0.72502618  1
  O2-  O276  1  0.28836828  0.17132690  0.06765773  1
  O2-  O277  1  0.28883769  0.16420173  0.40469437  1
  O2-  O278  1  0.30182997  0.16926645  0.72632096  1
  O2-  O279  1  0.29448719  0.66713300  0.06863236  1
  O2-  O280  1  0.29113090  0.67202527  0.39961555  1
  O2-  O281  1  0.29514343  0.67019678  0.73438702  1
  O2-  O282  1  0.78899962  0.16255299  0.06913285  1
  O2-  O283  1  0.79486919  0.16114189  0.39744593  1
  O2-  O284  1  0.78355370  0.16487390  0.73667412  1
  O2-  O285  1  0.79576687  0.66276671  0.06215994  1
  O2-  O286  1  0.79640408  0.66615089  0.39876758  1
  O2-  O287  1  0.79794931  0.66586236  0.72855089  1
