# generated using pymatgen
data_Ca2Al2SiO7
_symmetry_space_group_name_H-M   'P 1'
_cell_length_a   15.46137107
_cell_length_b   15.46105396
_cell_length_c   15.28640794
_cell_angle_alpha   90.00174382
_cell_angle_beta   89.99276633
_cell_angle_gamma   90.00567438
_symmetry_Int_Tables_number   1
_chemical_formula_structural   Ca2Al2SiO7
_chemical_formula_sum   'Ca48 Al48 Si24 O168'
_cell_volume   3654.20189601
_cell_formula_units_Z   24
loop_
 _symmetry_equiv_pos_site_id
 _symmetry_equiv_pos_as_xyz
  1  'x, y, z'
loop_
 _atom_type_symbol
 _atom_type_oxidation_number
  Ca2+  2.0
  Al0+  0.0
  Si0+  0.0
  O2-  -2.0
loop_
 _atom_site_type_symbol
 _atom_site_label
 _atom_site_symmetry_multiplicity
 _atom_site_fract_x
 _atom_site_fract_y
 _atom_site_fract_z
 _atom_site_occupancy
  Ca2+  Ca0  1  0.17884796  0.08114744  0.17489732  1
  Ca2+  Ca1  1  0.17068176  0.07738140  0.49773743  1
  Ca2+  Ca2  1  0.17955119  0.08136602  0.83404895  1
  Ca2+  Ca3  1  0.17168214  0.57815739  0.17414378  1
  Ca2+  Ca4  1  0.17415828  0.59091467  0.49814277  1
  Ca2+  Ca5  1  0.16906661  0.57298044  0.84209793  1
  Ca2+  Ca6  1  0.67620373  0.09023863  0.16947971  1
  Ca2+  Ca7  1  0.67983230  0.07917818  0.50729799  1
  Ca2+  Ca8  1  0.67506723  0.08627979  0.83984301  1
  Ca2+  Ca9  1  0.65582420  0.57964878  0.17460279  1
  Ca2+  Ca10  1  0.65662469  0.57232731  0.49967787  1
  Ca2+  Ca11  1  0.65909016  0.57751541  0.83620694  1
  Ca2+  Ca12  1  0.08819309  0.32614502  0.16347538  1
  Ca2+  Ca13  1  0.07806754  0.32224215  0.49098772  1
  Ca2+  Ca14  1  0.08411729  0.33239169  0.83000420  1
  Ca2+  Ca15  1  0.07602386  0.84091791  0.16858035  1
  Ca2+  Ca16  1  0.08164384  0.83811453  0.48801818  1
  Ca2+  Ca17  1  0.07875643  0.84286159  0.83124085  1
  Ca2+  Ca18  1  0.57269959  0.32972561  0.16297155  1
  Ca2+  Ca19  1  0.57688603  0.33499129  0.49453369  1
  Ca2+  Ca20  1  0.57454662  0.32626247  0.82966505  1
  Ca2+  Ca21  1  0.57972593  0.82055262  0.15757704  1
  Ca2+  Ca22  1  0.58768106  0.82786969  0.49474901  1
  Ca2+  Ca23  1  0.58244823  0.83363527  0.83328507  1
  Ca2+  Ca24  1  0.33582885  0.41682229  0.17143575  1
  Ca2+  Ca25  1  0.34233685  0.42047908  0.49906807  1
  Ca2+  Ca26  1  0.33227654  0.41061789  0.83960967  1
  Ca2+  Ca27  1  0.33538236  0.92575913  0.17436070  1
  Ca2+  Ca28  1  0.32176402  0.92571609  0.50734109  1
  Ca2+  Ca29  1  0.33385541  0.92526985  0.84109929  1
  Ca2+  Ca30  1  0.82195394  0.42064431  0.17473990  1
  Ca2+  Ca31  1  0.81699783  0.41524911  0.50354105  1
  Ca2+  Ca32  1  0.82412133  0.41621523  0.83697880  1
  Ca2+  Ca33  1  0.83844623  0.92155163  0.17016383  1
  Ca2+  Ca34  1  0.83288939  0.92251341  0.50286673  1
  Ca2+  Ca35  1  0.82866721  0.92405903  0.83735845  1
  Ca2+  Ca36  1  0.41580032  0.17226711  0.15819242  1
  Ca2+  Ca37  1  0.40579532  0.17611939  0.49560323  1
  Ca2+  Ca38  1  0.41041354  0.17301515  0.82979169  1
  Ca2+  Ca39  1  0.42160827  0.66923933  0.16435566  1
  Ca2+  Ca40  1  0.42026884  0.66867171  0.48940080  1
  Ca2+  Ca41  1  0.41887867  0.67339339  0.83637714  1
  Ca2+  Ca42  1  0.92266168  0.15633170  0.16571817  1
  Ca2+  Ca43  1  0.91996175  0.15749247  0.49189482  1
  Ca2+  Ca44  1  0.91499983  0.16019966  0.83111782  1
  Ca2+  Ca45  1  0.91909122  0.68210670  0.16316746  1
  Ca2+  Ca46  1  0.92712526  0.67670158  0.48658630  1
  Ca2+  Ca47  1  0.91697844  0.67447617  0.83144201  1
  Al0+  Al48  1  0.00018119  0.00023004  -0.00271491  1
  Al0+  Al49  1  0.00096201  0.00171321  0.33124854  1
  Al0+  Al50  1  0.00077105  0.00017379  0.67208583  1
  Al0+  Al51  1  -0.00101044  0.49879399  0.00486822  1
  Al0+  Al52  1  -0.00130891  0.49997268  0.33062902  1
  Al0+  Al53  1  -0.00008805  0.50025993  0.66350962  1
  Al0+  Al54  1  0.50356266  -0.00091775  -0.00149405  1
  Al0+  Al55  1  0.50255415  0.00272159  0.33924831  1
  Al0+  Al56  1  0.50094112  0.00068330  0.67059869  1
  Al0+  Al57  1  0.49818180  0.49885976  -0.00724150  1
  Al0+  Al58  1  0.49768928  0.49911400  0.33354084  1
  Al0+  Al59  1  0.49930881  0.49982507  0.66894643  1
  Al0+  Al60  1  0.24794143  0.24810846  0.00332471  1
  Al0+  Al61  1  0.24774735  0.25184494  0.32861018  1
  Al0+  Al62  1  0.24778969  0.25135302  0.66294230  1
  Al0+  Al63  1  0.24899769  0.74755846  -0.00279604  1
  Al0+  Al64  1  0.25019999  0.74842210  0.33624364  1
  Al0+  Al65  1  0.25025237  0.74899220  0.67187335  1
  Al0+  Al66  1  0.75090224  0.25151220  0.00236840  1
  Al0+  Al67  1  0.74854971  0.25083449  0.34267543  1
  Al0+  Al68  1  0.74850698  0.25255064  0.67428395  1
  Al0+  Al69  1  0.75276984  0.74943479  -0.00980996  1
  Al0+  Al70  1  0.75133734  0.74892378  0.32508477  1
  Al0+  Al71  1  0.75210838  0.74982102  0.66718129  1
  Al0+  Al72  1  0.07508068  0.67698953  0.31716480  1
  Al0+  Al73  1  0.17794582  0.42800376  0.01414864  1
  Al0+  Al74  1  0.67865065  0.92543415  0.68206587  1
  Al0+  Al75  1  0.67826382  0.43130045  0.34617874  1
  Al0+  Al76  1  0.18125769  0.92990441  0.34534038  1
  Al0+  Al77  1  0.32449833  0.07522620  0.34797900  1
  Al0+  Al78  1  0.17987672  0.92725682  0.68320984  1
  Al0+  Al79  1  0.81987433  0.06911140  0.34586113  1
  Al0+  Al80  1  0.42900849  0.31959826  0.65037895  1
  Al0+  Al81  1  0.56917321  0.67986599  0.32218955  1
  Al0+  Al82  1  0.06871596  0.18072542  0.31853472  1
  Al0+  Al83  1  0.43014608  0.31887441  0.31972731  1
  Al0+  Al84  1  0.42728840  0.82251013  0.98620067  1
  Al0+  Al85  1  0.32361120  0.06886617  0.01408531  1
  Al0+  Al86  1  0.57494306  0.17900893  0.98590639  1
  Al0+  Al87  1  0.32011713  0.07387121  0.68137877  1
  Al0+  Al88  1  0.31920841  0.56873903  0.34582518  1
  Al0+  Al89  1  0.93203481  0.82202223  0.98196927  1
  Al0+  Al90  1  0.82037426  0.07093423  0.68288430  1
  Al0+  Al91  1  0.82016990  0.07078878  0.01638954  1
  Al0+  Al92  1  0.67728994  0.43133995  0.68358558  1
  Al0+  Al93  1  0.57128660  0.67798177  0.98293060  1
  Al0+  Al94  1  0.93043760  0.82221961  0.31795556  1
  Al0+  Al95  1  0.42705336  0.31717463  0.98420159  1
  Si0+  Si96  1  0.06809847  0.18004412  0.65157441  1
  Si0+  Si97  1  0.82436909  0.57031056  0.68281754  1
  Si0+  Si98  1  0.67830504  0.43162827  0.01553187  1
  Si0+  Si99  1  0.07228261  0.67678065  0.65201648  1
  Si0+  Si100  1  0.82299483  0.57387795  0.34897351  1
  Si0+  Si101  1  0.17456830  0.42733299  0.35118269  1
  Si0+  Si102  1  0.93164673  0.82071076  0.65092221  1
  Si0+  Si103  1  0.82118722  0.57212444  0.01500554  1
  Si0+  Si104  1  0.57538786  0.17727879  0.31984778  1
  Si0+  Si105  1  0.07042508  0.67469375  0.98234660  1
  Si0+  Si106  1  0.92689516  0.32310655  0.65211947  1
  Si0+  Si107  1  0.67984490  0.92474135  0.01757942  1
  Si0+  Si108  1  0.92386556  0.32219933  0.31744541  1
  Si0+  Si109  1  0.42725090  0.82207903  0.65157269  1
  Si0+  Si110  1  0.57006688  0.68021433  0.65105291  1
  Si0+  Si111  1  0.57460149  0.17758337  0.64921285  1
  Si0+  Si112  1  0.42818348  0.82483972  0.32159161  1
  Si0+  Si113  1  0.17754124  0.43076197  0.67879357  1
  Si0+  Si114  1  0.17852299  0.92700155  0.01630836  1
  Si0+  Si115  1  0.92910431  0.32286549  0.98553553  1
  Si0+  Si116  1  0.32148674  0.57086325  0.68347494  1
  Si0+  Si117  1  0.06965035  0.17989277  0.98306789  1
  Si0+  Si118  1  0.67801593  0.92405219  0.34709195  1
  Si0+  Si119  1  0.32205003  0.57112873  0.01657074  1
  O2-  O120  1  0.25357494  -0.01123338  0.05940671  1
  O2-  O121  1  0.25582429  -0.00112266  0.39592074  1
  O2-  O122  1  0.25512261  -0.00404355  0.73246264  1
  O2-  O123  1  0.25341971  0.50190218  0.05947355  1
  O2-  O124  1  0.24158149  0.49776151  0.39542628  1
  O2-  O125  1  0.24908936  0.49987582  0.72285405  1
  O2-  O126  1  0.74485384  -0.00331820  0.06269495  1
  O2-  O127  1  0.74526077  -0.00571763  0.39145735  1
  O2-  O128  1  0.74582891  0.00172731  0.73264768  1
  O2-  O129  1  0.74495662  0.50703377  0.05738599  1
  O2-  O130  1  0.75404539  0.50569097  0.39364097  1
  O2-  O131  1  0.75385804  0.50500547  0.72942736  1
  O2-  O132  1  -0.00619884  0.25602869  0.27165056  1
  O2-  O133  1  -0.00753568  0.24732884  0.61021516  1
  O2-  O134  1  -0.00130434  0.25158002  0.94126259  1
  O2-  O135  1  0.00294491  0.74944112  0.26861780  1
  O2-  O136  1  0.00467691  0.75100585  0.61004584  1
  O2-  O137  1  0.00772062  0.74742143  0.93533950  1
  O2-  O138  1  0.50027459  0.23901201  0.27565756  1
  O2-  O139  1  0.50215008  0.24263459  0.60462855  1
  O2-  O140  1  0.49726915  0.24382109  0.93369352  1
  O2-  O141  1  0.49981656  0.75943127  0.27676422  1
  O2-  O142  1  0.50199907  0.75426367  0.60903444  1
  O2-  O143  1  0.50090769  0.75227253  0.93414610  1
  O2-  O144  1  0.06884157  0.17996470  0.08794519  1
  O2-  O145  1  0.06653434  0.18120089  0.43228948  1
  O2-  O146  1  0.06956588  0.18379698  0.75695217  1
  O2-  O147  1  0.06683887  0.67192099  0.08713322  1
  O2-  O148  1  0.07203300  0.67787348  0.43169846  1
  O2-  O149  1  0.06876012  0.67095511  0.75688019  1
  O2-  O150  1  0.57834161  0.18585645  0.09951417  1
  O2-  O151  1  0.58034496  0.18049778  0.42516497  1
  O2-  O152  1  0.57732137  0.18200262  0.75450744  1
  O2-  O153  1  0.56944262  0.67642191  0.09657439  1
  O2-  O154  1  0.56779561  0.67961591  0.43593736  1
  O2-  O155  1  0.56788026  0.67880159  0.75585026  1
  O2-  O156  1  0.17607159  0.42719954  0.24567341  1
  O2-  O157  1  0.17442674  0.43269584  0.57428646  1
  O2-  O158  1  0.17604140  0.43020902  0.90000821  1
  O2-  O159  1  0.18185409  0.93215531  0.23168063  1
  O2-  O160  1  0.17840103  0.92675947  0.57001375  1
  O2-  O161  1  0.17736189  0.93125803  0.91060051  1
  O2-  O162  1  0.67909054  0.43252407  0.23289702  1
  O2-  O163  1  0.67721894  0.43347746  0.57043361  1
  O2-  O164  1  0.68138897  0.43172069  0.91028724  1
  O2-  O165  1  0.67716484  0.92282012  0.24195530  1
  O2-  O166  1  0.68459213  0.92156544  0.56813315  1
  O2-  O167  1  0.68393877  0.92363830  0.91201546  1
  O2-  O168  1  0.42949088  0.31978143  0.09761597  1
  O2-  O169  1  0.43302257  0.32125326  0.43313093  1
  O2-  O170  1  0.42750156  0.32026816  0.76310912  1
  O2-  O171  1  0.42758391  0.81935580  0.10009738  1
  O2-  O172  1  0.42916297  0.82139305  0.42758111  1
  O2-  O173  1  0.42500249  0.81746458  0.75633197  1
  O2-  O174  1  0.92886944  0.32447088  0.09023272  1
  O2-  O175  1  0.92496983  0.32109965  0.42351660  1
  O2-  O176  1  0.93138036  0.32809279  0.75728303  1
  O2-  O177  1  0.93262665  0.82209566  0.09456566  1
  O2-  O178  1  0.93008499  0.82099030  0.43216564  1
  O2-  O179  1  0.93203995  0.81852688  0.75600952  1
  O2-  O180  1  0.32372547  0.07380542  0.23429401  1
  O2-  O181  1  0.31383425  0.07524064  0.56826212  1
  O2-  O182  1  0.31758612  0.07208222  0.90102195  1
  O2-  O183  1  0.32146598  0.56598287  0.23310303  1
  O2-  O184  1  0.32212085  0.57278188  0.57843102  1
  O2-  O185  1  0.31979471  0.57125807  0.91036555  1
  O2-  O186  1  0.81875600  0.07005046  0.23286922  1
  O2-  O187  1  0.82297419  0.06828776  0.56922138  1
  O2-  O188  1  0.82055090  0.07031214  0.90352208  1
  O2-  O189  1  0.82219524  0.57232491  0.24332605  1
  O2-  O190  1  0.82689225  0.56764309  0.57760310  1
  O2-  O191  1  0.82449700  0.56755237  0.90962597  1
  O2-  O192  1  0.03724731  0.08624194  0.26241995  1
  O2-  O193  1  0.04216885  0.08684526  0.60627851  1
  O2-  O194  1  0.04070166  0.08944472  0.93426684  1
  O2-  O195  1  0.04757926  0.57736712  0.26578340  1
  O2-  O196  1  0.04226011  0.58693116  0.60136149  1
  O2-  O197  1  0.03855849  0.58245743  0.93522591  1
  O2-  O198  1  0.55917180  0.08068652  0.27612617  1
  O2-  O199  1  0.55630707  0.08081427  0.60655815  1
  O2-  O200  1  0.55923248  0.07674042  0.93776409  1
  O2-  O201  1  0.53258654  0.58592180  0.26783319  1
  O2-  O202  1  0.53772037  0.58928477  0.60461599  1
  O2-  O203  1  0.53955670  0.58153123  0.92747277  1
  O2-  O204  1  0.16337764  0.21304188  0.26200954  1
  O2-  O205  1  0.15650058  0.21352920  0.60173891  1
  O2-  O206  1  0.16002581  0.21015291  0.93487519  1
  O2-  O207  1  0.17450534  0.70162924  0.26535255  1
  O2-  O208  1  0.16669731  0.70078837  0.60807441  1
  O2-  O209  1  0.16612535  0.69307515  0.93766079  1
  O2-  O210  1  0.66628033  0.21097595  0.27259728  1
  O2-  O211  1  0.66763126  0.20915291  0.60389908  1
  O2-  O212  1  0.67094755  0.21562690  0.93135207  1
  O2-  O213  1  0.66655651  0.70236987  0.26628501  1
  O2-  O214  1  0.66451543  0.70336791  0.60578269  1
  O2-  O215  1  0.67050796  0.70153216  0.92907257  1
  O2-  O216  1  0.08172212  0.45797541  0.06949761  1
  O2-  O217  1  0.07889746  0.44860729  0.39579597  1
  O2-  O218  1  0.08616768  0.45933853  0.72805594  1
  O2-  O219  1  0.08709392  0.96037427  0.06132588  1
  O2-  O220  1  0.08426673  0.96315905  0.39863705  1
  O2-  O221  1  0.08365148  0.96033805  0.73714221  1
  O2-  O222  1  0.58436432  0.45698103  0.05939629  1
  O2-  O223  1  0.58384809  0.46550366  0.40177790  1
  O2-  O224  1  0.58228577  0.46511309  0.73834259  1
  O2-  O225  1  0.58445187  0.94333964  0.06165851  1
  O2-  O226  1  0.58501325  0.94635560  0.39623176  1
  O2-  O227  1  0.57767970  0.94552553  0.73216137  1
  O2-  O228  1  0.20634378  0.33172830  0.06843231  1
  O2-  O229  1  0.20174291  0.33453398  0.39703412  1
  O2-  O230  1  0.20405226  0.33891064  0.72609698  1
  O2-  O231  1  0.19399515  0.82910554  0.05672823  1
  O2-  O232  1  0.20348627  0.83039323  0.39887313  1
  O2-  O233  1  0.20213856  0.82708922  0.73642161  1
  O2-  O234  1  0.71200063  0.34261836  0.06377315  1
  O2-  O235  1  0.70946965  0.33738314  0.40526269  1
  O2-  O236  1  0.70869924  0.33664751  0.73967361  1
  O2-  O237  1  0.71058667  0.83086192  0.06079672  1
  O2-  O238  1  0.70623765  0.83066032  0.39313773  1
  O2-  O239  1  0.71123944  0.82827568  0.73622213  1
  O2-  O240  1  0.46578544  0.41339710  0.26527463  1
  O2-  O241  1  0.46205589  0.41784804  0.59967815  1
  O2-  O242  1  0.45471314  0.41550877  0.93069469  1
  O2-  O243  1  0.45015709  0.92039200  0.27810204  1
  O2-  O244  1  0.44956039  0.91618422  0.60636021  1
  O2-  O245  1  0.45476782  0.92031132  0.93202297  1
  O2-  O246  1  0.94521705  0.41698588  0.27201205  1
  O2-  O247  1  0.95908882  0.41227184  0.60150764  1
  O2-  O248  1  0.95760924  0.41409547  0.93644262  1
  O2-  O249  1  0.96107100  0.91890338  0.26371671  1
  O2-  O250  1  0.95882861  0.91374221  0.60603525  1
  O2-  O251  1  0.96371742  0.91809487  0.92701766  1
  O2-  O252  1  0.33160148  0.29653007  0.26677258  1
  O2-  O253  1  0.33036048  0.29311279  0.59687144  1
  O2-  O254  1  0.32694988  0.28989226  0.93296892  1
  O2-  O255  1  0.33647318  0.79556076  0.27535525  1
  O2-  O256  1  0.33621239  0.78881370  0.60491083  1
  O2-  O257  1  0.32933500  0.79153604  0.93118059  1
  O2-  O258  1  0.83002142  0.29561841  0.27310165  1
  O2-  O259  1  0.83236755  0.30053636  0.60838051  1
  O2-  O260  1  0.83769107  0.29532377  0.93747953  1
  O2-  O261  1  0.83365032  0.79304642  0.26171466  1
  O2-  O262  1  0.84023988  0.79112770  0.60354047  1
  O2-  O263  1  0.83778552  0.78868817  0.92524169  1
  O2-  O264  1  0.42319685  0.04546529  0.06555800  1
  O2-  O265  1  0.42482972  0.05555766  0.40135619  1
  O2-  O266  1  0.42165772  0.05439304  0.73018432  1
  O2-  O267  1  0.41623145  0.54460350  0.06019226  1
  O2-  O268  1  0.41317539  0.53447560  0.40340930  1
  O2-  O269  1  0.41163229  0.54165283  0.73191105  1
  O2-  O270  1  0.91824743  0.03802828  0.06643954  1
  O2-  O271  1  0.91614340  0.03816778  0.39937107  1
  O2-  O272  1  0.91786959  0.04120339  0.73641379  1
  O2-  O273  1  0.90961406  0.53919069  0.06518205  1
  O2-  O274  1  0.91675916  0.54870944  0.39553007  1
  O2-  O275  1  0.91689179  0.54184369  0.73071773  1
  O2-  O276  1  0.28545413  0.16286695  0.06811193  1
  O2-  O277  1  0.28751711  0.17208507  0.39868226  1
  O2-  O278  1  0.28238292  0.17042799  0.73384100  1
  O2-  O279  1  0.29631032  0.66471001  0.06240264  1
  O2-  O280  1  0.29259913  0.66516372  0.40357441  1
  O2-  O281  1  0.29345633  0.66117970  0.73341387  1
  O2-  O282  1  0.79287607  0.16936830  0.06903588  1
  O2-  O283  1  0.79152525  0.16505259  0.40295644  1
  O2-  O284  1  0.79751342  0.17125559  0.73480312  1
  O2-  O285  1  0.79898596  0.66676590  0.05818435  1
  O2-  O286  1  0.79821532  0.66797198  0.39402942  1
  O2-  O287  1  0.80092028  0.66476090  0.72745315  1
