# generated using pymatgen
data_Ca2Al2SiO7
_symmetry_space_group_name_H-M   'P 1'
_cell_length_a   15.46164293
_cell_length_b   15.46311398
_cell_length_c   15.28701922
_cell_angle_alpha   89.99852592
_cell_angle_beta   90.00016452
_cell_angle_gamma   90.00309288
_symmetry_Int_Tables_number   1
_chemical_formula_structural   Ca2Al2SiO7
_chemical_formula_sum   'Ca48 Al48 Si24 O168'
_cell_volume   3654.89923097
_cell_formula_units_Z   24
loop_
 _symmetry_equiv_pos_site_id
 _symmetry_equiv_pos_as_xyz
  1  'x, y, z'
loop_
 _atom_type_symbol
 _atom_type_oxidation_number
  Ca2+  2.0
  Al0+  0.0
  Si0+  0.0
  O2-  -2.0
loop_
 _atom_site_type_symbol
 _atom_site_label
 _atom_site_symmetry_multiplicity
 _atom_site_fract_x
 _atom_site_fract_y
 _atom_site_fract_z
 _atom_site_occupancy
  Ca2+  Ca0  1  0.17684081  0.08740309  0.16712004  1
  Ca2+  Ca1  1  0.17968156  0.07689011  0.50973764  1
  Ca2+  Ca2  1  0.17606493  0.08127708  0.83997897  1
  Ca2+  Ca3  1  0.15936345  0.58395240  0.16755370  1
  Ca2+  Ca4  1  0.16306516  0.58479403  0.50144837  1
  Ca2+  Ca5  1  0.17298670  0.57716030  0.84530604  1
  Ca2+  Ca6  1  0.66288671  0.07124770  0.17324052  1
  Ca2+  Ca7  1  0.66653438  0.07889276  0.50659890  1
  Ca2+  Ca8  1  0.66751240  0.07438786  0.83281229  1
  Ca2+  Ca9  1  0.66882455  0.58312637  0.16140996  1
  Ca2+  Ca10  1  0.66768214  0.57960961  0.50388280  1
  Ca2+  Ca11  1  0.66769322  0.58004246  0.84922302  1
  Ca2+  Ca12  1  0.08252637  0.32998457  0.15973955  1
  Ca2+  Ca13  1  0.07616652  0.32896299  0.49314112  1
  Ca2+  Ca14  1  0.09133883  0.32766129  0.83619868  1
  Ca2+  Ca15  1  0.07653707  0.82278224  0.15576352  1
  Ca2+  Ca16  1  0.08011135  0.83571431  0.49781027  1
  Ca2+  Ca17  1  0.07327835  0.83557703  0.82804564  1
  Ca2+  Ca18  1  0.58541854  0.32614240  0.16153714  1
  Ca2+  Ca19  1  0.57757681  0.31773566  0.49859092  1
  Ca2+  Ca20  1  0.57693562  0.33033046  0.82392341  1
  Ca2+  Ca21  1  0.58070782  0.83598614  0.16133427  1
  Ca2+  Ca22  1  0.57309058  0.85095170  0.49942652  1
  Ca2+  Ca23  1  0.58350082  0.83308566  0.83150942  1
  Ca2+  Ca24  1  0.32901313  0.42609611  0.16194968  1
  Ca2+  Ca25  1  0.33649562  0.41905771  0.50485885  1
  Ca2+  Ca26  1  0.33374617  0.42150324  0.84465036  1
  Ca2+  Ca27  1  0.33901155  0.92653966  0.17253936  1
  Ca2+  Ca28  1  0.33408984  0.92167360  0.50760809  1
  Ca2+  Ca29  1  0.33576730  0.92491392  0.83223907  1
  Ca2+  Ca30  1  0.83475757  0.41971442  0.16702851  1
  Ca2+  Ca31  1  0.83537821  0.41544013  0.50269939  1
  Ca2+  Ca32  1  0.82338381  0.42554788  0.84416061  1
  Ca2+  Ca33  1  0.82138302  0.90582100  0.16612778  1
  Ca2+  Ca34  1  0.82208939  0.92114084  0.51188891  1
  Ca2+  Ca35  1  0.82618796  0.91143083  0.83750559  1
  Ca2+  Ca36  1  0.41941966  0.15907696  0.16402779  1
  Ca2+  Ca37  1  0.42648406  0.15305052  0.49953004  1
  Ca2+  Ca38  1  0.41872870  0.16812591  0.82518011  1
  Ca2+  Ca39  1  0.42048732  0.67430188  0.15875735  1
  Ca2+  Ca40  1  0.41725293  0.68352007  0.49591199  1
  Ca2+  Ca41  1  0.42192041  0.66676209  0.82957925  1
  Ca2+  Ca42  1  0.92123018  0.17397235  0.15945519  1
  Ca2+  Ca43  1  0.91336621  0.16876297  0.49635414  1
  Ca2+  Ca44  1  0.92241317  0.16061148  0.82953954  1
  Ca2+  Ca45  1  0.92399607  0.66850819  0.15591410  1
  Ca2+  Ca46  1  0.92209255  0.67693759  0.49677896  1
  Ca2+  Ca47  1  0.91324719  0.67741543  0.83602943  1
  Al0+  Al48  1  0.00028466  0.00199820  -0.00668875  1
  Al0+  Al49  1  -0.00031794  0.00035788  0.33099833  1
  Al0+  Al50  1  0.00013922  -0.00021604  0.66485771  1
  Al0+  Al51  1  -0.00081722  0.49915652  0.00178583  1
  Al0+  Al52  1  -0.00092192  0.49969338  0.32865385  1
  Al0+  Al53  1  0.00077649  0.49981477  0.66837693  1
  Al0+  Al54  1  0.50113633  0.00080649  0.00550064  1
  Al0+  Al55  1  0.50035047  0.00059011  0.33202118  1
  Al0+  Al56  1  0.50127290  -0.00097596  0.66903443  1
  Al0+  Al57  1  0.49871766  0.49980456  0.00642561  1
  Al0+  Al58  1  0.49958908  0.49935259  0.33563023  1
  Al0+  Al59  1  0.50032371  0.49876306  0.66090719  1
  Al0+  Al60  1  0.25090191  0.25094277  0.00483177  1
  Al0+  Al61  1  0.25136837  0.25251075  0.33940986  1
  Al0+  Al62  1  0.24853825  0.25207997  0.66394821  1
  Al0+  Al63  1  0.25009201  0.75300584  -0.00215965  1
  Al0+  Al64  1  0.25112414  0.75024733  0.32515335  1
  Al0+  Al65  1  0.25124664  0.74721391  0.66743227  1
  Al0+  Al66  1  0.74985365  0.24786230  0.00127273  1
  Al0+  Al67  1  0.74864142  0.25048727  0.32458951  1
  Al0+  Al68  1  0.74992669  0.25081420  0.66740775  1
  Al0+  Al69  1  0.74738524  0.74852719  0.00155959  1
  Al0+  Al70  1  0.74862609  0.74755096  0.34146824  1
  Al0+  Al71  1  0.75308299  0.74875857  0.66410226  1
  Al0+  Al72  1  0.67682626  0.42560159  0.01552575  1
  Al0+  Al73  1  0.43011651  0.81854864  0.65529333  1
  Al0+  Al74  1  0.82158884  0.07399753  0.68112985  1
  Al0+  Al75  1  0.17944073  0.43012861  0.01532410  1
  Al0+  Al76  1  0.56673345  0.67954128  0.98862554  1
  Al0+  Al77  1  0.43219682  0.82092169  0.31888725  1
  Al0+  Al78  1  0.32097613  0.07182131  0.68249141  1
  Al0+  Al79  1  0.07232719  0.18158479  0.98612119  1
  Al0+  Al80  1  0.81948152  0.57066247  0.01557511  1
  Al0+  Al81  1  0.92950433  0.31934590  0.31901797  1
  Al0+  Al82  1  0.56765489  0.18033684  0.31745505  1
  Al0+  Al83  1  0.67957487  0.92747785  0.68359562  1
  Al0+  Al84  1  0.06935964  0.68157500  0.32004976  1
  Al0+  Al85  1  0.42599916  0.32255727  0.65163270  1
  Al0+  Al86  1  0.31958865  0.07069518  0.34829383  1
  Al0+  Al87  1  0.32142354  0.57564991  0.01491662  1
  Al0+  Al88  1  0.68111983  0.93026046  0.01434881  1
  Al0+  Al89  1  0.07338505  0.67654950  0.98239838  1
  Al0+  Al90  1  0.92902984  0.82259396  0.65080486  1
  Al0+  Al91  1  0.57068011  0.17917261  0.65323235  1
  Al0+  Al92  1  0.68096822  0.92864946  0.34828610  1
  Al0+  Al93  1  0.17883995  0.92577943  0.68127528  1
  Al0+  Al94  1  0.92806222  0.82036019  0.98519701  1
  Al0+  Al95  1  0.31988671  0.06956633  0.01404103  1
  Si0+  Si96  1  0.32221149  0.56887649  0.67930330  1
  Si0+  Si97  1  0.17457718  0.92909183  0.01635705  1
  Si0+  Si98  1  0.93074417  0.32182684  0.65396297  1
  Si0+  Si99  1  0.57216765  0.17648010  0.98458664  1
  Si0+  Si100  1  0.92493348  0.82309828  0.31798394  1
  Si0+  Si101  1  0.82211500  0.56800973  0.35098758  1
  Si0+  Si102  1  0.17691437  0.42985656  0.68034996  1
  Si0+  Si103  1  0.67928444  0.43088801  0.67933297  1
  Si0+  Si104  1  0.17776698  0.43192700  0.35020597  1
  Si0+  Si105  1  0.82513823  0.07208411  0.01744756  1
  Si0+  Si106  1  0.32130047  0.57271456  0.34974279  1
  Si0+  Si107  1  0.42807002  0.82619031  0.98292769  1
  Si0+  Si108  1  0.92581925  0.32138829  0.98098530  1
  Si0+  Si109  1  0.57428308  0.67603527  0.64975689  1
  Si0+  Si110  1  0.43141508  0.31898735  0.98825233  1
  Si0+  Si111  1  0.57313412  0.67394151  0.31725431  1
  Si0+  Si112  1  0.07183545  0.17837181  0.65031178  1
  Si0+  Si113  1  0.82270568  0.07421627  0.34672857  1
  Si0+  Si114  1  0.07482138  0.17771885  0.31825750  1
  Si0+  Si115  1  0.82281452  0.56975491  0.68087404  1
  Si0+  Si116  1  0.67839403  0.42675888  0.35030294  1
  Si0+  Si117  1  0.42609034  0.32564217  0.31397836  1
  Si0+  Si118  1  0.17708344  0.92586745  0.34688162  1
  Si0+  Si119  1  0.07096008  0.67696093  0.65101444  1
  O2-  O120  1  0.24655855  -0.00620651  0.06143207  1
  O2-  O121  1  0.24181008  -0.00227929  0.39216375  1
  O2-  O122  1  0.24831191  0.00017164  0.73190214  1
  O2-  O123  1  0.24292118  0.51010103  0.06550077  1
  O2-  O124  1  0.24970470  0.50197696  0.39295035  1
  O2-  O125  1  0.25399388  0.49485842  0.72025010  1
  O2-  O126  1  0.75771229  0.00281351  0.06196596  1
  O2-  O127  1  0.75957229  0.00125917  0.39181449  1
  O2-  O128  1  0.75372300  -0.00138061  0.73183214  1
  O2-  O129  1  0.75071291  0.49540589  0.06631942  1
  O2-  O130  1  0.74898507  0.49845926  0.39338910  1
  O2-  O131  1  0.74602822  0.50492986  0.72201850  1
  O2-  O132  1  0.00257186  0.24257105  0.27408277  1
  O2-  O133  1  -0.00216181  0.24801209  0.60995252  1
  O2-  O134  1  -0.00396448  0.25425027  0.93694224  1
  O2-  O135  1  -0.00314834  0.75820313  0.27418387  1
  O2-  O136  1  0.00721065  0.74976102  0.60588152  1
  O2-  O137  1  0.00268322  0.75072309  0.93417486  1
  O2-  O138  1  0.49229449  0.25476857  0.27025841  1
  O2-  O139  1  0.49330328  0.24592801  0.60224378  1
  O2-  O140  1  0.50502224  0.25183630  0.94452864  1
  O2-  O141  1  0.50739173  0.74553537  0.27453082  1
  O2-  O142  1  0.50883642  0.74807371  0.60645776  1
  O2-  O143  1  0.49048011  0.75110253  0.93990871  1
  O2-  O144  1  0.07148431  0.18419883  0.09959745  1
  O2-  O145  1  0.07444890  0.18036862  0.42409234  1
  O2-  O146  1  0.07488740  0.18167359  0.75510489  1
  O2-  O147  1  0.06949395  0.67904859  0.09640334  1
  O2-  O148  1  0.06727825  0.68002144  0.43372703  1
  O2-  O149  1  0.06773250  0.67196687  0.75551581  1
  O2-  O150  1  0.56988546  0.17554916  0.08982987  1
  O2-  O151  1  0.56896788  0.18123407  0.43036798  1
  O2-  O152  1  0.57210926  0.18435737  0.76691900  1
  O2-  O153  1  0.56710147  0.68162897  0.10179419  1
  O2-  O154  1  0.57029626  0.66826465  0.42290899  1
  O2-  O155  1  0.57155746  0.67008726  0.75497020  1
  O2-  O156  1  0.17694827  0.43191076  0.24579743  1
  O2-  O157  1  0.17078213  0.43363867  0.57506573  1
  O2-  O158  1  0.18623355  0.42618707  0.90134482  1
  O2-  O159  1  0.17727625  0.92619513  0.24160179  1
  O2-  O160  1  0.18020587  0.92754339  0.56678332  1
  O2-  O161  1  0.17364959  0.93233317  0.91094210  1
  O2-  O162  1  0.67809025  0.42742124  0.24584642  1
  O2-  O163  1  0.68205968  0.43122804  0.57380586  1
  O2-  O164  1  0.67694531  0.42705157  0.90115898  1
  O2-  O165  1  0.68175650  0.92802635  0.23510404  1
  O2-  O166  1  0.68031992  0.93028443  0.56975752  1
  O2-  O167  1  0.67879403  0.93179848  0.90178547  1
  O2-  O168  1  0.43115772  0.31710301  0.09341719  1
  O2-  O169  1  0.42897593  0.32992649  0.41931250  1
  O2-  O170  1  0.43024211  0.32846459  0.76524755  1
  O2-  O171  1  0.43256206  0.82824542  0.08871593  1
  O2-  O172  1  0.43122971  0.81979185  0.43230259  1
  O2-  O173  1  0.42898053  0.81395665  0.76793577  1
  O2-  O174  1  0.92526210  0.31837876  0.08678990  1
  O2-  O175  1  0.93128381  0.32025203  0.43312122  1
  O2-  O176  1  0.93338356  0.32559230  0.75829371  1
  O2-  O177  1  0.92863014  0.81857864  0.09944978  1
  O2-  O178  1  0.92590094  0.82146780  0.42363907  1
  O2-  O179  1  0.92576884  0.81803070  0.76310211  1
  O2-  O180  1  0.31798111  0.07058086  0.23507065  1
  O2-  O181  1  0.31940398  0.06930749  0.56869626  1
  O2-  O182  1  0.32082495  0.07108123  0.90133908  1
  O2-  O183  1  0.32204158  0.57134090  0.24536011  1
  O2-  O184  1  0.32035552  0.56953654  0.57376642  1
  O2-  O185  1  0.32537530  0.56781086  0.90089894  1
  O2-  O186  1  0.82228916  0.07567007  0.24145193  1
  O2-  O187  1  0.81932490  0.07624218  0.56684073  1
  O2-  O188  1  0.82334962  0.07400383  0.91207771  1
  O2-  O189  1  0.82282611  0.56801527  0.24664570  1
  O2-  O190  1  0.82528086  0.56549501  0.57527024  1
  O2-  O191  1  0.81547001  0.56994955  0.90134889  1
  O2-  O192  1  0.05488714  0.08250070  0.27280511  1
  O2-  O193  1  0.04685442  0.08713932  0.60116668  1
  O2-  O194  1  0.04416951  0.08593300  0.92975369  1
  O2-  O195  1  0.03597124  0.58588012  0.26662806  1
  O2-  O196  1  0.03896745  0.58520531  0.60200902  1
  O2-  O197  1  0.04630148  0.57613644  0.93276396  1
  O2-  O198  1  0.53563158  0.08496341  0.26274375  1
  O2-  O199  1  0.54587054  0.07966715  0.60115586  1
  O2-  O200  1  0.53892313  0.08684624  0.93732441  1
  O2-  O201  1  0.54542370  0.58118476  0.27064192  1
  O2-  O202  1  0.54548927  0.58458825  0.59982156  1
  O2-  O203  1  0.53832652  0.58094269  0.93578664  1
  O2-  O204  1  0.16708791  0.20974546  0.27347281  1
  O2-  O205  1  0.16092234  0.21032208  0.59966387  1
  O2-  O206  1  0.16826063  0.21672372  0.93256383  1
  O2-  O207  1  0.16641310  0.70607236  0.26491657  1
  O2-  O208  1  0.16647901  0.69638239  0.60619084  1
  O2-  O209  1  0.17417797  0.70076867  0.93200354  1
  O2-  O210  1  0.66308650  0.21134128  0.26161522  1
  O2-  O211  1  0.66729822  0.21457979  0.59874378  1
  O2-  O212  1  0.66595783  0.19905405  0.93927418  1
  O2-  O213  1  0.66926584  0.69671568  0.27605009  1
  O2-  O214  1  0.66956082  0.69542807  0.60472830  1
  O2-  O215  1  0.66261225  0.70977187  0.93384295  1
  O2-  O216  1  0.07806762  0.44809188  0.06597072  1
  O2-  O217  1  0.08611852  0.46183126  0.39792751  1
  O2-  O218  1  0.08838490  0.46210819  0.73160350  1
  O2-  O219  1  0.08222866  0.95838026  0.06304934  1
  O2-  O220  1  0.08105908  0.94743988  0.39173168  1
  O2-  O221  1  0.07898940  0.95230215  0.73045958  1
  O2-  O222  1  0.58070663  0.45498443  0.07125823  1
  O2-  O223  1  0.58655164  0.45476586  0.39848286  1
  O2-  O224  1  0.58581494  0.45566208  0.72467954  1
  O2-  O225  1  0.58665901  0.96455811  0.07051148  1
  O2-  O226  1  0.58572742  0.96582470  0.39985030  1
  O2-  O227  1  0.58179283  0.95515064  0.73684851  1
  O2-  O228  1  0.21585689  0.33608127  0.07225164  1
  O2-  O229  1  0.20380399  0.34037272  0.39959675  1
  O2-  O230  1  0.19827981  0.33613860  0.72547281  1
  O2-  O231  1  0.19571870  0.83363346  0.05980028  1
  O2-  O232  1  0.20554655  0.83272086  0.39247114  1
  O2-  O233  1  0.20689092  0.82703177  0.73333785  1
  O2-  O234  1  0.70460745  0.32647158  0.06781863  1
  O2-  O235  1  0.70934836  0.33528505  0.39645777  1
  O2-  O236  1  0.70952748  0.34122912  0.72793636  1
  O2-  O237  1  0.70938471  0.83357900  0.06893157  1
  O2-  O238  1  0.70437005  0.83053899  0.40382191  1
  O2-  O239  1  0.70732619  0.82641938  0.73190913  1
  O2-  O240  1  0.45427986  0.41873817  0.26807268  1
  O2-  O241  1  0.45975804  0.41819103  0.59401666  1
  O2-  O242  1  0.45624724  0.41198189  0.94209252  1
  O2-  O243  1  0.46427733  0.91589734  0.26392658  1
  O2-  O244  1  0.45825463  0.91611360  0.60179667  1
  O2-  O245  1  0.46270122  0.91685478  0.93640355  1
  O2-  O246  1  0.96299945  0.41404444  0.26431761  1
  O2-  O247  1  0.96287389  0.41180840  0.60357926  1
  O2-  O248  1  0.94848308  0.41613872  0.93725766  1
  O2-  O249  1  0.94400853  0.91870178  0.27301025  1
  O2-  O250  1  0.95641371  0.91958216  0.59529615  1
  O2-  O251  1  0.95243713  0.91980948  0.93264160  1
  O2-  O252  1  0.33012729  0.30301105  0.27239638  1
  O2-  O253  1  0.32497192  0.30412034  0.59947154  1
  O2-  O254  1  0.34074275  0.28903645  0.94064783  1
  O2-  O255  1  0.33666580  0.79077892  0.26301018  1
  O2-  O256  1  0.33507885  0.78362442  0.59888764  1
  O2-  O257  1  0.33162196  0.81075301  0.94023816  1
  O2-  O258  1  0.83351315  0.29325993  0.26267633  1
  O2-  O259  1  0.83802525  0.29800090  0.60610068  1
  O2-  O260  1  0.83212509  0.29455366  0.93505738  1
  O2-  O261  1  0.83181215  0.79110869  0.27511201  1
  O2-  O262  1  0.83478107  0.78650355  0.59396393  1
  O2-  O263  1  0.83061813  0.78694287  0.93333870  1
  O2-  O264  1  0.41563153  0.03858965  0.06969145  1
  O2-  O265  1  0.41521160  0.03545528  0.40009683  1
  O2-  O266  1  0.41939167  0.04429676  0.73435800  1
  O2-  O267  1  0.41484795  0.53891680  0.07264566  1
  O2-  O268  1  0.41262685  0.54372787  0.39851757  1
  O2-  O269  1  0.41545361  0.54257834  0.72486766  1
  O2-  O270  1  0.92010167  0.05015293  0.06207543  1
  O2-  O271  1  0.91930337  0.05563743  0.39128914  1
  O2-  O272  1  0.92270174  0.05110094  0.72936755  1
  O2-  O273  1  0.91831838  0.54394472  0.06800154  1
  O2-  O274  1  0.91258743  0.53572363  0.39899434  1
  O2-  O275  1  0.91145330  0.53552936  0.72988039  1
  O2-  O276  1  0.28793301  0.16478774  0.06975519  1
  O2-  O277  1  0.29418420  0.16917847  0.40226722  1
  O2-  O278  1  0.29279370  0.17280587  0.73091297  1
  O2-  O279  1  0.30339818  0.67790336  0.06379588  1
  O2-  O280  1  0.29223472  0.66498022  0.39575555  1
  O2-  O281  1  0.29402448  0.65846575  0.72895060  1
  O2-  O282  1  0.79885986  0.16545015  0.06368861  1
  O2-  O283  1  0.79307965  0.16748772  0.39198715  1
  O2-  O284  1  0.79343720  0.17230638  0.73558774  1
  O2-  O285  1  0.78662144  0.66605097  0.07108190  1
  O2-  O286  1  0.79567913  0.65915758  0.40129703  1
  O2-  O287  1  0.80091733  0.66317325  0.72550243  1
