# generated using pymatgen
data_Ca2Al2SiO7
_symmetry_space_group_name_H-M   'P 1'
_cell_length_a   15.45817666
_cell_length_b   15.45775983
_cell_length_c   15.28338681
_cell_angle_alpha   90.00957572
_cell_angle_beta   90.00078858
_cell_angle_gamma   89.99278977
_symmetry_Int_Tables_number   1
_chemical_formula_structural   Ca2Al2SiO7
_chemical_formula_sum   'Ca48 Al48 Si24 O168'
_cell_volume   3651.94658797
_cell_formula_units_Z   24
loop_
 _symmetry_equiv_pos_site_id
 _symmetry_equiv_pos_as_xyz
  1  'x, y, z'
loop_
 _atom_type_symbol
 _atom_type_oxidation_number
  Ca2+  2.0
  Al0+  0.0
  Si0+  0.0
  O2-  -2.0
loop_
 _atom_site_type_symbol
 _atom_site_label
 _atom_site_symmetry_multiplicity
 _atom_site_fract_x
 _atom_site_fract_y
 _atom_site_fract_z
 _atom_site_occupancy
  Ca2+  Ca0  1  0.17028859  0.07205104  0.17817188  1
  Ca2+  Ca1  1  0.17650977  0.08275510  0.50105772  1
  Ca2+  Ca2  1  0.17571107  0.07728815  0.83640323  1
  Ca2+  Ca3  1  0.15966153  0.57399179  0.16721843  1
  Ca2+  Ca4  1  0.17382204  0.57239331  0.50823145  1
  Ca2+  Ca5  1  0.17035799  0.57765352  0.83674392  1
  Ca2+  Ca6  1  0.67281421  0.08776748  0.17007036  1
  Ca2+  Ca7  1  0.66969170  0.07900712  0.50805869  1
  Ca2+  Ca8  1  0.65753107  0.07991168  0.83401515  1
  Ca2+  Ca9  1  0.66102762  0.57950297  0.16315275  1
  Ca2+  Ca10  1  0.66599100  0.58557814  0.50833974  1
  Ca2+  Ca11  1  0.66292615  0.58164341  0.83934621  1
  Ca2+  Ca12  1  0.08431554  0.32870984  0.16155008  1
  Ca2+  Ca13  1  0.08610954  0.33114029  0.49610098  1
  Ca2+  Ca14  1  0.07554027  0.34552018  0.82914145  1
  Ca2+  Ca15  1  0.09050133  0.83081810  0.15831360  1
  Ca2+  Ca16  1  0.08117906  0.83917277  0.49597119  1
  Ca2+  Ca17  1  0.08281677  0.83081807  0.83210113  1
  Ca2+  Ca18  1  0.58222054  0.32724703  0.15608954  1
  Ca2+  Ca19  1  0.57261158  0.33052514  0.50326174  1
  Ca2+  Ca20  1  0.58243980  0.32375404  0.82646192  1
  Ca2+  Ca21  1  0.56872048  0.83165177  0.15871512  1
  Ca2+  Ca22  1  0.57320066  0.83613245  0.50323504  1
  Ca2+  Ca23  1  0.57497510  0.82630326  0.82410119  1
  Ca2+  Ca24  1  0.32049664  0.41685182  0.17245682  1
  Ca2+  Ca25  1  0.32387695  0.41668474  0.51322275  1
  Ca2+  Ca26  1  0.32935309  0.41899393  0.83420973  1
  Ca2+  Ca27  1  0.32814110  0.91584392  0.17224035  1
  Ca2+  Ca28  1  0.33876708  0.92342761  0.50378939  1
  Ca2+  Ca29  1  0.34013692  0.91877666  0.83622948  1
  Ca2+  Ca30  1  0.82891964  0.41129784  0.16304043  1
  Ca2+  Ca31  1  0.83357002  0.41726631  0.50666635  1
  Ca2+  Ca32  1  0.83034009  0.41212076  0.84100313  1
  Ca2+  Ca33  1  0.83003138  0.92558745  0.17505319  1
  Ca2+  Ca34  1  0.83044751  0.92248059  0.50981405  1
  Ca2+  Ca35  1  0.82747196  0.91204302  0.83191039  1
  Ca2+  Ca36  1  0.41971359  0.16377694  0.16377411  1
  Ca2+  Ca37  1  0.41408641  0.16227709  0.50105249  1
  Ca2+  Ca38  1  0.42514770  0.16869646  0.82360019  1
  Ca2+  Ca39  1  0.41565877  0.67988975  0.15840596  1
  Ca2+  Ca40  1  0.41256253  0.67467495  0.50003887  1
  Ca2+  Ca41  1  0.42092082  0.67423738  0.82496332  1
  Ca2+  Ca42  1  0.92313070  0.16771605  0.16412377  1
  Ca2+  Ca43  1  0.92367497  0.16969653  0.49471082  1
  Ca2+  Ca44  1  0.92025248  0.17947649  0.82838661  1
  Ca2+  Ca45  1  0.92534065  0.67002442  0.15983266  1
  Ca2+  Ca46  1  0.91619384  0.67525252  0.50168293  1
  Ca2+  Ca47  1  0.92627095  0.66791492  0.82863307  1
  Al0+  Al48  1  0.00073389  0.00154602  0.00242930  1
  Al0+  Al49  1  -0.00136604  0.00254233  0.33633325  1
  Al0+  Al50  1  -0.00046227  0.00138991  0.66540189  1
  Al0+  Al51  1  -0.00029186  0.50184307  -0.00210731  1
  Al0+  Al52  1  -0.00376656  0.50102701  0.33727331  1
  Al0+  Al53  1  -0.00153791  0.50108925  0.66394211  1
  Al0+  Al54  1  0.50132113  0.00097639  -0.00435823  1
  Al0+  Al55  1  0.50085028  -0.00121364  0.32991968  1
  Al0+  Al56  1  0.50235133  -0.00157631  0.66810003  1
  Al0+  Al57  1  0.49972025  0.50038184  0.00489152  1
  Al0+  Al58  1  0.50021250  0.49901502  0.33207009  1
  Al0+  Al59  1  0.50035330  0.49825805  0.66343494  1
  Al0+  Al60  1  0.25046978  0.24908486  0.00440807  1
  Al0+  Al61  1  0.24879367  0.24863645  0.33457635  1
  Al0+  Al62  1  0.24839909  0.24780164  0.67500041  1
  Al0+  Al63  1  0.24863214  0.75103306  -0.00589527  1
  Al0+  Al64  1  0.24886926  0.74818643  0.33199856  1
  Al0+  Al65  1  0.24993822  0.74811850  0.66573486  1
  Al0+  Al66  1  0.75074288  0.25076648  -0.00297018  1
  Al0+  Al67  1  0.74947453  0.25148027  0.33873714  1
  Al0+  Al68  1  0.75276591  0.25006493  0.65775509  1
  Al0+  Al69  1  0.74976123  0.75103582  0.00239447  1
  Al0+  Al70  1  0.74996305  0.74794906  0.33049503  1
  Al0+  Al71  1  0.75157624  0.75084479  0.66417178  1
  Al0+  Al72  1  0.93083441  0.82128422  0.65402043  1
  Al0+  Al73  1  0.42847495  0.82082277  0.98304192  1
  Al0+  Al74  1  0.82013564  0.07236263  0.34802855  1
  Al0+  Al75  1  0.17742302  0.42846915  0.68325887  1
  Al0+  Al76  1  0.07102736  0.18018105  0.31938315  1
  Al0+  Al77  1  0.17750839  0.42984032  0.01524034  1
  Al0+  Al78  1  0.17851781  0.92574421  0.34863934  1
  Al0+  Al79  1  0.57129076  0.17755878  0.64924157  1
  Al0+  Al80  1  0.32333093  0.57138874  0.68230407  1
  Al0+  Al81  1  0.57127058  0.18150563  0.98718734  1
  Al0+  Al82  1  0.06973071  0.67978254  0.98619341  1
  Al0+  Al83  1  0.32296775  0.06926227  0.34787720  1
  Al0+  Al84  1  0.93223621  0.31907848  0.98835113  1
  Al0+  Al85  1  0.42674040  0.31930625  0.65359135  1
  Al0+  Al86  1  0.67891221  0.42871720  0.01184115  1
  Al0+  Al87  1  0.17937565  0.92989876  0.01231968  1
  Al0+  Al88  1  0.93083526  0.32247714  0.65128950  1
  Al0+  Al89  1  0.57220561  0.67755653  0.98595987  1
  Al0+  Al90  1  0.42723807  0.82081929  0.65006207  1
  Al0+  Al91  1  0.42937941  0.82014799  0.31823348  1
  Al0+  Al92  1  0.32153009  0.06870805  0.68217647  1
  Al0+  Al93  1  0.17787110  0.42928902  0.34687255  1
  Al0+  Al94  1  0.57180043  0.67740914  0.65152906  1
  Al0+  Al95  1  0.68148522  0.92974128  0.68085420  1
  Si0+  Si96  1  0.92803163  0.82185140  0.31825550  1
  Si0+  Si97  1  0.92654742  0.32365126  0.31554998  1
  Si0+  Si98  1  0.67946975  0.92681195  0.34855406  1
  Si0+  Si99  1  0.68059378  0.42776196  0.68008573  1
  Si0+  Si100  1  0.42843535  0.32175168  0.31763727  1
  Si0+  Si101  1  0.17546723  0.92735571  0.68298120  1
  Si0+  Si102  1  0.81988304  0.57174045  0.68202236  1
  Si0+  Si103  1  0.32440147  0.07103905  0.01728660  1
  Si0+  Si104  1  0.92707535  0.82577369  0.98574371  1
  Si0+  Si105  1  0.82221110  0.57361334  0.01694904  1
  Si0+  Si106  1  0.81951978  0.57191621  0.34943347  1
  Si0+  Si107  1  0.82033258  0.07189238  0.01388011  1
  Si0+  Si108  1  0.06864887  0.67847180  0.31935381  1
  Si0+  Si109  1  0.07419265  0.17630473  0.98348104  1
  Si0+  Si110  1  0.42518819  0.32277210  0.98618343  1
  Si0+  Si111  1  0.82335313  0.07380438  0.68523078  1
  Si0+  Si112  1  0.67777682  0.42926318  0.34999491  1
  Si0+  Si113  1  0.67870727  0.92877208  0.01598417  1
  Si0+  Si114  1  0.32128911  0.57255433  0.01740799  1
  Si0+  Si115  1  0.07222810  0.17703612  0.65054037  1
  Si0+  Si116  1  0.57190873  0.18068873  0.31855326  1
  Si0+  Si117  1  0.07170856  0.67789287  0.64765702  1
  Si0+  Si118  1  0.32294072  0.57056117  0.34879394  1
  Si0+  Si119  1  0.57356938  0.67551856  0.31418651  1
  O2-  O120  1  0.25400478  0.00372391  0.06034588  1
  O2-  O121  1  0.25244574  -0.00434660  0.39802631  1
  O2-  O122  1  0.24882253  -0.00928637  0.72749508  1
  O2-  O123  1  0.25406119  0.50240963  0.06300554  1
  O2-  O124  1  0.25566472  0.50058742  0.39270499  1
  O2-  O125  1  0.25143940  0.49894763  0.73231457  1
  O2-  O126  1  0.75133347  -0.00107970  0.05738462  1
  O2-  O127  1  0.74821982  -0.00516519  0.39340635  1
  O2-  O128  1  0.75365606  0.00671271  0.72996250  1
  O2-  O129  1  0.75081375  0.50647924  0.06014892  1
  O2-  O130  1  0.74686184  0.50257873  0.39116397  1
  O2-  O131  1  0.74940009  0.50036915  0.72335391  1
  O2-  O132  1  -0.00336314  0.25628750  0.27233933  1
  O2-  O133  1  0.00691865  0.24935493  0.60642123  1
  O2-  O134  1  0.01088069  0.24995261  0.93950492  1
  O2-  O135  1  0.00273605  0.75471899  0.27618813  1
  O2-  O136  1  0.00849194  0.75195985  0.60357804  1
  O2-  O137  1  -0.00521009  0.75602242  0.94250105  1
  O2-  O138  1  0.49958315  0.25018606  0.27568394  1
  O2-  O139  1  0.49568744  0.24604327  0.59958859  1
  O2-  O140  1  0.49521370  0.25529097  0.94285279  1
  O2-  O141  1  0.50400969  0.74409169  0.27229677  1
  O2-  O142  1  0.49747012  0.74616270  0.60067904  1
  O2-  O143  1  0.50060623  0.74798342  0.93505452  1
  O2-  O144  1  0.07062856  0.17458120  0.08915612  1
  O2-  O145  1  0.06992126  0.18212466  0.43229401  1
  O2-  O146  1  0.06800863  0.17291777  0.75622929  1
  O2-  O147  1  0.06678850  0.67949109  0.10009146  1
  O2-  O148  1  0.06459657  0.67674225  0.42403689  1
  O2-  O149  1  0.06766839  0.67572894  0.75321553  1
  O2-  O150  1  0.57261023  0.18218685  0.10121542  1
  O2-  O151  1  0.57320692  0.18232160  0.42295680  1
  O2-  O152  1  0.57247718  0.18122309  0.76297241  1
  O2-  O153  1  0.57067818  0.68125131  0.10011470  1
  O2-  O154  1  0.57654112  0.67406760  0.41915899  1
  O2-  O155  1  0.57442243  0.67931250  0.76476867  1
  O2-  O156  1  0.17689286  0.43184660  0.23337327  1
  O2-  O157  1  0.17708823  0.43073503  0.56916287  1
  O2-  O158  1  0.17635277  0.43284140  0.90307374  1
  O2-  O159  1  0.17942277  0.92613874  0.23477394  1
  O2-  O160  1  0.17197898  0.93162534  0.57764707  1
  O2-  O161  1  0.17525196  0.93317418  0.89959529  1
  O2-  O162  1  0.67875931  0.42720090  0.24487530  1
  O2-  O163  1  0.68338616  0.42907237  0.57437364  1
  O2-  O164  1  0.68327153  0.42588090  0.89914393  1
  O2-  O165  1  0.68189499  0.92799631  0.24230013  1
  O2-  O166  1  0.68498251  0.93020800  0.56737022  1
  O2-  O167  1  0.68004776  0.92756426  0.91130733  1
  O2-  O168  1  0.42554963  0.32038855  0.09260038  1
  O2-  O169  1  0.43055581  0.32500156  0.42214806  1
  O2-  O170  1  0.43105963  0.31947674  0.76729362  1
  O2-  O171  1  0.42926933  0.82141696  0.09733219  1
  O2-  O172  1  0.43146355  0.82034741  0.43063787  1
  O2-  O173  1  0.43015822  0.82107555  0.76320965  1
  O2-  O174  1  0.93024609  0.31554827  0.10165016  1
  O2-  O175  1  0.92610326  0.32406668  0.42095885  1
  O2-  O176  1  0.92888519  0.32186564  0.76458163  1
  O2-  O177  1  0.92664615  0.82601170  0.09188442  1
  O2-  O178  1  0.92480725  0.81821392  0.42308381  1
  O2-  O179  1  0.93107007  0.81784132  0.76729319  1
  O2-  O180  1  0.32327776  0.06910699  0.23399966  1
  O2-  O181  1  0.31936027  0.06895128  0.56918403  1
  O2-  O182  1  0.32445985  0.07104051  0.91185436  1
  O2-  O183  1  0.32275303  0.56916802  0.24297808  1
  O2-  O184  1  0.31947864  0.57055942  0.56800450  1
  O2-  O185  1  0.32138996  0.57055347  0.91235611  1
  O2-  O186  1  0.81756299  0.07243520  0.23397186  1
  O2-  O187  1  0.82359461  0.07164909  0.57950605  1
  O2-  O188  1  0.82081493  0.07152390  0.90916009  1
  O2-  O189  1  0.82173548  0.57310038  0.24463300  1
  O2-  O190  1  0.81991915  0.57104796  0.57625285  1
  O2-  O191  1  0.82408410  0.57408282  0.91160593  1
  O2-  O192  1  0.03685326  0.08380388  0.26515545  1
  O2-  O193  1  0.04232632  0.08610383  0.60149291  1
  O2-  O194  1  0.04217493  0.08546095  0.93573813  1
  O2-  O195  1  0.03263672  0.58903606  0.27098686  1
  O2-  O196  1  0.03767466  0.58813261  0.59893682  1
  O2-  O197  1  0.03551943  0.58600915  0.92991072  1
  O2-  O198  1  0.54823946  0.08804685  0.27048299  1
  O2-  O199  1  0.54713256  0.07794621  0.59862862  1
  O2-  O200  1  0.54290936  0.08517459  0.93293832  1
  O2-  O201  1  0.54869011  0.58085279  0.26865347  1
  O2-  O202  1  0.54950703  0.57765472  0.59851300  1
  O2-  O203  1  0.54888319  0.57614675  0.93768795  1
  O2-  O204  1  0.16758366  0.20905664  0.26368659  1
  O2-  O205  1  0.16679978  0.20020532  0.60721377  1
  O2-  O206  1  0.17040645  0.19607933  0.94141215  1
  O2-  O207  1  0.16178889  0.69866413  0.27150476  1
  O2-  O208  1  0.16669261  0.69677282  0.60307302  1
  O2-  O209  1  0.16425677  0.70921862  0.92955512  1
  O2-  O210  1  0.66328974  0.21276048  0.27144928  1
  O2-  O211  1  0.66852788  0.20864534  0.59534555  1
  O2-  O212  1  0.66628330  0.21277678  0.93175078  1
  O2-  O213  1  0.66770846  0.70009261  0.26734764  1
  O2-  O214  1  0.66972102  0.70857086  0.59794198  1
  O2-  O215  1  0.67294473  0.70328652  0.93680636  1
  O2-  O216  1  0.08123762  0.46391918  0.06905978  1
  O2-  O217  1  0.08091341  0.46126599  0.39957632  1
  O2-  O218  1  0.07873406  0.46298770  0.73304387  1
  O2-  O219  1  0.08214512  0.95931624  0.06822913  1
  O2-  O220  1  0.07968408  0.95548706  0.39937341  1
  O2-  O221  1  0.08340495  0.95772504  0.73085719  1
  O2-  O222  1  0.58244407  0.45484494  0.07051827  1
  O2-  O223  1  0.58515098  0.45550235  0.39669622  1
  O2-  O224  1  0.58794722  0.45112259  0.72620683  1
  O2-  O225  1  0.58790142  0.96030175  0.06337812  1
  O2-  O226  1  0.58644823  0.95406690  0.39300374  1
  O2-  O227  1  0.58587324  0.95851432  0.73670383  1
  O2-  O228  1  0.20569966  0.33132282  0.06854715  1
  O2-  O229  1  0.20693887  0.33244278  0.39920368  1
  O2-  O230  1  0.19868800  0.32922909  0.73676205  1
  O2-  O231  1  0.20778810  0.83157354  0.06451616  1
  O2-  O232  1  0.20032363  0.82483825  0.39921077  1
  O2-  O233  1  0.19386027  0.83050541  0.72427982  1
  O2-  O234  1  0.71546671  0.33404556  0.06844006  1
  O2-  O235  1  0.70736436  0.33961127  0.39991267  1
  O2-  O236  1  0.71264340  0.33607740  0.72510539  1
  O2-  O237  1  0.70518629  0.83764413  0.06625512  1
  O2-  O238  1  0.70470499  0.83212201  0.39195920  1
  O2-  O239  1  0.71793924  0.83446961  0.73463527  1
  O2-  O240  1  0.45763742  0.41287267  0.26835811  1
  O2-  O241  1  0.45843630  0.41525777  0.59712614  1
  O2-  O242  1  0.44902448  0.41757374  0.94389568  1
  O2-  O243  1  0.46236341  0.91568390  0.26204338  1
  O2-  O244  1  0.46225247  0.91735670  0.59810194  1
  O2-  O245  1  0.45970282  0.91874936  0.93209867  1
  O2-  O246  1  0.94862123  0.41909516  0.27138229  1
  O2-  O247  1  0.95722386  0.41987250  0.59619901  1
  O2-  O248  1  0.95642791  0.41741977  0.93547962  1
  O2-  O249  1  0.94994876  0.91573385  0.27320505  1
  O2-  O250  1  0.95625277  0.91944494  0.60008022  1
  O2-  O251  1  0.95306388  0.91859827  0.93878323  1
  O2-  O252  1  0.33676196  0.29396892  0.27049527  1
  O2-  O253  1  0.32623180  0.29257650  0.60446605  1
  O2-  O254  1  0.33185049  0.29721317  0.94002897  1
  O2-  O255  1  0.33197862  0.78832385  0.26500351  1
  O2-  O256  1  0.32723710  0.79584303  0.59799184  1
  O2-  O257  1  0.33036310  0.79533007  0.93020779  1
  O2-  O258  1  0.83222721  0.29556790  0.27144069  1
  O2-  O259  1  0.83659256  0.29124273  0.59325210  1
  O2-  O260  1  0.83800645  0.28472899  0.93256566  1
  O2-  O261  1  0.83803793  0.78968030  0.26828930  1
  O2-  O262  1  0.83763552  0.78595432  0.59662985  1
  O2-  O263  1  0.83296956  0.80085670  0.94137357  1
  O2-  O264  1  0.41830164  0.04469411  0.06311538  1
  O2-  O265  1  0.42304169  0.04278734  0.39873526  1
  O2-  O266  1  0.41911204  0.04043426  0.73508194  1
  O2-  O267  1  0.41492593  0.55028310  0.06581387  1
  O2-  O268  1  0.41785234  0.54742096  0.39329872  1
  O2-  O269  1  0.42257541  0.54286499  0.73340752  1
  O2-  O270  1  0.91218468  0.04569682  0.06296232  1
  O2-  O271  1  0.91584587  0.04329460  0.40307616  1
  O2-  O272  1  0.91627676  0.04652205  0.73188190  1
  O2-  O273  1  0.91371935  0.54420396  0.06535464  1
  O2-  O274  1  0.90903526  0.54313710  0.40075350  1
  O2-  O275  1  0.91168185  0.54350726  0.72865701  1
  O2-  O276  1  0.30170754  0.16534968  0.06372501  1
  O2-  O277  1  0.29370909  0.16767117  0.39981098  1
  O2-  O278  1  0.28928815  0.16292540  0.74008616  1
  O2-  O279  1  0.29165161  0.66590820  0.06162565  1
  O2-  O280  1  0.29454832  0.66305163  0.39450257  1
  O2-  O281  1  0.29400903  0.67003073  0.73491154  1
  O2-  O282  1  0.78904942  0.16173010  0.06288537  1
  O2-  O283  1  0.78899060  0.16813867  0.40303476  1
  O2-  O284  1  0.79864563  0.16928350  0.72746645  1
  O2-  O285  1  0.79959123  0.66766220  0.06549563  1
  O2-  O286  1  0.79300717  0.66438731  0.39725178  1
  O2-  O287  1  0.79391766  0.66316821  0.72982005  1
