# generated using pymatgen
data_Ca2Al2SiO7
_symmetry_space_group_name_H-M   'P 1'
_cell_length_a   15.45821639
_cell_length_b   15.45867882
_cell_length_c   15.28450429
_cell_angle_alpha   89.98980261
_cell_angle_beta   90.01260985
_cell_angle_gamma   89.99360473
_symmetry_Int_Tables_number   1
_chemical_formula_structural   Ca2Al2SiO7
_chemical_formula_sum   'Ca48 Al48 Si24 O168'
_cell_volume   3652.44003466
_cell_formula_units_Z   24
loop_
 _symmetry_equiv_pos_site_id
 _symmetry_equiv_pos_as_xyz
  1  'x, y, z'
loop_
 _atom_type_symbol
 _atom_type_oxidation_number
  Ca2+  2.0
  Al0+  0.0
  Si0+  0.0
  O2-  -2.0
loop_
 _atom_site_type_symbol
 _atom_site_label
 _atom_site_symmetry_multiplicity
 _atom_site_fract_x
 _atom_site_fract_y
 _atom_site_fract_z
 _atom_site_occupancy
  Ca2+  Ca0  1  0.16453221  0.08037621  0.16918020  1
  Ca2+  Ca1  1  0.16347346  0.07858812  0.50563013  1
  Ca2+  Ca2  1  0.16396747  0.07529322  0.84028840  1
  Ca2+  Ca3  1  0.17374657  0.58692867  0.16606940  1
  Ca2+  Ca4  1  0.16905052  0.57755143  0.50704593  1
  Ca2+  Ca5  1  0.17245084  0.58344457  0.84283542  1
  Ca2+  Ca6  1  0.66986553  0.08288622  0.16766653  1
  Ca2+  Ca7  1  0.66843895  0.08251342  0.51354450  1
  Ca2+  Ca8  1  0.67424909  0.07958799  0.83868080  1
  Ca2+  Ca9  1  0.65983192  0.57559282  0.16955621  1
  Ca2+  Ca10  1  0.66664989  0.58447433  0.50824069  1
  Ca2+  Ca11  1  0.67076475  0.58150130  0.83576353  1
  Ca2+  Ca12  1  0.08455856  0.31900919  0.15920050  1
  Ca2+  Ca13  1  0.07730932  0.32039436  0.49935355  1
  Ca2+  Ca14  1  0.07807415  0.31749896  0.82608108  1
  Ca2+  Ca15  1  0.08902426  0.83374771  0.15936817  1
  Ca2+  Ca16  1  0.07698699  0.84555289  0.50129633  1
  Ca2+  Ca17  1  0.08324526  0.83446648  0.82830537  1
  Ca2+  Ca18  1  0.57621404  0.32908135  0.16184097  1
  Ca2+  Ca19  1  0.58353838  0.31830477  0.49574402  1
  Ca2+  Ca20  1  0.58186442  0.33048113  0.83186972  1
  Ca2+  Ca21  1  0.58746577  0.82776690  0.16116979  1
  Ca2+  Ca22  1  0.58724533  0.82602168  0.50026627  1
  Ca2+  Ca23  1  0.57996864  0.83597754  0.82155897  1
  Ca2+  Ca24  1  0.34294850  0.41854855  0.16759087  1
  Ca2+  Ca25  1  0.33767138  0.41328766  0.49954303  1
  Ca2+  Ca26  1  0.33742565  0.42380837  0.84311388  1
  Ca2+  Ca27  1  0.32156761  0.92354326  0.16705461  1
  Ca2+  Ca28  1  0.32211000  0.91199939  0.50727120  1
  Ca2+  Ca29  1  0.32720456  0.92200809  0.83910789  1
  Ca2+  Ca30  1  0.82607132  0.41478783  0.16623244  1
  Ca2+  Ca31  1  0.83704066  0.42462407  0.51150320  1
  Ca2+  Ca32  1  0.83145385  0.41788240  0.83499289  1
  Ca2+  Ca33  1  0.83134902  0.92197382  0.16195875  1
  Ca2+  Ca34  1  0.82685454  0.92233185  0.51418022  1
  Ca2+  Ca35  1  0.82576948  0.92284167  0.83336846  1
  Ca2+  Ca36  1  0.41350058  0.17588518  0.15991532  1
  Ca2+  Ca37  1  0.43102311  0.16589081  0.49482544  1
  Ca2+  Ca38  1  0.41906955  0.16717679  0.83071839  1
  Ca2+  Ca39  1  0.41944694  0.66663394  0.16158026  1
  Ca2+  Ca40  1  0.42758116  0.67362510  0.50152590  1
  Ca2+  Ca41  1  0.42106616  0.67411498  0.82656295  1
  Ca2+  Ca42  1  0.92614285  0.15905851  0.16052074  1
  Ca2+  Ca43  1  0.92567214  0.15729176  0.50273033  1
  Ca2+  Ca44  1  0.92098656  0.16093414  0.82653532  1
  Ca2+  Ca45  1  0.92691374  0.67179341  0.15779794  1
  Ca2+  Ca46  1  0.90861936  0.67564072  0.50216408  1
  Ca2+  Ca47  1  0.92020317  0.67225885  0.82588106  1
  Al0+  Al48  1  -0.00241002  -0.00238502  0.00237663  1
  Al0+  Al49  1  -0.00201356  -0.00031799  0.33246213  1
  Al0+  Al50  1  0.00001670  -0.00243563  0.66683873  1
  Al0+  Al51  1  0.00122668  0.50033177  -0.00287708  1
  Al0+  Al52  1  0.00071589  0.50150052  0.33383080  1
  Al0+  Al53  1  0.00092609  0.49860484  0.66929790  1
  Al0+  Al54  1  0.49908359  -0.00034179  0.00923415  1
  Al0+  Al55  1  0.49944556  -0.00202852  0.32933798  1
  Al0+  Al56  1  0.49552176  0.00040921  0.66041941  1
  Al0+  Al57  1  0.50073501  0.49978055  0.00329389  1
  Al0+  Al58  1  0.50113293  0.50129749  0.33061069  1
  Al0+  Al59  1  0.49955748  0.50129758  0.66359670  1
  Al0+  Al60  1  0.24945689  0.25136840  -0.00791672  1
  Al0+  Al61  1  0.24926387  0.25053392  0.32801125  1
  Al0+  Al62  1  0.24855534  0.25024954  0.66266484  1
  Al0+  Al63  1  0.25225553  0.74882435  0.00362644  1
  Al0+  Al64  1  0.24979169  0.74958610  0.34038324  1
  Al0+  Al65  1  0.25091213  0.74833411  0.66615497  1
  Al0+  Al66  1  0.74994026  0.25101154  0.00948831  1
  Al0+  Al67  1  0.75033749  0.25124873  0.33173166  1
  Al0+  Al68  1  0.74965485  0.25263562  0.66368990  1
  Al0+  Al69  1  0.75203451  0.74905768  0.00316722  1
  Al0+  Al70  1  0.75079756  0.75049098  0.32668183  1
  Al0+  Al71  1  0.75165401  0.74821521  0.66801420  1
  Al0+  Al72  1  0.57437488  0.17533577  0.31586481  1
  Al0+  Al73  1  0.82059394  0.07129908  0.01590776  1
  Al0+  Al74  1  0.06920078  0.17743377  0.98517877  1
  Al0+  Al75  1  0.57083559  0.68235585  0.31747928  1
  Al0+  Al76  1  0.81995903  0.07306301  0.68025958  1
  Al0+  Al77  1  0.67707397  0.92698905  0.01543115  1
  Al0+  Al78  1  0.43048687  0.32128563  0.98433851  1
  Al0+  Al79  1  0.92805471  0.32229957  0.65288616  1
  Al0+  Al80  1  0.32096572  0.56982466  0.01391981  1
  Al0+  Al81  1  0.57009959  0.17942407  0.65724889  1
  Al0+  Al82  1  0.43062716  0.31927953  0.31790059  1
  Al0+  Al83  1  0.57215982  0.67950761  0.65425418  1
  Al0+  Al84  1  0.07018697  0.17628496  0.65122627  1
  Al0+  Al85  1  0.17919310  0.92940662  0.01396535  1
  Al0+  Al86  1  0.32058931  0.07493690  0.01455937  1
  Al0+  Al87  1  0.17908799  0.93039799  0.34967239  1
  Al0+  Al88  1  0.67972946  0.43071988  0.01418345  1
  Al0+  Al89  1  0.42644494  0.82290779  0.65230376  1
  Al0+  Al90  1  0.82211443  0.57116969  0.68073889  1
  Al0+  Al91  1  0.17972750  0.92911920  0.68095908  1
  Al0+  Al92  1  0.07353990  0.67989454  0.98669491  1
  Al0+  Al93  1  0.93061066  0.81907661  0.65433500  1
  Al0+  Al94  1  0.67559835  0.92877621  0.67834420  1
  Al0+  Al95  1  0.06751972  0.17923556  0.31813454  1
  Si0+  Si96  1  0.57281566  0.17697657  0.98462340  1
  Si0+  Si97  1  0.82177196  0.57164109  0.34743153  1
  Si0+  Si98  1  0.82468414  0.57190838  0.01813171  1
  Si0+  Si99  1  0.17827442  0.42836370  0.34826658  1
  Si0+  Si100  1  0.32223213  0.57030410  0.35142212  1
  Si0+  Si101  1  0.07336584  0.67658176  0.64974987  1
  Si0+  Si102  1  0.32150461  0.07475512  0.68134645  1
  Si0+  Si103  1  0.92711391  0.82031748  0.98139846  1
  Si0+  Si104  1  0.67914383  0.43075467  0.35005544  1
  Si0+  Si105  1  0.42716016  0.32387889  0.65066801  1
  Si0+  Si106  1  0.32116210  0.56868247  0.68133749  1
  Si0+  Si107  1  0.42399173  0.82034433  0.31470170  1
  Si0+  Si108  1  0.92579397  0.32234262  0.98448950  1
  Si0+  Si109  1  0.57206362  0.67887021  0.98553920  1
  Si0+  Si110  1  0.32194824  0.07422016  0.35032257  1
  Si0+  Si111  1  0.43065895  0.82128837  0.98737795  1
  Si0+  Si112  1  0.07240769  0.67750238  0.31999500  1
  Si0+  Si113  1  0.17905712  0.42754262  0.68227468  1
  Si0+  Si114  1  0.81902875  0.07058617  0.34898732  1
  Si0+  Si115  1  0.92888762  0.32683865  0.31553717  1
  Si0+  Si116  1  0.17721442  0.42843265  0.01597715  1
  Si0+  Si117  1  0.93003574  0.82013426  0.31700686  1
  Si0+  Si118  1  0.67910713  0.92693093  0.34775048  1
  Si0+  Si119  1  0.67613412  0.42878717  0.68207177  1
  O2-  O120  1  0.24551004  0.00602924  0.06515679  1
  O2-  O121  1  0.25502534  0.00424949  0.39584995  1
  O2-  O122  1  0.25286831  0.00595999  0.72526889  1
  O2-  O123  1  0.24604784  0.49593403  0.06247906  1
  O2-  O124  1  0.25114615  0.49786845  0.39167626  1
  O2-  O125  1  0.25157094  0.49705608  0.72418875  1
  O2-  O126  1  0.74650209  0.00112198  0.06636324  1
  O2-  O127  1  0.74181931  0.00534192  0.38962297  1
  O2-  O128  1  0.74419729  0.00381091  0.72842373  1
  O2-  O129  1  0.75514763  0.50467385  0.06295428  1
  O2-  O130  1  0.75295924  0.49947775  0.39115695  1
  O2-  O131  1  0.74632568  0.49660195  0.72546858  1
  O2-  O132  1  -0.00579642  0.25551345  0.27119817  1
  O2-  O133  1  -0.00438793  0.24681887  0.60180166  1
  O2-  O134  1  -0.00771920  0.25163252  0.94114079  1
  O2-  O135  1  0.00413728  0.75071933  0.27752628  1
  O2-  O136  1  0.00528702  0.74497714  0.60428615  1
  O2-  O137  1  -0.00164815  0.75286633  0.93959578  1
  O2-  O138  1  0.49921102  0.24478027  0.26701687  1
  O2-  O139  1  0.49503413  0.25378223  0.60897568  1
  O2-  O140  1  0.50272086  0.24382399  0.93910609  1
  O2-  O141  1  0.49678428  0.75657766  0.26917599  1
  O2-  O142  1  0.50410745  0.75538658  0.60385124  1
  O2-  O143  1  0.50682629  0.75533578  0.94493137  1
  O2-  O144  1  0.06849983  0.17971021  0.09884733  1
  O2-  O145  1  0.06607728  0.17907172  0.43085651  1
  O2-  O146  1  0.07173029  0.17799098  0.76439401  1
  O2-  O147  1  0.07172124  0.68069984  0.10079870  1
  O2-  O148  1  0.07067107  0.67263769  0.42463727  1
  O2-  O149  1  0.07410206  0.67682412  0.75523705  1
  O2-  O150  1  0.57252745  0.18022343  0.09012028  1
  O2-  O151  1  0.57610453  0.17797695  0.42983851  1
  O2-  O152  1  0.56944057  0.18112204  0.77023858  1
  O2-  O153  1  0.56952916  0.67848878  0.09108306  1
  O2-  O154  1  0.57227544  0.68263910  0.43017399  1
  O2-  O155  1  0.56781480  0.67515173  0.76785174  1
  O2-  O156  1  0.17541848  0.43182039  0.24357404  1
  O2-  O157  1  0.17985590  0.42931911  0.57656016  1
  O2-  O158  1  0.17808206  0.43164071  0.91033475  1
  O2-  O159  1  0.17958216  0.92870454  0.23694982  1
  O2-  O160  1  0.18029235  0.93054187  0.56741117  1
  O2-  O161  1  0.18229784  0.92763698  0.90069514  1
  O2-  O162  1  0.67936642  0.43302988  0.24491813  1
  O2-  O163  1  0.67429531  0.43068644  0.57619725  1
  O2-  O164  1  0.67990906  0.43287657  0.90114637  1
  O2-  O165  1  0.68495535  0.92295362  0.24306115  1
  O2-  O166  1  0.67939848  0.92921073  0.56395503  1
  O2-  O167  1  0.67701378  0.92560582  0.90230013  1
  O2-  O168  1  0.43342107  0.32306287  0.09709796  1
  O2-  O169  1  0.43369959  0.31983029  0.43193817  1
  O2-  O170  1  0.42776860  0.32722495  0.75604443  1
  O2-  O171  1  0.42913230  0.81686815  0.09264812  1
  O2-  O172  1  0.42270933  0.81635748  0.42000344  1
  O2-  O173  1  0.42418426  0.81888452  0.76624749  1
  O2-  O174  1  0.92893945  0.32462047  0.09057776  1
  O2-  O175  1  0.93165988  0.33195152  0.42054226  1
  O2-  O176  1  0.93230107  0.32508537  0.76620506  1
  O2-  O177  1  0.92597840  0.81748126  0.08786541  1
  O2-  O178  1  0.92708375  0.81927297  0.42194143  1
  O2-  O179  1  0.93159277  0.81739134  0.76685744  1
  O2-  O180  1  0.31862280  0.07439375  0.24494441  1
  O2-  O181  1  0.32077709  0.07670478  0.57557343  1
  O2-  O182  1  0.32322887  0.07092408  0.90094224  1
  O2-  O183  1  0.32099362  0.57228017  0.24641315  1
  O2-  O184  1  0.32055756  0.56687203  0.57586406  1
  O2-  O185  1  0.32109005  0.56962631  0.90067591  1
  O2-  O186  1  0.82167906  0.06725608  0.24413204  1
  O2-  O187  1  0.81942092  0.06956936  0.56582205  1
  O2-  O188  1  0.81981448  0.07134800  0.90277225  1
  O2-  O189  1  0.82291116  0.57030476  0.24245467  1
  O2-  O190  1  0.82136282  0.57042271  0.56676395  1
  O2-  O191  1  0.82427583  0.57229566  0.91289100  1
  O2-  O192  1  0.03364806  0.08321789  0.26462250  1
  O2-  O193  1  0.04175408  0.07862520  0.59740922  1
  O2-  O194  1  0.03879750  0.07944222  0.93477078  1
  O2-  O195  1  0.04277291  0.58740799  0.26966961  1
  O2-  O196  1  0.04811355  0.58250229  0.60474347  1
  O2-  O197  1  0.04474618  0.58248150  0.93283141  1
  O2-  O198  1  0.55241590  0.07423895  0.26594447  1
  O2-  O199  1  0.53933484  0.08536993  0.59810193  1
  O2-  O200  1  0.54861697  0.08139973  0.94282941  1
  O2-  O201  1  0.53838653  0.58599519  0.26453892  1
  O2-  O202  1  0.53841958  0.58352344  0.59736777  1
  O2-  O203  1  0.53921355  0.58915339  0.93874503  1
  O2-  O204  1  0.16401974  0.21010896  0.26489373  1
  O2-  O205  1  0.16723661  0.20903968  0.59638796  1
  O2-  O206  1  0.16397915  0.20985328  0.92928508  1
  O2-  O207  1  0.16574011  0.70385120  0.27508985  1
  O2-  O208  1  0.16706296  0.69971248  0.60301418  1
  O2-  O209  1  0.17097982  0.70876446  0.93380855  1
  O2-  O210  1  0.67205091  0.20822842  0.26348908  1
  O2-  O211  1  0.66472237  0.21119513  0.59959626  1
  O2-  O212  1  0.66681189  0.20650800  0.94183329  1
  O2-  O213  1  0.66736926  0.71106456  0.26126848  1
  O2-  O214  1  0.67125283  0.70241461  0.60078045  1
  O2-  O215  1  0.66743540  0.69940447  0.94251507  1
  O2-  O216  1  0.08377942  0.45413057  0.06296725  1
  O2-  O217  1  0.08793278  0.46012576  0.39742635  1
  O2-  O218  1  0.08923276  0.45657835  0.73150527  1
  O2-  O219  1  0.07878878  0.94987506  0.06567482  1
  O2-  O220  1  0.08067405  0.96168383  0.40047678  1
  O2-  O221  1  0.08276537  0.95668537  0.73428574  1
  O2-  O222  1  0.58588338  0.46542334  0.07111624  1
  O2-  O223  1  0.58851660  0.46244094  0.39707405  1
  O2-  O224  1  0.58283216  0.45645451  0.72839448  1
  O2-  O225  1  0.57933817  0.95013895  0.07200130  1
  O2-  O226  1  0.58244742  0.94330287  0.38988291  1
  O2-  O227  1  0.57402357  0.95200172  0.72627320  1
  O2-  O228  1  0.20261372  0.33439365  0.05961724  1
  O2-  O229  1  0.20534881  0.33633237  0.39563847  1
  O2-  O230  1  0.20518580  0.33497797  0.72855373  1
  O2-  O231  1  0.21350432  0.83316535  0.06880469  1
  O2-  O232  1  0.20710444  0.83242805  0.40402423  1
  O2-  O233  1  0.20990121  0.83063006  0.73180803  1
  O2-  O234  1  0.70856054  0.33616025  0.07327235  1
  O2-  O235  1  0.70466027  0.33734145  0.39569059  1
  O2-  O236  1  0.70057232  0.33582531  0.72889658  1
  O2-  O237  1  0.70990383  0.82919276  0.06987550  1
  O2-  O238  1  0.71506261  0.83689776  0.39459313  1
  O2-  O239  1  0.70587334  0.83105861  0.73061352  1
  O2-  O240  1  0.46095951  0.41808212  0.26656502  1
  O2-  O241  1  0.45314056  0.41637739  0.60241278  1
  O2-  O242  1  0.46546486  0.41791657  0.93163769  1
  O2-  O243  1  0.44327666  0.91600461  0.27129262  1
  O2-  O244  1  0.44426103  0.92172586  0.59657459  1
  O2-  O245  1  0.45324267  0.91531300  0.94253668  1
  O2-  O246  1  0.95617745  0.41963325  0.26756475  1
  O2-  O247  1  0.96280310  0.41913062  0.59824813  1
  O2-  O248  1  0.95171015  0.41586855  0.93838984  1
  O2-  O249  1  0.95710057  0.91136773  0.26897125  1
  O2-  O250  1  0.96109951  0.91403281  0.59709567  1
  O2-  O251  1  0.95019947  0.91434616  0.93738187  1
  O2-  O252  1  0.33028447  0.29811468  0.26532273  1
  O2-  O253  1  0.33328363  0.30088067  0.60401410  1
  O2-  O254  1  0.33303192  0.29751300  0.92905592  1
  O2-  O255  1  0.33187789  0.78776609  0.26926285  1
  O2-  O256  1  0.33207454  0.78428160  0.59602923  1
  O2-  O257  1  0.34139494  0.78728614  0.93948465  1
  O2-  O258  1  0.83361870  0.30367454  0.27253601  1
  O2-  O259  1  0.82789605  0.30427685  0.59960745  1
  O2-  O260  1  0.83014147  0.30006514  0.94198484  1
  O2-  O261  1  0.84133762  0.78844302  0.26592385  1
  O2-  O262  1  0.83532976  0.78654910  0.59806363  1
  O2-  O263  1  0.83446801  0.79085284  0.93558238  1
  O2-  O264  1  0.41677270  0.04565806  0.07147493  1
  O2-  O265  1  0.41781483  0.04937504  0.39317794  1
  O2-  O266  1  0.41454684  0.04900822  0.72773202  1
  O2-  O267  1  0.41614114  0.53833317  0.07003855  1
  O2-  O268  1  0.41412720  0.54124856  0.39813928  1
  O2-  O269  1  0.41315200  0.54182530  0.72896092  1
  O2-  O270  1  0.91604014  0.03655924  0.07189961  1
  O2-  O271  1  0.90840125  0.03573156  0.39680074  1
  O2-  O272  1  0.91697910  0.04000386  0.73174724  1
  O2-  O273  1  0.91833736  0.54504703  0.06466568  1
  O2-  O274  1  0.91447343  0.54695536  0.39536775  1
  O2-  O275  1  0.91875336  0.54069447  0.73525649  1
  O2-  O276  1  0.29375450  0.17537502  0.06391957  1
  O2-  O277  1  0.29586355  0.16833481  0.39520438  1
  O2-  O278  1  0.29770279  0.16941372  0.72674424  1
  O2-  O279  1  0.28974110  0.66429109  0.07174415  1
  O2-  O280  1  0.29223125  0.66015720  0.40112824  1
  O2-  O281  1  0.29265447  0.65978556  0.72889624  1
  O2-  O282  1  0.79723060  0.16956170  0.07212643  1
  O2-  O283  1  0.79954040  0.16610885  0.39276926  1
  O2-  O284  1  0.79629318  0.17365459  0.73040851  1
  O2-  O285  1  0.80102989  0.66529713  0.06529916  1
  O2-  O286  1  0.79161330  0.66415497  0.39243739  1
  O2-  O287  1  0.79226993  0.66598345  0.73730622  1
