# generated using pymatgen
data_Ca2Al2SiO7
_symmetry_space_group_name_H-M   'P 1'
_cell_length_a   15.45596012
_cell_length_b   15.45571066
_cell_length_c   15.28285902
_cell_angle_alpha   89.99927418
_cell_angle_beta   89.99637396
_cell_angle_gamma   90.00377781
_symmetry_Int_Tables_number   1
_chemical_formula_structural   Ca2Al2SiO7
_chemical_formula_sum   'Ca48 Al48 Si24 O168'
_cell_volume   3650.81286537
_cell_formula_units_Z   24
loop_
 _symmetry_equiv_pos_site_id
 _symmetry_equiv_pos_as_xyz
  1  'x, y, z'
loop_
 _atom_type_symbol
 _atom_type_oxidation_number
  Ca2+  2.0
  Al0+  0.0
  Si0+  0.0
  O2-  -2.0
loop_
 _atom_site_type_symbol
 _atom_site_label
 _atom_site_symmetry_multiplicity
 _atom_site_fract_x
 _atom_site_fract_y
 _atom_site_fract_z
 _atom_site_occupancy
  Ca2+  Ca0  1  0.16454187  0.07539650  0.16586885  1
  Ca2+  Ca1  1  0.17304130  0.08742256  0.50968390  1
  Ca2+  Ca2  1  0.17107624  0.08691505  0.83613355  1
  Ca2+  Ca3  1  0.16535868  0.57525304  0.16412609  1
  Ca2+  Ca4  1  0.16589817  0.57352983  0.50166962  1
  Ca2+  Ca5  1  0.17409100  0.57667639  0.84587360  1
  Ca2+  Ca6  1  0.67516964  0.08503571  0.16476494  1
  Ca2+  Ca7  1  0.67341043  0.08060892  0.51021038  1
  Ca2+  Ca8  1  0.67118592  0.08422290  0.83982176  1
  Ca2+  Ca9  1  0.67124445  0.57498399  0.16819719  1
  Ca2+  Ca10  1  0.67722033  0.58584720  0.50825833  1
  Ca2+  Ca11  1  0.66833924  0.57839160  0.83609470  1
  Ca2+  Ca12  1  0.07933616  0.34072878  0.16488677  1
  Ca2+  Ca13  1  0.07444508  0.32794766  0.49876667  1
  Ca2+  Ca14  1  0.07944500  0.32938071  0.82508033  1
  Ca2+  Ca15  1  0.07754201  0.82712068  0.15093303  1
  Ca2+  Ca16  1  0.08122674  0.82978708  0.49625262  1
  Ca2+  Ca17  1  0.08043284  0.83329076  0.83754774  1
  Ca2+  Ca18  1  0.58228945  0.32878036  0.15233048  1
  Ca2+  Ca19  1  0.58152051  0.32723713  0.50225714  1
  Ca2+  Ca20  1  0.57782022  0.32675139  0.83035107  1
  Ca2+  Ca21  1  0.58013891  0.83467400  0.16187030  1
  Ca2+  Ca22  1  0.58468583  0.83327487  0.50067225  1
  Ca2+  Ca23  1  0.59388714  0.83002491  0.82709826  1
  Ca2+  Ca24  1  0.32491304  0.41676226  0.16499525  1
  Ca2+  Ca25  1  0.32651676  0.40666872  0.50472738  1
  Ca2+  Ca26  1  0.33296397  0.41630017  0.84431221  1
  Ca2+  Ca27  1  0.32809687  0.91102355  0.16891035  1
  Ca2+  Ca28  1  0.33409195  0.92033648  0.50569858  1
  Ca2+  Ca29  1  0.32893474  0.92484505  0.83754913  1
  Ca2+  Ca30  1  0.82834175  0.41722728  0.17284953  1
  Ca2+  Ca31  1  0.84302364  0.42491901  0.50399515  1
  Ca2+  Ca32  1  0.83123344  0.41815901  0.83618234  1
  Ca2+  Ca33  1  0.83474957  0.92654273  0.16517766  1
  Ca2+  Ca34  1  0.82897137  0.93013082  0.51015295  1
  Ca2+  Ca35  1  0.82434007  0.92690224  0.84027995  1
  Ca2+  Ca36  1  0.42693677  0.17446505  0.15479221  1
  Ca2+  Ca37  1  0.42083764  0.16404376  0.50454448  1
  Ca2+  Ca38  1  0.42408132  0.17389055  0.82558532  1
  Ca2+  Ca39  1  0.41177973  0.67039444  0.16133034  1
  Ca2+  Ca40  1  0.42736969  0.67307429  0.49639577  1
  Ca2+  Ca41  1  0.42297184  0.66496954  0.82855219  1
  Ca2+  Ca42  1  0.91030318  0.16876548  0.16319641  1
  Ca2+  Ca43  1  0.90839696  0.17549181  0.49802968  1
  Ca2+  Ca44  1  0.91844571  0.16865637  0.82463390  1
  Ca2+  Ca45  1  0.92056739  0.67125986  0.15719642  1
  Ca2+  Ca46  1  0.91158127  0.66456563  0.49545674  1
  Ca2+  Ca47  1  0.91675211  0.67050903  0.83093645  1
  Al0+  Al48  1  0.00030334  0.00079210  0.00306476  1
  Al0+  Al49  1  0.00054622  -0.00003506  0.33891435  1
  Al0+  Al50  1  0.00033980  -0.00256368  0.66535458  1
  Al0+  Al51  1  0.00203166  0.50121724  -0.00206081  1
  Al0+  Al52  1  0.00096676  0.49795918  0.33675484  1
  Al0+  Al53  1  0.00146780  0.50069235  0.66878744  1
  Al0+  Al54  1  0.50205593  0.00000642  0.00000810  1
  Al0+  Al55  1  0.49900957  -0.00117264  0.32720869  1
  Al0+  Al56  1  0.49693010  -0.00034636  0.67149093  1
  Al0+  Al57  1  0.49986244  0.50172520  0.00658833  1
  Al0+  Al58  1  0.49937501  0.49987332  0.33323964  1
  Al0+  Al59  1  0.49993290  0.50226345  0.65449789  1
  Al0+  Al60  1  0.24906195  0.25119954  0.00318971  1
  Al0+  Al61  1  0.24952833  0.24800677  0.33582683  1
  Al0+  Al62  1  0.24803704  0.24853892  0.66488877  1
  Al0+  Al63  1  0.25008840  0.74971272  0.00161466  1
  Al0+  Al64  1  0.25072506  0.74853370  0.33140873  1
  Al0+  Al65  1  0.24921627  0.74804346  0.66520737  1
  Al0+  Al66  1  0.75026935  0.25095964  0.00295315  1
  Al0+  Al67  1  0.74982731  0.25008397  0.33297453  1
  Al0+  Al68  1  0.74870020  0.25303617  0.66133758  1
  Al0+  Al69  1  0.74948975  0.75317366  0.00045853  1
  Al0+  Al70  1  0.74921376  0.74942745  0.33366000  1
  Al0+  Al71  1  0.75173938  0.74909720  0.66898061  1
  Al0+  Al72  1  0.67874583  0.92989823  0.68063845  1
  Al0+  Al73  1  0.67736139  0.92733977  0.01744205  1
  Al0+  Al74  1  0.81936640  0.56969545  0.34503507  1
  Al0+  Al75  1  0.07150121  0.67831512  0.98337209  1
  Al0+  Al76  1  0.57293741  0.17872200  0.98418139  1
  Al0+  Al77  1  0.82137310  0.07514839  0.68153880  1
  Al0+  Al78  1  0.42841054  0.32241174  0.98718648  1
  Al0+  Al79  1  0.18086803  0.93066339  0.01260651  1
  Al0+  Al80  1  0.06975341  0.17615496  0.65232310  1
  Al0+  Al81  1  0.82242910  0.56984903  0.68230249  1
  Al0+  Al82  1  0.43016594  0.81973374  0.31892438  1
  Al0+  Al83  1  0.92771618  0.82302995  0.98397136  1
  Al0+  Al84  1  0.32260239  0.57148761  0.01471826  1
  Al0+  Al85  1  0.93067596  0.31984587  0.31779286  1
  Al0+  Al86  1  0.31859106  0.07092221  0.68108743  1
  Al0+  Al87  1  0.57277866  0.68033651  0.65325495  1
  Al0+  Al88  1  0.57098729  0.17675711  0.65135630  1
  Al0+  Al89  1  0.42797143  0.32177083  0.65091092  1
  Al0+  Al90  1  0.18081225  0.42864567  0.34987871  1
  Al0+  Al91  1  0.17712253  0.42664625  0.01434063  1
  Al0+  Al92  1  0.68041257  0.43033814  0.01115591  1
  Al0+  Al93  1  0.82180738  0.07222916  0.01513931  1
  Al0+  Al94  1  0.92824237  0.32253136  0.65257064  1
  Al0+  Al95  1  0.82072522  0.07082824  0.34944623  1
  Si0+  Si96  1  0.07016909  0.67892433  0.31878349  1
  Si0+  Si97  1  0.32200494  0.57168287  0.67853561  1
  Si0+  Si98  1  0.82272733  0.57281159  0.01489392  1
  Si0+  Si99  1  0.67621233  0.92884544  0.34959948  1
  Si0+  Si100  1  0.57369050  0.67710547  0.31429100  1
  Si0+  Si101  1  0.32145546  0.06887679  0.34701808  1
  Si0+  Si102  1  0.07371398  0.17642904  0.31532689  1
  Si0+  Si103  1  0.18131425  0.42997083  0.68158017  1
  Si0+  Si104  1  0.42791240  0.82152240  0.98399880  1
  Si0+  Si105  1  0.57010130  0.17989668  0.31735185  1
  Si0+  Si106  1  0.17953992  0.92675328  0.34858352  1
  Si0+  Si107  1  0.42548500  0.82113366  0.65211291  1
  Si0+  Si108  1  0.32250084  0.57329061  0.35301708  1
  Si0+  Si109  1  0.57091769  0.67984736  0.98658248  1
  Si0+  Si110  1  0.07254557  0.67880204  0.64979266  1
  Si0+  Si111  1  0.32276716  0.07268309  0.01755768  1
  Si0+  Si112  1  0.07076945  0.17887530  0.98761867  1
  Si0+  Si113  1  0.42628245  0.32069973  0.31738414  1
  Si0+  Si114  1  0.92950978  0.81889069  0.65019988  1
  Si0+  Si115  1  0.17726356  0.92349376  0.68312426  1
  Si0+  Si116  1  0.67565988  0.42702971  0.35133036  1
  Si0+  Si117  1  0.92919052  0.82243260  0.31990880  1
  Si0+  Si118  1  0.67468832  0.43005181  0.68099824  1
  Si0+  Si119  1  0.92888765  0.32208109  0.98668288  1
  O2-  O120  1  0.25640169  0.00238105  0.06347773  1
  O2-  O121  1  0.24974335  -0.00161894  0.38997941  1
  O2-  O122  1  0.24236813  -0.00378549  0.72545489  1
  O2-  O123  1  0.24993348  0.49895393  0.06311146  1
  O2-  O124  1  0.25843227  0.50065092  0.39788475  1
  O2-  O125  1  0.25629036  0.49722338  0.72205209  1
  O2-  O126  1  0.74946914  0.00001343  0.06550131  1
  O2-  O127  1  0.74641772  -0.00500832  0.39426500  1
  O2-  O128  1  0.74537556  0.00685617  0.73050552  1
  O2-  O129  1  0.75652010  0.50275384  0.05997564  1
  O2-  O130  1  0.74341023  0.49732393  0.39416401  1
  O2-  O131  1  0.74745548  0.49441548  0.72608953  1
  O2-  O132  1  0.00359877  0.24314193  0.27041708  1
  O2-  O133  1  -0.00634061  0.24390757  0.60227063  1
  O2-  O134  1  0.00147336  0.25190148  0.94650507  1
  O2-  O135  1  -0.00065066  0.75054762  0.27744023  1
  O2-  O136  1  0.00154151  0.74894925  0.60626406  1
  O2-  O137  1  -0.00215450  0.74870027  0.93345979  1
  O2-  O138  1  0.50169345  0.25436531  0.27578285  1
  O2-  O139  1  0.49946649  0.24936987  0.59993838  1
  O2-  O140  1  0.49788732  0.24895800  0.93675786  1
  O2-  O141  1  0.50299451  0.74402458  0.27061475  1
  O2-  O142  1  0.49866454  0.75697130  0.60818371  1
  O2-  O143  1  0.50172223  0.75272315  0.94332604  1
  O2-  O144  1  0.07062440  0.17739006  0.09290208  1
  O2-  O145  1  0.07634392  0.17727204  0.42047725  1
  O2-  O146  1  0.07264460  0.18090665  0.76624330  1
  O2-  O147  1  0.06898172  0.67905293  0.09787865  1
  O2-  O148  1  0.07129780  0.68143234  0.42447322  1
  O2-  O149  1  0.07569836  0.67959836  0.75402499  1
  O2-  O150  1  0.57199707  0.18150368  0.09888360  1
  O2-  O151  1  0.56776780  0.17777655  0.42215942  1
  O2-  O152  1  0.56930819  0.17834894  0.76424063  1
  O2-  O153  1  0.57016808  0.68030380  0.09184997  1
  O2-  O154  1  0.57462548  0.67891537  0.41981858  1
  O2-  O155  1  0.56976933  0.67799306  0.76646440  1
  O2-  O156  1  0.18079481  0.43133951  0.23729205  1
  O2-  O157  1  0.18043170  0.43253752  0.57613274  1
  O2-  O158  1  0.17705611  0.42673429  0.90065616  1
  O2-  O159  1  0.17907286  0.92611193  0.24378533  1
  O2-  O160  1  0.18095655  0.91864336  0.57691244  1
  O2-  O161  1  0.18254647  0.93301998  0.89970112  1
  O2-  O162  1  0.67589615  0.42763203  0.24544141  1
  O2-  O163  1  0.67318516  0.43403009  0.57516338  1
  O2-  O164  1  0.68053006  0.43204790  0.89822020  1
  O2-  O165  1  0.67565427  0.92975077  0.24438865  1
  O2-  O166  1  0.68230898  0.92848758  0.56624374  1
  O2-  O167  1  0.67851823  0.92550862  0.90450649  1
  O2-  O168  1  0.43005783  0.31998063  0.10162549  1
  O2-  O169  1  0.42516047  0.31758940  0.42219380  1
  O2-  O170  1  0.42813492  0.32403967  0.76399639  1
  O2-  O171  1  0.42714823  0.81938047  0.08947340  1
  O2-  O172  1  0.43080783  0.82005873  0.43212574  1
  O2-  O173  1  0.41906927  0.81637012  0.75718220  1
  O2-  O174  1  0.92883572  0.32273341  0.09201755  1
  O2-  O175  1  0.93260525  0.32102365  0.43035068  1
  O2-  O176  1  0.93322057  0.32648733  0.76638405  1
  O2-  O177  1  0.93060311  0.82099372  0.09869794  1
  O2-  O178  1  0.93165622  0.82156186  0.42525439  1
  O2-  O179  1  0.93094151  0.81802236  0.75463264  1
  O2-  O180  1  0.32052585  0.06812546  0.24213493  1
  O2-  O181  1  0.31814450  0.06739755  0.56700492  1
  O2-  O182  1  0.31973318  0.07268031  0.91221027  1
  O2-  O183  1  0.32040311  0.57550309  0.24794114  1
  O2-  O184  1  0.31713273  0.57522629  0.57348978  1
  O2-  O185  1  0.32376686  0.57116662  0.90052346  1
  O2-  O186  1  0.82121370  0.06966942  0.23675522  1
  O2-  O187  1  0.82085477  0.07051557  0.56743430  1
  O2-  O188  1  0.82290477  0.07374122  0.90212908  1
  O2-  O189  1  0.81835854  0.56925759  0.23196251  1
  O2-  O190  1  0.82224371  0.57067762  0.56874586  1
  O2-  O191  1  0.82100697  0.57128035  0.90932230  1
  O2-  O192  1  0.04936489  0.08045945  0.27259631  1
  O2-  O193  1  0.05272887  0.07414850  0.60082289  1
  O2-  O194  1  0.04338638  0.08816425  0.93901752  1
  O2-  O195  1  0.04169764  0.58722805  0.27316502  1
  O2-  O196  1  0.04415801  0.58724861  0.60239862  1
  O2-  O197  1  0.04590924  0.57965152  0.92936281  1
  O2-  O198  1  0.53928590  0.08951696  0.26882470  1
  O2-  O199  1  0.53826515  0.07828277  0.59908516  1
  O2-  O200  1  0.54728017  0.07884721  0.93398953  1
  O2-  O201  1  0.54944625  0.58186132  0.27028015  1
  O2-  O202  1  0.54048338  0.58828276  0.59153524  1
  O2-  O203  1  0.54110702  0.58877958  0.93958010  1
  O2-  O204  1  0.16759032  0.20186577  0.26901523  1
  O2-  O205  1  0.16548571  0.21006867  0.59669914  1
  O2-  O206  1  0.16323058  0.20524030  0.94074425  1
  O2-  O207  1  0.16202654  0.70645259  0.27190328  1
  O2-  O208  1  0.16335390  0.70734191  0.59904149  1
  O2-  O209  1  0.16991233  0.70936113  0.93179025  1
  O2-  O210  1  0.66222382  0.20663271  0.27051604  1
  O2-  O211  1  0.66809193  0.20577414  0.59556004  1
  O2-  O212  1  0.67053684  0.21131800  0.93311643  1
  O2-  O213  1  0.66650525  0.70393214  0.26692012  1
  O2-  O214  1  0.66934355  0.71134037  0.59854376  1
  O2-  O215  1  0.66313112  0.70527713  0.93901498  1
  O2-  O216  1  0.07969825  0.45887807  0.06863344  1
  O2-  O217  1  0.08636391  0.46352839  0.40515828  1
  O2-  O218  1  0.09192285  0.46261055  0.72972682  1
  O2-  O219  1  0.08614047  0.96243177  0.06963531  1
  O2-  O220  1  0.08820491  0.95227657  0.39815242  1
  O2-  O221  1  0.08212046  0.94361594  0.72644246  1
  O2-  O222  1  0.58675373  0.46291377  0.06991701  1
  O2-  O223  1  0.58070288  0.45036430  0.39627935  1
  O2-  O224  1  0.58213913  0.46219487  0.72535725  1
  O2-  O225  1  0.57800604  0.95420164  0.07040124  1
  O2-  O226  1  0.58216255  0.95619077  0.39428742  1
  O2-  O227  1  0.57678256  0.94580289  0.73020345  1
  O2-  O228  1  0.20363319  0.32939627  0.07141304  1
  O2-  O229  1  0.21037130  0.33073559  0.40274391  1
  O2-  O230  1  0.20484041  0.33695451  0.72697425  1
  O2-  O231  1  0.21052534  0.83437769  0.06781111  1
  O2-  O232  1  0.20847024  0.83502336  0.39646585  1
  O2-  O233  1  0.20718409  0.83146955  0.73051566  1
  O2-  O234  1  0.71102502  0.33581286  0.06889555  1
  O2-  O235  1  0.70166479  0.33363370  0.39622705  1
  O2-  O236  1  0.69527864  0.33481731  0.72419141  1
  O2-  O237  1  0.70532642  0.82898858  0.07210867  1
  O2-  O238  1  0.69899360  0.83343185  0.39330014  1
  O2-  O239  1  0.71306827  0.83322806  0.73330414  1
  O2-  O240  1  0.44795755  0.41599967  0.27397573  1
  O2-  O241  1  0.45379601  0.41915587  0.59304248  1
  O2-  O242  1  0.45741036  0.42200534  0.93789379  1
  O2-  O243  1  0.45837464  0.91565994  0.26167025  1
  O2-  O244  1  0.44622594  0.91589812  0.60738163  1
  O2-  O245  1  0.45160776  0.91494148  0.93869981  1
  O2-  O246  1  0.96425505  0.41655364  0.26493626  1
  O2-  O247  1  0.96596943  0.41906982  0.59908606  1
  O2-  O248  1  0.95484033  0.41399737  0.93889143  1
  O2-  O249  1  0.95925168  0.91395977  0.27351753  1
  O2-  O250  1  0.95697534  0.91006539  0.60069049  1
  O2-  O251  1  0.96165075  0.92027542  0.93241620  1
  O2-  O252  1  0.33576938  0.28845466  0.27010358  1
  O2-  O253  1  0.33033989  0.28981337  0.59818095  1
  O2-  O254  1  0.32821904  0.29616564  0.93687821  1
  O2-  O255  1  0.33271413  0.78883677  0.26485475  1
  O2-  O256  1  0.33445485  0.79034188  0.60145014  1
  O2-  O257  1  0.33736339  0.79207432  0.93603481  1
  O2-  O258  1  0.83189884  0.29179731  0.26560455  1
  O2-  O259  1  0.82806278  0.30541691  0.59855189  1
  O2-  O260  1  0.83793796  0.29384007  0.93917287  1
  O2-  O261  1  0.83638988  0.79631684  0.27405811  1
  O2-  O262  1  0.83943653  0.78827802  0.60152478  1
  O2-  O263  1  0.82879881  0.79590790  0.93203868  1
  O2-  O264  1  0.41693888  0.04839187  0.06227881  1
  O2-  O265  1  0.41289570  0.03861678  0.39396735  1
  O2-  O266  1  0.41287304  0.03976590  0.73801348  1
  O2-  O267  1  0.41886972  0.54568124  0.07319560  1
  O2-  O268  1  0.41893727  0.55260248  0.39580070  1
  O2-  O269  1  0.41674682  0.54922226  0.72131758  1
  O2-  O270  1  0.91910639  0.04283632  0.07057771  1
  O2-  O271  1  0.91807528  0.04121054  0.40347260  1
  O2-  O272  1  0.92049861  0.04264522  0.73085286  1
  O2-  O273  1  0.91734670  0.54973279  0.05919198  1
  O2-  O274  1  0.91568408  0.53950842  0.40014112  1
  O2-  O275  1  0.91974304  0.54137083  0.73615616  1
  O2-  O276  1  0.29470680  0.16472436  0.06537864  1
  O2-  O277  1  0.29439764  0.16000781  0.39581300  1
  O2-  O278  1  0.28610220  0.16689051  0.73518573  1
  O2-  O279  1  0.29225886  0.66882772  0.06900848  1
  O2-  O280  1  0.29216928  0.66563469  0.39992733  1
  O2-  O281  1  0.29070038  0.66165548  0.72778183  1
  O2-  O282  1  0.79188373  0.16951699  0.07031218  1
  O2-  O283  1  0.78829393  0.16794726  0.40073318  1
  O2-  O284  1  0.79961414  0.17719840  0.72902830  1
  O2-  O285  1  0.79558223  0.66579015  0.06069547  1
  O2-  O286  1  0.79077956  0.66754917  0.39985798  1
  O2-  O287  1  0.79081666  0.66551224  0.73609275  1
