# generated using pymatgen
data_Ca2Al2SiO7
_symmetry_space_group_name_H-M   'P 1'
_cell_length_a   15.46173581
_cell_length_b   15.46181863
_cell_length_c   15.28606019
_cell_angle_alpha   89.99447646
_cell_angle_beta   89.99653197
_cell_angle_gamma   89.99141124
_symmetry_Int_Tables_number   1
_chemical_formula_structural   Ca2Al2SiO7
_chemical_formula_sum   'Ca48 Al48 Si24 O168'
_cell_volume   3654.38568035
_cell_formula_units_Z   24
loop_
 _symmetry_equiv_pos_site_id
 _symmetry_equiv_pos_as_xyz
  1  'x, y, z'
loop_
 _atom_type_symbol
 _atom_type_oxidation_number
  Ca2+  2.0
  Al0+  0.0
  Si0+  0.0
  O2-  -2.0
loop_
 _atom_site_type_symbol
 _atom_site_label
 _atom_site_symmetry_multiplicity
 _atom_site_fract_x
 _atom_site_fract_y
 _atom_site_fract_z
 _atom_site_occupancy
  Ca2+  Ca0  1  0.16295245  0.07643684  0.17146001  1
  Ca2+  Ca1  1  0.16804650  0.07290690  0.50732970  1
  Ca2+  Ca2  1  0.17709051  0.07660861  0.84096278  1
  Ca2+  Ca3  1  0.16587055  0.58357394  0.16898568  1
  Ca2+  Ca4  1  0.17275099  0.58113014  0.51252142  1
  Ca2+  Ca5  1  0.16951017  0.58794988  0.83219993  1
  Ca2+  Ca6  1  0.67543604  0.07703367  0.17863383  1
  Ca2+  Ca7  1  0.67391332  0.08814329  0.50494288  1
  Ca2+  Ca8  1  0.67091714  0.09106133  0.83103390  1
  Ca2+  Ca9  1  0.66468374  0.57988125  0.17323783  1
  Ca2+  Ca10  1  0.66872161  0.57619731  0.50883609  1
  Ca2+  Ca11  1  0.66757168  0.58912222  0.83423445  1
  Ca2+  Ca12  1  0.07945941  0.31726353  0.16590684  1
  Ca2+  Ca13  1  0.07019434  0.32571089  0.49321266  1
  Ca2+  Ca14  1  0.07921914  0.32516386  0.82747038  1
  Ca2+  Ca15  1  0.08693614  0.83366972  0.16194021  1
  Ca2+  Ca16  1  0.09431025  0.82955423  0.49885653  1
  Ca2+  Ca17  1  0.09552050  0.82701410  0.82999928  1
  Ca2+  Ca18  1  0.58050643  0.33720418  0.17009449  1
  Ca2+  Ca19  1  0.57565328  0.33123184  0.49884436  1
  Ca2+  Ca20  1  0.57496126  0.32449944  0.82194000  1
  Ca2+  Ca21  1  0.57923061  0.83605930  0.16325885  1
  Ca2+  Ca22  1  0.57215644  0.83583869  0.49587548  1
  Ca2+  Ca23  1  0.57620933  0.82405892  0.82226002  1
  Ca2+  Ca24  1  0.33410454  0.41937452  0.17340882  1
  Ca2+  Ca25  1  0.33810558  0.42011646  0.50755471  1
  Ca2+  Ca26  1  0.34196430  0.42296349  0.83151803  1
  Ca2+  Ca27  1  0.32432552  0.92003846  0.17124737  1
  Ca2+  Ca28  1  0.32740718  0.91506205  0.50851151  1
  Ca2+  Ca29  1  0.32917048  0.92182420  0.83307378  1
  Ca2+  Ca30  1  0.82830374  0.41822808  0.17702908  1
  Ca2+  Ca31  1  0.83115035  0.41348170  0.50775085  1
  Ca2+  Ca32  1  0.83866352  0.42100489  0.82951546  1
  Ca2+  Ca33  1  0.82696897  0.92118633  0.17807505  1
  Ca2+  Ca34  1  0.82783905  0.92882254  0.50278518  1
  Ca2+  Ca35  1  0.83328830  0.92153420  0.83131464  1
  Ca2+  Ca36  1  0.41066194  0.17195195  0.16391495  1
  Ca2+  Ca37  1  0.41357666  0.17340956  0.49767608  1
  Ca2+  Ca38  1  0.41707418  0.16564455  0.82120976  1
  Ca2+  Ca39  1  0.42309944  0.67677801  0.16401249  1
  Ca2+  Ca40  1  0.41438154  0.67763466  0.50160365  1
  Ca2+  Ca41  1  0.42484756  0.67039529  0.82091777  1
  Ca2+  Ca42  1  0.92644363  0.15895080  0.16902147  1
  Ca2+  Ca43  1  0.91486045  0.16982168  0.49329284  1
  Ca2+  Ca44  1  0.92246275  0.16791367  0.82478989  1
  Ca2+  Ca45  1  0.92295928  0.67115385  0.15949599  1
  Ca2+  Ca46  1  0.92093160  0.66328394  0.50280507  1
  Ca2+  Ca47  1  0.92759358  0.66736013  0.82408411  1
  Al0+  Al48  1  -0.00012180  0.00093345  -0.00160177  1
  Al0+  Al49  1  0.00044551  -0.00342620  0.33847731  1
  Al0+  Al50  1  -0.00209080  -0.00342806  0.67634483  1
  Al0+  Al51  1  -0.00040487  0.50179545  -0.00150084  1
  Al0+  Al52  1  0.00150861  0.49856441  0.32850951  1
  Al0+  Al53  1  -0.00090520  0.49957243  0.66336378  1
  Al0+  Al54  1  0.50012595  0.00278237  0.00348337  1
  Al0+  Al55  1  0.49788176  0.00016579  0.32943521  1
  Al0+  Al56  1  0.50044058  -0.00122086  0.66207565  1
  Al0+  Al57  1  0.50092756  0.50095099  -0.00152365  1
  Al0+  Al58  1  0.50156817  0.50069284  0.33362105  1
  Al0+  Al59  1  0.50051951  0.49846541  0.66581590  1
  Al0+  Al60  1  0.24855008  0.25304210  -0.00154060  1
  Al0+  Al61  1  0.24881335  0.25123152  0.32484668  1
  Al0+  Al62  1  0.24764876  0.24879978  0.66548769  1
  Al0+  Al63  1  0.25091343  0.75072212  0.00126052  1
  Al0+  Al64  1  0.25362399  0.75029811  0.32999594  1
  Al0+  Al65  1  0.25109588  0.74604595  0.66773641  1
  Al0+  Al66  1  0.74815896  0.25285701  0.00209944  1
  Al0+  Al67  1  0.74828913  0.25330650  0.33641658  1
  Al0+  Al68  1  0.74924476  0.25033634  0.66665698  1
  Al0+  Al69  1  0.75084298  0.74987080  -0.00210909  1
  Al0+  Al70  1  0.75178678  0.74895231  0.33768390  1
  Al0+  Al71  1  0.75265014  0.74825330  0.66708062  1
  Al0+  Al72  1  0.81891122  0.07235764  0.68224517  1
  Al0+  Al73  1  0.42891439  0.82283047  0.31677789  1
  Al0+  Al74  1  0.93090293  0.31918013  0.65436153  1
  Al0+  Al75  1  0.06916769  0.17567869  0.31997349  1
  Al0+  Al76  1  0.17925023  0.92653810  0.68280872  1
  Al0+  Al77  1  0.07047730  0.17851429  0.98413877  1
  Al0+  Al78  1  0.07029794  0.68096734  0.65267714  1
  Al0+  Al79  1  0.32177676  0.07222314  0.67887862  1
  Al0+  Al80  1  0.82013838  0.07048854  0.34795080  1
  Al0+  Al81  1  0.57088703  0.67948522  0.98677201  1
  Al0+  Al82  1  0.57118617  0.17735410  0.65134926  1
  Al0+  Al83  1  0.67537159  0.92670017  0.34842585  1
  Al0+  Al84  1  0.92598611  0.32196438  0.31711833  1
  Al0+  Al85  1  0.42924429  0.81993160  0.65236661  1
  Al0+  Al86  1  0.18096684  0.92799622  0.34798698  1
  Al0+  Al87  1  0.42578812  0.31966169  0.65235866  1
  Al0+  Al88  1  0.32234631  0.07454931  0.01683973  1
  Al0+  Al89  1  0.82186639  0.57069327  0.68115442  1
  Al0+  Al90  1  0.67869150  0.43127578  0.34873743  1
  Al0+  Al91  1  0.57452354  0.67741032  0.65031070  1
  Al0+  Al92  1  0.17969481  0.92920709  0.01703316  1
  Al0+  Al93  1  0.32169059  0.56755339  0.68014270  1
  Al0+  Al94  1  0.42981593  0.32241089  0.31791704  1
  Al0+  Al95  1  0.07135218  0.67965830  0.98590186  1
  Si0+  Si96  1  0.82596678  0.57168911  0.34981899  1
  Si0+  Si97  1  0.67816380  0.43062643  0.01578826  1
  Si0+  Si98  1  0.31992216  0.56972450  0.34681545  1
  Si0+  Si99  1  0.67764799  0.92688493  0.68312162  1
  Si0+  Si100  1  0.92713502  0.82365850  0.64853046  1
  Si0+  Si101  1  0.81975455  0.07310789  0.01475053  1
  Si0+  Si102  1  0.92616927  0.32179181  0.98354272  1
  Si0+  Si103  1  0.67850886  0.42890713  0.68632214  1
  Si0+  Si104  1  0.92895778  0.81859442  0.32000906  1
  Si0+  Si105  1  0.92699165  0.82262707  0.98311403  1
  Si0+  Si106  1  0.57153883  0.17869955  0.31533956  1
  Si0+  Si107  1  0.17587671  0.42762035  0.68237162  1
  Si0+  Si108  1  0.07083752  0.17371950  0.65168238  1
  Si0+  Si109  1  0.17854526  0.42830791  0.34680512  1
  Si0+  Si110  1  0.17690031  0.43076245  0.01586278  1
  Si0+  Si111  1  0.32053114  0.07523206  0.34860610  1
  Si0+  Si112  1  0.07310705  0.67868905  0.31858620  1
  Si0+  Si113  1  0.42954516  0.82384292  0.98317556  1
  Si0+  Si114  1  0.32279993  0.56985059  0.01607332  1
  Si0+  Si115  1  0.42905788  0.32203669  0.98561557  1
  Si0+  Si116  1  0.57306465  0.67983169  0.31799901  1
  Si0+  Si117  1  0.57181302  0.18001567  0.98719977  1
  Si0+  Si118  1  0.82160401  0.57117281  0.01543500  1
  Si0+  Si119  1  0.68018799  0.92834444  0.01307779  1
  O2-  O120  1  0.24944149  0.00346929  0.06721741  1
  O2-  O121  1  0.25399238  0.00487539  0.39252716  1
  O2-  O122  1  0.24908429  0.00183438  0.73057672  1
  O2-  O123  1  0.24934496  0.50112237  0.05857187  1
  O2-  O124  1  0.24919560  0.49883310  0.38938839  1
  O2-  O125  1  0.24925884  0.49079314  0.72812115  1
  O2-  O126  1  0.75053213  -0.00012537  0.05602780  1
  O2-  O127  1  0.74351847  0.00269070  0.39723002  1
  O2-  O128  1  0.74333993  -0.00196796  0.72943275  1
  O2-  O129  1  0.74978647  0.50142940  0.05792420  1
  O2-  O130  1  0.75794911  0.50226511  0.39278018  1
  O2-  O131  1  0.74492884  0.49979757  0.73113171  1
  O2-  O132  1  -0.00509507  0.24623466  0.26884612  1
  O2-  O133  1  0.00131051  0.24122865  0.60737716  1
  O2-  O134  1  -0.00669032  0.25215842  0.93929380  1
  O2-  O135  1  -0.00004219  0.74765454  0.27676601  1
  O2-  O136  1  -0.00109947  0.75779483  0.60454427  1
  O2-  O137  1  -0.00050646  0.75734341  0.94043199  1
  O2-  O138  1  0.50158623  0.24574077  0.26927072  1
  O2-  O139  1  0.49456106  0.24494748  0.60241564  1
  O2-  O140  1  0.49529763  0.24569482  0.94594316  1
  O2-  O141  1  0.51010526  0.75302237  0.27210424  1
  O2-  O142  1  0.50420023  0.75082699  0.60130003  1
  O2-  O143  1  0.49828890  0.75495281  0.93982575  1
  O2-  O144  1  0.06806604  0.17826709  0.09716886  1
  O2-  O145  1  0.06991954  0.17818232  0.43322127  1
  O2-  O146  1  0.06985180  0.17743453  0.75764322  1
  O2-  O147  1  0.06746657  0.67717450  0.09963260  1
  O2-  O148  1  0.07415880  0.67736298  0.42319164  1
  O2-  O149  1  0.06902830  0.68027795  0.76588114  1
  O2-  O150  1  0.57651835  0.18292161  0.09192207  1
  O2-  O151  1  0.57072819  0.18003363  0.42031600  1
  O2-  O152  1  0.57232385  0.18159113  0.76615923  1
  O2-  O153  1  0.56956975  0.67898252  0.10017802  1
  O2-  O154  1  0.57044112  0.67760418  0.42270988  1
  O2-  O155  1  0.57209458  0.68008938  0.76460649  1
  O2-  O156  1  0.17899539  0.43164479  0.24113258  1
  O2-  O157  1  0.17459510  0.43149524  0.57665098  1
  O2-  O158  1  0.17615280  0.43103039  0.91102094  1
  O2-  O159  1  0.18086363  0.92591107  0.23492871  1
  O2-  O160  1  0.18071805  0.92727989  0.56893971  1
  O2-  O161  1  0.18305095  0.92756908  0.90423484  1
  O2-  O162  1  0.67699458  0.43637523  0.23448035  1
  O2-  O163  1  0.67963414  0.42899700  0.58084325  1
  O2-  O164  1  0.67718682  0.42888504  0.91130849  1
  O2-  O165  1  0.68070002  0.92651619  0.23347769  1
  O2-  O166  1  0.68106027  0.92628756  0.57796046  1
  O2-  O167  1  0.68107841  0.92797159  0.90831280  1
  O2-  O168  1  0.43214550  0.32606301  0.09074312  1
  O2-  O169  1  0.42965251  0.32391933  0.42998922  1
  O2-  O170  1  0.43011837  0.32124903  0.76672084  1
  O2-  O171  1  0.43175962  0.82187909  0.08911913  1
  O2-  O172  1  0.42393837  0.81740524  0.42882528  1
  O2-  O173  1  0.43048134  0.81785167  0.76649558  1
  O2-  O174  1  0.92528158  0.32217177  0.08878113  1
  O2-  O175  1  0.93049792  0.32530474  0.43028352  1
  O2-  O176  1  0.93362836  0.31914329  0.76818211  1
  O2-  O177  1  0.92250105  0.81922101  0.08908964  1
  O2-  O178  1  0.92787668  0.81711119  0.42445014  1
  O2-  O179  1  0.92443220  0.82119089  0.75438574  1
  O2-  O180  1  0.31818024  0.07519981  0.24280259  1
  O2-  O181  1  0.31838406  0.07418115  0.56534204  1
  O2-  O182  1  0.32465682  0.07367131  0.90375461  1
  O2-  O183  1  0.31820646  0.56904550  0.24089891  1
  O2-  O184  1  0.31848737  0.56823669  0.56669778  1
  O2-  O185  1  0.32532360  0.56720889  0.91142337  1
  O2-  O186  1  0.82032741  0.06584537  0.23317981  1
  O2-  O187  1  0.81930169  0.07241767  0.56974285  1
  O2-  O188  1  0.81708996  0.07532529  0.90983071  1
  O2-  O189  1  0.82562010  0.57318228  0.24342863  1
  O2-  O190  1  0.82359488  0.56592184  0.56825698  1
  O2-  O191  1  0.82284554  0.56991197  0.91085206  1
  O2-  O192  1  0.03987221  0.07660886  0.26717141  1
  O2-  O193  1  0.04516419  0.07857789  0.61058933  1
  O2-  O194  1  0.04046145  0.08205534  0.93017501  1
  O2-  O195  1  0.04730801  0.58687402  0.26929492  1
  O2-  O196  1  0.03672763  0.58562242  0.59792304  1
  O2-  O197  1  0.03806988  0.58397655  0.93160195  1
  O2-  O198  1  0.54945459  0.08444698  0.26847528  1
  O2-  O199  1  0.55318485  0.07724255  0.59969101  1
  O2-  O200  1  0.55071845  0.08622158  0.94111547  1
  O2-  O201  1  0.54066553  0.58898603  0.26925297  1
  O2-  O202  1  0.54550549  0.57883831  0.60034515  1
  O2-  O203  1  0.53975676  0.58314346  0.93272290  1
  O2-  O204  1  0.16452944  0.20882143  0.26258806  1
  O2-  O205  1  0.16337217  0.19928842  0.60491871  1
  O2-  O206  1  0.16601481  0.21400439  0.93081232  1
  O2-  O207  1  0.16352755  0.70774054  0.26917669  1
  O2-  O208  1  0.16739875  0.70713449  0.59842462  1
  O2-  O209  1  0.17051189  0.70568007  0.93480576  1
  O2-  O210  1  0.66441908  0.20731380  0.26902760  1
  O2-  O211  1  0.66715608  0.21242338  0.59859583  1
  O2-  O212  1  0.66133716  0.21368358  0.93765949  1
  O2-  O213  1  0.66971848  0.69855751  0.27384424  1
  O2-  O214  1  0.67523521  0.70006480  0.60064611  1
  O2-  O215  1  0.66893607  0.70688915  0.93421733  1
  O2-  O216  1  0.08587895  0.46109994  0.06415023  1
  O2-  O217  1  0.08675171  0.45666370  0.39369675  1
  O2-  O218  1  0.08539999  0.45954863  0.73073350  1
  O2-  O219  1  0.07785426  0.95466462  0.06629009  1
  O2-  O220  1  0.08357766  0.95262255  0.40225831  1
  O2-  O221  1  0.07935134  0.94731584  0.73622616  1
  O2-  O222  1  0.58704168  0.46042041  0.06439665  1
  O2-  O223  1  0.58359942  0.46548813  0.40325896  1
  O2-  O224  1  0.58457960  0.45257353  0.73242336  1
  O2-  O225  1  0.58871126  0.95559521  0.06140314  1
  O2-  O226  1  0.57405568  0.95012930  0.39589271  1
  O2-  O227  1  0.58300822  0.94824392  0.72817848  1
  O2-  O228  1  0.20495299  0.33964742  0.06398109  1
  O2-  O229  1  0.20518384  0.33591285  0.39184525  1
  O2-  O230  1  0.19520432  0.33202606  0.72664095  1
  O2-  O231  1  0.20835528  0.82973097  0.07020446  1
  O2-  O232  1  0.21474550  0.83071989  0.39923482  1
  O2-  O233  1  0.21144712  0.82887542  0.73463015  1
  O2-  O234  1  0.70547815  0.33929590  0.06534758  1
  O2-  O235  1  0.70274300  0.33390629  0.40269362  1
  O2-  O236  1  0.70736958  0.33675912  0.73358099  1
  O2-  O237  1  0.70865103  0.83671719  0.06149174  1
  O2-  O238  1  0.70681333  0.82951825  0.40115033  1
  O2-  O239  1  0.70779914  0.83461802  0.73042988  1
  O2-  O240  1  0.46419540  0.41848203  0.26283957  1
  O2-  O241  1  0.45790009  0.41685035  0.59990262  1
  O2-  O242  1  0.46320225  0.41137263  0.93712233  1
  O2-  O243  1  0.45328131  0.92034745  0.26082460  1
  O2-  O244  1  0.45353774  0.91798673  0.59772998  1
  O2-  O245  1  0.45593212  0.91814069  0.93963703  1
  O2-  O246  1  0.95871676  0.41903548  0.26134074  1
  O2-  O247  1  0.96323316  0.41363352  0.59838784  1
  O2-  O248  1  0.95393901  0.41544368  0.93867048  1
  O2-  O249  1  0.95683722  0.90959617  0.27159083  1
  O2-  O250  1  0.94939443  0.91894922  0.60540092  1
  O2-  O251  1  0.94693247  0.91772584  0.93876122  1
  O2-  O252  1  0.33293867  0.29567667  0.26129346  1
  O2-  O253  1  0.32536477  0.29834844  0.59983381  1
  O2-  O254  1  0.33502483  0.30364297  0.93989026  1
  O2-  O255  1  0.33654739  0.78277928  0.25885790  1
  O2-  O256  1  0.33345022  0.78439704  0.59925805  1
  O2-  O257  1  0.33601675  0.79686813  0.93988321  1
  O2-  O258  1  0.82503126  0.30045008  0.26648796  1
  O2-  O259  1  0.83300513  0.29253494  0.60299296  1
  O2-  O260  1  0.83128131  0.29848677  0.93846029  1
  O2-  O261  1  0.83750200  0.79057239  0.26986725  1
  O2-  O262  1  0.83562711  0.79440498  0.60118961  1
  O2-  O263  1  0.83569484  0.79308934  0.93448521  1
  O2-  O264  1  0.42195068  0.04833475  0.07056868  1
  O2-  O265  1  0.41623234  0.05312465  0.39025397  1
  O2-  O266  1  0.42171928  0.04479458  0.73033080  1
  O2-  O267  1  0.41319673  0.53814130  0.06510616  1
  O2-  O268  1  0.41150940  0.54193996  0.39270652  1
  O2-  O269  1  0.41832779  0.53775880  0.73595612  1
  O2-  O270  1  0.91205284  0.04623582  0.06052318  1
  O2-  O271  1  0.91589752  0.03734661  0.40203370  1
  O2-  O272  1  0.91329166  0.03961856  0.74013275  1
  O2-  O273  1  0.91295253  0.54300887  0.06438185  1
  O2-  O274  1  0.92093153  0.54717452  0.39343359  1
  O2-  O275  1  0.91717871  0.53491248  0.73603623  1
  O2-  O276  1  0.29573422  0.17576365  0.06591756  1
  O2-  O277  1  0.29444947  0.16990442  0.39194676  1
  O2-  O278  1  0.29480843  0.17151245  0.73291191  1
  O2-  O279  1  0.29705633  0.66229211  0.06305317  1
  O2-  O280  1  0.29079958  0.66085408  0.39309820  1
  O2-  O281  1  0.28809790  0.66135758  0.73678893  1
  O2-  O282  1  0.78948587  0.16419019  0.06258092  1
  O2-  O283  1  0.79568347  0.17081469  0.39738801  1
  O2-  O284  1  0.78739943  0.16839552  0.73818358  1
  O2-  O285  1  0.79473292  0.66369807  0.06291986  1
  O2-  O286  1  0.80215066  0.66483590  0.39663126  1
  O2-  O287  1  0.79696343  0.66854670  0.73631700  1
