# generated using pymatgen
data_Ca2Al2SiO7
_symmetry_space_group_name_H-M   'P 1'
_cell_length_a   15.46123042
_cell_length_b   15.46083015
_cell_length_c   15.28658733
_cell_angle_alpha   90.00711456
_cell_angle_beta   89.99966457
_cell_angle_gamma   89.98898794
_symmetry_Int_Tables_number   1
_chemical_formula_structural   Ca2Al2SiO7
_chemical_formula_sum   'Ca48 Al48 Si24 O168'
_cell_volume   3654.15859125
_cell_formula_units_Z   24
loop_
 _symmetry_equiv_pos_site_id
 _symmetry_equiv_pos_as_xyz
  1  'x, y, z'
loop_
 _atom_type_symbol
 _atom_type_oxidation_number
  Ca2+  2.0
  Al0+  0.0
  Si0+  0.0
  O2-  -2.0
loop_
 _atom_site_type_symbol
 _atom_site_label
 _atom_site_symmetry_multiplicity
 _atom_site_fract_x
 _atom_site_fract_y
 _atom_site_fract_z
 _atom_site_occupancy
  Ca2+  Ca0  1  0.17084794  0.08965820  0.16168606  1
  Ca2+  Ca1  1  0.16838512  0.08211679  0.50486947  1
  Ca2+  Ca2  1  0.17224887  0.08691754  0.84473317  1
  Ca2+  Ca3  1  0.16123492  0.57656276  0.16905987  1
  Ca2+  Ca4  1  0.16338145  0.58070244  0.49927251  1
  Ca2+  Ca5  1  0.17378183  0.57736296  0.84658362  1
  Ca2+  Ca6  1  0.67028024  0.07038522  0.16588039  1
  Ca2+  Ca7  1  0.66952374  0.07836805  0.50891562  1
  Ca2+  Ca8  1  0.67566469  0.08233734  0.84069948  1
  Ca2+  Ca9  1  0.67293049  0.58018769  0.17249459  1
  Ca2+  Ca10  1  0.66839666  0.57530297  0.50455132  1
  Ca2+  Ca11  1  0.65993031  0.58073582  0.83604108  1
  Ca2+  Ca12  1  0.08052008  0.33486368  0.15496274  1
  Ca2+  Ca13  1  0.07678492  0.33715627  0.49702002  1
  Ca2+  Ca14  1  0.07327174  0.33246418  0.83721012  1
  Ca2+  Ca15  1  0.07776155  0.81816376  0.15586258  1
  Ca2+  Ca16  1  0.07349973  0.82784340  0.49467167  1
  Ca2+  Ca17  1  0.07362433  0.83411132  0.83279736  1
  Ca2+  Ca18  1  0.57738367  0.33667913  0.15888825  1
  Ca2+  Ca19  1  0.58811354  0.33356266  0.50207460  1
  Ca2+  Ca20  1  0.57197298  0.33206687  0.82217344  1
  Ca2+  Ca21  1  0.58569268  0.82994475  0.15508098  1
  Ca2+  Ca22  1  0.58887069  0.82832806  0.49758648  1
  Ca2+  Ca23  1  0.58738043  0.82439927  0.83680577  1
  Ca2+  Ca24  1  0.32285644  0.41897136  0.16259223  1
  Ca2+  Ca25  1  0.32723774  0.41309671  0.50429163  1
  Ca2+  Ca26  1  0.33133721  0.41647209  0.84555251  1
  Ca2+  Ca27  1  0.33998094  0.92082843  0.16332438  1
  Ca2+  Ca28  1  0.32875424  0.91668910  0.50394331  1
  Ca2+  Ca29  1  0.33669567  0.92388740  0.84508218  1
  Ca2+  Ca30  1  0.83064081  0.42125124  0.17340160  1
  Ca2+  Ca31  1  0.82619323  0.42172796  0.50568156  1
  Ca2+  Ca32  1  0.82816625  0.40894337  0.83602838  1
  Ca2+  Ca33  1  0.82657096  0.91217199  0.16475709  1
  Ca2+  Ca34  1  0.83045983  0.92017940  0.50793178  1
  Ca2+  Ca35  1  0.83510940  0.92464979  0.84277595  1
  Ca2+  Ca36  1  0.41712651  0.17303972  0.15579961  1
  Ca2+  Ca37  1  0.42395096  0.17191035  0.50155107  1
  Ca2+  Ca38  1  0.41956132  0.17557129  0.83072486  1
  Ca2+  Ca39  1  0.42544124  0.67028931  0.15235232  1
  Ca2+  Ca40  1  0.42447930  0.66404210  0.50042218  1
  Ca2+  Ca41  1  0.42730098  0.66258080  0.83490071  1
  Ca2+  Ca42  1  0.92176810  0.17464816  0.15357333  1
  Ca2+  Ca43  1  0.90569763  0.17354732  0.50414600  1
  Ca2+  Ca44  1  0.91131165  0.17256196  0.83075098  1
  Ca2+  Ca45  1  0.92364603  0.66398442  0.15880506  1
  Ca2+  Ca46  1  0.91594830  0.66871986  0.49420373  1
  Ca2+  Ca47  1  0.91804788  0.67935490  0.83393965  1
  Al0+  Al48  1  0.00259547  0.00106695  0.00037389  1
  Al0+  Al49  1  0.00125798  0.00125736  0.33239270  1
  Al0+  Al50  1  -0.00011214  -0.00114299  0.66525217  1
  Al0+  Al51  1  -0.00122226  0.49854990  -0.00651885  1
  Al0+  Al52  1  0.00039978  0.50001032  0.33861121  1
  Al0+  Al53  1  0.00028590  0.49953345  0.66479186  1
  Al0+  Al54  1  0.50093677  -0.00048462  0.00509556  1
  Al0+  Al55  1  0.50083938  0.00191860  0.33897103  1
  Al0+  Al56  1  0.49842488  -0.00053177  0.66401244  1
  Al0+  Al57  1  0.49822059  0.49954153  -0.00197240  1
  Al0+  Al58  1  0.49818881  0.50030780  0.33508566  1
  Al0+  Al59  1  0.49856311  0.50112632  0.66049995  1
  Al0+  Al60  1  0.24954999  0.25067345  0.00093629  1
  Al0+  Al61  1  0.25115466  0.25108313  0.33883350  1
  Al0+  Al62  1  0.24949118  0.24962200  0.66319920  1
  Al0+  Al63  1  0.25320376  0.75070158  -0.00308906  1
  Al0+  Al64  1  0.24957262  0.75111610  0.33056666  1
  Al0+  Al65  1  0.24944437  0.74880008  0.66745310  1
  Al0+  Al66  1  0.74997267  0.24863752  0.00394628  1
  Al0+  Al67  1  0.74877038  0.24818568  0.33337216  1
  Al0+  Al68  1  0.74954581  0.25004132  0.66633661  1
  Al0+  Al69  1  0.75078529  0.74802023  -0.00413334  1
  Al0+  Al70  1  0.74941160  0.75151547  0.34038336  1
  Al0+  Al71  1  0.75045009  0.74950660  0.65807154  1
  Al0+  Al72  1  0.82471427  0.07300267  0.01674604  1
  Al0+  Al73  1  0.67629077  0.42750060  0.34809109  1
  Al0+  Al74  1  0.57021440  0.67998740  0.65012922  1
  Al0+  Al75  1  0.93040096  0.82165921  0.65134458  1
  Al0+  Al76  1  0.57238224  0.67728292  0.98661003  1
  Al0+  Al77  1  0.43024187  0.31993794  0.98875014  1
  Al0+  Al78  1  0.32307163  0.57306672  0.01456946  1
  Al0+  Al79  1  0.18022037  0.42938833  0.34861903  1
  Al0+  Al80  1  0.43008137  0.82388600  0.98634310  1
  Al0+  Al81  1  0.32083606  0.07106078  0.01310811  1
  Al0+  Al82  1  0.81982861  0.06954324  0.68087197  1
  Al0+  Al83  1  0.07332198  0.67618895  0.98411973  1
  Al0+  Al84  1  0.67901778  0.93050815  0.34932686  1
  Al0+  Al85  1  0.06953284  0.67878973  0.31957868  1
  Al0+  Al86  1  0.57144666  0.17838878  0.65231604  1
  Al0+  Al87  1  0.82150502  0.57043888  0.34803958  1
  Al0+  Al88  1  0.42729713  0.32187454  0.64944626  1
  Al0+  Al89  1  0.67951628  0.43149197  0.68146486  1
  Al0+  Al90  1  0.17788208  0.43091325  0.01321730  1
  Al0+  Al91  1  0.92533380  0.32132800  0.98594725  1
  Al0+  Al92  1  0.92890279  0.32112902  0.65119016  1
  Al0+  Al93  1  0.92936182  0.82078353  0.98689383  1
  Al0+  Al94  1  0.07179410  0.17962096  0.98665906  1
  Al0+  Al95  1  0.68170815  0.92767398  0.01292443  1
  Si0+  Si96  1  0.07331670  0.67850075  0.64924187  1
  Si0+  Si97  1  0.42924161  0.82311095  0.31950390  1
  Si0+  Si98  1  0.17772103  0.92638525  0.01749784  1
  Si0+  Si99  1  0.57055826  0.17800234  0.31672750  1
  Si0+  Si100  1  0.82332724  0.57345230  0.68508119  1
  Si0+  Si101  1  0.17805073  0.42784004  0.68268503  1
  Si0+  Si102  1  0.67633910  0.92564389  0.68388338  1
  Si0+  Si103  1  0.07411265  0.17895908  0.31907954  1
  Si0+  Si104  1  0.82015069  0.56977202  0.01133141  1
  Si0+  Si105  1  0.92681038  0.82351877  0.31629042  1
  Si0+  Si106  1  0.42552932  0.82206722  0.64901759  1
  Si0+  Si107  1  0.32000879  0.57074184  0.68124144  1
  Si0+  Si108  1  0.17924435  0.92834538  0.34776424  1
  Si0+  Si109  1  0.07175279  0.17791569  0.64886388  1
  Si0+  Si110  1  0.57033141  0.67989496  0.31888023  1
  Si0+  Si111  1  0.82417709  0.07135093  0.35066183  1
  Si0+  Si112  1  0.57209436  0.17734186  0.98622748  1
  Si0+  Si113  1  0.32064496  0.07158702  0.35072940  1
  Si0+  Si114  1  0.92942360  0.31903791  0.32004282  1
  Si0+  Si115  1  0.32019316  0.07070956  0.68144859  1
  Si0+  Si116  1  0.67727937  0.42808436  0.01243098  1
  Si0+  Si117  1  0.32122715  0.57488828  0.35090126  1
  Si0+  Si118  1  0.42801882  0.32057596  0.31704583  1
  Si0+  Si119  1  0.17943390  0.92850901  0.68107686  1
  O2-  O120  1  0.24751999  -0.00488944  0.06128498  1
  O2-  O121  1  0.24914561  0.00011498  0.39198169  1
  O2-  O122  1  0.25066724  -0.00129002  0.72340630  1
  O2-  O123  1  0.24552974  0.50689876  0.06450362  1
  O2-  O124  1  0.25355704  0.50550313  0.39608440  1
  O2-  O125  1  0.25009290  0.49847267  0.72261259  1
  O2-  O126  1  0.75504358  -0.00232641  0.06495555  1
  O2-  O127  1  0.75685346  0.00193488  0.39546232  1
  O2-  O128  1  0.74417909  -0.00473211  0.72664366  1
  O2-  O129  1  0.75005779  0.49757124  0.05370340  1
  O2-  O130  1  0.74830874  0.49941384  0.39795048  1
  O2-  O131  1  0.75434715  0.50541067  0.72992078  1
  O2-  O132  1  0.00090032  0.24798655  0.27860316  1
  O2-  O133  1  0.00354534  0.24614868  0.60329739  1
  O2-  O134  1  -0.00535073  0.24568102  0.93710856  1
  O2-  O135  1  -0.00673138  0.75217780  0.27376386  1
  O2-  O136  1  0.00253529  0.74441852  0.60428813  1
  O2-  O137  1  0.00447865  0.75212301  0.93591449  1
  O2-  O138  1  0.50312419  0.25319369  0.27546526  1
  O2-  O139  1  0.50157475  0.25183143  0.59960589  1
  O2-  O140  1  0.50638613  0.24789593  0.94145227  1
  O2-  O141  1  0.49999734  0.75203603  0.27763355  1
  O2-  O142  1  0.49685629  0.75720629  0.60355221  1
  O2-  O143  1  0.49937360  0.74929554  0.93738578  1
  O2-  O144  1  0.07305819  0.18426989  0.10109706  1
  O2-  O145  1  0.07587205  0.17792850  0.42427623  1
  O2-  O146  1  0.07520734  0.17818039  0.75357899  1
  O2-  O147  1  0.06818881  0.67532953  0.09821444  1
  O2-  O148  1  0.07094024  0.68342834  0.43300108  1
  O2-  O149  1  0.07652040  0.68118236  0.75402912  1
  O2-  O150  1  0.56959161  0.17935771  0.09256761  1
  O2-  O151  1  0.56827014  0.17579057  0.42161293  1
  O2-  O152  1  0.56763155  0.17773094  0.76567409  1
  O2-  O153  1  0.57388393  0.67681406  0.10077854  1
  O2-  O154  1  0.56748859  0.68038417  0.42402701  1
  O2-  O155  1  0.56801910  0.67908894  0.76256355  1
  O2-  O156  1  0.18073431  0.42656107  0.23638120  1
  O2-  O157  1  0.17839591  0.42904040  0.57704922  1
  O2-  O158  1  0.18039232  0.42949700  0.89942284  1
  O2-  O159  1  0.18032326  0.92815992  0.24361949  1
  O2-  O160  1  0.18181492  0.92931427  0.57517777  1
  O2-  O161  1  0.17777521  0.92818727  0.91161562  1
  O2-  O162  1  0.67613166  0.42891777  0.23404600  1
  O2-  O163  1  0.68178232  0.43334813  0.56832055  1
  O2-  O164  1  0.67626285  0.42797177  0.90751748  1
  O2-  O165  1  0.67626854  0.93029091  0.23682167  1
  O2-  O166  1  0.67742583  0.92788263  0.57769662  1
  O2-  O167  1  0.68139664  0.92874085  0.89953204  1
  O2-  O168  1  0.43167101  0.31930786  0.10257675  1
  O2-  O169  1  0.42511974  0.31722567  0.42190109  1
  O2-  O170  1  0.42496205  0.31932750  0.76272506  1
  O2-  O171  1  0.43458176  0.82475047  0.10077479  1
  O2-  O172  1  0.42799542  0.82239570  0.42494331  1
  O2-  O173  1  0.42160240  0.82228478  0.75351536  1
  O2-  O174  1  0.92564399  0.32350286  0.10028716  1
  O2-  O175  1  0.92971962  0.31689938  0.42527607  1
  O2-  O176  1  0.93048552  0.32094607  0.76348261  1
  O2-  O177  1  0.92826932  0.81574309  0.10083801  1
  O2-  O178  1  0.93065335  0.82607793  0.42207552  1
  O2-  O179  1  0.93323953  0.82312615  0.76378290  1
  O2-  O180  1  0.32137369  0.07299870  0.24613772  1
  O2-  O181  1  0.31800778  0.06921694  0.57564512  1
  O2-  O182  1  0.31991150  0.07094909  0.89976119  1
  O2-  O183  1  0.32250672  0.57546249  0.24616889  1
  O2-  O184  1  0.31686099  0.57336964  0.57566744  1
  O2-  O185  1  0.32520610  0.56686174  0.90067422  1
  O2-  O186  1  0.82454031  0.07173990  0.24574559  1
  O2-  O187  1  0.81943626  0.06672845  0.56700793  1
  O2-  O188  1  0.82029847  0.07402828  0.90319477  1
  O2-  O189  1  0.82101681  0.56859913  0.23388215  1
  O2-  O190  1  0.82298044  0.57170231  0.57927723  1
  O2-  O191  1  0.81891196  0.57102296  0.90641375  1
  O2-  O192  1  0.05010045  0.08588787  0.27205087  1
  O2-  O193  1  0.04763593  0.08387709  0.60232580  1
  O2-  O194  1  0.05451324  0.07846283  0.93600090  1
  O2-  O195  1  0.04037474  0.58049945  0.26859819  1
  O2-  O196  1  0.04978202  0.58392722  0.60420337  1
  O2-  O197  1  0.04216536  0.58074642  0.92853036  1
  O2-  O198  1  0.53674201  0.08758765  0.26998285  1
  O2-  O199  1  0.53952032  0.08059314  0.59713878  1
  O2-  O200  1  0.54432880  0.08503661  0.94098879  1
  O2-  O201  1  0.54243591  0.58752359  0.27259412  1
  O2-  O202  1  0.53494219  0.58635844  0.59308823  1
  O2-  O203  1  0.54100317  0.58080771  0.93181129  1
  O2-  O204  1  0.16649006  0.20789975  0.27375965  1
  O2-  O205  1  0.16468590  0.20388532  0.60015094  1
  O2-  O206  1  0.16778037  0.21207394  0.93165848  1
  O2-  O207  1  0.16618215  0.71122193  0.26624472  1
  O2-  O208  1  0.16598400  0.70677817  0.60104970  1
  O2-  O209  1  0.17342786  0.70056826  0.93419502  1
  O2-  O210  1  0.66406401  0.20035179  0.27028565  1
  O2-  O211  1  0.66907205  0.20560346  0.59769034  1
  O2-  O212  1  0.66643289  0.20012679  0.94252816  1
  O2-  O213  1  0.66365123  0.70717536  0.27487832  1
  O2-  O214  1  0.66629620  0.70785446  0.59364826  1
  O2-  O215  1  0.66869080  0.70500015  0.93021952  1
  O2-  O216  1  0.07732374  0.45591030  0.06436789  1
  O2-  O217  1  0.08460354  0.45948167  0.40477823  1
  O2-  O218  1  0.08605749  0.45572055  0.72873951  1
  O2-  O219  1  0.08562424  0.95194565  0.06630404  1
  O2-  O220  1  0.08745203  0.95683998  0.39632198  1
  O2-  O221  1  0.08820984  0.95646374  0.72758730  1
  O2-  O222  1  0.58692431  0.45769301  0.06136845  1
  O2-  O223  1  0.57739070  0.45535703  0.40080436  1
  O2-  O224  1  0.58037340  0.46254095  0.73062309  1
  O2-  O225  1  0.58525779  0.95853706  0.06925968  1
  O2-  O226  1  0.58346026  0.96354700  0.40549288  1
  O2-  O227  1  0.58024399  0.94822476  0.72573210  1
  O2-  O228  1  0.21138609  0.33488653  0.06802430  1
  O2-  O229  1  0.21297144  0.33399521  0.40556740  1
  O2-  O230  1  0.20533106  0.33461139  0.72653362  1
  O2-  O231  1  0.20366891  0.83294392  0.06349246  1
  O2-  O232  1  0.20921111  0.83808489  0.39793643  1
  O2-  O233  1  0.20581344  0.83618311  0.72752814  1
  O2-  O234  1  0.70184611  0.33659848  0.06222689  1
  O2-  O235  1  0.70416929  0.32777725  0.39878197  1
  O2-  O236  1  0.70832696  0.33392644  0.73333357  1
  O2-  O237  1  0.70977728  0.82826320  0.06581167  1
  O2-  O238  1  0.70634747  0.83406871  0.40507870  1
  O2-  O239  1  0.70302042  0.83079505  0.72514634  1
  O2-  O240  1  0.45130676  0.41468644  0.27240567  1
  O2-  O241  1  0.45157270  0.42030014  0.59563241  1
  O2-  O242  1  0.45923363  0.41512048  0.93298958  1
  O2-  O243  1  0.45650018  0.91661917  0.27557043  1
  O2-  O244  1  0.44650780  0.91668404  0.60214686  1
  O2-  O245  1  0.46050633  0.92167919  0.93296889  1
  O2-  O246  1  0.95753388  0.41149309  0.27558770  1
  O2-  O247  1  0.96094055  0.41764894  0.59643753  1
  O2-  O248  1  0.95445901  0.41672813  0.92871748  1
  O2-  O249  1  0.95503065  0.91688367  0.27102246  1
  O2-  O250  1  0.96544571  0.91611330  0.59446618  1
  O2-  O251  1  0.95608931  0.92015205  0.93604626  1
  O2-  O252  1  0.33742598  0.28682587  0.27086412  1
  O2-  O253  1  0.33024323  0.28832663  0.59464782  1
  O2-  O254  1  0.33534881  0.28697754  0.93494501  1
  O2-  O255  1  0.33698700  0.79813994  0.27231453  1
  O2-  O256  1  0.33287532  0.79226959  0.60076812  1
  O2-  O257  1  0.33045146  0.80385712  0.93341043  1
  O2-  O258  1  0.83708475  0.29221747  0.27276866  1
  O2-  O259  1  0.83334989  0.28896585  0.59644266  1
  O2-  O260  1  0.82621528  0.29336828  0.93394930  1
  O2-  O261  1  0.83107220  0.80014527  0.27479859  1
  O2-  O262  1  0.83421827  0.79379715  0.59533863  1
  O2-  O263  1  0.83418806  0.78880754  0.93074394  1
  O2-  O264  1  0.41609849  0.04121257  0.07095724  1
  O2-  O265  1  0.41102591  0.04265059  0.40032438  1
  O2-  O266  1  0.41250651  0.04422766  0.72751313  1
  O2-  O267  1  0.41915204  0.53844844  0.07009070  1
  O2-  O268  1  0.41442503  0.54833584  0.39782350  1
  O2-  O269  1  0.41266613  0.54479702  0.72569581  1
  O2-  O270  1  0.92507274  0.04970650  0.06790234  1
  O2-  O271  1  0.91933594  0.04901124  0.39656151  1
  O2-  O272  1  0.91811893  0.03932446  0.73167963  1
  O2-  O273  1  0.91175491  0.54167777  0.05858496  1
  O2-  O274  1  0.91810057  0.54179198  0.40431988  1
  O2-  O275  1  0.91820539  0.54862017  0.72845945  1
  O2-  O276  1  0.28732323  0.16550077  0.07003098  1
  O2-  O277  1  0.29129886  0.16155247  0.40086213  1
  O2-  O278  1  0.29091840  0.16268482  0.72694386  1
  O2-  O279  1  0.30491345  0.67501648  0.06411451  1
  O2-  O280  1  0.29483846  0.66859702  0.39785674  1
  O2-  O281  1  0.29188183  0.66244277  0.72900695  1
  O2-  O282  1  0.79273692  0.16970043  0.07290719  1
  O2-  O283  1  0.79525674  0.16432208  0.39648155  1
  O2-  O284  1  0.79082468  0.16681501  0.73300498  1
  O2-  O285  1  0.79197275  0.66004030  0.06113612  1
  O2-  O286  1  0.79518141  0.66901606  0.40168688  1
  O2-  O287  1  0.79696259  0.66863913  0.72676667  1
