# generated using pymatgen
data_Ca2Al2SiO7
_symmetry_space_group_name_H-M   'P 1'
_cell_length_a   15.46272111
_cell_length_b   15.46231282
_cell_length_c   15.28681762
_cell_angle_alpha   90.00637022
_cell_angle_beta   90.01745909
_cell_angle_gamma   90.02387246
_symmetry_Int_Tables_number   1
_chemical_formula_structural   Ca2Al2SiO7
_chemical_formula_sum   'Ca48 Al48 Si24 O168'
_cell_volume   3654.91601504
_cell_formula_units_Z   24
loop_
 _symmetry_equiv_pos_site_id
 _symmetry_equiv_pos_as_xyz
  1  'x, y, z'
loop_
 _atom_type_symbol
 _atom_type_oxidation_number
  Ca2+  2.0
  Al0+  0.0
  Si0+  0.0
  O2-  -2.0
loop_
 _atom_site_type_symbol
 _atom_site_label
 _atom_site_symmetry_multiplicity
 _atom_site_fract_x
 _atom_site_fract_y
 _atom_site_fract_z
 _atom_site_occupancy
  Ca2+  Ca0  1  0.17703209  0.07899429  0.17515313  1
  Ca2+  Ca1  1  0.17360428  0.07683908  0.50921822  1
  Ca2+  Ca2  1  0.17056476  0.08079301  0.83772876  1
  Ca2+  Ca3  1  0.15982391  0.57634872  0.16711846  1
  Ca2+  Ca4  1  0.15546299  0.57373968  0.50034420  1
  Ca2+  Ca5  1  0.16774103  0.57448390  0.84224641  1
  Ca2+  Ca6  1  0.66497001  0.08041154  0.16964691  1
  Ca2+  Ca7  1  0.66705224  0.08014596  0.50480239  1
  Ca2+  Ca8  1  0.66548110  0.07261260  0.83820238  1
  Ca2+  Ca9  1  0.66377246  0.57617764  0.16894293  1
  Ca2+  Ca10  1  0.67335106  0.58208605  0.50939673  1
  Ca2+  Ca11  1  0.67635657  0.57235062  0.83527835  1
  Ca2+  Ca12  1  0.08053891  0.33906952  0.15762226  1
  Ca2+  Ca13  1  0.08540668  0.33320320  0.50115342  1
  Ca2+  Ca14  1  0.07832255  0.33568525  0.82439604  1
  Ca2+  Ca15  1  0.09326003  0.82745447  0.16161232  1
  Ca2+  Ca16  1  0.08191965  0.83044415  0.48897834  1
  Ca2+  Ca17  1  0.09623823  0.82852964  0.83113653  1
  Ca2+  Ca18  1  0.57617905  0.32693490  0.15637467  1
  Ca2+  Ca19  1  0.58159306  0.32814106  0.49341477  1
  Ca2+  Ca20  1  0.57720642  0.34203920  0.83154466  1
  Ca2+  Ca21  1  0.58326600  0.82694546  0.16163863  1
  Ca2+  Ca22  1  0.58407135  0.82926042  0.49218030  1
  Ca2+  Ca23  1  0.58402222  0.83735510  0.82800137  1
  Ca2+  Ca24  1  0.32475978  0.41651038  0.16530746  1
  Ca2+  Ca25  1  0.32107927  0.41702817  0.50262206  1
  Ca2+  Ca26  1  0.32186564  0.41742405  0.84245799  1
  Ca2+  Ca27  1  0.32356376  0.92496912  0.16923730  1
  Ca2+  Ca28  1  0.32432638  0.92452668  0.50437604  1
  Ca2+  Ca29  1  0.32434899  0.92982699  0.83801118  1
  Ca2+  Ca30  1  0.83056246  0.41264635  0.16636216  1
  Ca2+  Ca31  1  0.82814254  0.42438135  0.51286147  1
  Ca2+  Ca32  1  0.82968061  0.41119086  0.83610977  1
  Ca2+  Ca33  1  0.83120577  0.91053698  0.16752386  1
  Ca2+  Ca34  1  0.82877602  0.91206803  0.50503577  1
  Ca2+  Ca35  1  0.82168904  0.91452847  0.83672471  1
  Ca2+  Ca36  1  0.41536496  0.16552367  0.16321768  1
  Ca2+  Ca37  1  0.41842206  0.16051262  0.49603488  1
  Ca2+  Ca38  1  0.40837166  0.16891801  0.83241147  1
  Ca2+  Ca39  1  0.41959031  0.66132777  0.15946984  1
  Ca2+  Ca40  1  0.42616592  0.66851228  0.49279818  1
  Ca2+  Ca41  1  0.41362389  0.66594252  0.83230080  1
  Ca2+  Ca42  1  0.92164348  0.17365449  0.15841460  1
  Ca2+  Ca43  1  0.92335231  0.17116443  0.50141409  1
  Ca2+  Ca44  1  0.92492536  0.17819170  0.82641819  1
  Ca2+  Ca45  1  0.93031711  0.67341489  0.16533182  1
  Ca2+  Ca46  1  0.91846503  0.67256506  0.49223377  1
  Ca2+  Ca47  1  0.92152460  0.66407982  0.83206094  1
  Al0+  Al48  1  -0.00291804  -0.00140748  0.00108369  1
  Al0+  Al49  1  -0.00318650  0.00271817  0.33243123  1
  Al0+  Al50  1  -0.00064319  -0.00065031  0.66626794  1
  Al0+  Al51  1  -0.00171297  0.50299329  -0.00513442  1
  Al0+  Al52  1  -0.00285674  0.50205552  0.33390664  1
  Al0+  Al53  1  -0.00084625  0.50230136  0.66919958  1
  Al0+  Al54  1  0.50114101  -0.00248348  0.00754230  1
  Al0+  Al55  1  0.50128136  -0.00055820  0.33172995  1
  Al0+  Al56  1  0.49805346  0.00035670  0.67214374  1
  Al0+  Al57  1  0.50230029  0.49768943  0.00119382  1
  Al0+  Al58  1  0.49816423  0.49777808  0.32976955  1
  Al0+  Al59  1  0.50123896  0.50074921  0.66573994  1
  Al0+  Al60  1  0.25131860  0.25023907  0.00316406  1
  Al0+  Al61  1  0.25000020  0.25120986  0.34176721  1
  Al0+  Al62  1  0.25058592  0.25139283  0.66769402  1
  Al0+  Al63  1  0.25371980  0.75028423  0.00015896  1
  Al0+  Al64  1  0.25165052  0.74844393  0.33319919  1
  Al0+  Al65  1  0.25201076  0.75148857  0.66385820  1
  Al0+  Al66  1  0.75034110  0.24837098  -0.00122980  1
  Al0+  Al67  1  0.74831283  0.24841271  0.33001306  1
  Al0+  Al68  1  0.74854479  0.25001721  0.66566649  1
  Al0+  Al69  1  0.75120933  0.74841314  0.00304408  1
  Al0+  Al70  1  0.75055491  0.74859589  0.32395120  1
  Al0+  Al71  1  0.75095479  0.74814207  0.67484743  1
  Al0+  Al72  1  0.57078042  0.17853634  0.31948766  1
  Al0+  Al73  1  0.07262829  0.17892497  0.65112502  1
  Al0+  Al74  1  0.32209080  0.07049636  0.35092577  1
  Al0+  Al75  1  0.32246081  0.57064003  0.01357023  1
  Al0+  Al76  1  0.32048587  0.07260222  0.01683734  1
  Al0+  Al77  1  0.92921286  0.82436902  0.31811164  1
  Al0+  Al78  1  0.17627633  0.43030813  0.01359230  1
  Al0+  Al79  1  0.17734635  0.92873477  0.01470254  1
  Al0+  Al80  1  0.07282682  0.68278989  0.98413350  1
  Al0+  Al81  1  0.68000852  0.92983778  0.67748166  1
  Al0+  Al82  1  0.32025555  0.07163314  0.68292861  1
  Al0+  Al83  1  0.57073851  0.67761369  0.31894481  1
  Al0+  Al84  1  0.82180160  0.57130990  0.68234989  1
  Al0+  Al85  1  0.18003605  0.43168463  0.67998007  1
  Al0+  Al86  1  0.68097407  0.42762801  0.01499158  1
  Al0+  Al87  1  0.17650906  0.92769260  0.34857243  1
  Al0+  Al88  1  0.17677831  0.43177692  0.34793879  1
  Al0+  Al89  1  0.92807011  0.32325691  0.64983802  1
  Al0+  Al90  1  0.92916365  0.32118723  0.98617128  1
  Al0+  Al91  1  0.07206666  0.67907205  0.31856991  1
  Al0+  Al92  1  0.67759504  0.42654305  0.68020459  1
  Al0+  Al93  1  0.42946853  0.31995390  0.98575826  1
  Al0+  Al94  1  0.67982726  0.92763050  0.01649404  1
  Al0+  Al95  1  0.17605650  0.92716792  0.68099681  1
  Si0+  Si96  1  0.82070401  0.07140330  0.01726317  1
  Si0+  Si97  1  0.57312737  0.67748732  0.98226656  1
  Si0+  Si98  1  0.07151217  0.18096202  0.31969861  1
  Si0+  Si99  1  0.82225579  0.57199911  0.02062681  1
  Si0+  Si100  1  0.82274558  0.07334129  0.68277473  1
  Si0+  Si101  1  0.92649343  0.82218962  0.98041369  1
  Si0+  Si102  1  0.07243468  0.17691645  0.98601139  1
  Si0+  Si103  1  0.92856176  0.32117664  0.31931086  1
  Si0+  Si104  1  0.32428078  0.57304139  0.68023831  1
  Si0+  Si105  1  0.43042458  0.82250929  0.65110426  1
  Si0+  Si106  1  0.57134586  0.17579567  0.98213749  1
  Si0+  Si107  1  0.32530252  0.57149916  0.35073451  1
  Si0+  Si108  1  0.56933850  0.17688409  0.65331555  1
  Si0+  Si109  1  0.81705380  0.56977352  0.34665903  1
  Si0+  Si110  1  0.42600479  0.32080327  0.31635575  1
  Si0+  Si111  1  0.82022186  0.07518426  0.34919056  1
  Si0+  Si112  1  0.67777086  0.42687048  0.34683864  1
  Si0+  Si113  1  0.57174638  0.68053785  0.65347635  1
  Si0+  Si114  1  0.92644169  0.81983474  0.65425866  1
  Si0+  Si115  1  0.68233149  0.92815763  0.34656591  1
  Si0+  Si116  1  0.43227452  0.82062223  0.98371732  1
  Si0+  Si117  1  0.42954382  0.32311172  0.65064296  1
  Si0+  Si118  1  0.42933386  0.82156233  0.31549305  1
  Si0+  Si119  1  0.07274420  0.68091666  0.65158108  1
  O2-  O120  1  0.24387145  0.00499747  0.06533416  1
  O2-  O121  1  0.24797915  -0.00017848  0.39930642  1
  O2-  O122  1  0.24330842  0.00368921  0.73003816  1
  O2-  O123  1  0.24837031  0.50182686  0.06463030  1
  O2-  O124  1  0.25113828  0.50832462  0.39409403  1
  O2-  O125  1  0.25471901  0.50663265  0.72469179  1
  O2-  O126  1  0.75416447  0.00173951  0.06363417  1
  O2-  O127  1  0.75262716  -0.00070837  0.38987546  1
  O2-  O128  1  0.75369159  0.00424263  0.72599346  1
  O2-  O129  1  0.75548469  0.50096651  0.06440690  1
  O2-  O130  1  0.74514812  0.50021102  0.39005782  1
  O2-  O131  1  0.75467219  0.49319881  0.72959821  1
  O2-  O132  1  0.00239678  0.25364645  0.27643714  1
  O2-  O133  1  0.00107682  0.25208585  0.59963852  1
  O2-  O134  1  0.00785693  0.24973468  0.94183984  1
  O2-  O135  1  0.00908700  0.76009115  0.26955225  1
  O2-  O136  1  0.00254897  0.75446423  0.61183055  1
  O2-  O137  1  0.00028656  0.75980209  0.93577194  1
  O2-  O138  1  0.49428611  0.25093308  0.27360238  1
  O2-  O139  1  0.50121022  0.25092402  0.61066215  1
  O2-  O140  1  0.50265370  0.24363916  0.93713765  1
  O2-  O141  1  0.49401925  0.74896281  0.27074010  1
  O2-  O142  1  0.50182468  0.75125069  0.60904655  1
  O2-  O143  1  0.50264842  0.74878742  0.93979171  1
  O2-  O144  1  0.06831838  0.17629271  0.09214579  1
  O2-  O145  1  0.06888561  0.18096744  0.42442923  1
  O2-  O146  1  0.07057096  0.17948914  0.76480481  1
  O2-  O147  1  0.07025547  0.68201587  0.09702494  1
  O2-  O148  1  0.06419572  0.67541914  0.43253920  1
  O2-  O149  1  0.07494818  0.68155154  0.75643129  1
  O2-  O150  1  0.57174739  0.17764467  0.08796172  1
  O2-  O151  1  0.57383820  0.18087896  0.43312379  1
  O2-  O152  1  0.56834714  0.17332284  0.75791697  1
  O2-  O153  1  0.57251112  0.67862870  0.08761307  1
  O2-  O154  1  0.57271243  0.68075829  0.43281449  1
  O2-  O155  1  0.57017423  0.68064527  0.75831398  1
  O2-  O156  1  0.17519726  0.43090018  0.23541812  1
  O2-  O157  1  0.18084027  0.43374111  0.56647700  1
  O2-  O158  1  0.17708507  0.43141514  0.90011644  1
  O2-  O159  1  0.17890903  0.93106892  0.23532128  1
  O2-  O160  1  0.17896410  0.92401460  0.56759031  1
  O2-  O161  1  0.18092886  0.92980983  0.90126855  1
  O2-  O162  1  0.68059355  0.42641755  0.24197116  1
  O2-  O163  1  0.67476967  0.43110187  0.56580041  1
  O2-  O164  1  0.68092758  0.43028615  0.90224415  1
  O2-  O165  1  0.68364197  0.92871867  0.24179554  1
  O2-  O166  1  0.68109897  0.92870510  0.56392614  1
  O2-  O167  1  0.68001808  0.92851453  0.90305930  1
  O2-  O168  1  0.43216978  0.32040987  0.09889312  1
  O2-  O169  1  0.42931450  0.32394604  0.42234944  1
  O2-  O170  1  0.43039239  0.32591766  0.75540122  1
  O2-  O171  1  0.43533099  0.81966470  0.08869152  1
  O2-  O172  1  0.43441353  0.82158159  0.42167928  1
  O2-  O173  1  0.43160233  0.82134776  0.75610119  1
  O2-  O174  1  0.92838738  0.31820965  0.10027523  1
  O2-  O175  1  0.92602659  0.31994334  0.42392441  1
  O2-  O176  1  0.92875125  0.32005982  0.76321413  1
  O2-  O177  1  0.92298926  0.81874528  0.08561620  1
  O2-  O178  1  0.92235021  0.81867721  0.43209586  1
  O2-  O179  1  0.92135019  0.81650940  0.75881522  1
  O2-  O180  1  0.32129001  0.07062026  0.23779441  1
  O2-  O181  1  0.32507636  0.06645978  0.56965835  1
  O2-  O182  1  0.32168521  0.07021996  0.90342510  1
  O2-  O183  1  0.33115047  0.56742903  0.24595101  1
  O2-  O184  1  0.32759946  0.57181119  0.57453408  1
  O2-  O185  1  0.32142543  0.56960018  0.89946579  1
  O2-  O186  1  0.81749384  0.08075229  0.24456999  1
  O2-  O187  1  0.82050384  0.07248060  0.57668700  1
  O2-  O188  1  0.81833673  0.07067707  0.91175645  1
  O2-  O189  1  0.81698119  0.56673655  0.24190707  1
  O2-  O190  1  0.81665012  0.57587717  0.56805023  1
  O2-  O191  1  0.81938180  0.57444014  0.91523785  1
  O2-  O192  1  0.04140019  0.09076656  0.27081350  1
  O2-  O193  1  0.04190341  0.07994826  0.59815119  1
  O2-  O194  1  0.04187729  0.08470859  0.93913392  1
  O2-  O195  1  0.03237590  0.58413935  0.26448379  1
  O2-  O196  1  0.04161255  0.59018363  0.60442643  1
  O2-  O197  1  0.03783231  0.58789518  0.92912073  1
  O2-  O198  1  0.54501461  0.08065744  0.26563061  1
  O2-  O199  1  0.53861123  0.08612016  0.60403489  1
  O2-  O200  1  0.54684388  0.08007961  0.93974606  1
  O2-  O201  1  0.54248221  0.57974654  0.26573528  1
  O2-  O202  1  0.54410728  0.58938264  0.60365441  1
  O2-  O203  1  0.54571512  0.58573230  0.93557142  1
  O2-  O204  1  0.16478937  0.20767029  0.27542311  1
  O2-  O205  1  0.17129353  0.20806653  0.59816680  1
  O2-  O206  1  0.16775636  0.19731576  0.94304236  1
  O2-  O207  1  0.17487407  0.69464626  0.26990830  1
  O2-  O208  1  0.16510078  0.70543816  0.60256164  1
  O2-  O209  1  0.17098649  0.71061223  0.93082128  1
  O2-  O210  1  0.66583472  0.21105263  0.26263862  1
  O2-  O211  1  0.66210847  0.20027735  0.60505423  1
  O2-  O212  1  0.66541266  0.20003924  0.93689124  1
  O2-  O213  1  0.66438827  0.70984711  0.26112818  1
  O2-  O214  1  0.66394051  0.70942742  0.60719587  1
  O2-  O215  1  0.66545973  0.70669939  0.93684457  1
  O2-  O216  1  0.07751398  0.46080696  0.06497515  1
  O2-  O217  1  0.07959569  0.46304829  0.40192135  1
  O2-  O218  1  0.08367191  0.46156624  0.73265748  1
  O2-  O219  1  0.07468711  0.94654124  0.06292593  1
  O2-  O220  1  0.07548543  0.95464671  0.39752359  1
  O2-  O221  1  0.07476492  0.94642477  0.73131516  1
  O2-  O222  1  0.58605084  0.46045137  0.07006021  1
  O2-  O223  1  0.58386629  0.45055006  0.39162717  1
  O2-  O224  1  0.58155473  0.46187659  0.73374532  1
  O2-  O225  1  0.58498722  0.95691853  0.07304953  1
  O2-  O226  1  0.59016591  0.95463237  0.39343174  1
  O2-  O227  1  0.58477883  0.96012968  0.73337392  1
  O2-  O228  1  0.20315340  0.33170207  0.06605820  1
  O2-  O229  1  0.20909376  0.33691156  0.40428669  1
  O2-  O230  1  0.21072184  0.33561444  0.73270358  1
  O2-  O231  1  0.21411195  0.83300821  0.06678401  1
  O2-  O232  1  0.20389903  0.82721664  0.39893527  1
  O2-  O233  1  0.21245696  0.83037070  0.73291183  1
  O2-  O234  1  0.71018168  0.32991844  0.06768239  1
  O2-  O235  1  0.70838953  0.33591574  0.39419986  1
  O2-  O236  1  0.69808641  0.32621104  0.73172602  1
  O2-  O237  1  0.71083228  0.83070227  0.06949028  1
  O2-  O238  1  0.71071451  0.83535670  0.39217868  1
  O2-  O239  1  0.71021317  0.83516530  0.73477294  1
  O2-  O240  1  0.45255674  0.41307617  0.26856911  1
  O2-  O241  1  0.45874533  0.41419633  0.60104282  1
  O2-  O242  1  0.46431047  0.41556304  0.93114567  1
  O2-  O243  1  0.46048353  0.91259480  0.26820516  1
  O2-  O244  1  0.46059603  0.91346149  0.60368097  1
  O2-  O245  1  0.46395660  0.91190872  0.93725069  1
  O2-  O246  1  0.95272240  0.41393073  0.27252973  1
  O2-  O247  1  0.95467275  0.42367044  0.59919638  1
  O2-  O248  1  0.95275297  0.41927057  0.93294222  1
  O2-  O249  1  0.94277664  0.92713428  0.26807671  1
  O2-  O250  1  0.94501928  0.91400041  0.60768915  1
  O2-  O251  1  0.94197564  0.91907729  0.93732847  1
  O2-  O252  1  0.33157664  0.29545028  0.27267340  1
  O2-  O253  1  0.33841745  0.29562005  0.60236887  1
  O2-  O254  1  0.33160771  0.29179359  0.93201609  1
  O2-  O255  1  0.33437869  0.80057387  0.27155278  1
  O2-  O256  1  0.34014177  0.79382398  0.60066547  1
  O2-  O257  1  0.34144657  0.79382653  0.93443369  1
  O2-  O258  1  0.83815614  0.28956722  0.27072868  1
  O2-  O259  1  0.82809829  0.29461024  0.59775199  1
  O2-  O260  1  0.83373266  0.28586581  0.93186261  1
  O2-  O261  1  0.83540812  0.78678258  0.26075890  1
  O2-  O262  1  0.83615759  0.78628391  0.60528752  1
  O2-  O263  1  0.83415059  0.78942540  0.93422114  1
  O2-  O264  1  0.41749353  0.03929330  0.06957427  1
  O2-  O265  1  0.42197854  0.03985146  0.40120749  1
  O2-  O266  1  0.41597540  0.03856671  0.73850098  1
  O2-  O267  1  0.42055828  0.54104922  0.06620977  1
  O2-  O268  1  0.41704776  0.54025431  0.39998320  1
  O2-  O269  1  0.41749717  0.54813763  0.72695968  1
  O2-  O270  1  0.91413328  0.04775555  0.06459169  1
  O2-  O271  1  0.91284103  0.05276844  0.39669159  1
  O2-  O272  1  0.91540944  0.04810772  0.72935526  1
  O2-  O273  1  0.91608332  0.54718761  0.06492577  1
  O2-  O274  1  0.90740384  0.54183695  0.39615124  1
  O2-  O275  1  0.92074856  0.54981659  0.73512697  1
  O2-  O276  1  0.29781662  0.17166265  0.07026583  1
  O2-  O277  1  0.29698527  0.16958388  0.40382893  1
  O2-  O278  1  0.29742444  0.17183201  0.73280117  1
  O2-  O279  1  0.30130199  0.67062966  0.06512398  1
  O2-  O280  1  0.30817592  0.66768806  0.39453144  1
  O2-  O281  1  0.30121058  0.66774510  0.72427706  1
  O2-  O282  1  0.79345624  0.16376021  0.06490273  1
  O2-  O283  1  0.78624135  0.16392912  0.39964925  1
  O2-  O284  1  0.79602627  0.16612744  0.72863041  1
  O2-  O285  1  0.79352394  0.66395394  0.06780349  1
  O2-  O286  1  0.78819752  0.66235104  0.39223296  1
  O2-  O287  1  0.78705346  0.66476341  0.74101028  1
