# generated using pymatgen
data_Ca2Al2SiO7
_symmetry_space_group_name_H-M   'P 1'
_cell_length_a   15.47380883
_cell_length_b   15.46890762
_cell_length_c   15.29432613
_cell_angle_alpha   90.00367488
_cell_angle_beta   89.99785401
_cell_angle_gamma   89.99410671
_symmetry_Int_Tables_number   1
_chemical_formula_structural   Ca2Al2SiO7
_chemical_formula_sum   'Ca48 Al48 Si24 O168'
_cell_volume   3660.89452372
_cell_formula_units_Z   24
loop_
 _symmetry_equiv_pos_site_id
 _symmetry_equiv_pos_as_xyz
  1  'x, y, z'
loop_
 _atom_type_symbol
 _atom_type_oxidation_number
  Ca2+  2.0
  Al0+  0.0
  Si0+  0.0
  O2-  -2.0
loop_
 _atom_site_type_symbol
 _atom_site_label
 _atom_site_symmetry_multiplicity
 _atom_site_fract_x
 _atom_site_fract_y
 _atom_site_fract_z
 _atom_site_occupancy
  Ca2+  Ca0  1  0.17286725  0.07663753  0.17315786  1
  Ca2+  Ca1  1  0.17935201  0.08730618  0.49969470  1
  Ca2+  Ca2  1  0.17506923  0.07508614  0.83602147  1
  Ca2+  Ca3  1  0.17422446  0.58095267  0.17626998  1
  Ca2+  Ca4  1  0.18158959  0.57802006  0.50026529  1
  Ca2+  Ca5  1  0.17444778  0.58813672  0.83655789  1
  Ca2+  Ca6  1  0.66277550  0.07596607  0.17803836  1
  Ca2+  Ca7  1  0.65765740  0.07596897  0.50135626  1
  Ca2+  Ca8  1  0.67333832  0.08421335  0.83467332  1
  Ca2+  Ca9  1  0.66142763  0.58467958  0.17454757  1
  Ca2+  Ca10  1  0.65774604  0.57503670  0.50624549  1
  Ca2+  Ca11  1  0.65502408  0.58270377  0.83224525  1
  Ca2+  Ca12  1  0.09464772  0.32690657  0.16879421  1
  Ca2+  Ca13  1  0.08174704  0.33023352  0.48929743  1
  Ca2+  Ca14  1  0.08088524  0.33141954  0.82717537  1
  Ca2+  Ca15  1  0.08082295  0.82883322  0.15530118  1
  Ca2+  Ca16  1  0.07844574  0.83419478  0.49723620  1
  Ca2+  Ca17  1  0.08347547  0.83391804  0.83716492  1
  Ca2+  Ca18  1  0.57084673  0.33791706  0.16852476  1
  Ca2+  Ca19  1  0.57729737  0.33255461  0.49364477  1
  Ca2+  Ca20  1  0.57351084  0.33492947  0.82696004  1
  Ca2+  Ca21  1  0.57430849  0.82710215  0.16560839  1
  Ca2+  Ca22  1  0.57669124  0.82418416  0.49193988  1
  Ca2+  Ca23  1  0.57426644  0.82299778  0.82757226  1
  Ca2+  Ca24  1  0.33509780  0.42234411  0.17775181  1
  Ca2+  Ca25  1  0.34540797  0.42729555  0.50153448  1
  Ca2+  Ca26  1  0.34527504  0.42302778  0.83251357  1
  Ca2+  Ca27  1  0.33422638  0.91458838  0.17390071  1
  Ca2+  Ca28  1  0.34706604  0.92775060  0.50277457  1
  Ca2+  Ca29  1  0.33815449  0.91826149  0.83859631  1
  Ca2+  Ca30  1  0.82299491  0.42150853  0.17565884  1
  Ca2+  Ca31  1  0.81674293  0.41968773  0.50743701  1
  Ca2+  Ca32  1  0.82457458  0.42429091  0.83155338  1
  Ca2+  Ca33  1  0.82607600  0.91158108  0.17235378  1
  Ca2+  Ca34  1  0.82208659  0.92161897  0.50335030  1
  Ca2+  Ca35  1  0.83564679  0.91819504  0.83681272  1
  Ca2+  Ca36  1  0.41484957  0.17514463  0.17067125  1
  Ca2+  Ca37  1  0.41353633  0.17595540  0.49103632  1
  Ca2+  Ca38  1  0.40998764  0.17767817  0.82705815  1
  Ca2+  Ca39  1  0.42272746  0.67190647  0.16402430  1
  Ca2+  Ca40  1  0.41992895  0.67165143  0.49586107  1
  Ca2+  Ca41  1  0.42158534  0.67540055  0.82538179  1
  Ca2+  Ca42  1  0.92476049  0.16635562  0.16663870  1
  Ca2+  Ca43  1  0.92338960  0.16137772  0.49474622  1
  Ca2+  Ca44  1  0.91784645  0.16433588  0.82563388  1
  Ca2+  Ca45  1  0.92512687  0.67286293  0.15695230  1
  Ca2+  Ca46  1  0.91546768  0.66029022  0.49944494  1
  Ca2+  Ca47  1  0.92214301  0.66603636  0.83108319  1
  Al0+  Al48  1  0.00316798  0.00115619  0.00087231  1
  Al0+  Al49  1  0.00045687  0.00067811  0.32816148  1
  Al0+  Al50  1  -0.00014343  -0.00102764  0.66928689  1
  Al0+  Al51  1  -0.00086214  0.49843214  -0.00239968  1
  Al0+  Al52  1  -0.00025107  0.50033294  0.33515501  1
  Al0+  Al53  1  -0.00272837  0.49811871  0.66803341  1
  Al0+  Al54  1  0.50401046  0.00327617  -0.00155492  1
  Al0+  Al55  1  0.49973239  -0.00006122  0.33485377  1
  Al0+  Al56  1  0.49993683  0.00097804  0.67412257  1
  Al0+  Al57  1  0.49915115  0.49784940  -0.00426922  1
  Al0+  Al58  1  0.50136740  0.50081566  0.33457293  1
  Al0+  Al59  1  0.49784673  0.49950122  0.66953864  1
  Al0+  Al60  1  0.25009872  0.24986669  -0.00543047  1
  Al0+  Al61  1  0.24699566  0.24760938  0.32969828  1
  Al0+  Al62  1  0.24853162  0.24732998  0.66679854  1
  Al0+  Al63  1  0.25006541  0.75043471  -0.00154503  1
  Al0+  Al64  1  0.24708863  0.74960437  0.33562402  1
  Al0+  Al65  1  0.24666266  0.74905826  0.66531650  1
  Al0+  Al66  1  0.75127805  0.25173039  0.00243983  1
  Al0+  Al67  1  0.75286652  0.25045123  0.33324123  1
  Al0+  Al68  1  0.75036476  0.25052154  0.67523879  1
  Al0+  Al69  1  0.75178783  0.75069305  -0.00668320  1
  Al0+  Al70  1  0.75008988  0.75227271  0.33566131  1
  Al0+  Al71  1  0.75260936  0.74974404  0.66660528  1
  Al0+  Al72  1  0.42870196  0.82410247  0.98593375  1
  Al0+  Al73  1  0.42905762  0.31793296  0.98526422  1
  Al0+  Al74  1  0.82242411  0.57242319  0.68341128  1
  Al0+  Al75  1  0.57061543  0.67842369  0.98490470  1
  Al0+  Al76  1  0.17793532  0.42762909  0.34657724  1
  Al0+  Al77  1  0.32207719  0.57177898  0.34777290  1
  Al0+  Al78  1  0.32143292  0.07051031  0.68123997  1
  Al0+  Al79  1  0.18243305  0.92928055  0.01427586  1
  Al0+  Al80  1  0.31877751  0.57088814  0.68208724  1
  Al0+  Al81  1  0.42663043  0.82158552  0.31961312  1
  Al0+  Al82  1  0.57222433  0.67910293  0.31965997  1
  Al0+  Al83  1  0.82119219  0.06902107  0.67954186  1
  Al0+  Al84  1  0.57343257  0.17794818  0.32068531  1
  Al0+  Al85  1  0.93002085  0.82242636  0.98423499  1
  Al0+  Al86  1  0.67853692  0.92960427  0.34672512  1
  Al0+  Al87  1  0.07094175  0.17909352  0.31838630  1
  Al0+  Al88  1  0.67925341  0.42845701  0.34594332  1
  Al0+  Al89  1  0.42612829  0.82307707  0.65113709  1
  Al0+  Al90  1  0.57123258  0.67980643  0.65037677  1
  Al0+  Al91  1  0.07190780  0.67665604  0.98492029  1
  Al0+  Al92  1  0.67678144  0.43062307  0.68445364  1
  Al0+  Al93  1  0.42826964  0.31847558  0.65185205  1
  Al0+  Al94  1  0.32025316  0.06861886  0.34488160  1
  Al0+  Al95  1  0.42900666  0.32148219  0.31972654  1
  Si0+  Si96  1  0.06939711  0.67799972  0.31997740  1
  Si0+  Si97  1  0.06934850  0.67584002  0.64913890  1
  Si0+  Si98  1  0.17602608  0.92805495  0.68282732  1
  Si0+  Si99  1  0.57488168  0.17876338  0.65298423  1
  Si0+  Si100  1  0.17511319  0.92720928  0.34999323  1
  Si0+  Si101  1  0.82417909  0.07129499  0.34770263  1
  Si0+  Si102  1  0.82276757  0.07299092  0.01698898  1
  Si0+  Si103  1  0.92986009  0.82147977  0.31966382  1
  Si0+  Si104  1  0.06882547  0.17785975  0.65145048  1
  Si0+  Si105  1  0.17663407  0.42739872  0.01315586  1
  Si0+  Si106  1  0.32360438  0.07416444  0.01728365  1
  Si0+  Si107  1  0.92682207  0.32034069  0.98339543  1
  Si0+  Si108  1  0.92880578  0.32396027  0.31581423  1
  Si0+  Si109  1  0.32045966  0.56899134  0.01399412  1
  Si0+  Si110  1  0.92813569  0.32010885  0.65156573  1
  Si0+  Si111  1  0.82177176  0.57361566  0.34803603  1
  Si0+  Si112  1  0.67872888  0.43070433  0.01681416  1
  Si0+  Si113  1  0.82232194  0.57130245  0.01536335  1
  Si0+  Si114  1  0.57630059  0.17900935  0.98290418  1
  Si0+  Si115  1  0.07018942  0.18033245  0.98227478  1
  Si0+  Si116  1  0.68135212  0.92960754  0.01486618  1
  Si0+  Si117  1  0.93055263  0.82244043  0.65008643  1
  Si0+  Si118  1  0.17678501  0.42689614  0.68282384  1
  Si0+  Si119  1  0.67825817  0.92716883  0.68585760  1
  O2-  O120  1  0.26140985  -0.00064534  0.06100401  1
  O2-  O121  1  0.24794068  -0.00867327  0.39295720  1
  O2-  O122  1  0.25188681  -0.01042500  0.72557609  1
  O2-  O123  1  0.24611012  0.49980459  0.05433195  1
  O2-  O124  1  0.25415027  0.49408390  0.39680357  1
  O2-  O125  1  0.24488646  0.49439999  0.72920711  1
  O2-  O126  1  0.75245406  0.00145892  0.05814064  1
  O2-  O127  1  0.75014651  0.00908263  0.39173341  1
  O2-  O128  1  0.74675306  -0.00309235  0.72975880  1
  O2-  O129  1  0.74735942  0.50492971  0.05832112  1
  O2-  O130  1  0.75188939  0.50622633  0.39095248  1
  O2-  O131  1  0.74487516  0.50732313  0.73454151  1
  O2-  O132  1  -0.00131122  0.25653099  0.27086523  1
  O2-  O133  1  -0.00097429  0.24964482  0.60887468  1
  O2-  O134  1  -0.00169930  0.25028161  0.93996146  1
  O2-  O135  1  -0.00022219  0.74995126  0.27779300  1
  O2-  O136  1  -0.00219810  0.74766889  0.60783915  1
  O2-  O137  1  0.00099174  0.74957060  0.93387710  1
  O2-  O138  1  0.50301775  0.25093988  0.26946402  1
  O2-  O139  1  0.50390249  0.24374095  0.60804291  1
  O2-  O140  1  0.50338562  0.24264402  0.93905552  1
  O2-  O141  1  0.49735258  0.74819656  0.27023688  1
  O2-  O142  1  0.49948307  0.75250262  0.60148100  1
  O2-  O143  1  0.49893317  0.75091849  0.93608789  1
  O2-  O144  1  0.07010999  0.18142014  0.08714314  1
  O2-  O145  1  0.06614271  0.17575582  0.43148723  1
  O2-  O146  1  0.06699139  0.17880911  0.75697436  1
  O2-  O147  1  0.06846398  0.67554710  0.09889102  1
  O2-  O148  1  0.06702152  0.67788048  0.42513711  1
  O2-  O149  1  0.06924332  0.67540685  0.75401733  1
  O2-  O150  1  0.58048740  0.18013431  0.08796081  1
  O2-  O151  1  0.57245349  0.17853126  0.43425879  1
  O2-  O152  1  0.57619325  0.18133768  0.75896587  1
  O2-  O153  1  0.57048835  0.67820526  0.09831597  1
  O2-  O154  1  0.57525612  0.68068131  0.43246866  1
  O2-  O155  1  0.56845355  0.68253160  0.76408871  1
  O2-  O156  1  0.17663984  0.43292221  0.23231863  1
  O2-  O157  1  0.17388472  0.42816044  0.57773969  1
  O2-  O158  1  0.17483645  0.42568632  0.90818172  1
  O2-  O159  1  0.17142338  0.92858242  0.24449570  1
  O2-  O160  1  0.16722603  0.93285762  0.57777288  1
  O2-  O161  1  0.17854190  0.93460771  0.90131266  1
  O2-  O162  1  0.68224230  0.42882897  0.23216567  1
  O2-  O163  1  0.68055488  0.42659065  0.57116298  1
  O2-  O164  1  0.68101365  0.42832788  0.91221424  1
  O2-  O165  1  0.68334766  0.92782327  0.23330522  1
  O2-  O166  1  0.67973674  0.92843305  0.58026437  1
  O2-  O167  1  0.68321205  0.93289809  0.90995588  1
  O2-  O168  1  0.42827452  0.31994377  0.09791535  1
  O2-  O169  1  0.42966703  0.32018750  0.43294287  1
  O2-  O170  1  0.42865245  0.31646553  0.76543676  1
  O2-  O171  1  0.43004729  0.82300728  0.09925730  1
  O2-  O172  1  0.42934029  0.82240240  0.43272901  1
  O2-  O173  1  0.42755612  0.82175603  0.76494782  1
  O2-  O174  1  0.92480249  0.31888450  0.08823170  1
  O2-  O175  1  0.92910713  0.32326768  0.42129197  1
  O2-  O176  1  0.93113590  0.31874466  0.75712079  1
  O2-  O177  1  0.92987106  0.82013310  0.09835302  1
  O2-  O178  1  0.93156062  0.82348695  0.42486432  1
  O2-  O179  1  0.93469364  0.82672592  0.75462473  1
  O2-  O180  1  0.31693858  0.06911291  0.23165388  1
  O2-  O181  1  0.31754255  0.07436431  0.56853860  1
  O2-  O182  1  0.31800019  0.07670728  0.91166253  1
  O2-  O183  1  0.31837274  0.57329403  0.23348604  1
  O2-  O184  1  0.31732676  0.57107877  0.56955703  1
  O2-  O185  1  0.32016045  0.56717592  0.90889060  1
  O2-  O186  1  0.82772763  0.06706702  0.24190464  1
  O2-  O187  1  0.82518995  0.06570156  0.56698883  1
  O2-  O188  1  0.82203294  0.07465697  0.91183881  1
  O2-  O189  1  0.82434402  0.57266049  0.24199804  1
  O2-  O190  1  0.82816705  0.56519582  0.57014541  1
  O2-  O191  1  0.82635008  0.56697857  0.91109692  1
  O2-  O192  1  0.03614202  0.08456119  0.26092662  1
  O2-  O193  1  0.03770604  0.08697445  0.60488412  1
  O2-  O194  1  0.04183607  0.08916795  0.93488895  1
  O2-  O195  1  0.04097366  0.58706678  0.27097556  1
  O2-  O196  1  0.03867631  0.58449629  0.60251464  1
  O2-  O197  1  0.04221236  0.57846402  0.93134235  1
  O2-  O198  1  0.54322122  0.08079916  0.26653515  1
  O2-  O199  1  0.55267907  0.08253369  0.61246558  1
  O2-  O200  1  0.55730910  0.08426179  0.93685677  1
  O2-  O201  1  0.54739746  0.58008631  0.26717136  1
  O2-  O202  1  0.54156850  0.58014257  0.60258741  1
  O2-  O203  1  0.54105939  0.58038469  0.93279717  1
  O2-  O204  1  0.16505919  0.20695087  0.25867797  1
  O2-  O205  1  0.16011578  0.20487772  0.60421457  1
  O2-  O206  1  0.16048361  0.20934606  0.93304542  1
  O2-  O207  1  0.16048490  0.70492140  0.27187238  1
  O2-  O208  1  0.15962708  0.70446772  0.60030310  1
  O2-  O209  1  0.16944995  0.70517551  0.93173912  1
  O2-  O210  1  0.67471642  0.20013168  0.26937106  1
  O2-  O211  1  0.66887780  0.20469104  0.60822854  1
  O2-  O212  1  0.66887644  0.20919460  0.93601984  1
  O2-  O213  1  0.67101691  0.71042702  0.26698013  1
  O2-  O214  1  0.67310412  0.70353293  0.60169592  1
  O2-  O215  1  0.66979065  0.70393381  0.93276314  1
  O2-  O216  1  0.08345609  0.45059178  0.06043931  1
  O2-  O217  1  0.08050915  0.45904607  0.40121255  1
  O2-  O218  1  0.08291983  0.45206124  0.72934972  1
  O2-  O219  1  0.08644814  0.96473302  0.06878180  1
  O2-  O220  1  0.08290790  0.95886542  0.39641191  1
  O2-  O221  1  0.08715103  0.96271002  0.73388184  1
  O2-  O222  1  0.58566276  0.45622525  0.06229695  1
  O2-  O223  1  0.58321081  0.45581906  0.40071347  1
  O2-  O224  1  0.57864258  0.45631848  0.73856682  1
  O2-  O225  1  0.58979753  0.95809328  0.06269895  1
  O2-  O226  1  0.58352914  0.95913220  0.40280874  1
  O2-  O227  1  0.58618473  0.95267525  0.73448541  1
  O2-  O228  1  0.20642344  0.33509324  0.05895865  1
  O2-  O229  1  0.19430625  0.32516742  0.39379948  1
  O2-  O230  1  0.19971757  0.33224166  0.72818506  1
  O2-  O231  1  0.20487530  0.83004567  0.06750546  1
  O2-  O232  1  0.19218632  0.83207273  0.39548107  1
  O2-  O233  1  0.19201319  0.83149724  0.72531229  1
  O2-  O234  1  0.71163141  0.34014257  0.06403267  1
  O2-  O235  1  0.71406078  0.33304540  0.40049607  1
  O2-  O236  1  0.71178485  0.33480478  0.74023850  1
  O2-  O237  1  0.71112417  0.83754188  0.06050810  1
  O2-  O238  1  0.71589503  0.83668738  0.40393040  1
  O2-  O239  1  0.70799154  0.83488864  0.73106870  1
  O2-  O240  1  0.45770587  0.41960026  0.26640995  1
  O2-  O241  1  0.45850297  0.41601940  0.60192631  1
  O2-  O242  1  0.46227597  0.41288134  0.93046890  1
  O2-  O243  1  0.45652304  0.91920178  0.26692793  1
  O2-  O244  1  0.45482607  0.92456372  0.60478859  1
  O2-  O245  1  0.45795029  0.92356339  0.93462374  1
  O2-  O246  1  0.95281020  0.41813549  0.26941905  1
  O2-  O247  1  0.95557039  0.41126089  0.60354307  1
  O2-  O248  1  0.95478126  0.41140077  0.93545349  1
  O2-  O249  1  0.95731083  0.91174553  0.26942365  1
  O2-  O250  1  0.96371219  0.91224372  0.60115005  1
  O2-  O251  1  0.96013913  0.92161526  0.93300311  1
  O2-  O252  1  0.33081083  0.29202999  0.26672742  1
  O2-  O253  1  0.33060992  0.28741211  0.60061775  1
  O2-  O254  1  0.33282459  0.28857576  0.92887444  1
  O2-  O255  1  0.32565199  0.79590254  0.26966018  1
  O2-  O256  1  0.32557299  0.79764059  0.60124643  1
  O2-  O257  1  0.32953625  0.79861085  0.93440003  1
  O2-  O258  1  0.83704279  0.29654228  0.26713627  1
  O2-  O259  1  0.83610975  0.29077936  0.60678338  1
  O2-  O260  1  0.83604823  0.29115281  0.93487481  1
  O2-  O261  1  0.83850863  0.79401297  0.27211428  1
  O2-  O262  1  0.83785929  0.79950741  0.60282862  1
  O2-  O263  1  0.83292722  0.79639176  0.92903422  1
  O2-  O264  1  0.42142605  0.05843197  0.05756091  1
  O2-  O265  1  0.41642926  0.04273724  0.40094030  1
  O2-  O266  1  0.41859835  0.04827195  0.73859805  1
  O2-  O267  1  0.41095781  0.53636849  0.06090223  1
  O2-  O268  1  0.42052345  0.54638583  0.40051921  1
  O2-  O269  1  0.41379309  0.53939416  0.73761276  1
  O2-  O270  1  0.91575971  0.04722894  0.06259987  1
  O2-  O271  1  0.91510423  0.03818889  0.39531985  1
  O2-  O272  1  0.91667742  0.03660953  0.73640847  1
  O2-  O273  1  0.91250013  0.53852128  0.06441116  1
  O2-  O274  1  0.91455479  0.54680547  0.39503752  1
  O2-  O275  1  0.91789813  0.53530856  0.73888887  1
  O2-  O276  1  0.28857812  0.16554550  0.06248580  1
  O2-  O277  1  0.28376352  0.16365236  0.39814016  1
  O2-  O278  1  0.28148778  0.16385121  0.73737031  1
  O2-  O279  1  0.29497604  0.66162250  0.05999106  1
  O2-  O280  1  0.28590993  0.66732864  0.40243738  1
  O2-  O281  1  0.28370992  0.66692444  0.73558377  1
  O2-  O282  1  0.79615021  0.16532405  0.06443724  1
  O2-  O283  1  0.80934200  0.16768352  0.39074907  1
  O2-  O284  1  0.79428911  0.16514335  0.73711184  1
  O2-  O285  1  0.80009493  0.66606661  0.05924072  1
  O2-  O286  1  0.80095399  0.66768346  0.39442568  1
  O2-  O287  1  0.80707309  0.67512872  0.73182064  1
