# generated using pymatgen
data_Ca2Al2SiO7
_symmetry_space_group_name_H-M   'P 1'
_cell_length_a   15.47188246
_cell_length_b   15.47064886
_cell_length_c   15.29103228
_cell_angle_alpha   90.00070267
_cell_angle_beta   89.98946672
_cell_angle_gamma   90.02310376
_symmetry_Int_Tables_number   1
_chemical_formula_structural   Ca2Al2SiO7
_chemical_formula_sum   'Ca48 Al48 Si24 O168'
_cell_volume   3660.06205491
_cell_formula_units_Z   24
loop_
 _symmetry_equiv_pos_site_id
 _symmetry_equiv_pos_as_xyz
  1  'x, y, z'
loop_
 _atom_type_symbol
 _atom_type_oxidation_number
  Ca2+  2.0
  Al0+  0.0
  Si0+  0.0
  O2-  -2.0
loop_
 _atom_site_type_symbol
 _atom_site_label
 _atom_site_symmetry_multiplicity
 _atom_site_fract_x
 _atom_site_fract_y
 _atom_site_fract_z
 _atom_site_occupancy
  Ca2+  Ca0  1  0.16908631  0.08802047  0.16307022  1
  Ca2+  Ca1  1  0.17236781  0.07696341  0.51080917  1
  Ca2+  Ca2  1  0.17238107  0.08170755  0.83623202  1
  Ca2+  Ca3  1  0.16865879  0.57175918  0.17414670  1
  Ca2+  Ca4  1  0.17563420  0.57870010  0.50954749  1
  Ca2+  Ca5  1  0.15947591  0.56999841  0.83457629  1
  Ca2+  Ca6  1  0.68229022  0.08074944  0.17024125  1
  Ca2+  Ca7  1  0.67680312  0.08286008  0.50808851  1
  Ca2+  Ca8  1  0.67800033  0.08849540  0.83469664  1
  Ca2+  Ca9  1  0.66475201  0.57939580  0.17006488  1
  Ca2+  Ca10  1  0.66848498  0.57331915  0.51035361  1
  Ca2+  Ca11  1  0.66669903  0.58581804  0.83019354  1
  Ca2+  Ca12  1  0.08261248  0.33015728  0.15503077  1
  Ca2+  Ca13  1  0.08025356  0.34062822  0.50032594  1
  Ca2+  Ca14  1  0.07844374  0.33189445  0.83006383  1
  Ca2+  Ca15  1  0.07458765  0.83149066  0.16281461  1
  Ca2+  Ca16  1  0.07443549  0.83897801  0.49939976  1
  Ca2+  Ca17  1  0.07412139  0.84006542  0.82727414  1
  Ca2+  Ca18  1  0.58277548  0.33500560  0.16450504  1
  Ca2+  Ca19  1  0.59070759  0.33216530  0.50097084  1
  Ca2+  Ca20  1  0.58219220  0.32775268  0.82094836  1
  Ca2+  Ca21  1  0.57634541  0.82444736  0.15387651  1
  Ca2+  Ca22  1  0.58268092  0.82515407  0.50121736  1
  Ca2+  Ca23  1  0.57858314  0.82325155  0.82954287  1
  Ca2+  Ca24  1  0.32021133  0.42014877  0.17221189  1
  Ca2+  Ca25  1  0.32128568  0.42407906  0.50542242  1
  Ca2+  Ca26  1  0.32155373  0.41798075  0.83300704  1
  Ca2+  Ca27  1  0.33818612  0.91972833  0.16480871  1
  Ca2+  Ca28  1  0.32376105  0.92085550  0.51296438  1
  Ca2+  Ca29  1  0.33644165  0.92593242  0.83736305  1
  Ca2+  Ca30  1  0.82839249  0.41438728  0.17013589  1
  Ca2+  Ca31  1  0.82525980  0.42038007  0.51231805  1
  Ca2+  Ca32  1  0.83379825  0.41609354  0.83289390  1
  Ca2+  Ca33  1  0.84813075  0.92703884  0.16783291  1
  Ca2+  Ca34  1  0.84211957  0.92571633  0.50656866  1
  Ca2+  Ca35  1  0.84129929  0.92657212  0.83774606  1
  Ca2+  Ca36  1  0.41811975  0.16756155  0.15756931  1
  Ca2+  Ca37  1  0.42278918  0.16237994  0.50175900  1
  Ca2+  Ca38  1  0.42029431  0.16212658  0.82436976  1
  Ca2+  Ca39  1  0.42030035  0.66780052  0.15782261  1
  Ca2+  Ca40  1  0.41852116  0.65285859  0.49963878  1
  Ca2+  Ca41  1  0.42595727  0.66147698  0.82692621  1
  Ca2+  Ca42  1  0.92184371  0.17103038  0.15592187  1
  Ca2+  Ca43  1  0.91059406  0.17063254  0.50102979  1
  Ca2+  Ca44  1  0.91413395  0.17569776  0.82856544  1
  Ca2+  Ca45  1  0.91396927  0.67912011  0.15991771  1
  Ca2+  Ca46  1  0.90865648  0.67840346  0.50035519  1
  Ca2+  Ca47  1  0.91230507  0.67839073  0.82354867  1
  Al0+  Al48  1  0.00377221  0.00100182  -0.00143852  1
  Al0+  Al49  1  0.00229109  0.00283858  0.33261678  1
  Al0+  Al50  1  0.00051121  0.00260284  0.66973308  1
  Al0+  Al51  1  -0.00321586  0.50001380  0.00424627  1
  Al0+  Al52  1  -0.00239720  0.50119540  0.33511596  1
  Al0+  Al53  1  -0.00185576  0.50188604  0.66822814  1
  Al0+  Al54  1  0.50170071  -0.00106874  0.00211278  1
  Al0+  Al55  1  0.50366219  -0.00033014  0.33129284  1
  Al0+  Al56  1  0.50158259  -0.00142477  0.66274811  1
  Al0+  Al57  1  0.50008440  0.49817753  -0.00326117  1
  Al0+  Al58  1  0.49958209  0.49708754  0.33711952  1
  Al0+  Al59  1  0.49897575  0.49726222  0.66781675  1
  Al0+  Al60  1  0.25070413  0.24972250  0.00446822  1
  Al0+  Al61  1  0.25145198  0.25022497  0.33670285  1
  Al0+  Al62  1  0.25072950  0.24971413  0.67101290  1
  Al0+  Al63  1  0.25022420  0.75112841  -0.00319284  1
  Al0+  Al64  1  0.25029986  0.75101991  0.33463500  1
  Al0+  Al65  1  0.24882159  0.75018893  0.67532348  1
  Al0+  Al66  1  0.75024551  0.24969135  0.00320860  1
  Al0+  Al67  1  0.75102489  0.24805658  0.33830216  1
  Al0+  Al68  1  0.74965285  0.24914558  0.66507136  1
  Al0+  Al69  1  0.74867906  0.74945380  -0.00644546  1
  Al0+  Al70  1  0.74719365  0.75270456  0.32597242  1
  Al0+  Al71  1  0.74749613  0.75025832  0.65890730  1
  Al0+  Al72  1  0.92995027  0.32189301  0.65199379  1
  Al0+  Al73  1  0.82246642  0.07064591  0.01413707  1
  Al0+  Al74  1  0.32272205  0.06927671  0.01509089  1
  Al0+  Al75  1  0.57113785  0.17781886  0.65225960  1
  Al0+  Al76  1  0.17606454  0.42910662  0.68303467  1
  Al0+  Al77  1  0.68101845  0.42954683  0.34644769  1
  Al0+  Al78  1  0.07389825  0.18028909  0.98413703  1
  Al0+  Al79  1  0.68019428  0.42820799  0.68316681  1
  Al0+  Al80  1  0.32190642  0.57130127  0.68420532  1
  Al0+  Al81  1  0.81956096  0.07013456  0.68104127  1
  Al0+  Al82  1  0.31931586  0.57212980  0.34657856  1
  Al0+  Al83  1  0.32351458  0.06947901  0.68048086  1
  Al0+  Al84  1  0.17708523  0.92900553  0.68258221  1
  Al0+  Al85  1  0.92674228  0.32149429  0.98566023  1
  Al0+  Al86  1  0.92978728  0.82225160  0.31876354  1
  Al0+  Al87  1  0.56801855  0.67744707  0.64943410  1
  Al0+  Al88  1  0.82243976  0.06784227  0.34795910  1
  Al0+  Al89  1  0.17768613  0.43038181  0.01477669  1
  Al0+  Al90  1  0.81946099  0.57388564  0.68094479  1
  Al0+  Al91  1  0.42788236  0.82276511  0.98386578  1
  Al0+  Al92  1  0.56963983  0.67600758  0.98328854  1
  Al0+  Al93  1  0.93011835  0.82282905  0.65242793  1
  Al0+  Al94  1  0.93091753  0.82077434  0.98553441  1
  Al0+  Al95  1  0.17572865  0.42700941  0.34882094  1
  Si0+  Si96  1  0.82031695  0.57676649  0.34763722  1
  Si0+  Si97  1  0.42820171  0.82293405  0.31890748  1
  Si0+  Si98  1  0.92758738  0.32146892  0.31983721  1
  Si0+  Si99  1  0.67593606  0.92756895  0.35024188  1
  Si0+  Si100  1  0.32475526  0.07110043  0.34727062  1
  Si0+  Si101  1  0.42648475  0.82101275  0.64918112  1
  Si0+  Si102  1  0.57123134  0.17950929  0.98743158  1
  Si0+  Si103  1  0.07257011  0.67789537  0.65075049  1
  Si0+  Si104  1  0.42920034  0.31974359  0.98583951  1
  Si0+  Si105  1  0.68039149  0.92694537  0.01637623  1
  Si0+  Si106  1  0.07306277  0.18157250  0.31930954  1
  Si0+  Si107  1  0.67791353  0.42826403  0.01492645  1
  Si0+  Si108  1  0.07157027  0.67656968  0.98501072  1
  Si0+  Si109  1  0.57287033  0.17824758  0.31591970  1
  Si0+  Si110  1  0.67762410  0.92646926  0.68246713  1
  Si0+  Si111  1  0.42657369  0.32052017  0.64794031  1
  Si0+  Si112  1  0.56799912  0.67716971  0.31796807  1
  Si0+  Si113  1  0.32318580  0.57108450  0.01537394  1
  Si0+  Si114  1  0.07281879  0.17981501  0.64928832  1
  Si0+  Si115  1  0.17820705  0.92661008  0.01943943  1
  Si0+  Si116  1  0.81889860  0.57317275  0.01559095  1
  Si0+  Si117  1  0.42987600  0.31871285  0.31763406  1
  Si0+  Si118  1  0.07303698  0.67835462  0.31755167  1
  Si0+  Si119  1  0.18103740  0.93088705  0.34637406  1
  O2-  O120  1  0.24905499  -0.00597713  0.06355883  1
  O2-  O121  1  0.25549808  -0.00143504  0.38803526  1
  O2-  O122  1  0.25291178  -0.00255858  0.73129568  1
  O2-  O123  1  0.25083387  0.50738616  0.06097797  1
  O2-  O124  1  0.24336182  0.50420702  0.39576718  1
  O2-  O125  1  0.24642523  0.50277704  0.73314166  1
  O2-  O126  1  0.75191878  -0.00792731  0.06218794  1
  O2-  O127  1  0.74931721  -0.00896101  0.39364237  1
  O2-  O128  1  0.74688519  -0.00638527  0.72759124  1
  O2-  O129  1  0.74846363  0.50024269  0.05669454  1
  O2-  O130  1  0.75544949  0.50469511  0.39121210  1
  O2-  O131  1  0.75062535  0.50059075  0.73410910  1
  O2-  O132  1  0.00468905  0.25637995  0.27863698  1
  O2-  O133  1  0.00690488  0.25013180  0.60322410  1
  O2-  O134  1  -0.00071851  0.25023200  0.93590109  1
  O2-  O135  1  0.00070772  0.74332098  0.27253249  1
  O2-  O136  1  0.00483385  0.74766418  0.60557206  1
  O2-  O137  1  0.00607423  0.74706650  0.93937688  1
  O2-  O138  1  0.50040600  0.24756405  0.27323856  1
  O2-  O139  1  0.49547690  0.25118316  0.60415401  1
  O2-  O140  1  0.49929211  0.24810313  0.94424312  1
  O2-  O141  1  0.49691874  0.74904838  0.27711130  1
  O2-  O142  1  0.48975145  0.74871372  0.60183297  1
  O2-  O143  1  0.49513984  0.74626921  0.93506649  1
  O2-  O144  1  0.07302424  0.18286024  0.09913220  1
  O2-  O145  1  0.07423781  0.17818364  0.42391712  1
  O2-  O146  1  0.07207457  0.17948603  0.75437354  1
  O2-  O147  1  0.06885031  0.67746701  0.09126758  1
  O2-  O148  1  0.07604987  0.68162774  0.42245463  1
  O2-  O149  1  0.06953200  0.67749996  0.75629493  1
  O2-  O150  1  0.57104140  0.18245851  0.09319892  1
  O2-  O151  1  0.57161228  0.17659529  0.42049290  1
  O2-  O152  1  0.57015819  0.17946585  0.76582940  1
  O2-  O153  1  0.56835330  0.67521188  0.09814200  1
  O2-  O154  1  0.56852862  0.67750232  0.42253495  1
  O2-  O155  1  0.56841963  0.68038299  0.76193257  1
  O2-  O156  1  0.17944188  0.42558646  0.23497193  1
  O2-  O157  1  0.17808663  0.43047185  0.56930552  1
  O2-  O158  1  0.17870168  0.42994760  0.90258233  1
  O2-  O159  1  0.18090903  0.93138639  0.24146104  1
  O2-  O160  1  0.17783204  0.93244010  0.56756002  1
  O2-  O161  1  0.17648166  0.92785871  0.91476365  1
  O2-  O162  1  0.68061380  0.43031745  0.23246982  1
  O2-  O163  1  0.68234296  0.42943763  0.56913286  1
  O2-  O164  1  0.67626999  0.42524892  0.91091769  1
  O2-  O165  1  0.66980561  0.93042381  0.24501837  1
  O2-  O166  1  0.67752030  0.92840572  0.57628287  1
  O2-  O167  1  0.67934499  0.92930684  0.91129318  1
  O2-  O168  1  0.43176911  0.32017188  0.09169791  1
  O2-  O169  1  0.42937344  0.31634677  0.42200542  1
  O2-  O170  1  0.42710173  0.31946404  0.75387159  1
  O2-  O171  1  0.43174074  0.82172810  0.09875927  1
  O2-  O172  1  0.42939697  0.82743040  0.42327450  1
  O2-  O173  1  0.43217710  0.82433909  0.75402251  1
  O2-  O174  1  0.92532295  0.32005459  0.10040178  1
  O2-  O175  1  0.92538696  0.31907419  0.42445917  1
  O2-  O176  1  0.92858844  0.31888194  0.76459308  1
  O2-  O177  1  0.93257092  0.81922974  0.09936650  1
  O2-  O178  1  0.93206275  0.82333655  0.43144941  1
  O2-  O179  1  0.93066979  0.82284980  0.76527079  1
  O2-  O180  1  0.32523837  0.07142093  0.24223085  1
  O2-  O181  1  0.32235162  0.06711732  0.56568874  1
  O2-  O182  1  0.32533754  0.06925996  0.90312318  1
  O2-  O183  1  0.31993138  0.57075814  0.23250883  1
  O2-  O184  1  0.32031088  0.56808410  0.57019501  1
  O2-  O185  1  0.32547396  0.56625674  0.91076444  1
  O2-  O186  1  0.82173428  0.06861948  0.23464503  1
  O2-  O187  1  0.81885936  0.06876566  0.56747522  1
  O2-  O188  1  0.81805100  0.07303507  0.90178587  1
  O2-  O189  1  0.81791096  0.57731508  0.24155524  1
  O2-  O190  1  0.81640829  0.57396788  0.56667508  1
  O2-  O191  1  0.81942976  0.57531292  0.91136916  1
  O2-  O192  1  0.04269040  0.09149729  0.26975297  1
  O2-  O193  1  0.04388376  0.08738359  0.60223243  1
  O2-  O194  1  0.05122649  0.08032820  0.93451672  1
  O2-  O195  1  0.04983345  0.58308931  0.27246705  1
  O2-  O196  1  0.04716328  0.58523837  0.60306634  1
  O2-  O197  1  0.04235261  0.58395836  0.94045306  1
  O2-  O198  1  0.54642431  0.08617228  0.26751212  1
  O2-  O199  1  0.54163088  0.08160692  0.59507251  1
  O2-  O200  1  0.54620532  0.08695974  0.94223140  1
  O2-  O201  1  0.54022222  0.58483828  0.27091613  1
  O2-  O202  1  0.53887716  0.57912167  0.59714384  1
  O2-  O203  1  0.54354665  0.57713137  0.93057404  1
  O2-  O204  1  0.16640536  0.20617209  0.27183359  1
  O2-  O205  1  0.16836535  0.20172631  0.60443523  1
  O2-  O206  1  0.17251877  0.20973573  0.93349013  1
  O2-  O207  1  0.16516432  0.70770469  0.26901967  1
  O2-  O208  1  0.16776318  0.70251319  0.60681267  1
  O2-  O209  1  0.16677661  0.69629082  0.94099390  1
  O2-  O210  1  0.66443363  0.20892809  0.26929017  1
  O2-  O211  1  0.66575531  0.21071000  0.59575146  1
  O2-  O212  1  0.66200399  0.20930181  0.94068735  1
  O2-  O213  1  0.65902535  0.70474147  0.26798970  1
  O2-  O214  1  0.66208443  0.71166753  0.59193393  1
  O2-  O215  1  0.66659073  0.70615429  0.93011795  1
  O2-  O216  1  0.08052429  0.45932619  0.07015806  1
  O2-  O217  1  0.07444783  0.44919021  0.39762033  1
  O2-  O218  1  0.07808661  0.45727602  0.73572296  1
  O2-  O219  1  0.08644795  0.95563296  0.06820202  1
  O2-  O220  1  0.09169114  0.96375472  0.39474309  1
  O2-  O221  1  0.08213984  0.96320280  0.73710571  1
  O2-  O222  1  0.58588230  0.45621519  0.06359788  1
  O2-  O223  1  0.58432117  0.45746422  0.40017914  1
  O2-  O224  1  0.58041742  0.45270388  0.73302069  1
  O2-  O225  1  0.58877528  0.95607017  0.06539952  1
  O2-  O226  1  0.58479425  0.95759719  0.39957044  1
  O2-  O227  1  0.58448919  0.95275154  0.72758496  1
  O2-  O228  1  0.21326803  0.33572149  0.06995173  1
  O2-  O229  1  0.21004953  0.33075888  0.40255246  1
  O2-  O230  1  0.20673326  0.33135237  0.73495153  1
  O2-  O231  1  0.20145529  0.83174606  0.06570958  1
  O2-  O232  1  0.20501565  0.83877225  0.39428617  1
  O2-  O233  1  0.19648588  0.82963357  0.73524338  1
  O2-  O234  1  0.70612219  0.33787365  0.06593010  1
  O2-  O235  1  0.71027697  0.33299226  0.39994521  1
  O2-  O236  1  0.70841725  0.32974284  0.73424237  1
  O2-  O237  1  0.70223652  0.83151143  0.06107196  1
  O2-  O238  1  0.69647111  0.83131289  0.39233004  1
  O2-  O239  1  0.70119966  0.83235659  0.72594157  1
  O2-  O240  1  0.45976976  0.40990584  0.26953945  1
  O2-  O241  1  0.45374474  0.41287536  0.60112057  1
  O2-  O242  1  0.45775315  0.40988762  0.93722730  1
  O2-  O243  1  0.45922320  0.91356918  0.26935264  1
  O2-  O244  1  0.45668344  0.91217520  0.59938196  1
  O2-  O245  1  0.46256753  0.91972083  0.93229346  1
  O2-  O246  1  0.94559410  0.41691716  0.27415627  1
  O2-  O247  1  0.95626627  0.42035463  0.59852918  1
  O2-  O248  1  0.95139524  0.42206136  0.93690411  1
  O2-  O249  1  0.96787511  0.91740846  0.26543725  1
  O2-  O250  1  0.96412917  0.91942214  0.59908776  1
  O2-  O251  1  0.96123740  0.91775295  0.93400940  1
  O2-  O252  1  0.33807113  0.28993118  0.26951446  1
  O2-  O253  1  0.33319659  0.29376790  0.60153933  1
  O2-  O254  1  0.33781199  0.29201341  0.94009008  1
  O2-  O255  1  0.33542722  0.79886698  0.27128503  1
  O2-  O256  1  0.32943217  0.80142212  0.60783994  1
  O2-  O257  1  0.32667455  0.80445999  0.93432345  1
  O2-  O258  1  0.83774034  0.28730207  0.27158171  1
  O2-  O259  1  0.83481118  0.28660303  0.59732290  1
  O2-  O260  1  0.82812727  0.29182159  0.93427292  1
  O2-  O261  1  0.83113451  0.79757913  0.26427438  1
  O2-  O262  1  0.83371502  0.79336951  0.59653224  1
  O2-  O263  1  0.83407538  0.79165039  0.93309798  1
  O2-  O264  1  0.41959249  0.03904563  0.07146865  1
  O2-  O265  1  0.41800407  0.04514065  0.39238671  1
  O2-  O266  1  0.42269938  0.04118422  0.73129410  1
  O2-  O267  1  0.41548524  0.54036338  0.06290248  1
  O2-  O268  1  0.41568652  0.53801654  0.39922412  1
  O2-  O269  1  0.41834384  0.53767258  0.73617517  1
  O2-  O270  1  0.92070636  0.04192060  0.06681478  1
  O2-  O271  1  0.91986881  0.03941924  0.40106047  1
  O2-  O272  1  0.91612451  0.04253309  0.73421262  1
  O2-  O273  1  0.90955413  0.54714065  0.06651150  1
  O2-  O274  1  0.91562313  0.55738085  0.39163497  1
  O2-  O275  1  0.91850951  0.55063617  0.73283218  1
  O2-  O276  1  0.29173713  0.16533353  0.07143991  1
  O2-  O277  1  0.29631690  0.16171990  0.39525728  1
  O2-  O278  1  0.29831305  0.16805452  0.73246614  1
  O2-  O279  1  0.30329942  0.66783408  0.05765330  1
  O2-  O280  1  0.29755884  0.67244100  0.39923867  1
  O2-  O281  1  0.30213668  0.67156241  0.73532518  1
  O2-  O282  1  0.78665944  0.16525230  0.07072036  1
  O2-  O283  1  0.78839940  0.16277323  0.40206777  1
  O2-  O284  1  0.78477840  0.16489620  0.73406973  1
  O2-  O285  1  0.78812951  0.66417749  0.06418142  1
  O2-  O286  1  0.79137286  0.67014549  0.39193444  1
  O2-  O287  1  0.78717824  0.67222337  0.73155285  1
