# generated using pymatgen
data_Ca2Al2SiO7
_symmetry_space_group_name_H-M   'P 1'
_cell_length_a   15.45910592
_cell_length_b   15.45914967
_cell_length_c   15.28376250
_cell_angle_alpha   90.00323387
_cell_angle_beta   90.00794092
_cell_angle_gamma   89.99805072
_symmetry_Int_Tables_number   1
_chemical_formula_structural   Ca2Al2SiO7
_chemical_formula_sum   'Ca48 Al48 Si24 O168'
_cell_volume   3652.58431693
_cell_formula_units_Z   24
loop_
 _symmetry_equiv_pos_site_id
 _symmetry_equiv_pos_as_xyz
  1  'x, y, z'
loop_
 _atom_type_symbol
 _atom_type_oxidation_number
  Ca2+  2.0
  Al0+  0.0
  Si0+  0.0
  O2-  -2.0
loop_
 _atom_site_type_symbol
 _atom_site_label
 _atom_site_symmetry_multiplicity
 _atom_site_fract_x
 _atom_site_fract_y
 _atom_site_fract_z
 _atom_site_occupancy
  Ca2+  Ca0  1  0.16876865  0.07317865  0.17780702  1
  Ca2+  Ca1  1  0.17218798  0.08528045  0.50586420  1
  Ca2+  Ca2  1  0.17030422  0.08221337  0.83323456  1
  Ca2+  Ca3  1  0.16384766  0.57933311  0.17169519  1
  Ca2+  Ca4  1  0.16252823  0.57104474  0.50802342  1
  Ca2+  Ca5  1  0.16013685  0.58197417  0.83265306  1
  Ca2+  Ca6  1  0.66723850  0.07733938  0.16713864  1
  Ca2+  Ca7  1  0.67456543  0.08287415  0.50830540  1
  Ca2+  Ca8  1  0.67322659  0.07988312  0.83529944  1
  Ca2+  Ca9  1  0.66950789  0.57510213  0.17337871  1
  Ca2+  Ca10  1  0.67590927  0.57940625  0.50889463  1
  Ca2+  Ca11  1  0.66439144  0.57815500  0.83644616  1
  Ca2+  Ca12  1  0.08020487  0.33018521  0.16407377  1
  Ca2+  Ca13  1  0.08555388  0.32650930  0.49853483  1
  Ca2+  Ca14  1  0.06990120  0.33199503  0.82071010  1
  Ca2+  Ca15  1  0.08650005  0.83129436  0.15992372  1
  Ca2+  Ca16  1  0.08584877  0.82803444  0.49707447  1
  Ca2+  Ca17  1  0.09038790  0.82307243  0.83022727  1
  Ca2+  Ca18  1  0.58699709  0.33684640  0.16223698  1
  Ca2+  Ca19  1  0.58114000  0.34124522  0.50069303  1
  Ca2+  Ca20  1  0.57878424  0.34021422  0.82479563  1
  Ca2+  Ca21  1  0.57830323  0.82875909  0.15831133  1
  Ca2+  Ca22  1  0.57335445  0.83163761  0.49818314  1
  Ca2+  Ca23  1  0.58477934  0.82430892  0.82505161  1
  Ca2+  Ca24  1  0.32629910  0.42208799  0.17480537  1
  Ca2+  Ca25  1  0.32181702  0.40949377  0.50717405  1
  Ca2+  Ca26  1  0.32712384  0.41253077  0.83022856  1
  Ca2+  Ca27  1  0.32287507  0.91796376  0.17625896  1
  Ca2+  Ca28  1  0.33635143  0.92359749  0.50324686  1
  Ca2+  Ca29  1  0.33256284  0.91860955  0.83461599  1
  Ca2+  Ca30  1  0.82700585  0.42059062  0.17223917  1
  Ca2+  Ca31  1  0.82581143  0.42288993  0.50946900  1
  Ca2+  Ca32  1  0.82782090  0.41541939  0.83397275  1
  Ca2+  Ca33  1  0.82469664  0.91068067  0.16770759  1
  Ca2+  Ca34  1  0.83449007  0.92439709  0.50731973  1
  Ca2+  Ca35  1  0.83203674  0.92316331  0.83460828  1
  Ca2+  Ca36  1  0.41412979  0.16603894  0.16965563  1
  Ca2+  Ca37  1  0.40792430  0.16932274  0.49967682  1
  Ca2+  Ca38  1  0.41831482  0.17056846  0.82299484  1
  Ca2+  Ca39  1  0.42114663  0.67245302  0.16133057  1
  Ca2+  Ca40  1  0.41933989  0.67680932  0.49947465  1
  Ca2+  Ca41  1  0.42971449  0.67211863  0.82300704  1
  Ca2+  Ca42  1  0.92348970  0.17416041  0.16090362  1
  Ca2+  Ca43  1  0.92585472  0.16887920  0.49909048  1
  Ca2+  Ca44  1  0.91839862  0.17626348  0.82279543  1
  Ca2+  Ca45  1  0.92154557  0.66285242  0.16372188  1
  Ca2+  Ca46  1  0.91783913  0.65561073  0.50184956  1
  Ca2+  Ca47  1  0.92552709  0.66350148  0.82611503  1
  Al0+  Al48  1  0.00202613  0.00093350  0.00370670  1
  Al0+  Al49  1  -0.00020764  -0.00190526  0.32983791  1
  Al0+  Al50  1  0.00106145  -0.00073074  0.66976094  1
  Al0+  Al51  1  -0.00073426  0.49933718  -0.00654168  1
  Al0+  Al52  1  -0.00109831  0.49904732  0.33851539  1
  Al0+  Al53  1  -0.00203547  0.49903334  0.66658813  1
  Al0+  Al54  1  0.50073381  0.00247153  0.00403145  1
  Al0+  Al55  1  0.49867732  0.00039334  0.33045574  1
  Al0+  Al56  1  0.49908880  0.00044080  0.66829285  1
  Al0+  Al57  1  0.49941187  0.50106418  0.00122973  1
  Al0+  Al58  1  0.49962181  0.50016588  0.33425884  1
  Al0+  Al59  1  0.49846149  0.50078973  0.65931493  1
  Al0+  Al60  1  0.25050434  0.25078126  0.00147823  1
  Al0+  Al61  1  0.25023860  0.24894627  0.33191243  1
  Al0+  Al62  1  0.25066861  0.24844618  0.67080735  1
  Al0+  Al63  1  0.25098783  0.75068207  -0.00026414  1
  Al0+  Al64  1  0.24996135  0.75031964  0.33145635  1
  Al0+  Al65  1  0.24979925  0.74904426  0.65786870  1
  Al0+  Al66  1  0.74931536  0.25077306  0.00082851  1
  Al0+  Al67  1  0.74890107  0.24963993  0.33449060  1
  Al0+  Al68  1  0.74993984  0.24994325  0.67086835  1
  Al0+  Al69  1  0.75153740  0.75057880  0.00026094  1
  Al0+  Al70  1  0.75064051  0.74913317  0.33656188  1
  Al0+  Al71  1  0.75185180  0.74895735  0.66595324  1
  Al0+  Al72  1  0.68021444  0.92844142  0.01286658  1
  Al0+  Al73  1  0.32048557  0.06948537  0.34938830  1
  Al0+  Al74  1  0.67784152  0.43044051  0.01452848  1
  Al0+  Al75  1  0.17958106  0.42850530  0.68158191  1
  Al0+  Al76  1  0.42910077  0.82316927  0.65170632  1
  Al0+  Al77  1  0.07139670  0.68047834  0.98731049  1
  Al0+  Al78  1  0.92869027  0.31949677  0.98630186  1
  Al0+  Al79  1  0.07163648  0.17856486  0.31804029  1
  Al0+  Al80  1  0.18128110  0.92894350  0.01319299  1
  Al0+  Al81  1  0.32090756  0.06993350  0.68211806  1
  Al0+  Al82  1  0.07144481  0.17802451  0.65299355  1
  Al0+  Al83  1  0.42920878  0.32006436  0.65348940  1
  Al0+  Al84  1  0.67652572  0.43051784  0.68303647  1
  Al0+  Al85  1  0.67730044  0.42675512  0.34954023  1
  Al0+  Al86  1  0.57377344  0.67816587  0.64941089  1
  Al0+  Al87  1  0.42924230  0.82162387  0.31638782  1
  Al0+  Al88  1  0.82305216  0.07119496  0.67976141  1
  Al0+  Al89  1  0.06977473  0.67858303  0.65118417  1
  Al0+  Al90  1  0.82042547  0.57140622  0.34877115  1
  Al0+  Al91  1  0.57163549  0.67931183  0.98757977  1
  Al0+  Al92  1  0.17632715  0.92667017  0.35033404  1
  Al0+  Al93  1  0.82130135  0.57193907  0.68594158  1
  Al0+  Al94  1  0.18034516  0.42963377  0.34566668  1
  Al0+  Al95  1  0.92640914  0.32079735  0.64924215  1
  Si0+  Si96  1  0.32258121  0.07470406  0.01862301  1
  Si0+  Si97  1  0.06926869  0.67762816  0.31902202  1
  Si0+  Si98  1  0.57223002  0.17748240  0.65143953  1
  Si0+  Si99  1  0.32081054  0.57026529  0.01368235  1
  Si0+  Si100  1  0.92741148  0.82188078  0.31741292  1
  Si0+  Si101  1  0.32265885  0.57320530  0.34974157  1
  Si0+  Si102  1  0.57338833  0.17878526  0.31721386  1
  Si0+  Si103  1  0.57266955  0.67922374  0.31547648  1
  Si0+  Si104  1  0.17749216  0.42964437  0.01413947  1
  Si0+  Si105  1  0.92792420  0.82457432  0.98370498  1
  Si0+  Si106  1  0.32016154  0.57371935  0.68221757  1
  Si0+  Si107  1  0.82087605  0.07035249  0.34581691  1
  Si0+  Si108  1  0.42850177  0.32160052  0.98653549  1
  Si0+  Si109  1  0.57030394  0.17859394  0.98548632  1
  Si0+  Si110  1  0.17849213  0.92536225  0.68345573  1
  Si0+  Si111  1  0.92856567  0.82289964  0.65065671  1
  Si0+  Si112  1  0.82200871  0.07284654  0.01807733  1
  Si0+  Si113  1  0.92736195  0.32135282  0.31647837  1
  Si0+  Si114  1  0.67850590  0.92934466  0.34746266  1
  Si0+  Si115  1  0.67814980  0.92858396  0.68139536  1
  Si0+  Si116  1  0.42914298  0.32111148  0.31739594  1
  Si0+  Si117  1  0.82411621  0.57157553  0.01628832  1
  Si0+  Si118  1  0.42938570  0.82345168  0.98383522  1
  Si0+  Si119  1  0.07353588  0.17746652  0.98335637  1
  O2-  O120  1  0.25365091  0.00560831  0.06066942  1
  O2-  O121  1  0.24771462  -0.00107498  0.39990433  1
  O2-  O122  1  0.24734545  -0.00606222  0.72792679  1
  O2-  O123  1  0.24788351  0.50109225  0.05667142  1
  O2-  O124  1  0.25470992  0.50398634  0.39308571  1
  O2-  O125  1  0.25241819  0.50532931  0.72913385  1
  O2-  O126  1  0.75626597  0.00099321  0.06259959  1
  O2-  O127  1  0.74993078  -0.00027233  0.38923386  1
  O2-  O128  1  0.74762197  -0.00348211  0.72559203  1
  O2-  O129  1  0.75269196  0.50546451  0.06041416  1
  O2-  O130  1  0.74770187  0.50011955  0.39760110  1
  O2-  O131  1  0.74717683  0.50213800  0.73567660  1
  O2-  O132  1  -0.00315883  0.25365125  0.27107128  1
  O2-  O133  1  0.00015194  0.24953167  0.60095358  1
  O2-  O134  1  0.00369084  0.24460285  0.94023402  1
  O2-  O135  1  -0.00015448  0.75083652  0.27697795  1
  O2-  O136  1  -0.00549863  0.75278453  0.60473725  1
  O2-  O137  1  -0.00225688  0.75664797  0.94082120  1
  O2-  O138  1  0.50375462  0.25268970  0.27595086  1
  O2-  O139  1  0.50559480  0.24725624  0.60614804  1
  O2-  O140  1  0.49915451  0.24996020  0.94491600  1
  O2-  O141  1  0.50349829  0.74642889  0.26921709  1
  O2-  O142  1  0.50207413  0.75200398  0.60174923  1
  O2-  O143  1  0.50151797  0.75844247  0.94053127  1
  O2-  O144  1  0.07366871  0.17924456  0.08927136  1
  O2-  O145  1  0.07049926  0.17870978  0.43040579  1
  O2-  O146  1  0.06958128  0.17875415  0.76712055  1
  O2-  O147  1  0.07005343  0.67918950  0.10099215  1
  O2-  O148  1  0.06794351  0.67708427  0.42358635  1
  O2-  O149  1  0.07122193  0.68209423  0.76464645  1
  O2-  O150  1  0.57005306  0.17754295  0.09094720  1
  O2-  O151  1  0.57668348  0.17543510  0.42157589  1
  O2-  O152  1  0.56957729  0.17552210  0.75746677  1
  O2-  O153  1  0.56722647  0.67916551  0.10096183  1
  O2-  O154  1  0.57268195  0.68212591  0.42037053  1
  O2-  O155  1  0.57166212  0.68001770  0.76376407  1
  O2-  O156  1  0.18095426  0.43270622  0.23134034  1
  O2-  O157  1  0.18239069  0.42823431  0.56841036  1
  O2-  O158  1  0.17938935  0.42819424  0.90956392  1
  O2-  O159  1  0.17782525  0.92731837  0.23608763  1
  O2-  O160  1  0.17714023  0.92574767  0.57827737  1
  O2-  O161  1  0.18451808  0.92774293  0.90038729  1
  O2-  O162  1  0.67922805  0.42756864  0.23514916  1
  O2-  O163  1  0.67771378  0.43085849  0.56969971  1
  O2-  O164  1  0.67407977  0.43054562  0.90263048  1
  O2-  O165  1  0.68016361  0.92953302  0.24200510  1
  O2-  O166  1  0.67854915  0.93158504  0.57526746  1
  O2-  O167  1  0.68047044  0.93194631  0.90023773  1
  O2-  O168  1  0.42695192  0.32112783  0.09191426  1
  O2-  O169  1  0.42708063  0.31967549  0.42188841  1
  O2-  O170  1  0.42918126  0.31786894  0.76741558  1
  O2-  O171  1  0.42918949  0.82074172  0.08961389  1
  O2-  O172  1  0.43277910  0.82241628  0.42881953  1
  O2-  O173  1  0.43074565  0.82210350  0.76596961  1
  O2-  O174  1  0.93135649  0.31903426  0.10014160  1
  O2-  O175  1  0.92609936  0.31878780  0.42121983  1
  O2-  O176  1  0.92710596  0.31819817  0.76340142  1
  O2-  O177  1  0.92703167  0.82329910  0.08971762  1
  O2-  O178  1  0.92502454  0.82573912  0.42189396  1
  O2-  O179  1  0.93003090  0.82469532  0.75633312  1
  O2-  O180  1  0.32009842  0.06888274  0.23513596  1
  O2-  O181  1  0.32101000  0.07007153  0.56962543  1
  O2-  O182  1  0.32381436  0.07686054  0.91335494  1
  O2-  O183  1  0.32248648  0.57105145  0.24305143  1
  O2-  O184  1  0.31707170  0.57331248  0.57660971  1
  O2-  O185  1  0.32248924  0.56867692  0.90909343  1
  O2-  O186  1  0.81802204  0.06963337  0.24050764  1
  O2-  O187  1  0.82143339  0.06808783  0.56594161  1
  O2-  O188  1  0.81994669  0.07250091  0.91274835  1
  O2-  O189  1  0.82112108  0.57148529  0.23429745  1
  O2-  O190  1  0.81968170  0.57069333  0.57249050  1
  O2-  O191  1  0.82563224  0.57063546  0.91156924  1
  O2-  O192  1  0.03891002  0.08202270  0.26325440  1
  O2-  O193  1  0.04379242  0.07856495  0.60176105  1
  O2-  O194  1  0.05065005  0.08241652  0.93947797  1
  O2-  O195  1  0.03928431  0.58624946  0.27041954  1
  O2-  O196  1  0.03886647  0.58220444  0.59813058  1
  O2-  O197  1  0.04158328  0.58463360  0.93227135  1
  O2-  O198  1  0.54243636  0.08881922  0.26685373  1
  O2-  O199  1  0.54659880  0.08440675  0.60467083  1
  O2-  O200  1  0.54227422  0.08722231  0.93695613  1
  O2-  O201  1  0.54675368  0.58436658  0.27084701  1
  O2-  O202  1  0.54240164  0.58247405  0.59418997  1
  O2-  O203  1  0.53511315  0.58456686  0.93379859  1
  O2-  O204  1  0.16767274  0.21043165  0.26243968  1
  O2-  O205  1  0.16977175  0.20762310  0.60214686  1
  O2-  O206  1  0.16796909  0.20375294  0.93930156  1
  O2-  O207  1  0.16207775  0.70197931  0.27129938  1
  O2-  O208  1  0.16512256  0.70755277  0.59462724  1
  O2-  O209  1  0.16850604  0.71018500  0.93322732  1
  O2-  O210  1  0.66492404  0.20464023  0.26662807  1
  O2-  O211  1  0.66648717  0.20029407  0.60657825  1
  O2-  O212  1  0.66264424  0.20416897  0.93916432  1
  O2-  O213  1  0.66655459  0.70631102  0.26999889  1
  O2-  O214  1  0.67228342  0.70722128  0.59740734  1
  O2-  O215  1  0.66992693  0.70636641  0.93582081  1
  O2-  O216  1  0.08581043  0.45810791  0.06105392  1
  O2-  O217  1  0.08447844  0.45851564  0.39984588  1
  O2-  O218  1  0.08295116  0.45943847  0.73410110  1
  O2-  O219  1  0.08308441  0.95543021  0.06780317  1
  O2-  O220  1  0.07549013  0.95136074  0.39904038  1
  O2-  O221  1  0.08553670  0.94983698  0.73137590  1
  O2-  O222  1  0.58078593  0.46072501  0.06970333  1
  O2-  O223  1  0.57656614  0.45135436  0.39835734  1
  O2-  O224  1  0.57534241  0.45812308  0.73194400  1
  O2-  O225  1  0.58464920  0.96201126  0.06896156  1
  O2-  O226  1  0.58762732  0.95960945  0.39336894  1
  O2-  O227  1  0.58596730  0.95493075  0.72920312  1
  O2-  O228  1  0.20670576  0.33807734  0.06245642  1
  O2-  O229  1  0.21338488  0.33384571  0.39767541  1
  O2-  O230  1  0.21386125  0.33449533  0.73812979  1
  O2-  O231  1  0.21267184  0.83254041  0.06863096  1
  O2-  O232  1  0.20375647  0.82692603  0.39981888  1
  O2-  O233  1  0.20666500  0.83133681  0.72765158  1
  O2-  O234  1  0.70721532  0.33243133  0.06769196  1
  O2-  O235  1  0.70318658  0.32717708  0.40068797  1
  O2-  O236  1  0.70210986  0.33057257  0.73477017  1
  O2-  O237  1  0.71045723  0.83239942  0.06974016  1
  O2-  O238  1  0.70595215  0.83819501  0.39491469  1
  O2-  O239  1  0.70421020  0.83532912  0.72671199  1
  O2-  O240  1  0.45312886  0.41447175  0.26935726  1
  O2-  O241  1  0.45345446  0.41636512  0.59661260  1
  O2-  O242  1  0.45596832  0.41296733  0.93942095  1
  O2-  O243  1  0.46113116  0.91781844  0.26140217  1
  O2-  O244  1  0.45888406  0.92130452  0.59871354  1
  O2-  O245  1  0.45133775  0.91981854  0.94216447  1
  O2-  O246  1  0.95424843  0.41548555  0.27137697  1
  O2-  O247  1  0.95439959  0.41911740  0.59835588  1
  O2-  O248  1  0.95942225  0.41465145  0.93103255  1
  O2-  O249  1  0.95260561  0.91228849  0.26549157  1
  O2-  O250  1  0.95638012  0.91540818  0.60332487  1
  O2-  O251  1  0.95219612  0.91962565  0.93972151  1
  O2-  O252  1  0.33969658  0.29046583  0.26616426  1
  O2-  O253  1  0.33421120  0.28459309  0.60018135  1
  O2-  O254  1  0.33618717  0.29450236  0.93899676  1
  O2-  O255  1  0.33208708  0.78976103  0.26248584  1
  O2-  O256  1  0.33262133  0.79402416  0.59615180  1
  O2-  O257  1  0.33754250  0.79411359  0.93751595  1
  O2-  O258  1  0.83387826  0.29328859  0.26972850  1
  O2-  O259  1  0.82792230  0.28990112  0.59862553  1
  O2-  O260  1  0.83166873  0.28838125  0.93371640  1
  O2-  O261  1  0.83568738  0.79187475  0.26909414  1
  O2-  O262  1  0.83412435  0.80208161  0.60441134  1
  O2-  O263  1  0.83458180  0.80045859  0.93711556  1
  O2-  O264  1  0.41663510  0.05116247  0.06497486  1
  O2-  O265  1  0.42053890  0.04261618  0.39977666  1
  O2-  O266  1  0.41811109  0.04094417  0.73754926  1
  O2-  O267  1  0.40975459  0.53947165  0.06539901  1
  O2-  O268  1  0.41651014  0.54948391  0.39458330  1
  O2-  O269  1  0.41432557  0.54752444  0.72595352  1
  O2-  O270  1  0.91708334  0.05143135  0.06305368  1
  O2-  O271  1  0.91179952  0.04073881  0.39219562  1
  O2-  O272  1  0.91748636  0.03846591  0.73716778  1
  O2-  O273  1  0.91684098  0.54154394  0.06324765  1
  O2-  O274  1  0.91802328  0.54319950  0.40189475  1
  O2-  O275  1  0.91964980  0.54235049  0.73747102  1
  O2-  O276  1  0.29724699  0.16867659  0.06562199  1
  O2-  O277  1  0.29415617  0.16928151  0.39888288  1
  O2-  O278  1  0.28952868  0.16449783  0.73953752  1
  O2-  O279  1  0.29436977  0.66222678  0.06188461  1
  O2-  O280  1  0.29699337  0.66650508  0.39414508  1
  O2-  O281  1  0.29410913  0.66741868  0.72812465  1
  O2-  O282  1  0.79101650  0.16394040  0.06618068  1
  O2-  O283  1  0.79283771  0.16128033  0.39356672  1
  O2-  O284  1  0.79016291  0.16498268  0.73684155  1
  O2-  O285  1  0.80339206  0.66704421  0.06099258  1
  O2-  O286  1  0.79497865  0.67058384  0.40234319  1
  O2-  O287  1  0.79859217  0.67351676  0.73602296  1
