# generated using pymatgen
data_Ca2Al2SiO7
_symmetry_space_group_name_H-M   'P 1'
_cell_length_a   15.45417977
_cell_length_b   15.45416057
_cell_length_c   15.28086358
_cell_angle_alpha   89.99786351
_cell_angle_beta   90.00512456
_cell_angle_gamma   90.01175017
_symmetry_Int_Tables_number   1
_chemical_formula_structural   Ca2Al2SiO7
_chemical_formula_sum   'Ca48 Al48 Si24 O168'
_cell_volume   3649.54957629
_cell_formula_units_Z   24
loop_
 _symmetry_equiv_pos_site_id
 _symmetry_equiv_pos_as_xyz
  1  'x, y, z'
loop_
 _atom_type_symbol
 _atom_type_oxidation_number
  Ca2+  2.0
  Al0+  0.0
  Si0+  0.0
  O2-  -2.0
loop_
 _atom_site_type_symbol
 _atom_site_label
 _atom_site_symmetry_multiplicity
 _atom_site_fract_x
 _atom_site_fract_y
 _atom_site_fract_z
 _atom_site_occupancy
  Ca2+  Ca0  1  0.17178301  0.07770116  0.18152524  1
  Ca2+  Ca1  1  0.17193759  0.08339450  0.49927246  1
  Ca2+  Ca2  1  0.17370685  0.08301727  0.83460485  1
  Ca2+  Ca3  1  0.17261787  0.58708626  0.17420685  1
  Ca2+  Ca4  1  0.16622174  0.58658162  0.49742623  1
  Ca2+  Ca5  1  0.16810063  0.58777168  0.84125287  1
  Ca2+  Ca6  1  0.67152666  0.07911978  0.17422136  1
  Ca2+  Ca7  1  0.66697575  0.07236524  0.50367958  1
  Ca2+  Ca8  1  0.67656453  0.08068421  0.83427937  1
  Ca2+  Ca9  1  0.66641321  0.57369097  0.17421153  1
  Ca2+  Ca10  1  0.66041865  0.57399426  0.50139362  1
  Ca2+  Ca11  1  0.67190258  0.57049939  0.84238775  1
  Ca2+  Ca12  1  0.08223590  0.33148937  0.16564460  1
  Ca2+  Ca13  1  0.08316028  0.32774370  0.48921428  1
  Ca2+  Ca14  1  0.07124009  0.33673173  0.83117673  1
  Ca2+  Ca15  1  0.08358154  0.82727193  0.16704170  1
  Ca2+  Ca16  1  0.07812963  0.82864542  0.48927092  1
  Ca2+  Ca17  1  0.08200493  0.82000628  0.82895401  1
  Ca2+  Ca18  1  0.59112071  0.33067840  0.16663552  1
  Ca2+  Ca19  1  0.58069406  0.33039670  0.49322273  1
  Ca2+  Ca20  1  0.58147345  0.33772389  0.82673829  1
  Ca2+  Ca21  1  0.57936889  0.82853586  0.16585261  1
  Ca2+  Ca22  1  0.58831388  0.83104378  0.48863949  1
  Ca2+  Ca23  1  0.58014135  0.83543067  0.83086510  1
  Ca2+  Ca24  1  0.32739105  0.43044575  0.17627116  1
  Ca2+  Ca25  1  0.33051896  0.41899645  0.49835553  1
  Ca2+  Ca26  1  0.33325242  0.42331558  0.83874503  1
  Ca2+  Ca27  1  0.32848657  0.91769385  0.17567759  1
  Ca2+  Ca28  1  0.33111651  0.92925096  0.49867696  1
  Ca2+  Ca29  1  0.33649645  0.92017557  0.83722468  1
  Ca2+  Ca30  1  0.82917871  0.41910198  0.16588117  1
  Ca2+  Ca31  1  0.81979214  0.41377796  0.50236433  1
  Ca2+  Ca32  1  0.82312100  0.41624043  0.84442649  1
  Ca2+  Ca33  1  0.83382030  0.91953621  0.17424752  1
  Ca2+  Ca34  1  0.82535906  0.91543183  0.50320987  1
  Ca2+  Ca35  1  0.83232260  0.92630713  0.83462806  1
  Ca2+  Ca36  1  0.42370657  0.16162247  0.16796848  1
  Ca2+  Ca37  1  0.41620549  0.16904868  0.49269185  1
  Ca2+  Ca38  1  0.41869919  0.17570445  0.82193622  1
  Ca2+  Ca39  1  0.41610845  0.66605911  0.16275673  1
  Ca2+  Ca40  1  0.42341720  0.66764337  0.49033659  1
  Ca2+  Ca41  1  0.41324180  0.67209409  0.83393472  1
  Ca2+  Ca42  1  0.92057564  0.16988990  0.16119550  1
  Ca2+  Ca43  1  0.91962614  0.16458649  0.49305661  1
  Ca2+  Ca44  1  0.90787570  0.16814600  0.83328946  1
  Ca2+  Ca45  1  0.92488611  0.66757211  0.16302277  1
  Ca2+  Ca46  1  0.92627618  0.67292595  0.48910498  1
  Ca2+  Ca47  1  0.92724861  0.65485446  0.83099968  1
  Al0+  Al48  1  0.00151818  -0.00145998  0.00158127  1
  Al0+  Al49  1  0.00096278  0.00143909  0.32899240  1
  Al0+  Al50  1  0.00109819  -0.00118751  0.67141459  1
  Al0+  Al51  1  -0.00151375  0.49681201  -0.00505557  1
  Al0+  Al52  1  -0.00006912  0.50056416  0.33342107  1
  Al0+  Al53  1  0.00109013  0.49794611  0.65867785  1
  Al0+  Al54  1  0.50059050  0.00020525  -0.00592131  1
  Al0+  Al55  1  0.50182548  0.00143753  0.33582543  1
  Al0+  Al56  1  0.49928451  0.00082051  0.67437070  1
  Al0+  Al57  1  0.49888677  0.49934970  0.00701128  1
  Al0+  Al58  1  0.49971281  0.50010387  0.33661569  1
  Al0+  Al59  1  0.49735033  0.50051447  0.66690018  1
  Al0+  Al60  1  0.25178513  0.24879905  -0.00094106  1
  Al0+  Al61  1  0.25017240  0.25311881  0.33339891  1
  Al0+  Al62  1  0.24922216  0.25218814  0.66805213  1
  Al0+  Al63  1  0.25063323  0.75123890  -0.00562308  1
  Al0+  Al64  1  0.25008633  0.75185373  0.34000329  1
  Al0+  Al65  1  0.25111937  0.75021066  0.66092753  1
  Al0+  Al66  1  0.75095257  0.24694741  0.00332411  1
  Al0+  Al67  1  0.74856572  0.25092935  0.33336452  1
  Al0+  Al68  1  0.74819726  0.24963589  0.67184028  1
  Al0+  Al69  1  0.75013854  0.74994929  0.00034470  1
  Al0+  Al70  1  0.75003531  0.75009910  0.32718932  1
  Al0+  Al71  1  0.75081406  0.74893251  0.67244691  1
  Al0+  Al72  1  0.31801554  0.57214228  0.01218955  1
  Al0+  Al73  1  0.32261015  0.07230576  0.34655070  1
  Al0+  Al74  1  0.07220099  0.18058633  0.32065568  1
  Al0+  Al75  1  0.57068513  0.17873752  0.32062102  1
  Al0+  Al76  1  0.82139136  0.06814329  0.01642344  1
  Al0+  Al77  1  0.17652814  0.92935102  0.34860787  1
  Al0+  Al78  1  0.32104642  0.57291138  0.35030485  1
  Al0+  Al79  1  0.67741930  0.43084564  0.68007368  1
  Al0+  Al80  1  0.82373022  0.57199008  0.01502631  1
  Al0+  Al81  1  0.92784528  0.82223339  0.31790688  1
  Al0+  Al82  1  0.82290401  0.07055083  0.68055389  1
  Al0+  Al83  1  0.67819645  0.42853717  0.01724615  1
  Al0+  Al84  1  0.07259789  0.67891217  0.31700797  1
  Al0+  Al85  1  0.43048464  0.82025288  0.98644562  1
  Al0+  Al86  1  0.17679733  0.43021976  0.34794141  1
  Al0+  Al87  1  0.92983066  0.31716196  0.98622566  1
  Al0+  Al88  1  0.06881699  0.68008238  0.98656594  1
  Al0+  Al89  1  0.42804863  0.32248391  0.65213268  1
  Al0+  Al90  1  0.68015042  0.42889150  0.34879023  1
  Al0+  Al91  1  0.31914072  0.07275845  0.68172315  1
  Al0+  Al92  1  0.68086460  0.92826138  0.34368685  1
  Al0+  Al93  1  0.57050603  0.67698572  0.31988055  1
  Al0+  Al94  1  0.67787572  0.92527744  0.68332052  1
  Al0+  Al95  1  0.07142568  0.67815491  0.64985817  1
  Si0+  Si96  1  0.82223349  0.07285134  0.34805573  1
  Si0+  Si97  1  0.42860411  0.32146671  0.98618925  1
  Si0+  Si98  1  0.57148224  0.17839727  0.65042422  1
  Si0+  Si99  1  0.82413671  0.56961469  0.68103152  1
  Si0+  Si100  1  0.18171243  0.92983371  0.01318241  1
  Si0+  Si101  1  0.57066469  0.68001596  0.65446542  1
  Si0+  Si102  1  0.43017419  0.82339902  0.65007800  1
  Si0+  Si103  1  0.92605370  0.32213632  0.31712816  1
  Si0+  Si104  1  0.17737774  0.42583201  0.01415685  1
  Si0+  Si105  1  0.92669729  0.31899557  0.65073782  1
  Si0+  Si106  1  0.32265256  0.07233059  0.01445620  1
  Si0+  Si107  1  0.07081315  0.17880043  0.65356329  1
  Si0+  Si108  1  0.17753123  0.42925671  0.68267855  1
  Si0+  Si109  1  0.31945902  0.57192550  0.68247213  1
  Si0+  Si110  1  0.82197693  0.57291169  0.34980330  1
  Si0+  Si111  1  0.57239614  0.67547967  0.98306943  1
  Si0+  Si112  1  0.92822957  0.82274353  0.65159860  1
  Si0+  Si113  1  0.92630260  0.82428698  0.98114060  1
  Si0+  Si114  1  0.07459386  0.17552996  0.98196051  1
  Si0+  Si115  1  0.42945643  0.82274685  0.31968418  1
  Si0+  Si116  1  0.57073068  0.17919733  0.98315523  1
  Si0+  Si117  1  0.67571492  0.92847655  0.01747554  1
  Si0+  Si118  1  0.17982512  0.92666656  0.68508604  1
  Si0+  Si119  1  0.42836859  0.32246871  0.31470469  1
  O2-  O120  1  0.24937598  0.00411222  0.05547457  1
  O2-  O121  1  0.24767783  0.00349937  0.39687033  1
  O2-  O122  1  0.24749450  -0.00405244  0.73075196  1
  O2-  O123  1  0.24376279  0.49668797  0.05730978  1
  O2-  O124  1  0.24668372  0.50302397  0.40036903  1
  O2-  O125  1  0.24621503  0.50280803  0.72470861  1
  O2-  O126  1  0.74944980  -0.00913780  0.06227099  1
  O2-  O127  1  0.75603148  0.00178156  0.39158777  1
  O2-  O128  1  0.75078839  -0.00193493  0.73047833  1
  O2-  O129  1  0.74764871  0.50427154  0.06506009  1
  O2-  O130  1  0.75348794  0.50466777  0.39586606  1
  O2-  O131  1  0.75400651  0.50326731  0.72657254  1
  O2-  O132  1  -0.00269363  0.25511845  0.27426790  1
  O2-  O133  1  -0.00450923  0.24498117  0.61084309  1
  O2-  O134  1  0.00547072  0.24343359  0.93703363  1
  O2-  O135  1  0.00048107  0.75077930  0.26755544  1
  O2-  O136  1  -0.00486846  0.75276662  0.60713567  1
  O2-  O137  1  -0.01017447  0.75005748  0.93737913  1
  O2-  O138  1  0.49666146  0.25294786  0.27086990  1
  O2-  O139  1  0.50186722  0.24634753  0.60664953  1
  O2-  O140  1  0.50052539  0.25204517  0.94220423  1
  O2-  O141  1  0.49419663  0.75092321  0.27449019  1
  O2-  O142  1  0.50575268  0.75615241  0.61049048  1
  O2-  O143  1  0.50576912  0.74620833  0.93797577  1
  O2-  O144  1  0.07673716  0.17665820  0.08706109  1
  O2-  O145  1  0.06949612  0.18107891  0.43453065  1
  O2-  O146  1  0.07262391  0.18226309  0.75883895  1
  O2-  O147  1  0.07224021  0.68363974  0.09855877  1
  O2-  O148  1  0.06867112  0.68049167  0.43082694  1
  O2-  O149  1  0.07145913  0.67781446  0.76362524  1
  O2-  O150  1  0.56837194  0.17604835  0.08810908  1
  O2-  O151  1  0.57074411  0.17907673  0.43367194  1
  O2-  O152  1  0.57063173  0.18059854  0.75665686  1
  O2-  O153  1  0.57022227  0.67552629  0.08829745  1
  O2-  O154  1  0.57025156  0.67863044  0.43391335  1
  O2-  O155  1  0.56633478  0.67838298  0.75959563  1
  O2-  O156  1  0.17962762  0.42894522  0.23405769  1
  O2-  O157  1  0.17719407  0.42710269  0.57835308  1
  O2-  O158  1  0.17994630  0.42429035  0.90784937  1
  O2-  O159  1  0.18006955  0.92942073  0.23425253  1
  O2-  O160  1  0.17950247  0.92838470  0.58020138  1
  O2-  O161  1  0.18347688  0.93077705  0.90760950  1
  O2-  O162  1  0.68268079  0.42793102  0.23624162  1
  O2-  O163  1  0.67798497  0.43065137  0.56715862  1
  O2-  O164  1  0.67729988  0.42897417  0.90298399  1
  O2-  O165  1  0.67885417  0.93119870  0.23074841  1
  O2-  O166  1  0.67827762  0.92449841  0.56973422  1
  O2-  O167  1  0.67405845  0.93259890  0.91177990  1
  O2-  O168  1  0.42529413  0.31868085  0.09052436  1
  O2-  O169  1  0.42953009  0.32194017  0.42063538  1
  O2-  O170  1  0.42919879  0.32270928  0.76616748  1
  O2-  O171  1  0.43043040  0.82178734  0.09914997  1
  O2-  O172  1  0.43343767  0.82382107  0.42563041  1
  O2-  O173  1  0.42736688  0.82029703  0.75552670  1
  O2-  O174  1  0.93175934  0.31587691  0.09896194  1
  O2-  O175  1  0.92398848  0.31897817  0.42334762  1
  O2-  O176  1  0.92835436  0.32149578  0.75587392  1
  O2-  O177  1  0.93035283  0.82832884  0.08600145  1
  O2-  O178  1  0.92651285  0.82015132  0.43218332  1
  O2-  O179  1  0.93084731  0.82349946  0.75732295  1
  O2-  O180  1  0.32295799  0.06827880  0.23224413  1
  O2-  O181  1  0.31755983  0.07275304  0.56933855  1
  O2-  O182  1  0.32136564  0.07320694  0.90907306  1
  O2-  O183  1  0.32094930  0.57159423  0.23643327  1
  O2-  O184  1  0.32145552  0.57153710  0.57816295  1
  O2-  O185  1  0.31751455  0.57027663  0.89821006  1
  O2-  O186  1  0.81997821  0.07365462  0.24238331  1
  O2-  O187  1  0.82366403  0.07040648  0.56717133  1
  O2-  O188  1  0.81855803  0.06820860  0.90323329  1
  O2-  O189  1  0.82163647  0.57053999  0.24441342  1
  O2-  O190  1  0.82285972  0.56854314  0.57562395  1
  O2-  O191  1  0.82287978  0.56651523  0.90057058  1
  O2-  O192  1  0.04362882  0.08520527  0.26381689  1
  O2-  O193  1  0.04814865  0.08437834  0.60909693  1
  O2-  O194  1  0.05015187  0.08122619  0.93634148  1
  O2-  O195  1  0.04558945  0.57917257  0.26596953  1
  O2-  O196  1  0.04270280  0.58114339  0.59558222  1
  O2-  O197  1  0.04298856  0.58168078  0.93174716  1
  O2-  O198  1  0.53898361  0.08317775  0.26409817  1
  O2-  O199  1  0.54598483  0.08305606  0.60834227  1
  O2-  O200  1  0.54100207  0.08934364  0.93266873  1
  O2-  O201  1  0.53943729  0.58055295  0.26611867  1
  O2-  O202  1  0.53682274  0.59070406  0.60566503  1
  O2-  O203  1  0.54284321  0.58208409  0.93763987  1
  O2-  O204  1  0.16848371  0.21110620  0.26510060  1
  O2-  O205  1  0.16035764  0.21176449  0.60562178  1
  O2-  O206  1  0.16876686  0.20168882  0.93529213  1
  O2-  O207  1  0.17281336  0.70827846  0.26851159  1
  O2-  O208  1  0.16823788  0.70940674  0.59720740  1
  O2-  O209  1  0.16314793  0.71585913  0.92947873  1
  O2-  O210  1  0.66670962  0.21047203  0.26528295  1
  O2-  O211  1  0.66531633  0.20434268  0.60554959  1
  O2-  O212  1  0.66295893  0.20627485  0.93696028  1
  O2-  O213  1  0.66529419  0.70742308  0.26357843  1
  O2-  O214  1  0.66580100  0.70020454  0.61021868  1
  O2-  O215  1  0.66728194  0.69801823  0.93723471  1
  O2-  O216  1  0.08256657  0.44713470  0.05691577  1
  O2-  O217  1  0.07706774  0.45312140  0.40177983  1
  O2-  O218  1  0.08412468  0.45601896  0.72854219  1
  O2-  O219  1  0.08917290  0.95309690  0.06025240  1
  O2-  O220  1  0.07818661  0.95884347  0.40106347  1
  O2-  O221  1  0.08653051  0.95083961  0.73275544  1
  O2-  O222  1  0.57929412  0.45299454  0.07050810  1
  O2-  O223  1  0.58356968  0.45890377  0.40233122  1
  O2-  O224  1  0.58128834  0.46379981  0.73431634  1
  O2-  O225  1  0.58355614  0.96071751  0.06250148  1
  O2-  O226  1  0.58621818  0.96036835  0.40036229  1
  O2-  O227  1  0.58024791  0.95441911  0.73776258  1
  O2-  O228  1  0.20516497  0.33244463  0.06002148  1
  O2-  O229  1  0.20775603  0.33297985  0.40243080  1
  O2-  O230  1  0.20626227  0.33923989  0.73287093  1
  O2-  O231  1  0.21432615  0.83997835  0.05987035  1
  O2-  O232  1  0.20553990  0.83358176  0.40496566  1
  O2-  O233  1  0.20947511  0.83316647  0.73002606  1
  O2-  O234  1  0.70966226  0.33041950  0.06766068  1
  O2-  O235  1  0.71192666  0.33271442  0.40390861  1
  O2-  O236  1  0.70580509  0.33408907  0.73439645  1
  O2-  O237  1  0.69288287  0.83127471  0.05818814  1
  O2-  O238  1  0.70965837  0.83102503  0.39768405  1
  O2-  O239  1  0.70469020  0.82730194  0.73943051  1
  O2-  O240  1  0.45637014  0.41557498  0.26982364  1
  O2-  O241  1  0.45836325  0.41906388  0.59821897  1
  O2-  O242  1  0.45494308  0.41444961  0.93955280  1
  O2-  O243  1  0.45813398  0.91465306  0.27211613  1
  O2-  O244  1  0.45356029  0.91785082  0.60660107  1
  O2-  O245  1  0.46073184  0.91653869  0.92885131  1
  O2-  O246  1  0.94999459  0.41620011  0.27235417  1
  O2-  O247  1  0.95692153  0.40846261  0.60061880  1
  O2-  O248  1  0.95936829  0.41217914  0.92730757  1
  O2-  O249  1  0.95518570  0.92059439  0.26438128  1
  O2-  O250  1  0.95527612  0.91623934  0.60585186  1
  O2-  O251  1  0.95941911  0.91555287  0.93295980  1
  O2-  O252  1  0.33485009  0.29891232  0.26823296  1
  O2-  O253  1  0.33053981  0.29216205  0.59994653  1
  O2-  O254  1  0.33746173  0.29277078  0.93581298  1
  O2-  O255  1  0.33418800  0.80084340  0.27641936  1
  O2-  O256  1  0.34027681  0.79246594  0.60142100  1
  O2-  O257  1  0.33602810  0.78894565  0.92748980  1
  O2-  O258  1  0.83429085  0.29389628  0.26950010  1
  O2-  O259  1  0.83379660  0.29248449  0.60483130  1
  O2-  O260  1  0.83330319  0.28360672  0.93201719  1
  O2-  O261  1  0.83102015  0.79449370  0.26158790  1
  O2-  O262  1  0.83274288  0.79864859  0.60843961  1
  O2-  O263  1  0.82960127  0.80647621  0.93777813  1
  O2-  O264  1  0.41480127  0.04230810  0.05895015  1
  O2-  O265  1  0.41861992  0.04108045  0.40235702  1
  O2-  O266  1  0.41549144  0.04465542  0.73765446  1
  O2-  O267  1  0.41372245  0.54257794  0.06720526  1
  O2-  O268  1  0.41786205  0.54045875  0.40449108  1
  O2-  O269  1  0.40974726  0.54190625  0.73173302  1
  O2-  O270  1  0.92073656  0.04207168  0.06747539  1
  O2-  O271  1  0.91698984  0.05077237  0.39176120  1
  O2-  O272  1  0.92113748  0.04403579  0.73694737  1
  O2-  O273  1  0.92087284  0.53795988  0.06673666  1
  O2-  O274  1  0.91524058  0.54762001  0.39636130  1
  O2-  O275  1  0.91775258  0.53984860  0.72539577  1
  O2-  O276  1  0.29858541  0.16500230  0.06163397  1
  O2-  O277  1  0.29713531  0.17182822  0.39705936  1
  O2-  O278  1  0.28554590  0.16859651  0.73717974  1
  O2-  O279  1  0.28804569  0.66943660  0.06392578  1
  O2-  O280  1  0.29807661  0.67157600  0.40466766  1
  O2-  O281  1  0.29285844  0.66521864  0.72831914  1
  O2-  O282  1  0.78845932  0.16304785  0.07072661  1
  O2-  O283  1  0.79470185  0.16525366  0.39503207  1
  O2-  O284  1  0.79220914  0.16775875  0.73580670  1
  O2-  O285  1  0.80332749  0.67392406  0.06358392  1
  O2-  O286  1  0.79598675  0.66669795  0.39424014  1
  O2-  O287  1  0.80387455  0.66382743  0.72800139  1
