# generated using pymatgen
data_Ca2Al2SiO7
_symmetry_space_group_name_H-M   'P 1'
_cell_length_a   15.46143901
_cell_length_b   15.46304433
_cell_length_c   15.28559089
_cell_angle_alpha   90.02882307
_cell_angle_beta   90.00780115
_cell_angle_gamma   90.01885203
_symmetry_Int_Tables_number   1
_chemical_formula_structural   Ca2Al2SiO7
_chemical_formula_sum   'Ca48 Al48 Si24 O168'
_cell_volume   3654.49239120
_cell_formula_units_Z   24
loop_
 _symmetry_equiv_pos_site_id
 _symmetry_equiv_pos_as_xyz
  1  'x, y, z'
loop_
 _atom_type_symbol
 _atom_type_oxidation_number
  Ca2+  2.0
  Al0+  0.0
  Si0+  0.0
  O2-  -2.0
loop_
 _atom_site_type_symbol
 _atom_site_label
 _atom_site_symmetry_multiplicity
 _atom_site_fract_x
 _atom_site_fract_y
 _atom_site_fract_z
 _atom_site_occupancy
  Ca2+  Ca0  1  0.17385376  0.07508511  0.17216974  1
  Ca2+  Ca1  1  0.17474836  0.07481797  0.49735141  1
  Ca2+  Ca2  1  0.16664426  0.07405587  0.83598349  1
  Ca2+  Ca3  1  0.17418914  0.57225281  0.17427252  1
  Ca2+  Ca4  1  0.17232028  0.57654806  0.50109838  1
  Ca2+  Ca5  1  0.16721495  0.57354591  0.83819295  1
  Ca2+  Ca6  1  0.66762071  0.07465157  0.17143014  1
  Ca2+  Ca7  1  0.67350840  0.07432153  0.50645534  1
  Ca2+  Ca8  1  0.66596667  0.07797203  0.83557814  1
  Ca2+  Ca9  1  0.65762269  0.58046255  0.16348472  1
  Ca2+  Ca10  1  0.66562251  0.57618704  0.50467402  1
  Ca2+  Ca11  1  0.66092846  0.57405873  0.84067527  1
  Ca2+  Ca12  1  0.08739449  0.33432321  0.16151312  1
  Ca2+  Ca13  1  0.08695238  0.33511500  0.49427444  1
  Ca2+  Ca14  1  0.08540072  0.33523087  0.82796085  1
  Ca2+  Ca15  1  0.07318632  0.84694373  0.16301420  1
  Ca2+  Ca16  1  0.07460662  0.84738061  0.49520897  1
  Ca2+  Ca17  1  0.07313948  0.84444097  0.82788920  1
  Ca2+  Ca18  1  0.57125375  0.32574900  0.15482371  1
  Ca2+  Ca19  1  0.58350030  0.32461936  0.49471125  1
  Ca2+  Ca20  1  0.58826226  0.32435487  0.82844178  1
  Ca2+  Ca21  1  0.58039577  0.83436436  0.16043236  1
  Ca2+  Ca22  1  0.58179049  0.83667812  0.49235977  1
  Ca2+  Ca23  1  0.59215608  0.83027373  0.83057577  1
  Ca2+  Ca24  1  0.33059008  0.41477442  0.17527083  1
  Ca2+  Ca25  1  0.32919771  0.41595424  0.49837670  1
  Ca2+  Ca26  1  0.32539980  0.41038671  0.83991423  1
  Ca2+  Ca27  1  0.32576458  0.91905402  0.17994478  1
  Ca2+  Ca28  1  0.32712011  0.91322851  0.50261516  1
  Ca2+  Ca29  1  0.32033539  0.91461770  0.83974776  1
  Ca2+  Ca30  1  0.82420667  0.41740006  0.16788388  1
  Ca2+  Ca31  1  0.82747456  0.42035618  0.50768333  1
  Ca2+  Ca32  1  0.81954745  0.41637613  0.83722571  1
  Ca2+  Ca33  1  0.82416459  0.91425883  0.17282317  1
  Ca2+  Ca34  1  0.82880350  0.92135928  0.50391240  1
  Ca2+  Ca35  1  0.82844439  0.91709240  0.83562561  1
  Ca2+  Ca36  1  0.41387139  0.17416060  0.16160828  1
  Ca2+  Ca37  1  0.42074083  0.16823661  0.49273620  1
  Ca2+  Ca38  1  0.42984876  0.16939173  0.83222607  1
  Ca2+  Ca39  1  0.41663705  0.67055107  0.16707120  1
  Ca2+  Ca40  1  0.41656732  0.67135984  0.49179785  1
  Ca2+  Ca41  1  0.42233043  0.66630176  0.83567441  1
  Ca2+  Ca42  1  0.91742606  0.16198958  0.16666422  1
  Ca2+  Ca43  1  0.91405943  0.16069022  0.49672462  1
  Ca2+  Ca44  1  0.91577744  0.16515981  0.82733347  1
  Ca2+  Ca45  1  0.91888033  0.68007651  0.16108026  1
  Ca2+  Ca46  1  0.91902369  0.68113156  0.49394640  1
  Ca2+  Ca47  1  0.91634194  0.68080575  0.82900971  1
  Al0+  Al48  1  -0.00007260  0.00218113  -0.00163357  1
  Al0+  Al49  1  -0.00031870  0.00253520  0.33320733  1
  Al0+  Al50  1  0.00094651  0.00274069  0.66785448  1
  Al0+  Al51  1  -0.00024013  0.50162946  0.00278403  1
  Al0+  Al52  1  -0.00194304  0.49972045  0.33439789  1
  Al0+  Al53  1  0.00160857  0.50169002  0.66912929  1
  Al0+  Al54  1  0.49917171  0.00184471  -0.00133873  1
  Al0+  Al55  1  0.50076323  -0.00112705  0.33465796  1
  Al0+  Al56  1  0.50133353  0.00085605  0.66565957  1
  Al0+  Al57  1  0.49760020  0.50169779  -0.00380197  1
  Al0+  Al58  1  0.49850742  0.49813818  0.33375396  1
  Al0+  Al59  1  0.49868741  0.50056061  0.66949727  1
  Al0+  Al60  1  0.24840503  0.24872118  -0.00225338  1
  Al0+  Al61  1  0.24894335  0.24763797  0.33629744  1
  Al0+  Al62  1  0.25059918  0.25025507  0.66948265  1
  Al0+  Al63  1  0.24652580  0.74775173  0.00402271  1
  Al0+  Al64  1  0.24919838  0.74601667  0.33670574  1
  Al0+  Al65  1  0.25004302  0.74834375  0.67226215  1
  Al0+  Al66  1  0.75084223  0.25110222  0.00179413  1
  Al0+  Al67  1  0.75090504  0.24936609  0.33393486  1
  Al0+  Al68  1  0.75088313  0.25024610  0.66752768  1
  Al0+  Al69  1  0.75037510  0.75120884  -0.00488822  1
  Al0+  Al70  1  0.75142471  0.74717430  0.33174974  1
  Al0+  Al71  1  0.75157429  0.75021936  0.66193101  1
  Al0+  Al72  1  0.93107423  0.82211544  0.65032051  1
  Al0+  Al73  1  0.67731937  0.42875084  0.01457174  1
  Al0+  Al74  1  0.32308726  0.07090899  0.34739214  1
  Al0+  Al75  1  0.56938825  0.68192522  0.98650571  1
  Al0+  Al76  1  0.32306452  0.56992179  0.34928365  1
  Al0+  Al77  1  0.93093208  0.82208214  0.98474007  1
  Al0+  Al78  1  0.67808875  0.92752276  0.68233219  1
  Al0+  Al79  1  0.17901770  0.92757167  0.34723735  1
  Al0+  Al80  1  0.42934030  0.31838816  0.32086684  1
  Al0+  Al81  1  0.17782384  0.42766180  0.34810306  1
  Al0+  Al82  1  0.57268442  0.17934831  0.65016620  1
  Al0+  Al83  1  0.67896094  0.92537839  0.34701085  1
  Al0+  Al84  1  0.42841770  0.82107307  0.32174276  1
  Al0+  Al85  1  0.67915328  0.43039242  0.67909145  1
  Al0+  Al86  1  0.67906651  0.92869873  0.01322857  1
  Al0+  Al87  1  0.82012938  0.07164528  0.34755958  1
  Al0+  Al88  1  0.18016620  0.42942492  0.68140571  1
  Al0+  Al89  1  0.17929276  0.42821698  0.01406735  1
  Al0+  Al90  1  0.57344190  0.17834251  0.98450680  1
  Al0+  Al91  1  0.42694148  0.32111416  0.98384643  1
  Al0+  Al92  1  0.93137037  0.82175513  0.31833043  1
  Al0+  Al93  1  0.17784209  0.92875796  0.01424061  1
  Al0+  Al94  1  0.18106205  0.92994268  0.68059022  1
  Al0+  Al95  1  0.82130809  0.07079188  0.68285630  1
  Si0+  Si96  1  0.32393293  0.07300080  0.68485937  1
  Si0+  Si97  1  0.42788244  0.81986983  0.65435919  1
  Si0+  Si98  1  0.32206128  0.57240319  0.01810097  1
  Si0+  Si99  1  0.92698471  0.32352368  0.31751909  1
  Si0+  Si100  1  0.32100663  0.07044706  0.01503645  1
  Si0+  Si101  1  0.57260525  0.67637568  0.31755822  1
  Si0+  Si102  1  0.07160289  0.67617404  0.98256231  1
  Si0+  Si103  1  0.42432997  0.82309199  0.98469246  1
  Si0+  Si104  1  0.57428327  0.17759989  0.31621292  1
  Si0+  Si105  1  0.07339833  0.67700741  0.64925874  1
  Si0+  Si106  1  0.42755228  0.32208033  0.64892845  1
  Si0+  Si107  1  0.06901381  0.18088443  0.98382615  1
  Si0+  Si108  1  0.67894109  0.42941499  0.34671368  1
  Si0+  Si109  1  0.82258888  0.57276698  0.68281024  1
  Si0+  Si110  1  0.82258418  0.07294095  0.01671857  1
  Si0+  Si111  1  0.82043290  0.57240556  0.01661184  1
  Si0+  Si112  1  0.57078758  0.67778775  0.65155598  1
  Si0+  Si113  1  0.07253476  0.18062416  0.65020418  1
  Si0+  Si114  1  0.07113920  0.67430060  0.31598211  1
  Si0+  Si115  1  0.06973778  0.18116002  0.31780108  1
  Si0+  Si116  1  0.82156777  0.57013099  0.34818169  1
  Si0+  Si117  1  0.93065336  0.32268070  0.65224542  1
  Si0+  Si118  1  0.92887562  0.32422670  0.98492950  1
  Si0+  Si119  1  0.32260500  0.57286501  0.68708701  1
  O2-  O120  1  0.25897072  -0.00398344  0.05969656  1
  O2-  O121  1  0.25751858  -0.00742024  0.39725760  1
  O2-  O122  1  0.25759043  0.00180285  0.72891397  1
  O2-  O123  1  0.25591603  0.50009112  0.06019170  1
  O2-  O124  1  0.25012471  0.49850178  0.39864306  1
  O2-  O125  1  0.25531103  0.50211872  0.72975128  1
  O2-  O126  1  0.75174220  0.00593566  0.05899328  1
  O2-  O127  1  0.74965975  -0.00143662  0.39673305  1
  O2-  O128  1  0.74978111  -0.00075046  0.73326534  1
  O2-  O129  1  0.75108073  0.50456518  0.06202430  1
  O2-  O130  1  0.74954384  0.50010241  0.39001648  1
  O2-  O131  1  0.75229708  0.50611264  0.72722941  1
  O2-  O132  1  -0.00081598  0.25362708  0.27594685  1
  O2-  O133  1  0.00235114  0.25326268  0.60877487  1
  O2-  O134  1  -0.00047906  0.25359114  0.94176225  1
  O2-  O135  1  0.00900393  0.74919226  0.27168954  1
  O2-  O136  1  0.00814507  0.74845434  0.60448381  1
  O2-  O137  1  0.00795925  0.74919855  0.93792873  1
  O2-  O138  1  0.50218354  0.24296670  0.27264114  1
  O2-  O139  1  0.49740694  0.25483165  0.60461018  1
  O2-  O140  1  0.50413668  0.25403254  0.93479332  1
  O2-  O141  1  0.50641975  0.74873016  0.27568732  1
  O2-  O142  1  0.50229076  0.75191664  0.61158642  1
  O2-  O143  1  0.49634447  0.75840699  0.93889894  1
  O2-  O144  1  0.06834875  0.18053454  0.08898037  1
  O2-  O145  1  0.06913190  0.18200870  0.42305992  1
  O2-  O146  1  0.07228332  0.18172133  0.75569702  1
  O2-  O147  1  0.06846750  0.67179224  0.08772672  1
  O2-  O148  1  0.06508406  0.66830902  0.42130621  1
  O2-  O149  1  0.07075755  0.67424863  0.75484493  1
  O2-  O150  1  0.57287391  0.17896026  0.09816197  1
  O2-  O151  1  0.57713497  0.18279762  0.42186025  1
  O2-  O152  1  0.57223873  0.18113618  0.76308588  1
  O2-  O153  1  0.56813189  0.68196245  0.09955067  1
  O2-  O154  1  0.57282935  0.67360255  0.42348117  1
  O2-  O155  1  0.56984314  0.67577272  0.75656536  1
  O2-  O156  1  0.17759495  0.42876134  0.23450583  1
  O2-  O157  1  0.17945308  0.43031876  0.56887162  1
  O2-  O158  1  0.17831384  0.43035166  0.90078808  1
  O2-  O159  1  0.17773749  0.93317679  0.23361454  1
  O2-  O160  1  0.18244993  0.93110395  0.56792772  1
  O2-  O161  1  0.17739305  0.93283838  0.90081118  1
  O2-  O162  1  0.68040784  0.43042500  0.24165828  1
  O2-  O163  1  0.68141215  0.43238608  0.56537819  1
  O2-  O164  1  0.68126010  0.42967054  0.90144732  1
  O2-  O165  1  0.68042885  0.92512547  0.23302867  1
  O2-  O166  1  0.67834864  0.92677860  0.56904972  1
  O2-  O167  1  0.68241838  0.92751082  0.90048621  1
  O2-  O168  1  0.42539533  0.31765286  0.09767113  1
  O2-  O169  1  0.43335871  0.31913747  0.43415609  1
  O2-  O170  1  0.42667023  0.32066125  0.75434944  1
  O2-  O171  1  0.42346914  0.82054532  0.09015782  1
  O2-  O172  1  0.42913659  0.81778045  0.43538585  1
  O2-  O173  1  0.42532588  0.81668234  0.75951961  1
  O2-  O174  1  0.92892177  0.32430956  0.09016800  1
  O2-  O175  1  0.92519343  0.32560009  0.42270199  1
  O2-  O176  1  0.93193996  0.32316636  0.75754880  1
  O2-  O177  1  0.93139807  0.82099859  0.09791062  1
  O2-  O178  1  0.93159840  0.81990993  0.43142713  1
  O2-  O179  1  0.93175220  0.82010222  0.76360547  1
  O2-  O180  1  0.31777176  0.07300947  0.23368760  1
  O2-  O181  1  0.32186306  0.07387478  0.57938251  1
  O2-  O182  1  0.31762987  0.07067327  0.90925111  1
  O2-  O183  1  0.32376987  0.56769178  0.23578099  1
  O2-  O184  1  0.32317967  0.57473284  0.58185927  1
  O2-  O185  1  0.31931225  0.57530669  0.91239080  1
  O2-  O186  1  0.81883864  0.07384019  0.23386854  1
  O2-  O187  1  0.82133319  0.07011810  0.56959825  1
  O2-  O188  1  0.82571520  0.07294400  0.91140231  1
  O2-  O189  1  0.82323343  0.56863024  0.24320724  1
  O2-  O190  1  0.82215936  0.56989562  0.57677214  1
  O2-  O191  1  0.82107856  0.56947877  0.91093618  1
  O2-  O192  1  0.03971313  0.09141832  0.26753727  1
  O2-  O193  1  0.04309337  0.09023772  0.60190515  1
  O2-  O194  1  0.03875408  0.09102585  0.93382098  1
  O2-  O195  1  0.03791257  0.58361806  0.26676606  1
  O2-  O196  1  0.04453332  0.58437391  0.60176856  1
  O2-  O197  1  0.04058462  0.58445242  0.93389855  1
  O2-  O198  1  0.55329443  0.08211192  0.27342973  1
  O2-  O199  1  0.54211035  0.08221187  0.59678309  1
  O2-  O200  1  0.54180323  0.08109335  0.92956967  1
  O2-  O201  1  0.54293603  0.58412425  0.27050293  1
  O2-  O202  1  0.53997501  0.58680219  0.60297468  1
  O2-  O203  1  0.53730582  0.58646751  0.92981568  1
  O2-  O204  1  0.16087204  0.20816867  0.26903315  1
  O2-  O205  1  0.16477184  0.20837978  0.60358851  1
  O2-  O206  1  0.16006291  0.20672627  0.93431754  1
  O2-  O207  1  0.16781348  0.69112941  0.27420065  1
  O2-  O208  1  0.16932681  0.69903322  0.60684071  1
  O2-  O209  1  0.16720739  0.69614382  0.93823963  1
  O2-  O210  1  0.66637129  0.20797672  0.26912202  1
  O2-  O211  1  0.66902505  0.21330415  0.59683746  1
  O2-  O212  1  0.67319769  0.20653334  0.93326761  1
  O2-  O213  1  0.66743338  0.69588670  0.27143217  1
  O2-  O214  1  0.66371073  0.69993809  0.60354986  1
  O2-  O215  1  0.66618739  0.70844794  0.93051493  1
  O2-  O216  1  0.08210357  0.45898006  0.06723401  1
  O2-  O217  1  0.07820497  0.45555592  0.39955356  1
  O2-  O218  1  0.08311157  0.46009321  0.73552778  1
  O2-  O219  1  0.08384475  0.96849373  0.06688277  1
  O2-  O220  1  0.08428917  0.96675189  0.39999631  1
  O2-  O221  1  0.08659874  0.96644073  0.73422652  1
  O2-  O222  1  0.57997083  0.46086488  0.06553227  1
  O2-  O223  1  0.58849383  0.45724139  0.39544772  1
  O2-  O224  1  0.58243631  0.45970068  0.73300100  1
  O2-  O225  1  0.57971427  0.95570671  0.06420069  1
  O2-  O226  1  0.58024098  0.95103388  0.39928366  1
  O2-  O227  1  0.57841337  0.95371554  0.73382416  1
  O2-  O228  1  0.20578420  0.32943871  0.06525130  1
  O2-  O229  1  0.20480066  0.32973506  0.40110537  1
  O2-  O230  1  0.20864242  0.33208409  0.73553589  1
  O2-  O231  1  0.19795633  0.82881831  0.06529553  1
  O2-  O232  1  0.19668430  0.82634744  0.39741081  1
  O2-  O233  1  0.20791016  0.83235598  0.73516797  1
  O2-  O234  1  0.71179186  0.33411895  0.06996191  1
  O2-  O235  1  0.70882906  0.33852335  0.39406907  1
  O2-  O236  1  0.71405680  0.33605702  0.73333979  1
  O2-  O237  1  0.71205760  0.83213970  0.06593042  1
  O2-  O238  1  0.70693485  0.82598004  0.39846603  1
  O2-  O239  1  0.70708340  0.82709787  0.73131703  1
  O2-  O240  1  0.46069513  0.41487566  0.26684180  1
  O2-  O241  1  0.45076451  0.41788380  0.60598861  1
  O2-  O242  1  0.44733830  0.42195042  0.93349556  1
  O2-  O243  1  0.45455613  0.91872410  0.26678074  1
  O2-  O244  1  0.45070063  0.91303215  0.60808491  1
  O2-  O245  1  0.44365556  0.91822359  0.94004671  1
  O2-  O246  1  0.95282976  0.41514348  0.26852840  1
  O2-  O247  1  0.95720335  0.41547725  0.60502532  1
  O2-  O248  1  0.95618877  0.41605387  0.93731477  1
  O2-  O249  1  0.96032033  0.91936675  0.26511801  1
  O2-  O250  1  0.96346929  0.91960579  0.59923929  1
  O2-  O251  1  0.96210571  0.91900269  0.93121912  1
  O2-  O252  1  0.33123174  0.28862693  0.26894541  1
  O2-  O253  1  0.33379034  0.29445662  0.60360377  1
  O2-  O254  1  0.32996726  0.28720690  0.92972807  1
  O2-  O255  1  0.33145348  0.78802243  0.26822023  1
  O2-  O256  1  0.33697042  0.78793137  0.60681921  1
  O2-  O257  1  0.33137128  0.79195325  0.93859068  1
  O2-  O258  1  0.83602855  0.29406307  0.26842947  1
  O2-  O259  1  0.83944564  0.29514127  0.60382431  1
  O2-  O260  1  0.83741216  0.29619791  0.93714021  1
  O2-  O261  1  0.83569506  0.78500861  0.26504679  1
  O2-  O262  1  0.83548789  0.78839379  0.59522034  1
  O2-  O263  1  0.83643825  0.78778440  0.92941949  1
  O2-  O264  1  0.41645440  0.05389731  0.05970794  1
  O2-  O265  1  0.42333953  0.05126175  0.39869748  1
  O2-  O266  1  0.41793583  0.04932697  0.72962679  1
  O2-  O267  1  0.41673251  0.55121675  0.06240787  1
  O2-  O268  1  0.42079309  0.54059206  0.40431360  1
  O2-  O269  1  0.41641076  0.54859200  0.73324912  1
  O2-  O270  1  0.91557713  0.04555332  0.06310404  1
  O2-  O271  1  0.91921730  0.04621912  0.39922105  1
  O2-  O272  1  0.92057821  0.04516876  0.73546765  1
  O2-  O273  1  0.91301286  0.54543338  0.06408900  1
  O2-  O274  1  0.91096026  0.54023353  0.39849417  1
  O2-  O275  1  0.91534536  0.54664668  0.72969500  1
  O2-  O276  1  0.28656058  0.16111649  0.06149390  1
  O2-  O277  1  0.28661618  0.16474166  0.40420648  1
  O2-  O278  1  0.29424478  0.16480709  0.73202525  1
  O2-  O279  1  0.29324975  0.66403265  0.06678018  1
  O2-  O280  1  0.29440657  0.66675707  0.40501134  1
  O2-  O281  1  0.29529539  0.66431875  0.73660814  1
  O2-  O282  1  0.80208311  0.16790981  0.06228980  1
  O2-  O283  1  0.79444604  0.17121988  0.40115428  1
  O2-  O284  1  0.79596299  0.17066039  0.73428684  1
  O2-  O285  1  0.79403236  0.66572397  0.06171645  1
  O2-  O286  1  0.79425483  0.66085368  0.39731005  1
  O2-  O287  1  0.79787883  0.66667308  0.72699417  1
