# generated using pymatgen
data_Ca2Al2SiO7
_symmetry_space_group_name_H-M   'P 1'
_cell_length_a   15.45533610
_cell_length_b   15.45539746
_cell_length_c   15.28163987
_cell_angle_alpha   90.00755363
_cell_angle_beta   90.00185785
_cell_angle_gamma   90.01248534
_symmetry_Int_Tables_number   1
_chemical_formula_structural   Ca2Al2SiO7
_chemical_formula_sum   'Ca48 Al48 Si24 O168'
_cell_volume   3650.30016947
_cell_formula_units_Z   24
loop_
 _symmetry_equiv_pos_site_id
 _symmetry_equiv_pos_as_xyz
  1  'x, y, z'
loop_
 _atom_type_symbol
 _atom_type_oxidation_number
  Ca2+  2.0
  Al0+  0.0
  Si0+  0.0
  O2-  -2.0
loop_
 _atom_site_type_symbol
 _atom_site_label
 _atom_site_symmetry_multiplicity
 _atom_site_fract_x
 _atom_site_fract_y
 _atom_site_fract_z
 _atom_site_occupancy
  Ca2+  Ca0  1  0.17624662  0.07662374  0.17346533  1
  Ca2+  Ca1  1  0.16644961  0.08651243  0.49882115  1
  Ca2+  Ca2  1  0.16876593  0.08097496  0.84092095  1
  Ca2+  Ca3  1  0.16338905  0.56986522  0.16991460  1
  Ca2+  Ca4  1  0.17212756  0.56955618  0.50772678  1
  Ca2+  Ca5  1  0.17036055  0.57285084  0.83566775  1
  Ca2+  Ca6  1  0.66671430  0.08531896  0.17291406  1
  Ca2+  Ca7  1  0.66400146  0.07863044  0.50300750  1
  Ca2+  Ca8  1  0.66519913  0.07581721  0.83530550  1
  Ca2+  Ca9  1  0.67328699  0.57497734  0.17196620  1
  Ca2+  Ca10  1  0.67215122  0.58469277  0.49991602  1
  Ca2+  Ca11  1  0.67776397  0.57840180  0.83927600  1
  Ca2+  Ca12  1  0.08516084  0.33233539  0.16087021  1
  Ca2+  Ca13  1  0.09214834  0.32658837  0.49610843  1
  Ca2+  Ca14  1  0.08633068  0.33283100  0.82948572  1
  Ca2+  Ca15  1  0.08302581  0.83386230  0.15876396  1
  Ca2+  Ca16  1  0.07827583  0.83291309  0.49487712  1
  Ca2+  Ca17  1  0.07266465  0.83707426  0.82961963  1
  Ca2+  Ca18  1  0.58318064  0.33234528  0.15985765  1
  Ca2+  Ca19  1  0.57678684  0.33468640  0.49170568  1
  Ca2+  Ca20  1  0.57172350  0.34217628  0.83255198  1
  Ca2+  Ca21  1  0.57767759  0.82469408  0.16142105  1
  Ca2+  Ca22  1  0.58399030  0.82787705  0.49376942  1
  Ca2+  Ca23  1  0.57804135  0.83474667  0.82975898  1
  Ca2+  Ca24  1  0.32355446  0.40671287  0.16732271  1
  Ca2+  Ca25  1  0.32679209  0.41545890  0.50687049  1
  Ca2+  Ca26  1  0.32695281  0.41185172  0.83624211  1
  Ca2+  Ca27  1  0.32784549  0.92242721  0.17011717  1
  Ca2+  Ca28  1  0.32918340  0.92321105  0.49995853  1
  Ca2+  Ca29  1  0.32683498  0.92451890  0.84840512  1
  Ca2+  Ca30  1  0.82799141  0.42266312  0.17190465  1
  Ca2+  Ca31  1  0.82795514  0.42733151  0.50343455  1
  Ca2+  Ca32  1  0.83327552  0.42625408  0.84589352  1
  Ca2+  Ca33  1  0.83660548  0.91672669  0.16757924  1
  Ca2+  Ca34  1  0.82729249  0.91602081  0.50891265  1
  Ca2+  Ca35  1  0.83206334  0.91073470  0.83454294  1
  Ca2+  Ca36  1  0.41748001  0.16536552  0.16323483  1
  Ca2+  Ca37  1  0.41982485  0.17161746  0.49362036  1
  Ca2+  Ca38  1  0.40887409  0.17813829  0.83244629  1
  Ca2+  Ca39  1  0.42262253  0.66889465  0.16042178  1
  Ca2+  Ca40  1  0.42161957  0.66350442  0.49310755  1
  Ca2+  Ca41  1  0.41266841  0.67037881  0.82857151  1
  Ca2+  Ca42  1  0.92439946  0.17544910  0.16110500  1
  Ca2+  Ca43  1  0.93130836  0.16756398  0.49398200  1
  Ca2+  Ca44  1  0.92409382  0.17679404  0.82860437  1
  Ca2+  Ca45  1  0.91353569  0.66760262  0.16045081  1
  Ca2+  Ca46  1  0.90628776  0.66961599  0.49921432  1
  Ca2+  Ca47  1  0.91169044  0.67084440  0.83081475  1
  Al0+  Al48  1  -0.00075069  -0.00146397  -0.00135150  1
  Al0+  Al49  1  0.00013646  0.00115453  0.33147686  1
  Al0+  Al50  1  -0.00155038  0.00085050  0.65785547  1
  Al0+  Al51  1  0.00109550  0.50092083  0.00337323  1
  Al0+  Al52  1  -0.00070260  0.50257537  0.34343904  1
  Al0+  Al53  1  0.00018266  0.50071703  0.67369936  1
  Al0+  Al54  1  0.50127818  -0.00150423  -0.00037088  1
  Al0+  Al55  1  0.49886618  0.00177118  0.33299762  1
  Al0+  Al56  1  0.49943585  -0.00039620  0.67075790  1
  Al0+  Al57  1  0.50177144  0.49863278  -0.00204882  1
  Al0+  Al58  1  0.50068554  0.50062404  0.32880020  1
  Al0+  Al59  1  0.49997854  0.50210870  0.66415194  1
  Al0+  Al60  1  0.25296913  0.24831086  0.00418693  1
  Al0+  Al61  1  0.25046757  0.24772384  0.33613161  1
  Al0+  Al62  1  0.25124258  0.24916585  0.66124957  1
  Al0+  Al63  1  0.25007088  0.74899771  -0.00174501  1
  Al0+  Al64  1  0.24675734  0.75136588  0.33572661  1
  Al0+  Al65  1  0.24819261  0.75072071  0.66785868  1
  Al0+  Al66  1  0.75150275  0.24848569  -0.00338003  1
  Al0+  Al67  1  0.74933974  0.25070000  0.33524474  1
  Al0+  Al68  1  0.75035924  0.24872985  0.66654036  1
  Al0+  Al69  1  0.75073312  0.74991770  -0.00045730  1
  Al0+  Al70  1  0.74819435  0.75038385  0.32963560  1
  Al0+  Al71  1  0.74807212  0.75078758  0.67142370  1
  Al0+  Al72  1  0.18107102  0.42948964  0.01386534  1
  Al0+  Al73  1  0.81954026  0.57316678  0.35017256  1
  Al0+  Al74  1  0.67916018  0.93048020  0.68036911  1
  Al0+  Al75  1  0.43167053  0.32124333  0.65161567  1
  Al0+  Al76  1  0.32202642  0.06973313  0.35135618  1
  Al0+  Al77  1  0.92851751  0.81799499  0.65151170  1
  Al0+  Al78  1  0.32327866  0.57287514  0.68100794  1
  Al0+  Al79  1  0.57089795  0.67893251  0.31798550  1
  Al0+  Al80  1  0.06992465  0.18115322  0.65271089  1
  Al0+  Al81  1  0.17650601  0.92758155  0.01340077  1
  Al0+  Al82  1  0.17987924  0.42883371  0.34746870  1
  Al0+  Al83  1  0.42885515  0.82024542  0.98635184  1
  Al0+  Al84  1  0.32231663  0.07061992  0.01541510  1
  Al0+  Al85  1  0.07182019  0.17984620  0.31613997  1
  Al0+  Al86  1  0.67841399  0.42677883  0.01429315  1
  Al0+  Al87  1  0.92956584  0.32244928  0.98808101  1
  Al0+  Al88  1  0.42988171  0.31952854  0.98691022  1
  Al0+  Al89  1  0.81917430  0.57022288  0.68246923  1
  Al0+  Al90  1  0.57192511  0.17915238  0.32043787  1
  Al0+  Al91  1  0.67706300  0.42737240  0.34915516  1
  Al0+  Al92  1  0.18162492  0.42627600  0.68290219  1
  Al0+  Al93  1  0.17626006  0.92820351  0.35066403  1
  Al0+  Al94  1  0.92987304  0.82066083  0.98591064  1
  Al0+  Al95  1  0.82115823  0.57198170  0.01665241  1
  Si0+  Si96  1  0.67991558  0.93022575  0.34539980  1
  Si0+  Si97  1  0.92919958  0.32392321  0.31919120  1
  Si0+  Si98  1  0.56944299  0.68207063  0.65212077  1
  Si0+  Si99  1  0.07283848  0.67710122  0.64912924  1
  Si0+  Si100  1  0.32380557  0.57279453  0.01616617  1
  Si0+  Si101  1  0.57245991  0.17560650  0.65110051  1
  Si0+  Si102  1  0.57159776  0.67851357  0.98077887  1
  Si0+  Si103  1  0.07324145  0.67619334  0.98264466  1
  Si0+  Si104  1  0.17625111  0.92954599  0.68069043  1
  Si0+  Si105  1  0.32217272  0.57365605  0.34639821  1
  Si0+  Si106  1  0.82441613  0.07184893  0.68295542  1
  Si0+  Si107  1  0.67946226  0.92909402  0.01634868  1
  Si0+  Si108  1  0.82166855  0.07198709  0.34737448  1
  Si0+  Si109  1  0.42848783  0.32180618  0.31592968  1
  Si0+  Si110  1  0.42637780  0.82211090  0.31780289  1
  Si0+  Si111  1  0.82133785  0.07079681  0.01410490  1
  Si0+  Si112  1  0.92614013  0.32554801  0.65004886  1
  Si0+  Si113  1  0.07096499  0.67829955  0.31989473  1
  Si0+  Si114  1  0.07186537  0.17934801  0.98514872  1
  Si0+  Si115  1  0.32048355  0.06894099  0.68217583  1
  Si0+  Si116  1  0.92850842  0.82055678  0.31841285  1
  Si0+  Si117  1  0.57453041  0.17600164  0.98151113  1
  Si0+  Si118  1  0.67740561  0.42547541  0.68275308  1
  Si0+  Si119  1  0.42649852  0.82339067  0.65146041  1
  O2-  O120  1  0.25072125  -0.00300859  0.06306723  1
  O2-  O121  1  0.24807550  -0.00038521  0.40189682  1
  O2-  O122  1  0.24907023  -0.00201788  0.72365047  1
  O2-  O123  1  0.25642385  0.50353967  0.06135984  1
  O2-  O124  1  0.25621139  0.50320232  0.39156446  1
  O2-  O125  1  0.25346428  0.49940616  0.73165120  1
  O2-  O126  1  0.74976457  0.00077522  0.05802192  1
  O2-  O127  1  0.74945377  0.00165032  0.38910241  1
  O2-  O128  1  0.75291925  0.00609857  0.72753400  1
  O2-  O129  1  0.75123301  0.49737574  0.06472255  1
  O2-  O130  1  0.74782868  0.50035313  0.39935252  1
  O2-  O131  1  0.75121205  0.48842256  0.72709218  1
  O2-  O132  1  -0.00045718  0.25813225  0.27213950  1
  O2-  O133  1  -0.00412621  0.25762864  0.60611657  1
  O2-  O134  1  0.00615354  0.25016084  0.93985673  1
  O2-  O135  1  0.00041647  0.75019614  0.27747669  1
  O2-  O136  1  0.00217494  0.74344203  0.60320548  1
  O2-  O137  1  0.00583377  0.74733550  0.93952728  1
  O2-  O138  1  0.50031531  0.25553696  0.27293410  1
  O2-  O139  1  0.51006491  0.24930822  0.60644310  1
  O2-  O140  1  0.50620314  0.24595150  0.93905138  1
  O2-  O141  1  0.49215808  0.75069098  0.27339372  1
  O2-  O142  1  0.49425283  0.74934155  0.60921702  1
  O2-  O143  1  0.50064016  0.74461179  0.93576974  1
  O2-  O144  1  0.06891769  0.17935979  0.09063008  1
  O2-  O145  1  0.06876290  0.17953470  0.42943805  1
  O2-  O146  1  0.06849738  0.17895781  0.76605203  1
  O2-  O147  1  0.07291355  0.67575875  0.08868551  1
  O2-  O148  1  0.07204084  0.67938179  0.42479220  1
  O2-  O149  1  0.07448696  0.68047669  0.75450014  1
  O2-  O150  1  0.57566732  0.17449033  0.08711106  1
  O2-  O151  1  0.56996562  0.17667019  0.43362019  1
  O2-  O152  1  0.57021727  0.17188772  0.75644470  1
  O2-  O153  1  0.57137986  0.68146306  0.08647971  1
  O2-  O154  1  0.57155866  0.68381396  0.43167917  1
  O2-  O155  1  0.56975216  0.68494465  0.75707202  1
  O2-  O156  1  0.17911260  0.42990992  0.23417845  1
  O2-  O157  1  0.18411900  0.42661763  0.56914210  1
  O2-  O158  1  0.18196704  0.42888579  0.90120097  1
  O2-  O159  1  0.17665401  0.92700930  0.23747594  1
  O2-  O160  1  0.17774705  0.92952052  0.57580136  1
  O2-  O161  1  0.17516419  0.93210314  0.89901266  1
  O2-  O162  1  0.67948177  0.42650540  0.23601055  1
  O2-  O163  1  0.67681686  0.42687275  0.57721334  1
  O2-  O164  1  0.67848170  0.42991803  0.90024002  1
  O2-  O165  1  0.68213655  0.93039842  0.24019148  1
  O2-  O166  1  0.67922368  0.93096771  0.56667044  1
  O2-  O167  1  0.67909596  0.92977929  0.91111751  1
  O2-  O168  1  0.42933121  0.31745866  0.09966473  1
  O2-  O169  1  0.42955455  0.32125844  0.42186307  1
  O2-  O170  1  0.43052996  0.31875202  0.76477017  1
  O2-  O171  1  0.43284921  0.81892822  0.09953947  1
  O2-  O172  1  0.42905380  0.82203231  0.42399217  1
  O2-  O173  1  0.42850217  0.82517496  0.75640127  1
  O2-  O174  1  0.92918871  0.31894610  0.10126348  1
  O2-  O175  1  0.92929868  0.32001219  0.42497848  1
  O2-  O176  1  0.92515261  0.32257315  0.75575713  1
  O2-  O177  1  0.92935280  0.82123551  0.09931966  1
  O2-  O178  1  0.92592116  0.82008170  0.42355272  1
  O2-  O179  1  0.93001678  0.81859478  0.76435623  1
  O2-  O180  1  0.32370978  0.06647194  0.23825072  1
  O2-  O181  1  0.32319664  0.06644361  0.57737882  1
  O2-  O182  1  0.31910419  0.07134984  0.90092044  1
  O2-  O183  1  0.31939760  0.57583281  0.24086270  1
  O2-  O184  1  0.32262585  0.57293023  0.56703591  1
  O2-  O185  1  0.32182192  0.57307521  0.91066705  1
  O2-  O186  1  0.82183542  0.07006585  0.24198834  1
  O2-  O187  1  0.82403701  0.06978064  0.57710813  1
  O2-  O188  1  0.82082716  0.06994034  0.90902070  1
  O2-  O189  1  0.81964593  0.57436783  0.23721757  1
  O2-  O190  1  0.81383811  0.57281680  0.56961100  1
  O2-  O191  1  0.81816353  0.57295217  0.90279464  1
  O2-  O192  1  0.03676786  0.08397015  0.26288611  1
  O2-  O193  1  0.03657581  0.08673970  0.59468625  1
  O2-  O194  1  0.04235481  0.08700509  0.93851764  1
  O2-  O195  1  0.04157955  0.58638630  0.27320353  1
  O2-  O196  1  0.04927185  0.58157250  0.60624764  1
  O2-  O197  1  0.04502276  0.58421688  0.93512377  1
  O2-  O198  1  0.54157212  0.08238011  0.26504087  1
  O2-  O199  1  0.54099468  0.08346515  0.60403277  1
  O2-  O200  1  0.54845825  0.08214808  0.93579818  1
  O2-  O201  1  0.54346870  0.58253926  0.26207985  1
  O2-  O202  1  0.54666412  0.58981274  0.60318401  1
  O2-  O203  1  0.54970405  0.58410001  0.93551979  1
  O2-  O204  1  0.17022361  0.20724738  0.26516701  1
  O2-  O205  1  0.16616158  0.20941233  0.59684878  1
  O2-  O206  1  0.16655108  0.20264356  0.94104589  1
  O2-  O207  1  0.16243738  0.70492714  0.27063258  1
  O2-  O208  1  0.16552208  0.70546982  0.60141808  1
  O2-  O209  1  0.16731772  0.69829466  0.93610813  1
  O2-  O210  1  0.67049598  0.20491190  0.26672911  1
  O2-  O211  1  0.66942002  0.19250924  0.60771122  1
  O2-  O212  1  0.66828317  0.19800732  0.93395707  1
  O2-  O213  1  0.66421618  0.71612500  0.26138878  1
  O2-  O214  1  0.65877164  0.71653925  0.60427770  1
  O2-  O215  1  0.66376424  0.70955016  0.93505453  1
  O2-  O216  1  0.08562982  0.46101996  0.06925325  1
  O2-  O217  1  0.08520492  0.46035764  0.40419199  1
  O2-  O218  1  0.08230022  0.45272947  0.73460187  1
  O2-  O219  1  0.07831936  0.95618268  0.06661899  1
  O2-  O220  1  0.07709964  0.95766876  0.40208947  1
  O2-  O221  1  0.08411088  0.96050789  0.72517717  1
  O2-  O222  1  0.57995428  0.45540572  0.06692317  1
  O2-  O223  1  0.57759188  0.45696596  0.39969515  1
  O2-  O224  1  0.58576946  0.45831989  0.72799924  1
  O2-  O225  1  0.58819346  0.95567063  0.06462885  1
  O2-  O226  1  0.58795928  0.95608121  0.39307712  1
  O2-  O227  1  0.58310058  0.96106302  0.73684998  1
  O2-  O228  1  0.21183278  0.33324907  0.06812574  1
  O2-  O229  1  0.21085540  0.33268721  0.40079682  1
  O2-  O230  1  0.21238324  0.32754663  0.73406697  1
  O2-  O231  1  0.20245499  0.82749678  0.06380639  1
  O2-  O232  1  0.20317164  0.82937389  0.40479851  1
  O2-  O233  1  0.19997713  0.83683123  0.72749223  1
  O2-  O234  1  0.70465009  0.32612406  0.06340769  1
  O2-  O235  1  0.70471228  0.32903547  0.40362508  1
  O2-  O236  1  0.69470554  0.32881146  0.72625728  1
  O2-  O237  1  0.70859126  0.83792115  0.06349445  1
  O2-  O238  1  0.70941454  0.83956868  0.39366941  1
  O2-  O239  1  0.71061906  0.83632784  0.73739061  1
  O2-  O240  1  0.44851348  0.41645257  0.27007570  1
  O2-  O241  1  0.45918387  0.41903309  0.59755165  1
  O2-  O242  1  0.45832644  0.41681171  0.93153802  1
  O2-  O243  1  0.45657733  0.91392020  0.27162119  1
  O2-  O244  1  0.45933970  0.91375142  0.60374300  1
  O2-  O245  1  0.46284283  0.91588098  0.93122734  1
  O2-  O246  1  0.95233064  0.41989067  0.27761877  1
  O2-  O247  1  0.94971063  0.42054262  0.60658002  1
  O2-  O248  1  0.95881249  0.41963923  0.93519738  1
  O2-  O249  1  0.95468511  0.91285903  0.27118813  1
  O2-  O250  1  0.95714089  0.91460058  0.59607942  1
  O2-  O251  1  0.95788922  0.91781024  0.92977537  1
  O2-  O252  1  0.33599227  0.29125806  0.27120332  1
  O2-  O253  1  0.33758843  0.28601452  0.59615480  1
  O2-  O254  1  0.33395495  0.28551462  0.93204690  1
  O2-  O255  1  0.33121332  0.79959121  0.27393486  1
  O2-  O256  1  0.33300931  0.80020211  0.60514475  1
  O2-  O257  1  0.33133522  0.79344100  0.93145341  1
  O2-  O258  1  0.83630765  0.29493700  0.27375150  1
  O2-  O259  1  0.83213488  0.29914760  0.60394214  1
  O2-  O260  1  0.83521163  0.28838939  0.93075143  1
  O2-  O261  1  0.83729054  0.79341709  0.26933524  1
  O2-  O262  1  0.83006824  0.78781943  0.59980863  1
  O2-  O263  1  0.83245658  0.79083496  0.93202856  1
  O2-  O264  1  0.42180293  0.04205274  0.06591432  1
  O2-  O265  1  0.42013372  0.03916936  0.40551669  1
  O2-  O266  1  0.41127352  0.04137330  0.73133771  1
  O2-  O267  1  0.41859937  0.54927210  0.05981926  1
  O2-  O268  1  0.41722653  0.55105755  0.39027205  1
  O2-  O269  1  0.42349829  0.54978295  0.73242501  1
  O2-  O270  1  0.91178906  0.04096786  0.06286960  1
  O2-  O271  1  0.91186113  0.04145050  0.39576230  1
  O2-  O272  1  0.91653202  0.04207093  0.72913809  1
  O2-  O273  1  0.92057255  0.54752578  0.06808517  1
  O2-  O274  1  0.91721336  0.54833838  0.40627787  1
  O2-  O275  1  0.91806913  0.54835854  0.73545792  1
  O2-  O276  1  0.29425729  0.16692684  0.07096977  1
  O2-  O277  1  0.29417641  0.16781612  0.40431794  1
  O2-  O278  1  0.29111617  0.16098943  0.72690146  1
  O2-  O279  1  0.29897276  0.66632079  0.06249076  1
  O2-  O280  1  0.29674572  0.66650566  0.39423050  1
  O2-  O281  1  0.29366481  0.67191159  0.73389460  1
  O2-  O282  1  0.79486024  0.16212476  0.06261405  1
  O2-  O283  1  0.79545333  0.16273695  0.39671120  1
  O2-  O284  1  0.80239564  0.16683143  0.72845295  1
  O2-  O285  1  0.79016110  0.67039430  0.06860035  1
  O2-  O286  1  0.78635662  0.67194031  0.40137088  1
  O2-  O287  1  0.78200906  0.66438061  0.73686663  1
