# generated using pymatgen
data_Ca2Al2SiO7
_symmetry_space_group_name_H-M   'P 1'
_cell_length_a   15.45636871
_cell_length_b   15.45706633
_cell_length_c   15.28256318
_cell_angle_alpha   90.01705355
_cell_angle_beta   89.99997074
_cell_angle_gamma   89.99415388
_symmetry_Int_Tables_number   1
_chemical_formula_structural   Ca2Al2SiO7
_chemical_formula_sum   'Ca48 Al48 Si24 O168'
_cell_volume   3651.15876919
_cell_formula_units_Z   24
loop_
 _symmetry_equiv_pos_site_id
 _symmetry_equiv_pos_as_xyz
  1  'x, y, z'
loop_
 _atom_type_symbol
 _atom_type_oxidation_number
  Ca2+  2.0
  Al0+  0.0
  Si0+  0.0
  O2-  -2.0
loop_
 _atom_site_type_symbol
 _atom_site_label
 _atom_site_symmetry_multiplicity
 _atom_site_fract_x
 _atom_site_fract_y
 _atom_site_fract_z
 _atom_site_occupancy
  Ca2+  Ca0  1  0.16586188  0.07569206  0.16962278  1
  Ca2+  Ca1  1  0.15805885  0.07229508  0.50228263  1
  Ca2+  Ca2  1  0.17502970  0.06815958  0.84253686  1
  Ca2+  Ca3  1  0.16429169  0.58999206  0.16806610  1
  Ca2+  Ca4  1  0.16309243  0.57785608  0.50402152  1
  Ca2+  Ca5  1  0.16165921  0.57814872  0.83898059  1
  Ca2+  Ca6  1  0.66119372  0.07383353  0.16785111  1
  Ca2+  Ca7  1  0.67523632  0.07843031  0.50228138  1
  Ca2+  Ca8  1  0.66902857  0.08124805  0.84125268  1
  Ca2+  Ca9  1  0.67677913  0.57893209  0.17230577  1
  Ca2+  Ca10  1  0.67183766  0.57897339  0.50632712  1
  Ca2+  Ca11  1  0.67721348  0.59269986  0.83655367  1
  Ca2+  Ca12  1  0.07357019  0.32774905  0.16353442  1
  Ca2+  Ca13  1  0.07859723  0.32676317  0.48940009  1
  Ca2+  Ca14  1  0.07931866  0.33471746  0.83172065  1
  Ca2+  Ca15  1  0.07774493  0.83004750  0.16091569  1
  Ca2+  Ca16  1  0.07832901  0.83264050  0.48810830  1
  Ca2+  Ca17  1  0.08709773  0.83129297  0.83296952  1
  Ca2+  Ca18  1  0.57622115  0.33078516  0.15949845  1
  Ca2+  Ca19  1  0.57940566  0.33472352  0.48985691  1
  Ca2+  Ca20  1  0.57976078  0.32848315  0.83521937  1
  Ca2+  Ca21  1  0.58043286  0.84117721  0.15712139  1
  Ca2+  Ca22  1  0.58284012  0.83013367  0.49869065  1
  Ca2+  Ca23  1  0.57284926  0.83813428  0.82950367  1
  Ca2+  Ca24  1  0.33810648  0.41538290  0.17171934  1
  Ca2+  Ca25  1  0.32692373  0.41608776  0.50470131  1
  Ca2+  Ca26  1  0.32835016  0.41497550  0.83780732  1
  Ca2+  Ca27  1  0.32464343  0.91784847  0.16690288  1
  Ca2+  Ca28  1  0.31950812  0.91256966  0.50523072  1
  Ca2+  Ca29  1  0.32881399  0.91254451  0.84349864  1
  Ca2+  Ca30  1  0.83544403  0.41732449  0.16958539  1
  Ca2+  Ca31  1  0.83209371  0.42016682  0.50415746  1
  Ca2+  Ca32  1  0.83707269  0.43028644  0.84214493  1
  Ca2+  Ca33  1  0.82521359  0.90651709  0.17079329  1
  Ca2+  Ca34  1  0.83363032  0.91930682  0.50241034  1
  Ca2+  Ca35  1  0.82818737  0.92044018  0.84202964  1
  Ca2+  Ca36  1  0.41885826  0.17389583  0.15617320  1
  Ca2+  Ca37  1  0.41680402  0.17436797  0.49324588  1
  Ca2+  Ca38  1  0.41944238  0.16096931  0.83856091  1
  Ca2+  Ca39  1  0.42144169  0.67431836  0.15907042  1
  Ca2+  Ca40  1  0.42051734  0.67074154  0.50171426  1
  Ca2+  Ca41  1  0.42325804  0.67994146  0.82730817  1
  Ca2+  Ca42  1  0.91748346  0.17495796  0.16523048  1
  Ca2+  Ca43  1  0.92090969  0.16964910  0.49103451  1
  Ca2+  Ca44  1  0.91067063  0.17196534  0.83006777  1
  Ca2+  Ca45  1  0.92522870  0.67396585  0.16007561  1
  Ca2+  Ca46  1  0.92172960  0.67075864  0.49297322  1
  Ca2+  Ca47  1  0.91425126  0.67043583  0.83584411  1
  Al0+  Al48  1  -0.00100998  0.00024485  0.00071884  1
  Al0+  Al49  1  -0.00071150  -0.00030422  0.32861936  1
  Al0+  Al50  1  0.00023258  0.00096861  0.67645639  1
  Al0+  Al51  1  0.00058673  0.49983722  -0.00130122  1
  Al0+  Al52  1  0.00182636  0.50072572  0.32773933  1
  Al0+  Al53  1  -0.00195075  0.50009005  0.67353842  1
  Al0+  Al54  1  0.49976483  0.00177807  -0.00080557  1
  Al0+  Al55  1  0.49979919  0.00010766  0.34149931  1
  Al0+  Al56  1  0.49857957  0.00192885  0.65734685  1
  Al0+  Al57  1  0.49969561  0.49893169  -0.00536282  1
  Al0+  Al58  1  0.50100338  0.50134080  0.33491559  1
  Al0+  Al59  1  0.49954350  0.49964485  0.66387182  1
  Al0+  Al60  1  0.24916963  0.25030522  -0.00016944  1
  Al0+  Al61  1  0.25107387  0.25055501  0.32595933  1
  Al0+  Al62  1  0.24855866  0.24836845  0.67064676  1
  Al0+  Al63  1  0.25047837  0.74700453  -0.00361793  1
  Al0+  Al64  1  0.25264601  0.75034217  0.33574142  1
  Al0+  Al65  1  0.24995771  0.74780682  0.66555998  1
  Al0+  Al66  1  0.74956329  0.25121158  -0.00801576  1
  Al0+  Al67  1  0.74811865  0.24950639  0.33434613  1
  Al0+  Al68  1  0.74891750  0.25096217  0.66866304  1
  Al0+  Al69  1  0.75354780  0.74935517  0.00665394  1
  Al0+  Al70  1  0.74938313  0.74827210  0.33707681  1
  Al0+  Al71  1  0.74971807  0.74997962  0.66565554  1
  Al0+  Al72  1  0.93005523  0.31976049  0.98410667  1
  Al0+  Al73  1  0.42672347  0.82274915  0.64853637  1
  Al0+  Al74  1  0.68089637  0.93096632  0.01138932  1
  Al0+  Al75  1  0.57302830  0.67942247  0.65074935  1
  Al0+  Al76  1  0.43082710  0.82048877  0.98939268  1
  Al0+  Al77  1  0.07087698  0.68006034  0.98232038  1
  Al0+  Al78  1  0.17823355  0.92541630  0.01703810  1
  Al0+  Al79  1  0.32100294  0.07110188  0.01609665  1
  Al0+  Al80  1  0.42650309  0.32293164  0.98230014  1
  Al0+  Al81  1  0.17992946  0.92723196  0.68076325  1
  Al0+  Al82  1  0.82218817  0.57039659  0.01694008  1
  Al0+  Al83  1  0.43066652  0.32210611  0.32084259  1
  Al0+  Al84  1  0.57014020  0.17886400  0.98482376  1
  Al0+  Al85  1  0.17917302  0.92987425  0.34663464  1
  Al0+  Al86  1  0.07421294  0.67946789  0.31996744  1
  Al0+  Al87  1  0.07178984  0.17722689  0.31789460  1
  Al0+  Al88  1  0.92735694  0.82263414  0.98348124  1
  Al0+  Al89  1  0.81938421  0.57115050  0.68085675  1
  Al0+  Al90  1  0.67904463  0.42884282  0.34567623  1
  Al0+  Al91  1  0.82035536  0.07172584  0.68027530  1
  Al0+  Al92  1  0.92634628  0.32173808  0.31999757  1
  Al0+  Al93  1  0.67755235  0.92701673  0.34979233  1
  Al0+  Al94  1  0.92668683  0.82090611  0.31979474  1
  Al0+  Al95  1  0.17916097  0.42845512  0.67952965  1
  Si0+  Si96  1  0.67763701  0.42782721  0.01509230  1
  Si0+  Si97  1  0.92931451  0.32200874  0.65219824  1
  Si0+  Si98  1  0.67529083  0.42770194  0.68477758  1
  Si0+  Si99  1  0.82218447  0.07580174  0.01726260  1
  Si0+  Si100  1  0.06936274  0.67706173  0.65225032  1
  Si0+  Si101  1  0.57410774  0.67700574  0.98644577  1
  Si0+  Si102  1  0.32289877  0.07238388  0.68196195  1
  Si0+  Si103  1  0.57120937  0.17633138  0.31830738  1
  Si0+  Si104  1  0.82146263  0.07189925  0.34818154  1
  Si0+  Si105  1  0.42739368  0.31960661  0.65114860  1
  Si0+  Si106  1  0.07233377  0.17710211  0.98083346  1
  Si0+  Si107  1  0.82379870  0.56968170  0.35064404  1
  Si0+  Si108  1  0.67740529  0.92951104  0.68185084  1
  Si0+  Si109  1  0.32263877  0.56911334  0.01409408  1
  Si0+  Si110  1  0.43088617  0.82157109  0.31880868  1
  Si0+  Si111  1  0.32268236  0.57171608  0.34915911  1
  Si0+  Si112  1  0.17918360  0.42915941  0.01723342  1
  Si0+  Si113  1  0.57303737  0.18030818  0.64811013  1
  Si0+  Si114  1  0.57063471  0.67899159  0.31841963  1
  Si0+  Si115  1  0.32302972  0.57043526  0.68419021  1
  Si0+  Si116  1  0.06997720  0.17917356  0.65385513  1
  Si0+  Si117  1  0.93042993  0.82312061  0.65324746  1
  Si0+  Si118  1  0.32114623  0.07398907  0.35103831  1
  Si0+  Si119  1  0.17987430  0.42877802  0.34560920  1
  O2-  O120  1  0.24812660  0.00030355  0.06619625  1
  O2-  O121  1  0.25096134  0.00701916  0.39571266  1
  O2-  O122  1  0.26065660  -0.00282221  0.72427934  1
  O2-  O123  1  0.25350931  0.49733021  0.05844427  1
  O2-  O124  1  0.24972536  0.50080003  0.38898351  1
  O2-  O125  1  0.25361116  0.50249869  0.72814817  1
  O2-  O126  1  0.75683752  0.00369253  0.06072773  1
  O2-  O127  1  0.75533790  0.00045495  0.39324656  1
  O2-  O128  1  0.74466706  -0.00153256  0.72689926  1
  O2-  O129  1  0.74592529  0.49562616  0.06088677  1
  O2-  O130  1  0.75730662  0.49851360  0.39473442  1
  O2-  O131  1  0.74199941  0.49857139  0.72770222  1
  O2-  O132  1  -0.00155952  0.24956178  0.27064035  1
  O2-  O133  1  -0.00096172  0.24994347  0.60979199  1
  O2-  O134  1  0.00114632  0.24271024  0.93513174  1
  O2-  O135  1  0.00199783  0.75145651  0.27159445  1
  O2-  O136  1  0.00229176  0.75222690  0.61073994  1
  O2-  O137  1  0.00193864  0.75436359  0.93125612  1
  O2-  O138  1  0.50407679  0.24658975  0.27494455  1
  O2-  O139  1  0.50072742  0.25146765  0.60773438  1
  O2-  O140  1  0.49747853  0.24988806  0.93301391  1
  O2-  O141  1  0.50569290  0.75506445  0.27574830  1
  O2-  O142  1  0.50121238  0.75170045  0.59980351  1
  O2-  O143  1  0.50797905  0.74814158  0.94280535  1
  O2-  O144  1  0.07241659  0.18076595  0.08633881  1
  O2-  O145  1  0.07096355  0.17925297  0.43280943  1
  O2-  O146  1  0.06963494  0.18178791  0.75843761  1
  O2-  O147  1  0.07098164  0.67956223  0.09568929  1
  O2-  O148  1  0.07219646  0.67750800  0.43454468  1
  O2-  O149  1  0.06839406  0.67547875  0.75671544  1
  O2-  O150  1  0.57021789  0.18061043  0.09856273  1
  O2-  O151  1  0.56996894  0.17816068  0.42454469  1
  O2-  O152  1  0.57388705  0.17935595  0.75261535  1
  O2-  O153  1  0.56973053  0.67420219  0.09243054  1
  O2-  O154  1  0.56787877  0.67749218  0.42338982  1
  O2-  O155  1  0.57202041  0.68184911  0.76438039  1
  O2-  O156  1  0.18160947  0.42880527  0.24083441  1
  O2-  O157  1  0.17988096  0.42874454  0.56580094  1
  O2-  O158  1  0.17909447  0.43041343  0.91166253  1
  O2-  O159  1  0.18292950  0.92749544  0.23454600  1
  O2-  O160  1  0.17602814  0.93003516  0.56727552  1
  O2-  O161  1  0.18259035  0.92563523  0.90294831  1
  O2-  O162  1  0.67571087  0.43326730  0.23310020  1
  O2-  O163  1  0.67697041  0.42596308  0.57880582  1
  O2-  O164  1  0.67788331  0.42955527  0.90930091  1
  O2-  O165  1  0.67368063  0.92934617  0.23704749  1
  O2-  O166  1  0.68078070  0.93060168  0.57598035  1
  O2-  O167  1  0.68000203  0.93246209  0.89797796  1
  O2-  O168  1  0.43060515  0.32572584  0.09585457  1
  O2-  O169  1  0.42986516  0.32102332  0.43481213  1
  O2-  O170  1  0.42722668  0.31883054  0.75557290  1
  O2-  O171  1  0.43159966  0.81792096  0.10305029  1
  O2-  O172  1  0.42953968  0.81779769  0.42376287  1
  O2-  O173  1  0.42829901  0.82238598  0.76217931  1
  O2-  O174  1  0.93121923  0.31911470  0.09709776  1
  O2-  O175  1  0.92922209  0.32176435  0.43455942  1
  O2-  O176  1  0.93077768  0.32170483  0.75701734  1
  O2-  O177  1  0.92504653  0.81810433  0.09668709  1
  O2-  O178  1  0.92798328  0.81973508  0.43472056  1
  O2-  O179  1  0.92961057  0.82270195  0.75775635  1
  O2-  O180  1  0.32393503  0.07211766  0.24615920  1
  O2-  O181  1  0.31896717  0.07811664  0.57635708  1
  O2-  O182  1  0.32002241  0.06829018  0.90188743  1
  O2-  O183  1  0.32588577  0.57220557  0.24411770  1
  O2-  O184  1  0.32265696  0.56826819  0.57802621  1
  O2-  O185  1  0.32241248  0.56788937  0.90910840  1
  O2-  O186  1  0.81841801  0.07546516  0.24318355  1
  O2-  O187  1  0.82085929  0.07171959  0.56689044  1
  O2-  O188  1  0.81862141  0.07618002  0.91118667  1
  O2-  O189  1  0.82146643  0.57007702  0.24544143  1
  O2-  O190  1  0.82240453  0.56686696  0.56759080  1
  O2-  O191  1  0.81974665  0.57011509  0.90341160  1
  O2-  O192  1  0.04412287  0.08049528  0.26327195  1
  O2-  O193  1  0.04031790  0.08697208  0.60784446  1
  O2-  O194  1  0.05055780  0.08210469  0.93675004  1
  O2-  O195  1  0.04905293  0.58132824  0.26577274  1
  O2-  O196  1  0.03680060  0.58605739  0.60496485  1
  O2-  O197  1  0.04027852  0.58159375  0.93053290  1
  O2-  O198  1  0.54330752  0.08248489  0.27447008  1
  O2-  O199  1  0.54681545  0.08936129  0.59800308  1
  O2-  O200  1  0.54034339  0.08239197  0.92842226  1
  O2-  O201  1  0.53700736  0.59013858  0.26957854  1
  O2-  O202  1  0.54377426  0.57989756  0.59801244  1
  O2-  O203  1  0.54687496  0.58564068  0.93697037  1
  O2-  O204  1  0.16852965  0.20708711  0.26365052  1
  O2-  O205  1  0.16196684  0.20651293  0.60608283  1
  O2-  O206  1  0.16443418  0.20678230  0.93436667  1
  O2-  O207  1  0.17413257  0.70549448  0.26896469  1
  O2-  O208  1  0.16363845  0.69726514  0.60648325  1
  O2-  O209  1  0.17066194  0.70248024  0.92870102  1
  O2-  O210  1  0.66509358  0.19867640  0.27321711  1
  O2-  O211  1  0.66434210  0.21037459  0.60005139  1
  O2-  O212  1  0.66659839  0.20834986  0.92787522  1
  O2-  O213  1  0.66481126  0.70008535  0.27396726  1
  O2-  O214  1  0.67129593  0.70686462  0.59547964  1
  O2-  O215  1  0.66874891  0.70097722  0.94419780  1
  O2-  O216  1  0.08897844  0.46026158  0.06475444  1
  O2-  O217  1  0.08770143  0.45554648  0.39372564  1
  O2-  O218  1  0.08410259  0.45984749  0.73562839  1
  O2-  O219  1  0.07789459  0.95283265  0.06643274  1
  O2-  O220  1  0.08062722  0.95878629  0.39930837  1
  O2-  O221  1  0.08685679  0.96230466  0.73791993  1
  O2-  O222  1  0.58287042  0.45308171  0.05937654  1
  O2-  O223  1  0.58447964  0.46433982  0.40280766  1
  O2-  O224  1  0.57999154  0.44961162  0.72853819  1
  O2-  O225  1  0.58515098  0.96356391  0.06604570  1
  O2-  O226  1  0.58284418  0.95995509  0.40757714  1
  O2-  O227  1  0.58163980  0.95605208  0.72242258  1
  O2-  O228  1  0.20380650  0.33658924  0.06368929  1
  O2-  O229  1  0.20921985  0.33715425  0.39340037  1
  O2-  O230  1  0.20972442  0.33266294  0.73528504  1
  O2-  O231  1  0.21060248  0.82671077  0.06689377  1
  O2-  O232  1  0.21384718  0.83421377  0.40217936  1
  O2-  O233  1  0.20615236  0.82814036  0.73160117  1
  O2-  O234  1  0.70346858  0.33361152  0.05904379  1
  O2-  O235  1  0.70319418  0.33058598  0.40097188  1
  O2-  O236  1  0.70242452  0.33490764  0.73093189  1
  O2-  O237  1  0.70780313  0.83421397  0.06754743  1
  O2-  O238  1  0.70598966  0.82952992  0.40403369  1
  O2-  O239  1  0.70182523  0.83567267  0.72633667  1
  O2-  O240  1  0.46146732  0.41908659  0.26798453  1
  O2-  O241  1  0.45141470  0.41257973  0.60386641  1
  O2-  O242  1  0.45617116  0.42021588  0.92647158  1
  O2-  O243  1  0.45558399  0.91586158  0.27597325  1
  O2-  O244  1  0.45072349  0.92180713  0.59396929  1
  O2-  O245  1  0.45981359  0.91617562  0.93420978  1
  O2-  O246  1  0.95610997  0.41862405  0.26606417  1
  O2-  O247  1  0.95898984  0.41357246  0.60567024  1
  O2-  O248  1  0.96598286  0.41452538  0.93024355  1
  O2-  O249  1  0.94856684  0.91985736  0.26740093  1
  O2-  O250  1  0.95909553  0.91580469  0.60760775  1
  O2-  O251  1  0.94793676  0.92441125  0.93385929  1
  O2-  O252  1  0.33501362  0.29489335  0.26477448  1
  O2-  O253  1  0.33561188  0.28879668  0.60413001  1
  O2-  O254  1  0.32698930  0.29632020  0.93113720  1
  O2-  O255  1  0.34112900  0.78901923  0.27130732  1
  O2-  O256  1  0.32941222  0.78820190  0.59501271  1
  O2-  O257  1  0.33748230  0.78488377  0.93315696  1
  O2-  O258  1  0.82756086  0.29415317  0.26762055  1
  O2-  O259  1  0.83584497  0.29599513  0.60680806  1
  O2-  O260  1  0.83325753  0.29436486  0.92792554  1
  O2-  O261  1  0.82826789  0.78943366  0.26873171  1
  O2-  O262  1  0.83848462  0.79577651  0.60587246  1
  O2-  O263  1  0.82951182  0.78888365  0.93104922  1
  O2-  O264  1  0.41944280  0.04413260  0.06849029  1
  O2-  O265  1  0.41360739  0.04820529  0.40039075  1
  O2-  O266  1  0.42006177  0.05335466  0.72308541  1
  O2-  O267  1  0.41538453  0.54288877  0.06177657  1
  O2-  O268  1  0.41242363  0.54137706  0.39941169  1
  O2-  O269  1  0.41646658  0.54400494  0.72974789  1
  O2-  O270  1  0.91776356  0.05666585  0.06064681  1
  O2-  O271  1  0.91583825  0.04871685  0.39406527  1
  O2-  O272  1  0.91507666  0.04319611  0.73791414  1
  O2-  O273  1  0.91815691  0.53573072  0.06896088  1
  O2-  O274  1  0.91893372  0.54602255  0.39526862  1
  O2-  O275  1  0.91324676  0.53770972  0.73796613  1
  O2-  O276  1  0.29396234  0.17137093  0.06679104  1
  O2-  O277  1  0.29683965  0.16944183  0.39516453  1
  O2-  O278  1  0.29229400  0.16256582  0.73198942  1
  O2-  O279  1  0.29400756  0.65984153  0.06293754  1
  O2-  O280  1  0.29577585  0.66231640  0.39950882  1
  O2-  O281  1  0.29832504  0.66434415  0.72879327  1
  O2-  O282  1  0.79306982  0.16933597  0.06153681  1
  O2-  O283  1  0.79325681  0.16379604  0.39806859  1
  O2-  O284  1  0.78927946  0.16870150  0.73392265  1
  O2-  O285  1  0.79202490  0.66511863  0.07384726  1
  O2-  O286  1  0.79459167  0.66143959  0.39866681  1
  O2-  O287  1  0.78993835  0.66874043  0.73422603  1
