# generated using pymatgen
data_Ca2Al2SiO7
_symmetry_space_group_name_H-M   'P 1'
_cell_length_a   15.45401230
_cell_length_b   15.45406911
_cell_length_c   15.28063106
_cell_angle_alpha   89.99209524
_cell_angle_beta   90.00266194
_cell_angle_gamma   89.98872517
_symmetry_Int_Tables_number   1
_chemical_formula_structural   Ca2Al2SiO7
_chemical_formula_sum   'Ca48 Al48 Si24 O168'
_cell_volume   3649.43288024
_cell_formula_units_Z   24
loop_
 _symmetry_equiv_pos_site_id
 _symmetry_equiv_pos_as_xyz
  1  'x, y, z'
loop_
 _atom_type_symbol
 _atom_type_oxidation_number
  Ca2+  2.0
  Al0+  0.0
  Si0+  0.0
  O2-  -2.0
loop_
 _atom_site_type_symbol
 _atom_site_label
 _atom_site_symmetry_multiplicity
 _atom_site_fract_x
 _atom_site_fract_y
 _atom_site_fract_z
 _atom_site_occupancy
  Ca2+  Ca0  1  0.16462278  0.08106764  0.17359874  1
  Ca2+  Ca1  1  0.16945730  0.08261317  0.50380788  1
  Ca2+  Ca2  1  0.15939767  0.07520147  0.83713672  1
  Ca2+  Ca3  1  0.16992637  0.57730653  0.17325210  1
  Ca2+  Ca4  1  0.17884609  0.59108914  0.50255572  1
  Ca2+  Ca5  1  0.17338106  0.57785567  0.83914001  1
  Ca2+  Ca6  1  0.67396894  0.08419971  0.17913653  1
  Ca2+  Ca7  1  0.67056590  0.09106397  0.50133313  1
  Ca2+  Ca8  1  0.66451278  0.08476086  0.83619206  1
  Ca2+  Ca9  1  0.66743148  0.57399145  0.17299608  1
  Ca2+  Ca10  1  0.66261566  0.58078838  0.50481875  1
  Ca2+  Ca11  1  0.67606492  0.58470085  0.83868446  1
  Ca2+  Ca12  1  0.08346927  0.32214171  0.15602284  1
  Ca2+  Ca13  1  0.08361416  0.32250010  0.49360431  1
  Ca2+  Ca14  1  0.08456295  0.32813944  0.83309741  1
  Ca2+  Ca15  1  0.08294680  0.83010497  0.16760418  1
  Ca2+  Ca16  1  0.08018164  0.83021471  0.49293431  1
  Ca2+  Ca17  1  0.08595696  0.83676931  0.82973467  1
  Ca2+  Ca18  1  0.58313653  0.33669111  0.16957650  1
  Ca2+  Ca19  1  0.58043952  0.32773024  0.49020975  1
  Ca2+  Ca20  1  0.58790576  0.33042790  0.83121229  1
  Ca2+  Ca21  1  0.57721805  0.82630745  0.16251198  1
  Ca2+  Ca22  1  0.57911524  0.81978820  0.49675918  1
  Ca2+  Ca23  1  0.56782918  0.82894279  0.82403231  1
  Ca2+  Ca24  1  0.32904392  0.41655498  0.17608228  1
  Ca2+  Ca25  1  0.34107259  0.42669471  0.49888238  1
  Ca2+  Ca26  1  0.33025964  0.42266629  0.83631644  1
  Ca2+  Ca27  1  0.33064605  0.92120331  0.16984757  1
  Ca2+  Ca28  1  0.32932205  0.91970301  0.50616327  1
  Ca2+  Ca29  1  0.32496689  0.91084915  0.83801923  1
  Ca2+  Ca30  1  0.82451805  0.41252193  0.16838773  1
  Ca2+  Ca31  1  0.82658926  0.42278667  0.50382222  1
  Ca2+  Ca32  1  0.83051864  0.42623752  0.84433303  1
  Ca2+  Ca33  1  0.83635992  0.92309893  0.17618411  1
  Ca2+  Ca34  1  0.83699893  0.91926648  0.49760506  1
  Ca2+  Ca35  1  0.82926454  0.91962286  0.83685271  1
  Ca2+  Ca36  1  0.41632829  0.16893915  0.17013696  1
  Ca2+  Ca37  1  0.42530011  0.17073710  0.48868447  1
  Ca2+  Ca38  1  0.42328514  0.17070183  0.82590867  1
  Ca2+  Ca39  1  0.41982111  0.66527820  0.16633977  1
  Ca2+  Ca40  1  0.41964400  0.66478715  0.49534749  1
  Ca2+  Ca41  1  0.41640874  0.67491833  0.82464477  1
  Ca2+  Ca42  1  0.92440303  0.16988682  0.16271629  1
  Ca2+  Ca43  1  0.92792725  0.16081980  0.49282528  1
  Ca2+  Ca44  1  0.92625212  0.17477143  0.83189720  1
  Ca2+  Ca45  1  0.91813634  0.66776837  0.16569918  1
  Ca2+  Ca46  1  0.92127612  0.67141735  0.49154690  1
  Ca2+  Ca47  1  0.91428187  0.66163390  0.82983107  1
  Al0+  Al48  1  0.00064389  -0.00202748  0.00034583  1
  Al0+  Al49  1  -0.00146485  -0.00066846  0.33048563  1
  Al0+  Al50  1  -0.00028587  0.00107515  0.66794982  1
  Al0+  Al51  1  0.00119935  0.50061543  0.00452139  1
  Al0+  Al52  1  -0.00096325  0.49927724  0.33105372  1
  Al0+  Al53  1  -0.00129819  0.49979445  0.66943598  1
  Al0+  Al54  1  0.49874435  -0.00128560  -0.00452878  1
  Al0+  Al55  1  0.50012525  -0.00057207  0.33474133  1
  Al0+  Al56  1  0.49989456  0.00063835  0.65874225  1
  Al0+  Al57  1  0.50277231  0.49974546  0.00029901  1
  Al0+  Al58  1  0.49915471  0.49963346  0.33312079  1
  Al0+  Al59  1  0.49985839  0.49966545  0.67183192  1
  Al0+  Al60  1  0.25321702  0.24867701  -0.00342474  1
  Al0+  Al61  1  0.25020782  0.24837836  0.33097746  1
  Al0+  Al62  1  0.24998306  0.24948991  0.66298272  1
  Al0+  Al63  1  0.24908159  0.75203251  0.00187387  1
  Al0+  Al64  1  0.24880114  0.74903410  0.33278804  1
  Al0+  Al65  1  0.24857860  0.75121448  0.67189141  1
  Al0+  Al66  1  0.75182666  0.25093240  -0.00115241  1
  Al0+  Al67  1  0.75085948  0.24906623  0.34138845  1
  Al0+  Al68  1  0.75182309  0.25130911  0.66479352  1
  Al0+  Al69  1  0.75075482  0.75049697  0.00318057  1
  Al0+  Al70  1  0.74910495  0.75071521  0.32464588  1
  Al0+  Al71  1  0.74889106  0.75150029  0.66783203  1
  Al0+  Al72  1  0.92948924  0.82030599  0.31779592  1
  Al0+  Al73  1  0.17863373  0.92985041  0.01639901  1
  Al0+  Al74  1  0.18158117  0.42720217  0.01284928  1
  Al0+  Al75  1  0.67973890  0.43063699  0.34950448  1
  Al0+  Al76  1  0.42872817  0.82015332  0.98625549  1
  Al0+  Al77  1  0.07080542  0.17990305  0.31949840  1
  Al0+  Al78  1  0.42472761  0.82003683  0.64934954  1
  Al0+  Al79  1  0.43026333  0.32077511  0.31799851  1
  Al0+  Al80  1  0.82046249  0.57251806  0.67884788  1
  Al0+  Al81  1  0.57120005  0.67876373  0.65322219  1
  Al0+  Al82  1  0.67919705  0.42761194  0.01656718  1
  Al0+  Al83  1  0.07322706  0.17718286  0.98360427  1
  Al0+  Al84  1  0.57320022  0.17805288  0.31801712  1
  Al0+  Al85  1  0.82065728  0.06959022  0.34772683  1
  Al0+  Al86  1  0.32104735  0.57058070  0.68168945  1
  Al0+  Al87  1  0.31893971  0.57015891  0.34589953  1
  Al0+  Al88  1  0.56966735  0.67793041  0.31838225  1
  Al0+  Al89  1  0.92906962  0.32238467  0.98489405  1
  Al0+  Al90  1  0.17931004  0.93171011  0.67988677  1
  Al0+  Al91  1  0.57227357  0.18012257  0.65270184  1
  Al0+  Al92  1  0.07308139  0.67704946  0.31824165  1
  Al0+  Al93  1  0.32155755  0.07143364  0.34729632  1
  Al0+  Al94  1  0.82241787  0.57334794  0.01860631  1
  Al0+  Al95  1  0.06954127  0.17874640  0.65149603  1
  Si0+  Si96  1  0.07076805  0.67975491  0.98411226  1
  Si0+  Si97  1  0.67680203  0.92562610  0.35038253  1
  Si0+  Si98  1  0.17571533  0.42639198  0.34963694  1
  Si0+  Si99  1  0.82113073  0.07138867  0.68328510  1
  Si0+  Si100  1  0.42932174  0.32276545  0.98387730  1
  Si0+  Si101  1  0.92710338  0.32253131  0.31833406  1
  Si0+  Si102  1  0.67651773  0.93017716  0.01343094  1
  Si0+  Si103  1  0.92896475  0.32397138  0.64848917  1
  Si0+  Si104  1  0.32166688  0.57222404  0.01617769  1
  Si0+  Si105  1  0.92799610  0.82086052  0.98298460  1
  Si0+  Si106  1  0.32388669  0.07313532  0.68278162  1
  Si0+  Si107  1  0.42660669  0.82259163  0.31682952  1
  Si0+  Si108  1  0.42725025  0.32266655  0.65068700  1
  Si0+  Si109  1  0.57271186  0.67775976  0.98275364  1
  Si0+  Si110  1  0.67893687  0.42716045  0.68413618  1
  Si0+  Si111  1  0.17727155  0.42613506  0.68233727  1
  Si0+  Si112  1  0.57151880  0.17896064  0.98656306  1
  Si0+  Si113  1  0.81964499  0.06931161  0.01302482  1
  Si0+  Si114  1  0.32491816  0.07168835  0.01539329  1
  Si0+  Si115  1  0.67821885  0.93000671  0.68098162  1
  Si0+  Si116  1  0.17833552  0.92896490  0.35007722  1
  Si0+  Si117  1  0.06965851  0.67779891  0.65537760  1
  Si0+  Si118  1  0.92820107  0.82165962  0.65413891  1
  Si0+  Si119  1  0.82212376  0.57423487  0.34993609  1
  O2-  O120  1  0.25163364  0.00753026  0.05928360  1
  O2-  O121  1  0.24755632  -0.00362113  0.39475140  1
  O2-  O122  1  0.25530106  0.00500981  0.72808126  1
  O2-  O123  1  0.25734633  0.50001045  0.06060877  1
  O2-  O124  1  0.24161769  0.49790421  0.39396867  1
  O2-  O125  1  0.24640352  0.49468385  0.72650408  1
  O2-  O126  1  0.74748581  0.00021516  0.05630198  1
  O2-  O127  1  0.74393754  -0.00371405  0.39467363  1
  O2-  O128  1  0.74604005  0.00414848  0.72530962  1
  O2-  O129  1  0.75033255  0.50052810  0.06646692  1
  O2-  O130  1  0.75321093  0.50715525  0.39595101  1
  O2-  O131  1  0.74526938  0.49890203  0.72659156  1
  O2-  O132  1  -0.00053086  0.25790917  0.27396857  1
  O2-  O133  1  -0.00278051  0.25514997  0.60405313  1
  O2-  O134  1  0.00389894  0.25279206  0.93465574  1
  O2-  O135  1  -0.00064766  0.74677226  0.26726173  1
  O2-  O136  1  -0.00243035  0.74835538  0.61404676  1
  O2-  O137  1  -0.00260207  0.74856417  0.94045245  1
  O2-  O138  1  0.50136520  0.24837367  0.26599483  1
  O2-  O139  1  0.49648882  0.25388838  0.60805528  1
  O2-  O140  1  0.50207305  0.25163276  0.94401606  1
  O2-  O141  1  0.49540306  0.75387104  0.27256592  1
  O2-  O142  1  0.49562049  0.74603846  0.60138718  1
  O2-  O143  1  0.50187224  0.74422119  0.93895833  1
  O2-  O144  1  0.06992275  0.17621799  0.09701543  1
  O2-  O145  1  0.06911872  0.17899837  0.43300761  1
  O2-  O146  1  0.06661418  0.17781098  0.76430167  1
  O2-  O147  1  0.07205275  0.68240909  0.08873711  1
  O2-  O148  1  0.07331365  0.68035239  0.43276950  1
  O2-  O149  1  0.06861975  0.67751944  0.76065955  1
  O2-  O150  1  0.57168144  0.17551040  0.09083013  1
  O2-  O151  1  0.57193787  0.18125747  0.43161469  1
  O2-  O152  1  0.57187971  0.18107274  0.76696775  1
  O2-  O153  1  0.57149321  0.67911579  0.08839827  1
  O2-  O154  1  0.56965275  0.67882300  0.43147882  1
  O2-  O155  1  0.57292915  0.68362719  0.76687677  1
  O2-  O156  1  0.17805278  0.42626373  0.24396787  1
  O2-  O157  1  0.17547973  0.42650612  0.57695594  1
  O2-  O158  1  0.18424695  0.43003642  0.89914591  1
  O2-  O159  1  0.17911838  0.92959440  0.24434443  1
  O2-  O160  1  0.17629226  0.93248232  0.56713158  1
  O2-  O161  1  0.17859359  0.92935007  0.90302154  1
  O2-  O162  1  0.68151818  0.43038268  0.23667638  1
  O2-  O163  1  0.68034222  0.42586237  0.57872220  1
  O2-  O164  1  0.67949659  0.42760147  0.90257104  1
  O2-  O165  1  0.67758274  0.92706608  0.24416942  1
  O2-  O166  1  0.68202698  0.92771393  0.57648932  1
  O2-  O167  1  0.67739312  0.93218531  0.90784578  1
  O2-  O168  1  0.42667740  0.32311994  0.08823135  1
  O2-  O169  1  0.43215131  0.32104533  0.43187108  1
  O2-  O170  1  0.42673093  0.32107988  0.75694556  1
  O2-  O171  1  0.43226835  0.82170914  0.09920453  1
  O2-  O172  1  0.42637099  0.82140402  0.42221245  1
  O2-  O173  1  0.42627429  0.81953654  0.76343299  1
  O2-  O174  1  0.92669336  0.31599725  0.09823061  1
  O2-  O175  1  0.92919422  0.32240625  0.42438320  1
  O2-  O176  1  0.92868932  0.32311431  0.75391139  1
  O2-  O177  1  0.92785073  0.82339001  0.08734846  1
  O2-  O178  1  0.93119585  0.82028547  0.43230406  1
  O2-  O179  1  0.92791488  0.82355998  0.75952281  1
  O2-  O180  1  0.32055548  0.06899522  0.23390383  1
  O2-  O181  1  0.32195852  0.07265492  0.57741769  1
  O2-  O182  1  0.32963636  0.06984957  0.90972252  1
  O2-  O183  1  0.31810743  0.56891625  0.23265692  1
  O2-  O184  1  0.32018491  0.57019193  0.56871777  1
  O2-  O185  1  0.31900577  0.57195427  0.91016043  1
  O2-  O186  1  0.82072165  0.06836368  0.23408630  1
  O2-  O187  1  0.82344245  0.06838940  0.57854738  1
  O2-  O188  1  0.81762438  0.06720966  0.90727700  1
  O2-  O189  1  0.82127128  0.57266128  0.24474864  1
  O2-  O190  1  0.82273976  0.57171924  0.56606961  1
  O2-  O191  1  0.81893428  0.57514570  0.90433203  1
  O2-  O192  1  0.03696904  0.08458904  0.26613423  1
  O2-  O193  1  0.03393464  0.08334052  0.59796473  1
  O2-  O194  1  0.03836203  0.07959321  0.93167204  1
  O2-  O195  1  0.04738735  0.57756759  0.26612596  1
  O2-  O196  1  0.04381780  0.58605227  0.60718547  1
  O2-  O197  1  0.04613673  0.58703786  0.93729330  1
  O2-  O198  1  0.54749304  0.07766681  0.26741903  1
  O2-  O199  1  0.54652483  0.08338643  0.59768639  1
  O2-  O200  1  0.54223082  0.08837587  0.93624590  1
  O2-  O201  1  0.53609418  0.58350929  0.26341421  1
  O2-  O202  1  0.54723199  0.57739612  0.60518987  1
  O2-  O203  1  0.55125604  0.58296337  0.93733694  1
  O2-  O204  1  0.16732328  0.20671436  0.26476080  1
  O2-  O205  1  0.16772597  0.20593006  0.59894612  1
  O2-  O206  1  0.17332768  0.20159133  0.93132888  1
  O2-  O207  1  0.16974211  0.70769731  0.26294819  1
  O2-  O208  1  0.16048121  0.70827153  0.60864051  1
  O2-  O209  1  0.16168347  0.71070848  0.93623853  1
  O2-  O210  1  0.67330631  0.20634489  0.26910753  1
  O2-  O211  1  0.66994779  0.20956819  0.60013197  1
  O2-  O212  1  0.66321933  0.20521430  0.93758629  1
  O2-  O213  1  0.66478737  0.70834629  0.26184342  1
  O2-  O214  1  0.66823049  0.71216277  0.59937762  1
  O2-  O215  1  0.66634546  0.70715561  0.93858799  1
  O2-  O216  1  0.08584995  0.45727697  0.06732406  1
  O2-  O217  1  0.08042514  0.44780722  0.39460439  1
  O2-  O218  1  0.08439355  0.45271439  0.72974329  1
  O2-  O219  1  0.08072223  0.95736413  0.06959109  1
  O2-  O220  1  0.08452853  0.95527966  0.39468084  1
  O2-  O221  1  0.08266169  0.96346346  0.73561391  1
  O2-  O222  1  0.57959643  0.45450226  0.06853608  1
  O2-  O223  1  0.58294949  0.46127460  0.40237797  1
  O2-  O224  1  0.58426312  0.44707401  0.73031022  1
  O2-  O225  1  0.58502344  0.95789210  0.06064638  1
  O2-  O226  1  0.58283317  0.94726754  0.39660550  1
  O2-  O227  1  0.58514081  0.95705616  0.72700869  1
  O2-  O228  1  0.21159705  0.32936938  0.06475767  1
  O2-  O229  1  0.20401852  0.33363715  0.39566228  1
  O2-  O230  1  0.20407311  0.33251229  0.72861531  1
  O2-  O231  1  0.21123269  0.83411670  0.07083025  1
  O2-  O232  1  0.20277303  0.83473932  0.39533767  1
  O2-  O233  1  0.20645785  0.83516833  0.73660446  1
  O2-  O234  1  0.70817844  0.32844706  0.06840727  1
  O2-  O235  1  0.71160978  0.33526001  0.40545685  1
  O2-  O236  1  0.70875361  0.33448544  0.73127767  1
  O2-  O237  1  0.70336231  0.83844511  0.06055326  1
  O2-  O238  1  0.70648389  0.83259270  0.39557876  1
  O2-  O239  1  0.70964765  0.84109437  0.73231150  1
  O2-  O240  1  0.45873594  0.41800025  0.26387701  1
  O2-  O241  1  0.45313930  0.41677304  0.60695706  1
  O2-  O242  1  0.45711782  0.41458712  0.93529681  1
  O2-  O243  1  0.45306143  0.91567768  0.27048094  1
  O2-  O244  1  0.45434119  0.91803506  0.59739487  1
  O2-  O245  1  0.46109907  0.91542379  0.92905345  1
  O2-  O246  1  0.94535852  0.41731708  0.27237666  1
  O2-  O247  1  0.95439548  0.41770316  0.60221387  1
  O2-  O248  1  0.95575563  0.42266878  0.93447657  1
  O2-  O249  1  0.96036183  0.91682075  0.26266129  1
  O2-  O250  1  0.95831516  0.91230647  0.60618423  1
  O2-  O251  1  0.95698249  0.91180906  0.93395275  1
  O2-  O252  1  0.33213986  0.29143186  0.26506194  1
  O2-  O253  1  0.33389687  0.29953560  0.60360381  1
  O2-  O254  1  0.34001139  0.29364417  0.93205438  1
  O2-  O255  1  0.33331703  0.79682648  0.27080856  1
  O2-  O256  1  0.32496735  0.79317320  0.59912945  1
  O2-  O257  1  0.33126707  0.79011071  0.93326954  1
  O2-  O258  1  0.83523758  0.29055594  0.27403328  1
  O2-  O259  1  0.83550894  0.29822535  0.60276925  1
  O2-  O260  1  0.83223058  0.28993706  0.92891145  1
  O2-  O261  1  0.83097327  0.79766922  0.26255872  1
  O2-  O262  1  0.83653791  0.79638339  0.60618958  1
  O2-  O263  1  0.83458275  0.79571124  0.93577032  1
  O2-  O264  1  0.41642685  0.04032786  0.06331678  1
  O2-  O265  1  0.41885283  0.04237228  0.40150358  1
  O2-  O266  1  0.41901852  0.04882230  0.72709901  1
  O2-  O267  1  0.41780512  0.55084738  0.05775756  1
  O2-  O268  1  0.41409981  0.53738185  0.40102065  1
  O2-  O269  1  0.41687755  0.54066678  0.73879708  1
  O2-  O270  1  0.91025567  0.03847885  0.06003954  1
  O2-  O271  1  0.91589351  0.03359785  0.40267815  1
  O2-  O272  1  0.90987368  0.03822853  0.73326018  1
  O2-  O273  1  0.92195092  0.54889957  0.06939633  1
  O2-  O274  1  0.91658009  0.54856859  0.39552567  1
  O2-  O275  1  0.91668126  0.54167138  0.73513967  1
  O2-  O276  1  0.30529741  0.16721445  0.05879973  1
  O2-  O277  1  0.29050708  0.16782408  0.40159242  1
  O2-  O278  1  0.29947525  0.16787860  0.72798617  1
  O2-  O279  1  0.29246274  0.66424502  0.06238817  1
  O2-  O280  1  0.28921989  0.66730790  0.40084770  1
  O2-  O281  1  0.28717174  0.66550129  0.73705790  1
  O2-  O282  1  0.79356599  0.16124684  0.05933198  1
  O2-  O283  1  0.79325697  0.16453853  0.40646446  1
  O2-  O284  1  0.79600599  0.16481704  0.72911553  1
  O2-  O285  1  0.79464789  0.67281542  0.07068466  1
  O2-  O286  1  0.79801094  0.66995209  0.39211176  1
  O2-  O287  1  0.79178568  0.66985104  0.73429204  1
