# generated using pymatgen
data_Ca2Al2SiO7
_symmetry_space_group_name_H-M   'P 1'
_cell_length_a   15.46615581
_cell_length_b   15.46750322
_cell_length_c   15.28865883
_cell_angle_alpha   90.00018617
_cell_angle_beta   90.00727322
_cell_angle_gamma   89.99905040
_symmetry_Int_Tables_number   1
_chemical_formula_structural   Ca2Al2SiO7
_chemical_formula_sum   'Ca48 Al48 Si24 O168'
_cell_volume   3657.39597161
_cell_formula_units_Z   24
loop_
 _symmetry_equiv_pos_site_id
 _symmetry_equiv_pos_as_xyz
  1  'x, y, z'
loop_
 _atom_type_symbol
 _atom_type_oxidation_number
  Ca2+  2.0
  Al0+  0.0
  Si0+  0.0
  O2-  -2.0
loop_
 _atom_site_type_symbol
 _atom_site_label
 _atom_site_symmetry_multiplicity
 _atom_site_fract_x
 _atom_site_fract_y
 _atom_site_fract_z
 _atom_site_occupancy
  Ca2+  Ca0  1  0.16323362  0.07190911  0.16883999  1
  Ca2+  Ca1  1  0.16526873  0.08502508  0.50417279  1
  Ca2+  Ca2  1  0.17610368  0.08401290  0.84059581  1
  Ca2+  Ca3  1  0.16806588  0.57996588  0.16452602  1
  Ca2+  Ca4  1  0.16581019  0.57450357  0.50521359  1
  Ca2+  Ca5  1  0.16649448  0.57146756  0.84407794  1
  Ca2+  Ca6  1  0.66898676  0.08363843  0.16525272  1
  Ca2+  Ca7  1  0.66873003  0.07792524  0.50635280  1
  Ca2+  Ca8  1  0.67164227  0.07191945  0.84595767  1
  Ca2+  Ca9  1  0.67538549  0.59353054  0.16938862  1
  Ca2+  Ca10  1  0.67167017  0.58819528  0.49743206  1
  Ca2+  Ca11  1  0.67178613  0.58254075  0.84346060  1
  Ca2+  Ca12  1  0.07569785  0.33148563  0.16168640  1
  Ca2+  Ca13  1  0.08573213  0.32312802  0.49522275  1
  Ca2+  Ca14  1  0.08436151  0.33292183  0.83040838  1
  Ca2+  Ca15  1  0.07611292  0.83969296  0.15999950  1
  Ca2+  Ca16  1  0.07076253  0.83915859  0.49270587  1
  Ca2+  Ca17  1  0.07013741  0.84512163  0.83364040  1
  Ca2+  Ca18  1  0.58694691  0.31985561  0.16034149  1
  Ca2+  Ca19  1  0.57923414  0.32467724  0.49033165  1
  Ca2+  Ca20  1  0.58284754  0.32439360  0.83627854  1
  Ca2+  Ca21  1  0.58066891  0.82477176  0.15407704  1
  Ca2+  Ca22  1  0.58321082  0.83126042  0.49476989  1
  Ca2+  Ca23  1  0.58427691  0.83557696  0.83734557  1
  Ca2+  Ca24  1  0.33220748  0.41977390  0.16305343  1
  Ca2+  Ca25  1  0.32757974  0.41676337  0.50761773  1
  Ca2+  Ca26  1  0.32042979  0.41999042  0.84253675  1
  Ca2+  Ca27  1  0.32510010  0.91379539  0.16491259  1
  Ca2+  Ca28  1  0.32403324  0.92379377  0.50397883  1
  Ca2+  Ca29  1  0.32842652  0.92398712  0.84598089  1
  Ca2+  Ca30  1  0.84298925  0.42692112  0.17024003  1
  Ca2+  Ca31  1  0.84125028  0.42161793  0.49590119  1
  Ca2+  Ca32  1  0.83641511  0.42308000  0.84584646  1
  Ca2+  Ca33  1  0.83329782  0.91611638  0.16624571  1
  Ca2+  Ca34  1  0.82961509  0.91166578  0.50453771  1
  Ca2+  Ca35  1  0.82712840  0.91653984  0.84244574  1
  Ca2+  Ca36  1  0.42752072  0.15821334  0.15985144  1
  Ca2+  Ca37  1  0.42021515  0.16326745  0.49678003  1
  Ca2+  Ca38  1  0.42004632  0.15179422  0.83450294  1
  Ca2+  Ca39  1  0.42625023  0.66901092  0.15348350  1
  Ca2+  Ca40  1  0.42508108  0.66959386  0.49083542  1
  Ca2+  Ca41  1  0.41500425  0.66931429  0.83804285  1
  Ca2+  Ca42  1  0.91763913  0.17564821  0.15889924  1
  Ca2+  Ca43  1  0.93106900  0.17144613  0.49001476  1
  Ca2+  Ca44  1  0.92146448  0.16839904  0.83321917  1
  Ca2+  Ca45  1  0.90984743  0.67582044  0.16034160  1
  Ca2+  Ca46  1  0.91417463  0.67679458  0.49457097  1
  Ca2+  Ca47  1  0.91229547  0.67692180  0.83547668  1
  Al0+  Al48  1  -0.00059311  0.00289463  0.00106860  1
  Al0+  Al49  1  -0.00123071  0.00037922  0.33127979  1
  Al0+  Al50  1  -0.00164256  0.00217550  0.65689292  1
  Al0+  Al51  1  -0.00140845  0.50017317  0.00403657  1
  Al0+  Al52  1  0.00130113  0.50192169  0.33828710  1
  Al0+  Al53  1  -0.00028401  0.50215338  0.67007792  1
  Al0+  Al54  1  0.50065461  -0.00331107  -0.00038014  1
  Al0+  Al55  1  0.49877127  -0.00041570  0.33122927  1
  Al0+  Al56  1  0.50023391  -0.00307140  0.67090321  1
  Al0+  Al57  1  0.50032139  0.49683984  -0.00196330  1
  Al0+  Al58  1  0.50183787  0.49985791  0.33127100  1
  Al0+  Al59  1  0.50196880  0.49967368  0.66534081  1
  Al0+  Al60  1  0.25090642  0.24972756  0.01018767  1
  Al0+  Al61  1  0.25127067  0.24970535  0.32909621  1
  Al0+  Al62  1  0.25107673  0.25113398  0.67078714  1
  Al0+  Al63  1  0.25031042  0.74772696  0.00212835  1
  Al0+  Al64  1  0.24831631  0.75085117  0.34202484  1
  Al0+  Al65  1  0.25046523  0.75029895  0.66448052  1
  Al0+  Al66  1  0.75041575  0.24970472  -0.00768840  1
  Al0+  Al67  1  0.74970786  0.25168676  0.32962232  1
  Al0+  Al68  1  0.74969270  0.25133662  0.66511905  1
  Al0+  Al69  1  0.74999459  0.74928743  -0.00196655  1
  Al0+  Al70  1  0.74989963  0.75000530  0.33233757  1
  Al0+  Al71  1  0.74890795  0.74907251  0.66637095  1
  Al0+  Al72  1  0.18010615  0.43087626  0.67971229  1
  Al0+  Al73  1  0.57182712  0.67697077  0.98265220  1
  Al0+  Al74  1  0.31956450  0.06947377  0.67929161  1
  Al0+  Al75  1  0.57046368  0.17765766  0.32088425  1
  Al0+  Al76  1  0.07308823  0.17817604  0.31548067  1
  Al0+  Al77  1  0.68109974  0.92869249  0.67991249  1
  Al0+  Al78  1  0.92887959  0.81945576  0.65264373  1
  Al0+  Al79  1  0.17704248  0.42823597  0.01830651  1
  Al0+  Al80  1  0.81859560  0.57017638  0.01318940  1
  Al0+  Al81  1  0.68074886  0.92820605  0.01684845  1
  Al0+  Al82  1  0.42687586  0.81954852  0.98413835  1
  Al0+  Al83  1  0.82115295  0.07330135  0.01453638  1
  Al0+  Al84  1  0.93081999  0.32226529  0.98526099  1
  Al0+  Al85  1  0.32262694  0.57026386  0.01476242  1
  Al0+  Al86  1  0.57000368  0.17761648  0.98430875  1
  Al0+  Al87  1  0.92937982  0.81946758  0.31880331  1
  Al0+  Al88  1  0.17655309  0.92985080  0.34970351  1
  Al0+  Al89  1  0.56980056  0.68021243  0.31993658  1
  Al0+  Al90  1  0.82048010  0.57200473  0.34897141  1
  Al0+  Al91  1  0.93079185  0.32297781  0.31871757  1
  Al0+  Al92  1  0.32298066  0.07014886  0.01734472  1
  Al0+  Al93  1  0.93058503  0.82259389  0.98640782  1
  Al0+  Al94  1  0.17706972  0.92846064  0.01284564  1
  Al0+  Al95  1  0.07179897  0.18258421  0.65447141  1
  Si0+  Si96  1  0.43129156  0.32119666  0.65305567  1
  Si0+  Si97  1  0.67670522  0.42698526  0.68161554  1
  Si0+  Si98  1  0.07283214  0.67655972  0.65032158  1
  Si0+  Si99  1  0.57056986  0.17666457  0.65248808  1
  Si0+  Si100  1  0.42550705  0.82101156  0.31840782  1
  Si0+  Si101  1  0.81846269  0.56926381  0.68168913  1
  Si0+  Si102  1  0.81974974  0.07410126  0.34883404  1
  Si0+  Si103  1  0.32507429  0.57328864  0.68168209  1
  Si0+  Si104  1  0.67775837  0.42599458  0.01559607  1
  Si0+  Si105  1  0.42800392  0.32307664  0.31650551  1
  Si0+  Si106  1  0.92627114  0.32566200  0.64982205  1
  Si0+  Si107  1  0.82293982  0.07455514  0.68090287  1
  Si0+  Si108  1  0.56952891  0.67830624  0.65010430  1
  Si0+  Si109  1  0.67908992  0.93031058  0.34778701  1
  Si0+  Si110  1  0.32369387  0.57054499  0.34952474  1
  Si0+  Si111  1  0.18098710  0.42913599  0.34989344  1
  Si0+  Si112  1  0.42776816  0.82221310  0.64962342  1
  Si0+  Si113  1  0.07405232  0.67801562  0.31845051  1
  Si0+  Si114  1  0.17487159  0.92772333  0.68141506  1
  Si0+  Si115  1  0.67753254  0.42698080  0.35094198  1
  Si0+  Si116  1  0.07355823  0.17931650  0.98349972  1
  Si0+  Si117  1  0.42639819  0.32053625  0.98238531  1
  Si0+  Si118  1  0.32260051  0.07165251  0.35067574  1
  Si0+  Si119  1  0.07165385  0.67737993  0.98468693  1
  O2-  O120  1  0.24947675  -0.00106814  0.06506005  1
  O2-  O121  1  0.25054734  0.00674318  0.39539664  1
  O2-  O122  1  0.24418567  -0.00472848  0.72491133  1
  O2-  O123  1  0.25028149  0.50006084  0.06696766  1
  O2-  O124  1  0.25352542  0.49906989  0.39283004  1
  O2-  O125  1  0.25174324  0.50947352  0.72433665  1
  O2-  O126  1  0.75164371  0.00059550  0.06747919  1
  O2-  O127  1  0.74832013  0.00275881  0.39136993  1
  O2-  O128  1  0.75479952  0.00527244  0.72412635  1
  O2-  O129  1  0.74302606  0.49680331  0.06043433  1
  O2-  O130  1  0.74662682  0.49545408  0.39592992  1
  O2-  O131  1  0.75236403  0.49314821  0.72246177  1
  O2-  O132  1  0.00012431  0.24988791  0.26748177  1
  O2-  O133  1  -0.00550972  0.25573102  0.60764678  1
  O2-  O134  1  0.00660641  0.24927874  0.93811946  1
  O2-  O135  1  0.00693899  0.74718229  0.27397007  1
  O2-  O136  1  0.00813159  0.74887847  0.60592805  1
  O2-  O137  1  0.00844104  0.75074165  0.93942418  1
  O2-  O138  1  0.49597714  0.25287182  0.27501660  1
  O2-  O139  1  0.50119697  0.24925681  0.60963583  1
  O2-  O140  1  0.49140577  0.24869313  0.93697362  1
  O2-  O141  1  0.49227079  0.75115218  0.27468856  1
  O2-  O142  1  0.49674465  0.74812944  0.60819647  1
  O2-  O143  1  0.49889925  0.74778458  0.93217939  1
  O2-  O144  1  0.07105932  0.17936464  0.08872727  1
  O2-  O145  1  0.07397373  0.18184896  0.43005307  1
  O2-  O146  1  0.07237157  0.18364829  0.76706338  1
  O2-  O147  1  0.06892622  0.67589870  0.09030388  1
  O2-  O148  1  0.07320164  0.67740342  0.42468468  1
  O2-  O149  1  0.07157194  0.67232964  0.75514729  1
  O2-  O150  1  0.57054847  0.18113673  0.09746212  1
  O2-  O151  1  0.56830390  0.17812211  0.43522497  1
  O2-  O152  1  0.57031972  0.17770209  0.75682779  1
  O2-  O153  1  0.57122635  0.67881826  0.09630222  1
  O2-  O154  1  0.56873879  0.68241461  0.43427279  1
  O2-  O155  1  0.57008225  0.67510535  0.75413155  1
  O2-  O156  1  0.18086906  0.43142753  0.24573666  1
  O2-  O157  1  0.18365207  0.43105914  0.56599564  1
  O2-  O158  1  0.17780676  0.42976829  0.90413423  1
  O2-  O159  1  0.17903601  0.92679544  0.23751132  1
  O2-  O160  1  0.17682096  0.92856220  0.57556218  1
  O2-  O161  1  0.17581707  0.93254980  0.89861902  1
  O2-  O162  1  0.67417341  0.42550852  0.24636618  1
  O2-  O163  1  0.67192307  0.42681823  0.57675007  1
  O2-  O164  1  0.67995316  0.42658742  0.90902976  1
  O2-  O165  1  0.67881157  0.92973381  0.24371510  1
  O2-  O166  1  0.68014917  0.92986329  0.56571757  1
  O2-  O167  1  0.68331812  0.92946322  0.90270780  1
  O2-  O168  1  0.43057274  0.32278339  0.08794448  1
  O2-  O169  1  0.42829236  0.32403687  0.42313797  1
  O2-  O170  1  0.43406226  0.32509402  0.75711095  1
  O2-  O171  1  0.42784848  0.81732647  0.09802643  1
  O2-  O172  1  0.42826344  0.82043182  0.42506413  1
  O2-  O173  1  0.42585637  0.82260587  0.75359714  1
  O2-  O174  1  0.93132560  0.32285685  0.09793756  1
  O2-  O175  1  0.93385344  0.32151904  0.43325661  1
  O2-  O176  1  0.92488499  0.32691384  0.75494467  1
  O2-  O177  1  0.93031939  0.81976402  0.09921869  1
  O2-  O178  1  0.92776914  0.81702045  0.43269089  1
  O2-  O179  1  0.92784231  0.81799896  0.76527933  1
  O2-  O180  1  0.32661762  0.06891496  0.24625249  1
  O2-  O181  1  0.32136964  0.06857382  0.56576501  1
  O2-  O182  1  0.31961526  0.06945383  0.90310480  1
  O2-  O183  1  0.32427128  0.57041307  0.24538887  1
  O2-  O184  1  0.32768277  0.57008531  0.57547665  1
  O2-  O185  1  0.32057358  0.56698045  0.90054711  1
  O2-  O186  1  0.81818756  0.07529168  0.24450839  1
  O2-  O187  1  0.81985501  0.07648852  0.57486241  1
  O2-  O188  1  0.82025527  0.07243897  0.90019686  1
  O2-  O189  1  0.81872701  0.57260838  0.23682755  1
  O2-  O190  1  0.81659508  0.57002021  0.57636120  1
  O2-  O191  1  0.81824390  0.56842876  0.89921095  1
  O2-  O192  1  0.04377788  0.08006055  0.26547801  1
  O2-  O193  1  0.04279667  0.08709883  0.59623155  1
  O2-  O194  1  0.04638063  0.08716137  0.93566457  1
  O2-  O195  1  0.04893389  0.58435063  0.27408571  1
  O2-  O196  1  0.04230100  0.58472331  0.60149899  1
  O2-  O197  1  0.03897562  0.58642677  0.93709738  1
  O2-  O198  1  0.54007058  0.08170835  0.26648519  1
  O2-  O199  1  0.54097606  0.08523766  0.60503154  1
  O2-  O200  1  0.54135373  0.08056895  0.93090733  1
  O2-  O201  1  0.54468252  0.58181067  0.26822779  1
  O2-  O202  1  0.54316654  0.58622022  0.60062737  1
  O2-  O203  1  0.54570427  0.57667991  0.93115010  1
  O2-  O204  1  0.17213403  0.20476551  0.26438579  1
  O2-  O205  1  0.16823774  0.21601071  0.60000766  1
  O2-  O206  1  0.16898184  0.20491026  0.94125666  1
  O2-  O207  1  0.16928179  0.70142149  0.27553302  1
  O2-  O208  1  0.16887521  0.69575717  0.60474765  1
  O2-  O209  1  0.16733143  0.69416939  0.94024913  1
  O2-  O210  1  0.66587840  0.20892860  0.26677050  1
  O2-  O211  1  0.66296059  0.20410844  0.60482059  1
  O2-  O212  1  0.66356130  0.21256658  0.92651332  1
  O2-  O213  1  0.66485915  0.71332607  0.26743352  1
  O2-  O214  1  0.66025546  0.70899892  0.60200499  1
  O2-  O215  1  0.66901386  0.70739034  0.92852498  1
  O2-  O216  1  0.08087399  0.46090380  0.07176352  1
  O2-  O217  1  0.09105257  0.45882011  0.40026125  1
  O2-  O218  1  0.08249191  0.45891428  0.73312415  1
  O2-  O219  1  0.08044434  0.95947097  0.06727481  1
  O2-  O220  1  0.07922235  0.96089593  0.40327077  1
  O2-  O221  1  0.08002920  0.95448029  0.72312253  1
  O2-  O222  1  0.58271209  0.44532279  0.05981998  1
  O2-  O223  1  0.58397783  0.45400535  0.39897866  1
  O2-  O224  1  0.58717674  0.45923978  0.73074982  1
  O2-  O225  1  0.58164103  0.95387413  0.06735494  1
  O2-  O226  1  0.58590757  0.95638831  0.39537222  1
  O2-  O227  1  0.58471084  0.95741206  0.73375669  1
  O2-  O228  1  0.20502445  0.33153074  0.07328435  1
  O2-  O229  1  0.20988429  0.33642129  0.39598677  1
  O2-  O230  1  0.21490413  0.33743527  0.73550807  1
  O2-  O231  1  0.20140385  0.82881737  0.06446793  1
  O2-  O232  1  0.20713698  0.83392450  0.40786067  1
  O2-  O233  1  0.19811281  0.83219069  0.72421061  1
  O2-  O234  1  0.70598186  0.33307593  0.05968727  1
  O2-  O235  1  0.70338897  0.33368700  0.39928719  1
  O2-  O236  1  0.69953097  0.33336271  0.72815973  1
  O2-  O237  1  0.70955478  0.82977032  0.06764258  1
  O2-  O238  1  0.70947507  0.83962649  0.39670725  1
  O2-  O239  1  0.71117097  0.83180451  0.73269466  1
  O2-  O240  1  0.45447940  0.41588524  0.27044002  1
  O2-  O241  1  0.46011471  0.41205058  0.60216321  1
  O2-  O242  1  0.45515965  0.41172143  0.93284982  1
  O2-  O243  1  0.45108459  0.91407936  0.27352498  1
  O2-  O244  1  0.46052225  0.91207604  0.60054815  1
  O2-  O245  1  0.45661178  0.91700016  0.93032210  1
  O2-  O246  1  0.96124751  0.42229943  0.26974430  1
  O2-  O247  1  0.95298763  0.41969002  0.60473086  1
  O2-  O248  1  0.96143961  0.41940134  0.93158541  1
  O2-  O249  1  0.95526171  0.91741501  0.26763294  1
  O2-  O250  1  0.95354120  0.91692741  0.59636013  1
  O2-  O251  1  0.95888330  0.92016845  0.93195861  1
  O2-  O252  1  0.33482546  0.30049876  0.27008168  1
  O2-  O253  1  0.33985498  0.29335513  0.60510379  1
  O2-  O254  1  0.33031616  0.29871271  0.94030964  1
  O2-  O255  1  0.33054175  0.79604081  0.27691820  1
  O2-  O256  1  0.33512168  0.79732735  0.60033848  1
  O2-  O257  1  0.32827334  0.79062723  0.93007864  1
  O2-  O258  1  0.83044249  0.30039835  0.26889002  1
  O2-  O259  1  0.83131374  0.30289880  0.60351043  1
  O2-  O260  1  0.83518021  0.29244431  0.92849981  1
  O2-  O261  1  0.83389860  0.78642336  0.26601166  1
  O2-  O262  1  0.83351877  0.78286598  0.59817048  1
  O2-  O263  1  0.83616550  0.78674361  0.93162973  1
  O2-  O264  1  0.42084343  0.03981857  0.06837217  1
  O2-  O265  1  0.41509157  0.04192511  0.39945608  1
  O2-  O266  1  0.41537304  0.03703830  0.73288187  1
  O2-  O267  1  0.42065894  0.53828302  0.06714330  1
  O2-  O268  1  0.41569101  0.54211509  0.39798152  1
  O2-  O269  1  0.41731127  0.54349801  0.72737281  1
  O2-  O270  1  0.91972404  0.04893918  0.06704706  1
  O2-  O271  1  0.91131973  0.04505859  0.39612810  1
  O2-  O272  1  0.91755077  0.04951090  0.72389989  1
  O2-  O273  1  0.91377893  0.53982713  0.06844251  1
  O2-  O274  1  0.91739041  0.54268025  0.40536677  1
  O2-  O275  1  0.91172968  0.54780819  0.72843498  1
  O2-  O276  1  0.30155059  0.16940818  0.07038189  1
  O2-  O277  1  0.30146798  0.16811916  0.39426174  1
  O2-  O278  1  0.29328615  0.16660555  0.73339236  1
  O2-  O279  1  0.29691530  0.66798196  0.06896986  1
  O2-  O280  1  0.29634106  0.66141462  0.40006851  1
  O2-  O281  1  0.30464589  0.66934293  0.72413281  1
  O2-  O282  1  0.78915960  0.17166444  0.06509407  1
  O2-  O283  1  0.79171236  0.16574543  0.39743837  1
  O2-  O284  1  0.79851138  0.16902458  0.72629407  1
  O2-  O285  1  0.78803178  0.66606136  0.06683248  1
  O2-  O286  1  0.78439821  0.66699798  0.40485719  1
  O2-  O287  1  0.78474675  0.65870589  0.72896817  1
