# generated using pymatgen
data_Ca2Al2SiO7
_symmetry_space_group_name_H-M   'P 1'
_cell_length_a   15.45355742
_cell_length_b   15.45379636
_cell_length_c   15.28056738
_cell_angle_alpha   89.99386684
_cell_angle_beta   89.98794774
_cell_angle_gamma   89.99463543
_symmetry_Int_Tables_number   1
_chemical_formula_structural   Ca2Al2SiO7
_chemical_formula_sum   'Ca48 Al48 Si24 O168'
_cell_volume   3649.24583736
_cell_formula_units_Z   24
loop_
 _symmetry_equiv_pos_site_id
 _symmetry_equiv_pos_as_xyz
  1  'x, y, z'
loop_
 _atom_type_symbol
 _atom_type_oxidation_number
  Ca2+  2.0
  Al0+  0.0
  Si0+  0.0
  O2-  -2.0
loop_
 _atom_site_type_symbol
 _atom_site_label
 _atom_site_symmetry_multiplicity
 _atom_site_fract_x
 _atom_site_fract_y
 _atom_site_fract_z
 _atom_site_occupancy
  Ca2+  Ca0  1  0.17755230  0.07610953  0.17518621  1
  Ca2+  Ca1  1  0.16820167  0.07974119  0.50195544  1
  Ca2+  Ca2  1  0.17102708  0.08565775  0.83805818  1
  Ca2+  Ca3  1  0.17550659  0.58216889  0.17400824  1
  Ca2+  Ca4  1  0.17705676  0.58166833  0.51147114  1
  Ca2+  Ca5  1  0.16471115  0.58234039  0.82750935  1
  Ca2+  Ca6  1  0.66681803  0.08086807  0.17197487  1
  Ca2+  Ca7  1  0.66635351  0.08069065  0.51147691  1
  Ca2+  Ca8  1  0.66582314  0.07947642  0.82885438  1
  Ca2+  Ca9  1  0.67259829  0.59247786  0.17159757  1
  Ca2+  Ca10  1  0.67664953  0.58936706  0.50303435  1
  Ca2+  Ca11  1  0.67803022  0.58778100  0.83852554  1
  Ca2+  Ca12  1  0.07799566  0.33365958  0.16135537  1
  Ca2+  Ca13  1  0.08376135  0.33420679  0.50585809  1
  Ca2+  Ca14  1  0.07574847  0.33162176  0.82214529  1
  Ca2+  Ca15  1  0.07439505  0.83808280  0.16633157  1
  Ca2+  Ca16  1  0.07792402  0.83026479  0.49521198  1
  Ca2+  Ca17  1  0.07721737  0.82694952  0.82710276  1
  Ca2+  Ca18  1  0.57767216  0.32945544  0.17001569  1
  Ca2+  Ca19  1  0.58225453  0.32155398  0.49291068  1
  Ca2+  Ca20  1  0.58298166  0.32558942  0.82602883  1
  Ca2+  Ca21  1  0.57874715  0.82045190  0.16107991  1
  Ca2+  Ca22  1  0.57885338  0.83197142  0.49879616  1
  Ca2+  Ca23  1  0.57415125  0.83317889  0.83049917  1
  Ca2+  Ca24  1  0.33448835  0.42022326  0.17704799  1
  Ca2+  Ca25  1  0.33579823  0.42652087  0.50532150  1
  Ca2+  Ca26  1  0.32723722  0.41980952  0.83257637  1
  Ca2+  Ca27  1  0.33335498  0.92320518  0.17242444  1
  Ca2+  Ca28  1  0.33173950  0.91761755  0.50344542  1
  Ca2+  Ca29  1  0.33750069  0.91865829  0.83914687  1
  Ca2+  Ca30  1  0.83436455  0.42877175  0.16925335  1
  Ca2+  Ca31  1  0.83619460  0.42632934  0.50795897  1
  Ca2+  Ca32  1  0.84442543  0.42550001  0.83518247  1
  Ca2+  Ca33  1  0.83487921  0.91112537  0.17320666  1
  Ca2+  Ca34  1  0.82582209  0.92049491  0.50867545  1
  Ca2+  Ca35  1  0.82954370  0.91780345  0.83470517  1
  Ca2+  Ca36  1  0.41441739  0.16322467  0.16839357  1
  Ca2+  Ca37  1  0.42651871  0.16913156  0.49121513  1
  Ca2+  Ca38  1  0.42020575  0.16417081  0.82631566  1
  Ca2+  Ca39  1  0.42730892  0.66517862  0.16016992  1
  Ca2+  Ca40  1  0.41694027  0.66788897  0.49383469  1
  Ca2+  Ca41  1  0.41665275  0.67752144  0.82525163  1
  Ca2+  Ca42  1  0.91995805  0.17506038  0.15874144  1
  Ca2+  Ca43  1  0.91735063  0.16798543  0.50200214  1
  Ca2+  Ca44  1  0.91836761  0.17819956  0.82038015  1
  Ca2+  Ca45  1  0.90933551  0.67635321  0.16242281  1
  Ca2+  Ca46  1  0.92032822  0.66472529  0.49530445  1
  Ca2+  Ca47  1  0.91748941  0.66589497  0.82868453  1
  Al0+  Al48  1  0.00043678  0.00003665  -0.00385519  1
  Al0+  Al49  1  -0.00043880  0.00030391  0.33238323  1
  Al0+  Al50  1  -0.00006705  0.00142504  0.66812810  1
  Al0+  Al51  1  -0.00065561  0.50013521  0.00374905  1
  Al0+  Al52  1  0.00061140  0.50092367  0.33526437  1
  Al0+  Al53  1  0.00164730  0.50044109  0.66536986  1
  Al0+  Al54  1  0.50095708  -0.00067143  0.00335352  1
  Al0+  Al55  1  0.50091844  -0.00081661  0.33243603  1
  Al0+  Al56  1  0.49934944  -0.00135407  0.66229316  1
  Al0+  Al57  1  0.50221880  0.49659417  -0.00529561  1
  Al0+  Al58  1  0.50180742  0.49748859  0.32986953  1
  Al0+  Al59  1  0.50151718  0.50250969  0.67268322  1
  Al0+  Al60  1  0.25123843  0.24942342  0.00579708  1
  Al0+  Al61  1  0.24919901  0.24884955  0.33350445  1
  Al0+  Al62  1  0.24895658  0.25111372  0.66658895  1
  Al0+  Al63  1  0.24898810  0.74956025  -0.00081431  1
  Al0+  Al64  1  0.24787493  0.74955633  0.33948102  1
  Al0+  Al65  1  0.24943692  0.75194392  0.66298538  1
  Al0+  Al66  1  0.74937353  0.25140477  -0.00261709  1
  Al0+  Al67  1  0.75028878  0.25063406  0.32690450  1
  Al0+  Al68  1  0.75020465  0.25052516  0.66142747  1
  Al0+  Al69  1  0.75051059  0.75068496  -0.00428617  1
  Al0+  Al70  1  0.75009466  0.75121770  0.33156331  1
  Al0+  Al71  1  0.74711393  0.75110462  0.67673432  1
  Al0+  Al72  1  0.56906705  0.18000904  0.65398222  1
  Al0+  Al73  1  0.32338934  0.56907656  0.34495825  1
  Al0+  Al74  1  0.81920034  0.57215916  0.34703583  1
  Al0+  Al75  1  0.57228714  0.17608393  0.31586571  1
  Al0+  Al76  1  0.57044886  0.67974167  0.32185749  1
  Al0+  Al77  1  0.42858304  0.82067396  0.98688402  1
  Al0+  Al78  1  0.82190508  0.07235238  0.68171637  1
  Al0+  Al79  1  0.42792501  0.31959342  0.31927879  1
  Al0+  Al80  1  0.57172295  0.67651747  0.98238554  1
  Al0+  Al81  1  0.18087613  0.42908155  0.68212853  1
  Al0+  Al82  1  0.81942494  0.57042431  0.01569049  1
  Al0+  Al83  1  0.67634943  0.92962855  0.68343737  1
  Al0+  Al84  1  0.32158474  0.06980431  0.01411563  1
  Al0+  Al85  1  0.17665591  0.92915207  0.35006967  1
  Al0+  Al86  1  0.42914052  0.82010274  0.65087558  1
  Al0+  Al87  1  0.32321406  0.57455635  0.68355067  1
  Al0+  Al88  1  0.06885977  0.68034537  0.65258157  1
  Al0+  Al89  1  0.07322203  0.17697007  0.65077518  1
  Al0+  Al90  1  0.92927908  0.32200835  0.64916967  1
  Al0+  Al91  1  0.32228193  0.07029591  0.35159253  1
  Al0+  Al92  1  0.92966174  0.82221151  0.98443977  1
  Al0+  Al93  1  0.93022811  0.81987422  0.32235259  1
  Al0+  Al94  1  0.82109068  0.57025994  0.68049327  1
  Al0+  Al95  1  0.92965109  0.32126804  0.98693564  1
  Si0+  Si96  1  0.42761724  0.32449798  0.65234544  1
  Si0+  Si97  1  0.07285226  0.67663532  0.31641031  1
  Si0+  Si98  1  0.32266419  0.57057038  0.01366681  1
  Si0+  Si99  1  0.92942376  0.32324155  0.31658080  1
  Si0+  Si100  1  0.06966367  0.17840572  0.31669621  1
  Si0+  Si101  1  0.57047767  0.17850805  0.98469950  1
  Si0+  Si102  1  0.17774372  0.92896669  0.68273915  1
  Si0+  Si103  1  0.32003207  0.06990185  0.67987549  1
  Si0+  Si104  1  0.68081041  0.92951010  0.34618211  1
  Si0+  Si105  1  0.92531407  0.82200836  0.65163281  1
  Si0+  Si106  1  0.67981971  0.42620384  0.34946870  1
  Si0+  Si107  1  0.57298028  0.67740672  0.65047876  1
  Si0+  Si108  1  0.82092443  0.07372848  0.34541291  1
  Si0+  Si109  1  0.17644968  0.42700515  0.35002793  1
  Si0+  Si110  1  0.68086016  0.93065462  0.01717603  1
  Si0+  Si111  1  0.67580820  0.42471236  0.01863011  1
  Si0+  Si112  1  0.17577303  0.92635774  0.01603981  1
  Si0+  Si113  1  0.18016101  0.42954849  0.01625134  1
  Si0+  Si114  1  0.42680077  0.32006218  0.98370235  1
  Si0+  Si115  1  0.07268952  0.67692206  0.98458262  1
  Si0+  Si116  1  0.42514024  0.82082796  0.31724807  1
  Si0+  Si117  1  0.82166751  0.07270327  0.01452833  1
  Si0+  Si118  1  0.07296142  0.17972156  0.98513361  1
  Si0+  Si119  1  0.67796396  0.42684005  0.68263058  1
  O2-  O120  1  0.24719042  -0.00667668  0.05865981  1
  O2-  O121  1  0.25167677  -0.00279679  0.40171670  1
  O2-  O122  1  0.24675821  0.00243696  0.72431669  1
  O2-  O123  1  0.25223044  0.49968925  0.05788982  1
  O2-  O124  1  0.24784272  0.49446312  0.39076783  1
  O2-  O125  1  0.25277703  0.50065942  0.73367292  1
  O2-  O126  1  0.75435966  -0.00027351  0.05981160  1
  O2-  O127  1  0.74653605  0.00627762  0.38674915  1
  O2-  O128  1  0.75114378  -0.00024915  0.73315141  1
  O2-  O129  1  0.74185416  0.49716769  0.06133051  1
  O2-  O130  1  0.74699239  0.49565626  0.39438458  1
  O2-  O131  1  0.74663631  0.49510601  0.72751259  1
  O2-  O132  1  0.00097801  0.25222439  0.27471272  1
  O2-  O133  1  -0.00049071  0.24723981  0.60007284  1
  O2-  O134  1  0.00249058  0.24525586  0.94036107  1
  O2-  O135  1  0.00430836  0.74560116  0.27261026  1
  O2-  O136  1  -0.00846717  0.75242680  0.60584279  1
  O2-  O137  1  0.00501006  0.74709505  0.94105055  1
  O2-  O138  1  0.49643791  0.24482346  0.26663263  1
  O2-  O139  1  0.49709028  0.25725723  0.60809152  1
  O2-  O140  1  0.49807858  0.24860956  0.94274863  1
  O2-  O141  1  0.49047530  0.74863549  0.27395175  1
  O2-  O142  1  0.50135413  0.74229715  0.60556358  1
  O2-  O143  1  0.49572912  0.74555470  0.93466607  1
  O2-  O144  1  0.07158673  0.18129396  0.09122550  1
  O2-  O145  1  0.06775841  0.17654645  0.42123631  1
  O2-  O146  1  0.07475724  0.17896593  0.76487681  1
  O2-  O147  1  0.07476847  0.67629957  0.09028446  1
  O2-  O148  1  0.07098582  0.67542496  0.42164401  1
  O2-  O149  1  0.06808087  0.68294207  0.76625436  1
  O2-  O150  1  0.57143128  0.17922534  0.08946865  1
  O2-  O151  1  0.57532711  0.17828726  0.42903049  1
  O2-  O152  1  0.56558889  0.18001603  0.76791388  1
  O2-  O153  1  0.57053553  0.67886987  0.09662549  1
  O2-  O154  1  0.57299291  0.68430421  0.43463881  1
  O2-  O155  1  0.57243270  0.67892858  0.75588562  1
  O2-  O156  1  0.17401324  0.42906645  0.24349254  1
  O2-  O157  1  0.18365425  0.43022298  0.56855633  1
  O2-  O158  1  0.18043399  0.42750876  0.91179949  1
  O2-  O159  1  0.17460721  0.93286440  0.23595559  1
  O2-  O160  1  0.17784897  0.92879014  0.57795614  1
  O2-  O161  1  0.17407560  0.92776853  0.91044421  1
  O2-  O162  1  0.68274725  0.42440290  0.24370367  1
  O2-  O163  1  0.67692779  0.42818194  0.57701631  1
  O2-  O164  1  0.67545257  0.42016017  0.91337713  1
  O2-  O165  1  0.68355422  0.92828430  0.24064458  1
  O2-  O166  1  0.67734663  0.93001069  0.56914894  1
  O2-  O167  1  0.67870012  0.93428713  0.91259330  1
  O2-  O168  1  0.42546455  0.32141201  0.08836620  1
  O2-  O169  1  0.43201154  0.32044045  0.43267337  1
  O2-  O170  1  0.42784368  0.32078830  0.75873996  1
  O2-  O171  1  0.43052458  0.82031337  0.10062083  1
  O2-  O172  1  0.42793406  0.82150261  0.42278497  1
  O2-  O173  1  0.42973053  0.82278099  0.76408829  1
  O2-  O174  1  0.93280024  0.32031122  0.10079402  1
  O2-  O175  1  0.92814253  0.32337692  0.42097275  1
  O2-  O176  1  0.93169717  0.32192145  0.76310342  1
  O2-  O177  1  0.93048591  0.82282666  0.09792959  1
  O2-  O178  1  0.92883979  0.81974347  0.43502234  1
  O2-  O179  1  0.92882463  0.82136037  0.75748228  1
  O2-  O180  1  0.31955883  0.06817926  0.23746686  1
  O2-  O181  1  0.32040994  0.06802841  0.57531748  1
  O2-  O182  1  0.32046093  0.07196948  0.90058144  1
  O2-  O183  1  0.32127003  0.56777456  0.23079651  1
  O2-  O184  1  0.32363448  0.57234600  0.56983325  1
  O2-  O185  1  0.32022995  0.56969234  0.90914546  1
  O2-  O186  1  0.82162695  0.07321594  0.23962203  1
  O2-  O187  1  0.82030498  0.06984174  0.56735557  1
  O2-  O188  1  0.81941754  0.07359040  0.91015751  1
  O2-  O189  1  0.81827693  0.57180382  0.23375057  1
  O2-  O190  1  0.81917601  0.57138566  0.56714760  1
  O2-  O191  1  0.82192672  0.56747918  0.90289400  1
  O2-  O192  1  0.03816462  0.08902980  0.26654373  1
  O2-  O193  1  0.04575561  0.07792773  0.59818450  1
  O2-  O194  1  0.05209330  0.08500559  0.94013134  1
  O2-  O195  1  0.04825329  0.58267558  0.26963411  1
  O2-  O196  1  0.04168995  0.58396022  0.59789050  1
  O2-  O197  1  0.04430985  0.58403392  0.93934000  1
  O2-  O198  1  0.54675711  0.07655379  0.26289564  1
  O2-  O199  1  0.53602185  0.08550633  0.59870321  1
  O2-  O200  1  0.54268018  0.08651503  0.93872519  1
  O2-  O201  1  0.54707080  0.58162194  0.26735576  1
  O2-  O202  1  0.55272492  0.58160212  0.60649553  1
  O2-  O203  1  0.55092483  0.57542855  0.93183778  1
  O2-  O204  1  0.16194595  0.20427094  0.26909348  1
  O2-  O205  1  0.17089279  0.20754179  0.59690085  1
  O2-  O206  1  0.16667572  0.20763828  0.94090623  1
  O2-  O207  1  0.16687540  0.70226848  0.27055381  1
  O2-  O208  1  0.16418789  0.71305911  0.59813555  1
  O2-  O209  1  0.16604201  0.70050393  0.93690041  1
  O2-  O210  1  0.66957294  0.20791273  0.26017044  1
  O2-  O211  1  0.66546078  0.20738289  0.59874332  1
  O2-  O212  1  0.66153260  0.20744565  0.93660036  1
  O2-  O213  1  0.66365189  0.71765554  0.26510818  1
  O2-  O214  1  0.66623196  0.70769526  0.60602569  1
  O2-  O215  1  0.66805441  0.70996055  0.93015457  1
  O2-  O216  1  0.08945284  0.45840859  0.06573331  1
  O2-  O217  1  0.08399474  0.45381863  0.39721060  1
  O2-  O218  1  0.08331723  0.46004788  0.73513237  1
  O2-  O219  1  0.08304753  0.95581055  0.06324637  1
  O2-  O220  1  0.07926664  0.96255448  0.40288457  1
  O2-  O221  1  0.08577428  0.95430863  0.73132343  1
  O2-  O222  1  0.58025740  0.44647436  0.06348046  1
  O2-  O223  1  0.58545416  0.44866041  0.39376889  1
  O2-  O224  1  0.58484746  0.45019126  0.73177755  1
  O2-  O225  1  0.59076016  0.96075263  0.06690708  1
  O2-  O226  1  0.58740662  0.95148512  0.39246274  1
  O2-  O227  1  0.57930183  0.96428692  0.73625511  1
  O2-  O228  1  0.20750110  0.33817645  0.06586463  1
  O2-  O229  1  0.19780891  0.33205721  0.39370845  1
  O2-  O230  1  0.20841781  0.33057761  0.73728975  1
  O2-  O231  1  0.19739683  0.83154658  0.06197682  1
  O2-  O232  1  0.19865477  0.82926407  0.40222780  1
  O2-  O233  1  0.20819736  0.83865743  0.73076231  1
  O2-  O234  1  0.70533116  0.33244060  0.06667889  1
  O2-  O235  1  0.70769767  0.33250711  0.39482736  1
  O2-  O236  1  0.70245004  0.33274871  0.72797531  1
  O2-  O237  1  0.70854122  0.83802426  0.06257973  1
  O2-  O238  1  0.71434458  0.84128128  0.39592996  1
  O2-  O239  1  0.70140239  0.83258715  0.74027068  1
  O2-  O240  1  0.46037367  0.41539425  0.26191542  1
  O2-  O241  1  0.45238736  0.41971820  0.60978360  1
  O2-  O242  1  0.45398927  0.41058896  0.93382259  1
  O2-  O243  1  0.45499372  0.91306724  0.27100621  1
  O2-  O244  1  0.46315348  0.91432096  0.59470691  1
  O2-  O245  1  0.46169265  0.91864275  0.93470373  1
  O2-  O246  1  0.95915872  0.41486471  0.26885937  1
  O2-  O247  1  0.96199309  0.41859994  0.59568626  1
  O2-  O248  1  0.96338021  0.41742722  0.93508241  1
  O2-  O249  1  0.95951618  0.91687684  0.26598613  1
  O2-  O250  1  0.95219534  0.91566773  0.60708766  1
  O2-  O251  1  0.95871174  0.91915263  0.92959142  1
  O2-  O252  1  0.32763898  0.29558154  0.26596349  1
  O2-  O253  1  0.33458179  0.29940947  0.60675014  1
  O2-  O254  1  0.33480668  0.29084380  0.93725431  1
  O2-  O255  1  0.32919525  0.80009009  0.27426034  1
  O2-  O256  1  0.33226546  0.79313542  0.59648249  1
  O2-  O257  1  0.32782184  0.79812263  0.93545571  1
  O2-  O258  1  0.83888241  0.29501068  0.26684532  1
  O2-  O259  1  0.83068467  0.29646248  0.59552676  1
  O2-  O260  1  0.83245673  0.29277641  0.93373011  1
  O2-  O261  1  0.83521483  0.78835986  0.26498265  1
  O2-  O262  1  0.82914252  0.79918565  0.61055817  1
  O2-  O263  1  0.83370857  0.79262927  0.93062007  1
  O2-  O264  1  0.41804986  0.03998779  0.06936681  1
  O2-  O265  1  0.42288639  0.04399697  0.40090663  1
  O2-  O266  1  0.41040101  0.03847421  0.72770802  1
  O2-  O267  1  0.41556203  0.54112453  0.05818331  1
  O2-  O268  1  0.42006749  0.53814344  0.39853319  1
  O2-  O269  1  0.42197413  0.54902158  0.73781292  1
  O2-  O270  1  0.91592462  0.04843128  0.05992683  1
  O2-  O271  1  0.91115600  0.04370980  0.39301035  1
  O2-  O272  1  0.92094648  0.04671847  0.73545357  1
  O2-  O273  1  0.91570928  0.53820564  0.07114908  1
  O2-  O274  1  0.91728130  0.54256410  0.39852596  1
  O2-  O275  1  0.91762635  0.53921455  0.73369364  1
  O2-  O276  1  0.29018494  0.16567391  0.07058722  1
  O2-  O277  1  0.29285452  0.16958568  0.40133690  1
  O2-  O278  1  0.29634045  0.16310129  0.72704042  1
  O2-  O279  1  0.29518228  0.66260710  0.06148877  1
  O2-  O280  1  0.29415708  0.66547230  0.39923046  1
  O2-  O281  1  0.28934271  0.67240257  0.73455207  1
  O2-  O282  1  0.79131129  0.16404263  0.06267298  1
  O2-  O283  1  0.79679636  0.16710303  0.39096198  1
  O2-  O284  1  0.79197798  0.17152131  0.73235391  1
  O2-  O285  1  0.78912895  0.66921759  0.06662086  1
  O2-  O286  1  0.78632983  0.66802004  0.40059193  1
  O2-  O287  1  0.79099289  0.66575617  0.73703079  1
