# generated using pymatgen
data_Ca2Al2SiO7
_symmetry_space_group_name_H-M   'P 1'
_cell_length_a   15.46380451
_cell_length_b   15.46119263
_cell_length_c   15.28685539
_cell_angle_alpha   90.01151368
_cell_angle_beta   89.97547286
_cell_angle_gamma   89.99925321
_symmetry_Int_Tables_number   1
_chemical_formula_structural   Ca2Al2SiO7
_chemical_formula_sum   'Ca48 Al48 Si24 O168'
_cell_volume   3654.91642200
_cell_formula_units_Z   24
loop_
 _symmetry_equiv_pos_site_id
 _symmetry_equiv_pos_as_xyz
  1  'x, y, z'
loop_
 _atom_type_symbol
 _atom_type_oxidation_number
  Ca2+  2.0
  Al0+  0.0
  Si0+  0.0
  O2-  -2.0
loop_
 _atom_site_type_symbol
 _atom_site_label
 _atom_site_symmetry_multiplicity
 _atom_site_fract_x
 _atom_site_fract_y
 _atom_site_fract_z
 _atom_site_occupancy
  Ca2+  Ca0  1  0.17139659  0.08398641  0.17638999  1
  Ca2+  Ca1  1  0.17484069  0.09249984  0.50235640  1
  Ca2+  Ca2  1  0.17219011  0.08456281  0.83476856  1
  Ca2+  Ca3  1  0.16430692  0.58330222  0.16602337  1
  Ca2+  Ca4  1  0.15766931  0.58091035  0.50631101  1
  Ca2+  Ca5  1  0.16344545  0.57297394  0.83713049  1
  Ca2+  Ca6  1  0.67604208  0.08415911  0.16632694  1
  Ca2+  Ca7  1  0.67626114  0.07382430  0.50928506  1
  Ca2+  Ca8  1  0.67986227  0.07847833  0.83118322  1
  Ca2+  Ca9  1  0.67253795  0.57305452  0.16711604  1
  Ca2+  Ca10  1  0.67575843  0.57828224  0.50444637  1
  Ca2+  Ca11  1  0.67964609  0.57828258  0.83920004  1
  Ca2+  Ca12  1  0.07497338  0.32985232  0.16408828  1
  Ca2+  Ca13  1  0.07190182  0.33233367  0.49798877  1
  Ca2+  Ca14  1  0.07602714  0.34041265  0.82867631  1
  Ca2+  Ca15  1  0.07562769  0.82770506  0.16428876  1
  Ca2+  Ca16  1  0.07453183  0.82284202  0.49508225  1
  Ca2+  Ca17  1  0.07163384  0.82242707  0.82723849  1
  Ca2+  Ca18  1  0.58828509  0.33760348  0.16109186  1
  Ca2+  Ca19  1  0.57781631  0.33554154  0.49620842  1
  Ca2+  Ca20  1  0.57829289  0.33776436  0.82913988  1
  Ca2+  Ca21  1  0.56975473  0.83623770  0.16157307  1
  Ca2+  Ca22  1  0.58211066  0.83596460  0.49628084  1
  Ca2+  Ca23  1  0.58058042  0.83697579  0.83043829  1
  Ca2+  Ca24  1  0.32581809  0.42284940  0.16702372  1
  Ca2+  Ca25  1  0.32232068  0.41590654  0.51120625  1
  Ca2+  Ca26  1  0.32026999  0.41787238  0.83906656  1
  Ca2+  Ca27  1  0.33464077  0.91783231  0.17542484  1
  Ca2+  Ca28  1  0.33397199  0.92609334  0.50349623  1
  Ca2+  Ca29  1  0.33351845  0.91987251  0.83682541  1
  Ca2+  Ca30  1  0.82929666  0.41251073  0.16930848  1
  Ca2+  Ca31  1  0.83597588  0.41710034  0.50582343  1
  Ca2+  Ca32  1  0.83941735  0.42697524  0.84159120  1
  Ca2+  Ca33  1  0.84471468  0.91953196  0.16811961  1
  Ca2+  Ca34  1  0.83419559  0.91668885  0.51230523  1
  Ca2+  Ca35  1  0.84128680  0.92300731  0.83743669  1
  Ca2+  Ca36  1  0.41933133  0.16545797  0.16403698  1
  Ca2+  Ca37  1  0.41176508  0.16830620  0.49881484  1
  Ca2+  Ca38  1  0.41881739  0.17285790  0.82288304  1
  Ca2+  Ca39  1  0.41294550  0.67543928  0.15762689  1
  Ca2+  Ca40  1  0.42059038  0.67428233  0.49183818  1
  Ca2+  Ca41  1  0.41507813  0.66574610  0.83338614  1
  Ca2+  Ca42  1  0.91615047  0.17548938  0.16036081  1
  Ca2+  Ca43  1  0.91705209  0.17485916  0.49444557  1
  Ca2+  Ca44  1  0.90869379  0.17705712  0.82982663  1
  Ca2+  Ca45  1  0.91573956  0.67437590  0.16251401  1
  Ca2+  Ca46  1  0.92276173  0.67041817  0.49900939  1
  Ca2+  Ca47  1  0.91426239  0.66819621  0.82300977  1
  Al0+  Al48  1  0.00280761  -0.00032424  0.00047801  1
  Al0+  Al49  1  0.00340689  -0.00006803  0.33093671  1
  Al0+  Al50  1  0.00290079  0.00086287  0.66837618  1
  Al0+  Al51  1  0.00070200  0.49938246  0.00720134  1
  Al0+  Al52  1  -0.00032285  0.50014117  0.32596424  1
  Al0+  Al53  1  -0.00044382  0.49843177  0.66663164  1
  Al0+  Al54  1  0.50117138  0.00090266  -0.00579021  1
  Al0+  Al55  1  0.50091278  0.00206324  0.33391271  1
  Al0+  Al56  1  0.50101828  0.00165639  0.67389022  1
  Al0+  Al57  1  0.49909666  0.50123760  0.00558002  1
  Al0+  Al58  1  0.50025885  0.49996970  0.33722895  1
  Al0+  Al59  1  0.49864177  0.50113041  0.66007719  1
  Al0+  Al60  1  0.25132397  0.24967497  0.00483214  1
  Al0+  Al61  1  0.25101209  0.25222820  0.33352443  1
  Al0+  Al62  1  0.25052867  0.25196622  0.67220777  1
  Al0+  Al63  1  0.24913582  0.75227821  -0.00342075  1
  Al0+  Al64  1  0.25031132  0.75128428  0.32790976  1
  Al0+  Al65  1  0.25121162  0.75070075  0.66255706  1
  Al0+  Al66  1  0.75073382  0.24691990  0.00112190  1
  Al0+  Al67  1  0.74665083  0.24890794  0.33599969  1
  Al0+  Al68  1  0.74651728  0.24722079  0.66461876  1
  Al0+  Al69  1  0.74593694  0.75096523  0.00121843  1
  Al0+  Al70  1  0.74900488  0.74809884  0.32950082  1
  Al0+  Al71  1  0.74637401  0.74813951  0.66989024  1
  Al0+  Al72  1  0.31917015  0.07052928  0.68170496  1
  Al0+  Al73  1  0.92762754  0.82074713  0.98533973  1
  Al0+  Al74  1  0.07104534  0.67758016  0.65342120  1
  Al0+  Al75  1  0.68020486  0.42811758  0.01241385  1
  Al0+  Al76  1  0.81984528  0.56714468  0.67779089  1
  Al0+  Al77  1  0.17757922  0.42669610  0.01873779  1
  Al0+  Al78  1  0.42860891  0.32126251  0.65358388  1
  Al0+  Al79  1  0.17918125  0.43114277  0.67891967  1
  Al0+  Al80  1  0.32142815  0.07133791  0.34718984  1
  Al0+  Al81  1  0.67972455  0.92695074  0.68181031  1
  Al0+  Al82  1  0.82228111  0.06797185  0.01482667  1
  Al0+  Al83  1  0.92712700  0.31899844  0.65518272  1
  Al0+  Al84  1  0.82242475  0.57443898  0.01644712  1
  Al0+  Al85  1  0.67903294  0.42777044  0.35021457  1
  Al0+  Al86  1  0.43247010  0.82158061  0.32142300  1
  Al0+  Al87  1  0.92585608  0.31880074  0.31770803  1
  Al0+  Al88  1  0.92677215  0.82196621  0.65399190  1
  Al0+  Al89  1  0.92654619  0.82156918  0.31896979  1
  Al0+  Al90  1  0.07155043  0.67812522  0.31614430  1
  Al0+  Al91  1  0.42795728  0.82164432  0.98334873  1
  Al0+  Al92  1  0.92997447  0.31967298  0.98571910  1
  Al0+  Al93  1  0.07368192  0.18024991  0.31987368  1
  Al0+  Al94  1  0.31918434  0.57254684  0.01419621  1
  Al0+  Al95  1  0.82517232  0.07146736  0.68057163  1
  Si0+  Si96  1  0.17910305  0.92455245  0.68449653  1
  Si0+  Si97  1  0.57152101  0.17895632  0.98294198  1
  Si0+  Si98  1  0.67479043  0.42714445  0.68101449  1
  Si0+  Si99  1  0.18079895  0.93062867  0.01547459  1
  Si0+  Si100  1  0.32431882  0.57450973  0.68032884  1
  Si0+  Si101  1  0.82246134  0.06955471  0.34697091  1
  Si0+  Si102  1  0.57146669  0.67532296  0.31479238  1
  Si0+  Si103  1  0.56957125  0.17720059  0.64769711  1
  Si0+  Si104  1  0.57028363  0.67809751  0.65022365  1
  Si0+  Si105  1  0.17858589  0.92682347  0.35148200  1
  Si0+  Si106  1  0.67918549  0.92924646  0.34499126  1
  Si0+  Si107  1  0.07498678  0.17787854  0.98298482  1
  Si0+  Si108  1  0.07442990  0.17833467  0.65300750  1
  Si0+  Si109  1  0.42906151  0.32133045  0.98667403  1
  Si0+  Si110  1  0.32066310  0.57323747  0.34892824  1
  Si0+  Si111  1  0.07104465  0.67830346  0.98300541  1
  Si0+  Si112  1  0.56946284  0.67680224  0.98189015  1
  Si0+  Si113  1  0.43038331  0.82345886  0.65120822  1
  Si0+  Si114  1  0.82259693  0.57173366  0.35083428  1
  Si0+  Si115  1  0.32325913  0.07040910  0.01544757  1
  Si0+  Si116  1  0.56898795  0.17972663  0.31791089  1
  Si0+  Si117  1  0.17959514  0.43085737  0.34956806  1
  Si0+  Si118  1  0.67561330  0.92934116  0.01818366  1
  Si0+  Si119  1  0.42909570  0.32290102  0.31726480  1
  O2-  O120  1  0.25288476  0.00052523  0.05880438  1
  O2-  O121  1  0.24518155  -0.00126787  0.39476339  1
  O2-  O122  1  0.24601823  -0.00467647  0.72950251  1
  O2-  O123  1  0.24781361  0.50193905  0.06720191  1
  O2-  O124  1  0.24819793  0.50463719  0.39221469  1
  O2-  O125  1  0.25363715  0.50783690  0.72307645  1
  O2-  O126  1  0.75047772  -0.00947781  0.06318488  1
  O2-  O127  1  0.75800739  -0.00866196  0.38712875  1
  O2-  O128  1  0.75879333  -0.00721631  0.72949609  1
  O2-  O129  1  0.75405084  0.49708436  0.06431452  1
  O2-  O130  1  0.75614375  0.50026701  0.39526805  1
  O2-  O131  1  0.74828268  0.48930745  0.72507958  1
  O2-  O132  1  -0.00265543  0.24579508  0.26810061  1
  O2-  O133  1  -0.00130848  0.23988514  0.61003968  1
  O2-  O134  1  0.00766540  0.24741905  0.93884340  1
  O2-  O135  1  -0.00221501  0.74930778  0.26824669  1
  O2-  O136  1  -0.00008410  0.75115071  0.60438275  1
  O2-  O137  1  -0.00520722  0.73890555  0.93917903  1
  O2-  O138  1  0.50094912  0.25311940  0.27442841  1
  O2-  O139  1  0.50282900  0.24784887  0.60334704  1
  O2-  O140  1  0.50155741  0.25249009  0.94341042  1
  O2-  O141  1  0.50376350  0.74554523  0.27154845  1
  O2-  O142  1  0.50021625  0.75141619  0.60909636  1
  O2-  O143  1  0.50133851  0.74608638  0.93643556  1
  O2-  O144  1  0.07582411  0.17744304  0.08855781  1
  O2-  O145  1  0.07443098  0.18398362  0.43361810  1
  O2-  O146  1  0.07850061  0.18126076  0.75845550  1
  O2-  O147  1  0.07516741  0.68478267  0.08830872  1
  O2-  O148  1  0.07159887  0.67890177  0.42977030  1
  O2-  O149  1  0.07164756  0.67734843  0.76690411  1
  O2-  O150  1  0.56898554  0.17562623  0.08853371  1
  O2-  O151  1  0.56750383  0.17809234  0.42261440  1
  O2-  O152  1  0.56824957  0.17763340  0.75338407  1
  O2-  O153  1  0.56695906  0.67778747  0.08752141  1
  O2-  O154  1  0.57023704  0.67623014  0.42082800  1
  O2-  O155  1  0.56758366  0.67395911  0.75485722  1
  O2-  O156  1  0.18414901  0.42895052  0.24488839  1
  O2-  O157  1  0.18018243  0.43037615  0.56537457  1
  O2-  O158  1  0.18059922  0.42477432  0.90500050  1
  O2-  O159  1  0.18164496  0.92647067  0.24562141  1
  O2-  O160  1  0.18269918  0.92221616  0.57915068  1
  O2-  O161  1  0.18264749  0.93275373  0.91039678  1
  O2-  O162  1  0.67694234  0.42916185  0.23747313  1
  O2-  O163  1  0.67294280  0.43137508  0.57532560  1
  O2-  O164  1  0.67650841  0.43015992  0.89886569  1
  O2-  O165  1  0.67348919  0.93450012  0.24035133  1
  O2-  O166  1  0.67617968  0.93035322  0.56737128  1
  O2-  O167  1  0.67136137  0.93402811  0.91314042  1
  O2-  O168  1  0.42878680  0.31785279  0.09211389  1
  O2-  O169  1  0.42850319  0.32183045  0.42233842  1
  O2-  O170  1  0.43071657  0.32046378  0.76701734  1
  O2-  O171  1  0.43043798  0.82452275  0.09664297  1
  O2-  O172  1  0.43568629  0.82180449  0.43483140  1
  O2-  O173  1  0.43028557  0.82262971  0.75622131  1
  O2-  O174  1  0.92776776  0.31485559  0.09855486  1
  O2-  O175  1  0.92669995  0.31791518  0.43168710  1
  O2-  O176  1  0.92899059  0.32102213  0.76811695  1
  O2-  O177  1  0.93388338  0.82247282  0.09822713  1
  O2-  O178  1  0.92523515  0.82081061  0.43244848  1
  O2-  O179  1  0.92877282  0.81886723  0.76758706  1
  O2-  O180  1  0.32368304  0.06900786  0.23378496  1
  O2-  O181  1  0.31901065  0.06972192  0.56847331  1
  O2-  O182  1  0.32253273  0.07119850  0.91045184  1
  O2-  O183  1  0.32251314  0.57123590  0.24416866  1
  O2-  O184  1  0.32668997  0.57348917  0.57445812  1
  O2-  O185  1  0.31950654  0.56939028  0.90034075  1
  O2-  O186  1  0.81849601  0.07157038  0.24179171  1
  O2-  O187  1  0.82071975  0.07306494  0.56633987  1
  O2-  O188  1  0.81965908  0.06933431  0.90226915  1
  O2-  O189  1  0.81900856  0.57365703  0.24562098  1
  O2-  O190  1  0.81811197  0.56712680  0.56456921  1
  O2-  O191  1  0.81990294  0.57345406  0.90241420  1
  O2-  O192  1  0.05516213  0.07888243  0.26956207  1
  O2-  O193  1  0.05958157  0.08189658  0.60868876  1
  O2-  O194  1  0.05043336  0.08414270  0.93735269  1
  O2-  O195  1  0.04652130  0.58010086  0.26191281  1
  O2-  O196  1  0.03972371  0.58100170  0.59896510  1
  O2-  O197  1  0.05460635  0.58050875  0.94378111  1
  O2-  O198  1  0.53813250  0.09019653  0.26765278  1
  O2-  O199  1  0.54002430  0.08417687  0.60239453  1
  O2-  O200  1  0.53984005  0.08999995  0.93274970  1
  O2-  O201  1  0.54298474  0.58225403  0.26977991  1
  O2-  O202  1  0.54078800  0.58893432  0.59769280  1
  O2-  O203  1  0.54170990  0.58357931  0.93566861  1
  O2-  O204  1  0.17099539  0.21202025  0.26518160  1
  O2-  O205  1  0.16511590  0.21173159  0.60543064  1
  O2-  O206  1  0.17055066  0.20188963  0.93887003  1
  O2-  O207  1  0.16956458  0.70793209  0.26264363  1
  O2-  O208  1  0.17069224  0.70390491  0.59983933  1
  O2-  O209  1  0.16127056  0.71155886  0.93433237  1
  O2-  O210  1  0.66090984  0.20539328  0.27001918  1
  O2-  O211  1  0.66282913  0.19972833  0.59978933  1
  O2-  O212  1  0.66291212  0.20502757  0.93530540  1
  O2-  O213  1  0.66485209  0.69866993  0.26875638  1
  O2-  O214  1  0.66101865  0.70535369  0.60076823  1
  O2-  O215  1  0.66267720  0.70295840  0.93576337  1
  O2-  O216  1  0.08020622  0.45213001  0.07344523  1
  O2-  O217  1  0.08544074  0.45616858  0.39329180  1
  O2-  O218  1  0.08413552  0.46167870  0.73478381  1
  O2-  O219  1  0.09073079  0.95922112  0.06511973  1
  O2-  O220  1  0.08423529  0.94949008  0.39726464  1
  O2-  O221  1  0.08564453  0.94874789  0.73086893  1
  O2-  O222  1  0.58243143  0.45725436  0.06783669  1
  O2-  O223  1  0.58202336  0.46020494  0.40441393  1
  O2-  O224  1  0.58243274  0.45910394  0.72639411  1
  O2-  O225  1  0.58442330  0.96464753  0.06514514  1
  O2-  O226  1  0.59161946  0.96517929  0.39614683  1
  O2-  O227  1  0.58494517  0.96298780  0.73808877  1
  O2-  O228  1  0.21185367  0.32986495  0.07285585  1
  O2-  O229  1  0.21223239  0.34085707  0.39757425  1
  O2-  O230  1  0.21313667  0.33768501  0.73633943  1
  O2-  O231  1  0.20887602  0.83914754  0.06237811  1
  O2-  O232  1  0.20897920  0.83444135  0.39740738  1
  O2-  O233  1  0.20888998  0.83247541  0.73197453  1
  O2-  O234  1  0.70454891  0.32841124  0.06511294  1
  O2-  O235  1  0.70379706  0.32920986  0.40407607  1
  O2-  O236  1  0.69032430  0.33002936  0.72193341  1
  O2-  O237  1  0.68963190  0.83297585  0.06138575  1
  O2-  O238  1  0.69658470  0.83342017  0.38898356  1
  O2-  O239  1  0.69514314  0.82627308  0.73399440  1
  O2-  O240  1  0.45657045  0.41535134  0.27133227  1
  O2-  O241  1  0.45674907  0.41737080  0.59632246  1
  O2-  O242  1  0.45455772  0.41426503  0.94126546  1
  O2-  O243  1  0.46563185  0.91752573  0.26676989  1
  O2-  O244  1  0.46063736  0.91555548  0.60604611  1
  O2-  O245  1  0.46103787  0.91782703  0.92896530  1
  O2-  O246  1  0.95333081  0.41692426  0.26580237  1
  O2-  O247  1  0.96263174  0.41284245  0.59927962  1
  O2-  O248  1  0.95896112  0.41920197  0.93663788  1
  O2-  O249  1  0.95649020  0.92004564  0.26689838  1
  O2-  O250  1  0.95433604  0.92203148  0.60327810  1
  O2-  O251  1  0.96637982  0.91591573  0.93282720  1
  O2-  O252  1  0.33873295  0.29360823  0.26895958  1
  O2-  O253  1  0.33246022  0.28794729  0.60003005  1
  O2-  O254  1  0.33807396  0.29014411  0.93954441  1
  O2-  O255  1  0.33584285  0.79441735  0.26688339  1
  O2-  O256  1  0.33876902  0.79810034  0.60254252  1
  O2-  O257  1  0.33122933  0.79359273  0.92850228  1
  O2-  O258  1  0.82641643  0.28889794  0.26733631  1
  O2-  O259  1  0.82885076  0.29259789  0.60136140  1
  O2-  O260  1  0.83358268  0.28532392  0.93293101  1
  O2-  O261  1  0.82727193  0.79635757  0.26495640  1
  O2-  O262  1  0.82675175  0.79395908  0.60405720  1
  O2-  O263  1  0.82529304  0.80210932  0.93833773  1
  O2-  O264  1  0.41594960  0.04225334  0.06085470  1
  O2-  O265  1  0.41764040  0.03915212  0.40175970  1
  O2-  O266  1  0.41523779  0.04118570  0.73681047  1
  O2-  O267  1  0.41666327  0.54483534  0.06960710  1
  O2-  O268  1  0.41221662  0.54485521  0.39701901  1
  O2-  O269  1  0.41716568  0.54660862  0.72663599  1
  O2-  O270  1  0.92032003  0.04060965  0.06801335  1
  O2-  O271  1  0.91727528  0.05029686  0.39139666  1
  O2-  O272  1  0.92585077  0.05315095  0.73302714  1
  O2-  O273  1  0.92186008  0.55272500  0.06818886  1
  O2-  O274  1  0.91781205  0.54739210  0.39368127  1
  O2-  O275  1  0.91565444  0.53844985  0.73302952  1
  O2-  O276  1  0.29806931  0.16209607  0.06422700  1
  O2-  O277  1  0.29251686  0.16951681  0.40013702  1
  O2-  O278  1  0.28903315  0.16618413  0.73757329  1
  O2-  O279  1  0.29213721  0.67276411  0.06481236  1
  O2-  O280  1  0.29648348  0.66696892  0.39442469  1
  O2-  O281  1  0.30320632  0.66958213  0.72501308  1
  O2-  O282  1  0.78494578  0.16173320  0.07013449  1
  O2-  O283  1  0.78626943  0.15771709  0.39596878  1
  O2-  O284  1  0.78589768  0.16702825  0.73435129  1
  O2-  O285  1  0.78773317  0.67122806  0.06996951  1
  O2-  O286  1  0.79241284  0.66472338  0.39699177  1
  O2-  O287  1  0.78521200  0.66171066  0.73260291  1
