# generated using pymatgen
data_Ca2Al2SiO7
_symmetry_space_group_name_H-M   'P 1'
_cell_length_a   15.45707419
_cell_length_b   15.45779234
_cell_length_c   15.28286327
_cell_angle_alpha   90.00384315
_cell_angle_beta   89.99616478
_cell_angle_gamma   90.00254450
_symmetry_Int_Tables_number   1
_chemical_formula_structural   Ca2Al2SiO7
_chemical_formula_sum   'Ca48 Al48 Si24 O168'
_cell_volume   3651.56878246
_cell_formula_units_Z   24
loop_
 _symmetry_equiv_pos_site_id
 _symmetry_equiv_pos_as_xyz
  1  'x, y, z'
loop_
 _atom_type_symbol
 _atom_type_oxidation_number
  Ca2+  2.0
  Al0+  0.0
  Si0+  0.0
  O2-  -2.0
loop_
 _atom_site_type_symbol
 _atom_site_label
 _atom_site_symmetry_multiplicity
 _atom_site_fract_x
 _atom_site_fract_y
 _atom_site_fract_z
 _atom_site_occupancy
  Ca2+  Ca0  1  0.16941414  0.08465314  0.17195452  1
  Ca2+  Ca1  1  0.17035560  0.07975831  0.50615123  1
  Ca2+  Ca2  1  0.15678550  0.07977328  0.83338974  1
  Ca2+  Ca3  1  0.17396226  0.59039601  0.17133586  1
  Ca2+  Ca4  1  0.17580811  0.58373285  0.50566082  1
  Ca2+  Ca5  1  0.17600294  0.58116319  0.83778054  1
  Ca2+  Ca6  1  0.67337996  0.07727867  0.18039696  1
  Ca2+  Ca7  1  0.67061764  0.07164843  0.50064647  1
  Ca2+  Ca8  1  0.66383553  0.07530316  0.83249418  1
  Ca2+  Ca9  1  0.67454606  0.57834348  0.17140932  1
  Ca2+  Ca10  1  0.66296519  0.57351497  0.50539114  1
  Ca2+  Ca11  1  0.66994974  0.58144325  0.83414300  1
  Ca2+  Ca12  1  0.07821608  0.32714535  0.16250393  1
  Ca2+  Ca13  1  0.07390438  0.33752386  0.49812360  1
  Ca2+  Ca14  1  0.08230530  0.32518600  0.82185008  1
  Ca2+  Ca15  1  0.08098175  0.82218138  0.16854808  1
  Ca2+  Ca16  1  0.08259206  0.82995459  0.49259560  1
  Ca2+  Ca17  1  0.08607550  0.82771595  0.82830676  1
  Ca2+  Ca18  1  0.57246023  0.34254675  0.16879462  1
  Ca2+  Ca19  1  0.58079214  0.33845086  0.49128159  1
  Ca2+  Ca20  1  0.57829003  0.33986524  0.82906332  1
  Ca2+  Ca21  1  0.57719752  0.84026872  0.16838420  1
  Ca2+  Ca22  1  0.57851240  0.83226253  0.49715028  1
  Ca2+  Ca23  1  0.57661483  0.82462244  0.81868941  1
  Ca2+  Ca24  1  0.33686541  0.42564058  0.17408335  1
  Ca2+  Ca25  1  0.33134208  0.42798141  0.50599244  1
  Ca2+  Ca26  1  0.33233126  0.42643475  0.83682061  1
  Ca2+  Ca27  1  0.33319436  0.92422502  0.17840471  1
  Ca2+  Ca28  1  0.33386473  0.91733792  0.50484505  1
  Ca2+  Ca29  1  0.32815884  0.91255022  0.83038401  1
  Ca2+  Ca30  1  0.83118658  0.41833277  0.17494865  1
  Ca2+  Ca31  1  0.82595972  0.40838841  0.50441811  1
  Ca2+  Ca32  1  0.83026148  0.41719561  0.83338279  1
  Ca2+  Ca33  1  0.82951341  0.92201266  0.18043235  1
  Ca2+  Ca34  1  0.82872738  0.91572643  0.50149152  1
  Ca2+  Ca35  1  0.82586318  0.91269448  0.83465652  1
  Ca2+  Ca36  1  0.41004084  0.18074340  0.16583869  1
  Ca2+  Ca37  1  0.41659817  0.17232685  0.49069119  1
  Ca2+  Ca38  1  0.41607721  0.17612819  0.83087222  1
  Ca2+  Ca39  1  0.41218456  0.66860005  0.16672613  1
  Ca2+  Ca40  1  0.41439147  0.67321517  0.49681666  1
  Ca2+  Ca41  1  0.41902816  0.66568810  0.82322092  1
  Ca2+  Ca42  1  0.91634350  0.16921567  0.16601220  1
  Ca2+  Ca43  1  0.91873323  0.17321982  0.49620124  1
  Ca2+  Ca44  1  0.92744790  0.17244185  0.82363799  1
  Ca2+  Ca45  1  0.92699038  0.66439831  0.16259916  1
  Ca2+  Ca46  1  0.92629465  0.67268446  0.48899241  1
  Ca2+  Ca47  1  0.92168010  0.65901634  0.83235978  1
  Al0+  Al48  1  -0.00221159  -0.00107876  -0.00215686  1
  Al0+  Al49  1  0.00023652  -0.00057246  0.33324778  1
  Al0+  Al50  1  0.00176110  0.00075021  0.66744987  1
  Al0+  Al51  1  -0.00015077  0.49985906  -0.00087769  1
  Al0+  Al52  1  0.00140307  0.49805992  0.32349603  1
  Al0+  Al53  1  0.00051564  0.49891385  0.66524307  1
  Al0+  Al54  1  0.49776561  0.00099271  -0.00046318  1
  Al0+  Al55  1  0.50046640  0.00021437  0.33658857  1
  Al0+  Al56  1  0.50011345  0.00090479  0.66921259  1
  Al0+  Al57  1  0.49875558  0.50173735  -0.00022362  1
  Al0+  Al58  1  0.49998928  0.50182883  0.33636238  1
  Al0+  Al59  1  0.50257528  0.50078836  0.67096580  1
  Al0+  Al60  1  0.24967086  0.25002925  -0.00964455  1
  Al0+  Al61  1  0.25019190  0.25112640  0.33369872  1
  Al0+  Al62  1  0.25088056  0.24988857  0.66555405  1
  Al0+  Al63  1  0.24792410  0.75078184  0.00052191  1
  Al0+  Al64  1  0.25247351  0.75064833  0.32886461  1
  Al0+  Al65  1  0.25087476  0.75302423  0.67110930  1
  Al0+  Al66  1  0.74713258  0.24723042  -0.00005008  1
  Al0+  Al67  1  0.75083018  0.24866452  0.33577728  1
  Al0+  Al68  1  0.74990815  0.24981491  0.67063112  1
  Al0+  Al69  1  0.74837642  0.74885644  0.00608594  1
  Al0+  Al70  1  0.74992077  0.74880352  0.33313743  1
  Al0+  Al71  1  0.74958607  0.74904061  0.66696743  1
  Al0+  Al72  1  0.92717089  0.82187913  0.31907996  1
  Al0+  Al73  1  0.07092864  0.67926623  0.98316798  1
  Al0+  Al74  1  0.32048376  0.57151891  0.68211157  1
  Al0+  Al75  1  0.92721086  0.31905918  0.31804381  1
  Al0+  Al76  1  0.67917044  0.92807854  0.68152843  1
  Al0+  Al77  1  0.57250927  0.67731702  0.65067787  1
  Al0+  Al78  1  0.92852199  0.32164837  0.65138173  1
  Al0+  Al79  1  0.68114799  0.43125254  0.34567575  1
  Al0+  Al80  1  0.67839092  0.92591755  0.34943238  1
  Al0+  Al81  1  0.31971618  0.57180665  0.34740802  1
  Al0+  Al82  1  0.42890730  0.32274694  0.32202123  1
  Al0+  Al83  1  0.06919666  0.17854423  0.98571640  1
  Al0+  Al84  1  0.31997890  0.57104233  0.01612471  1
  Al0+  Al85  1  0.82186338  0.56944734  0.01460029  1
  Al0+  Al86  1  0.82386804  0.07111613  0.34984375  1
  Al0+  Al87  1  0.67991201  0.42787193  0.68135665  1
  Al0+  Al88  1  0.07301821  0.17757673  0.64833569  1
  Al0+  Al89  1  0.07265464  0.67842083  0.31880515  1
  Al0+  Al90  1  0.32043048  0.07362059  0.34566633  1
  Al0+  Al91  1  0.43097576  0.32262483  0.98497849  1
  Al0+  Al92  1  0.17759061  0.42832853  0.68122591  1
  Al0+  Al93  1  0.42827203  0.82134684  0.65169562  1
  Al0+  Al94  1  0.17883623  0.93101777  0.68026112  1
  Al0+  Al95  1  0.43148791  0.82187419  0.31893377  1
  Si0+  Si96  1  0.57132172  0.17825348  0.65184319  1
  Si0+  Si97  1  0.43097571  0.32138656  0.65137158  1
  Si0+  Si98  1  0.67761789  0.42683878  0.01715898  1
  Si0+  Si99  1  0.82581254  0.57107892  0.34902426  1
  Si0+  Si100  1  0.17879044  0.42565469  0.01631340  1
  Si0+  Si101  1  0.57102408  0.68116849  0.98628247  1
  Si0+  Si102  1  0.82161292  0.07080965  0.68560580  1
  Si0+  Si103  1  0.92854801  0.82107536  0.65389690  1
  Si0+  Si104  1  0.67708807  0.92931117  0.01521612  1
  Si0+  Si105  1  0.92627180  0.82032447  0.98286544  1
  Si0+  Si106  1  0.42860135  0.82338094  0.98500483  1
  Si0+  Si107  1  0.07152118  0.67972505  0.65360535  1
  Si0+  Si108  1  0.32019717  0.07177432  0.01409496  1
  Si0+  Si109  1  0.92490384  0.32163083  0.98324840  1
  Si0+  Si110  1  0.57121633  0.17845903  0.31825171  1
  Si0+  Si111  1  0.32356603  0.07372367  0.68514302  1
  Si0+  Si112  1  0.57167654  0.17572049  0.98274061  1
  Si0+  Si113  1  0.82348953  0.57282149  0.68106816  1
  Si0+  Si114  1  0.57203181  0.67634474  0.31496086  1
  Si0+  Si115  1  0.17754756  0.92967035  0.01629727  1
  Si0+  Si116  1  0.07274588  0.17772081  0.31719292  1
  Si0+  Si117  1  0.18019224  0.92865385  0.34787588  1
  Si0+  Si118  1  0.82037490  0.06950060  0.01412446  1
  Si0+  Si119  1  0.17657514  0.42700064  0.34791624  1
  O2-  O120  1  0.24845278  0.00172392  0.05703337  1
  O2-  O121  1  0.24666679  -0.00117003  0.39249713  1
  O2-  O122  1  0.25248552  0.00659380  0.72863814  1
  O2-  O123  1  0.24525885  0.49563609  0.06236968  1
  O2-  O124  1  0.24350162  0.49775455  0.39136566  1
  O2-  O125  1  0.24881602  0.49969453  0.73334680  1
  O2-  O126  1  0.74792867  0.00030226  0.05672419  1
  O2-  O127  1  0.75463281  -0.00502056  0.39747059  1
  O2-  O128  1  0.75412611  0.00112124  0.73130903  1
  O2-  O129  1  0.75081706  0.49070475  0.06081042  1
  O2-  O130  1  0.75769073  0.50298901  0.39430917  1
  O2-  O131  1  0.75540001  0.50297064  0.72532740  1
  O2-  O132  1  0.00212947  0.24403840  0.27204531  1
  O2-  O133  1  0.00221789  0.25158949  0.60064031  1
  O2-  O134  1  -0.00498633  0.25420057  0.93989223  1
  O2-  O135  1  -0.00359162  0.74721763  0.26922596  1
  O2-  O136  1  -0.00058019  0.74993189  0.61227819  1
  O2-  O137  1  -0.00653628  0.75159353  0.93622994  1
  O2-  O138  1  0.50251836  0.24715197  0.27343854  1
  O2-  O139  1  0.50161079  0.25001751  0.60920416  1
  O2-  O140  1  0.50716911  0.24841886  0.93868574  1
  O2-  O141  1  0.50714719  0.74895190  0.27009490  1
  O2-  O142  1  0.50009347  0.74936553  0.60192155  1
  O2-  O143  1  0.49907855  0.75150041  0.94422412  1
  O2-  O144  1  0.06861174  0.17825487  0.09899892  1
  O2-  O145  1  0.07428983  0.17882586  0.42209028  1
  O2-  O146  1  0.06812303  0.17700187  0.76244960  1
  O2-  O147  1  0.07224504  0.68323738  0.09570459  1
  O2-  O148  1  0.07286812  0.68075492  0.43295656  1
  O2-  O149  1  0.06997717  0.68070247  0.75897042  1
  O2-  O150  1  0.57121616  0.17111872  0.08774928  1
  O2-  O151  1  0.56980277  0.17937109  0.42397891  1
  O2-  O152  1  0.56877200  0.17770690  0.75755075  1
  O2-  O153  1  0.57211036  0.68250834  0.09122758  1
  O2-  O154  1  0.56982676  0.67394091  0.42004530  1
  O2-  O155  1  0.57318440  0.67934921  0.76542082  1
  O2-  O156  1  0.17852786  0.42391837  0.24204473  1
  O2-  O157  1  0.17809168  0.43208670  0.56753417  1
  O2-  O158  1  0.18136701  0.42654106  0.91087063  1
  O2-  O159  1  0.18175751  0.93015768  0.24158905  1
  O2-  O160  1  0.17854044  0.93003635  0.56748153  1
  O2-  O161  1  0.17819127  0.92930870  0.91119760  1
  O2-  O162  1  0.68062932  0.43363337  0.23207700  1
  O2-  O163  1  0.67922341  0.42706628  0.56857489  1
  O2-  O164  1  0.67770313  0.42822100  0.91155144  1
  O2-  O165  1  0.67698736  0.93178785  0.23472889  1
  O2-  O166  1  0.68058473  0.92974818  0.56944681  1
  O2-  O167  1  0.67711102  0.92932572  0.91007309  1
  O2-  O168  1  0.43138170  0.32151193  0.09817151  1
  O2-  O169  1  0.43072835  0.32194946  0.43498721  1
  O2-  O170  1  0.43283020  0.31973033  0.75699710  1
  O2-  O171  1  0.43078658  0.82748034  0.08998398  1
  O2-  O172  1  0.42948266  0.82138258  0.43119725  1
  O2-  O173  1  0.42983386  0.82034432  0.76640723  1
  O2-  O174  1  0.92371781  0.31857691  0.08892904  1
  O2-  O175  1  0.92755078  0.31972391  0.43050731  1
  O2-  O176  1  0.92732387  0.31895158  0.76559380  1
  O2-  O177  1  0.92780939  0.82167986  0.08788454  1
  O2-  O178  1  0.93044413  0.82055422  0.43323374  1
  O2-  O179  1  0.92829545  0.81995439  0.75944547  1
  O2-  O180  1  0.31738319  0.07380542  0.23159416  1
  O2-  O181  1  0.32545226  0.07341748  0.57972990  1
  O2-  O182  1  0.32317909  0.06937494  0.90931464  1
  O2-  O183  1  0.31970376  0.57036652  0.23379592  1
  O2-  O184  1  0.31885087  0.57151418  0.56862767  1
  O2-  O185  1  0.32109652  0.57115025  0.90342780  1
  O2-  O186  1  0.82082931  0.07134436  0.23504214  1
  O2-  O187  1  0.82015031  0.07015594  0.58056978  1
  O2-  O188  1  0.81980163  0.06793758  0.90916577  1
  O2-  O189  1  0.82367878  0.56883706  0.24301175  1
  O2-  O190  1  0.82432172  0.57486952  0.57590129  1
  O2-  O191  1  0.81815482  0.57103699  0.90143448  1
  O2-  O192  1  0.05015739  0.08333622  0.27104900  1
  O2-  O193  1  0.04284176  0.07893565  0.59707489  1
  O2-  O194  1  0.03646374  0.08180689  0.93179968  1
  O2-  O195  1  0.04884975  0.58039143  0.26248745  1
  O2-  O196  1  0.04565728  0.58815727  0.60587934  1
  O2-  O197  1  0.04205729  0.58111102  0.93083817  1
  O2-  O198  1  0.54595110  0.08529432  0.27151014  1
  O2-  O199  1  0.54268593  0.08717167  0.60430296  1
  O2-  O200  1  0.54066199  0.08422003  0.93356362  1
  O2-  O201  1  0.54129373  0.58544835  0.26617214  1
  O2-  O202  1  0.54503300  0.57801991  0.59991231  1
  O2-  O203  1  0.54443756  0.58907585  0.93917024  1
  O2-  O204  1  0.16503251  0.20634231  0.26903303  1
  O2-  O205  1  0.17402897  0.20073938  0.59910169  1
  O2-  O206  1  0.16559952  0.20497523  0.92949814  1
  O2-  O207  1  0.16787624  0.71306028  0.26286784  1
  O2-  O208  1  0.16247818  0.71085235  0.60790626  1
  O2-  O209  1  0.16644655  0.71490167  0.92935472  1
  O2-  O210  1  0.66459417  0.20354168  0.27177485  1
  O2-  O211  1  0.66432237  0.20358459  0.60750571  1
  O2-  O212  1  0.66658290  0.19620189  0.93618868  1
  O2-  O213  1  0.66766695  0.69689936  0.27044236  1
  O2-  O214  1  0.67134334  0.70505676  0.59867170  1
  O2-  O215  1  0.66265140  0.71000227  0.93867987  1
  O2-  O216  1  0.08311595  0.44752804  0.05950509  1
  O2-  O217  1  0.08166127  0.45142505  0.39136892  1
  O2-  O218  1  0.07849705  0.45464884  0.73432424  1
  O2-  O219  1  0.08486774  0.95725807  0.06212023  1
  O2-  O220  1  0.08588428  0.95090945  0.39299698  1
  O2-  O221  1  0.08236914  0.95989999  0.73762527  1
  O2-  O222  1  0.58591972  0.45893113  0.06286171  1
  O2-  O223  1  0.58580895  0.46362702  0.40067794  1
  O2-  O224  1  0.58552757  0.46033961  0.73867145  1
  O2-  O225  1  0.58480410  0.95876279  0.06138454  1
  O2-  O226  1  0.58246551  0.95955670  0.40323307  1
  O2-  O227  1  0.58374125  0.96198534  0.73732805  1
  O2-  O228  1  0.20592554  0.33127040  0.06032621  1
  O2-  O229  1  0.20290889  0.33491071  0.39569029  1
  O2-  O230  1  0.20622214  0.32898028  0.73257747  1
  O2-  O231  1  0.20683778  0.83909316  0.06439230  1
  O2-  O232  1  0.20851825  0.83615788  0.39320937  1
  O2-  O233  1  0.21074270  0.83662483  0.73878480  1
  O2-  O234  1  0.69591568  0.33005826  0.06037621  1
  O2-  O235  1  0.70743195  0.33333574  0.39813405  1
  O2-  O236  1  0.70820815  0.33155430  0.73875581  1
  O2-  O237  1  0.70281528  0.83801958  0.06371508  1
  O2-  O238  1  0.70138951  0.82556114  0.40023261  1
  O2-  O239  1  0.71063998  0.83169830  0.73665849  1
  O2-  O240  1  0.46309983  0.41804099  0.26686709  1
  O2-  O241  1  0.46039797  0.41319792  0.60655888  1
  O2-  O242  1  0.46269377  0.41879806  0.93041020  1
  O2-  O243  1  0.46188857  0.91935558  0.26413752  1
  O2-  O244  1  0.45641929  0.92142580  0.60265730  1
  O2-  O245  1  0.45655553  0.91476820  0.93629726  1
  O2-  O246  1  0.95757487  0.41404379  0.26045316  1
  O2-  O247  1  0.95377580  0.42090770  0.59790047  1
  O2-  O248  1  0.94761316  0.41616603  0.93893434  1
  O2-  O249  1  0.95731140  0.91973987  0.26468095  1
  O2-  O250  1  0.95650344  0.91275616  0.60777834  1
  O2-  O251  1  0.95195397  0.91357628  0.93566392  1
  O2-  O252  1  0.33287397  0.29173092  0.26612975  1
  O2-  O253  1  0.33895533  0.29503299  0.60489855  1
  O2-  O254  1  0.33658080  0.28942263  0.92841264  1
  O2-  O255  1  0.33615798  0.79157315  0.26192585  1
  O2-  O256  1  0.32880314  0.79510362  0.60033389  1
  O2-  O257  1  0.33552869  0.79705812  0.94040961  1
  O2-  O258  1  0.83103751  0.28722499  0.26298734  1
  O2-  O259  1  0.82939201  0.29001941  0.60142700  1
  O2-  O260  1  0.83062613  0.29470929  0.93821972  1
  O2-  O261  1  0.82711607  0.79833956  0.26660592  1
  O2-  O262  1  0.83729973  0.79392178  0.60621625  1
  O2-  O263  1  0.83074529  0.79522928  0.93957927  1
  O2-  O264  1  0.41166370  0.04333819  0.06260761  1
  O2-  O265  1  0.41676259  0.04472758  0.39942508  1
  O2-  O266  1  0.41573463  0.04692109  0.73412644  1
  O2-  O267  1  0.41773179  0.54121538  0.06885372  1
  O2-  O268  1  0.41522682  0.54013315  0.40136879  1
  O2-  O269  1  0.41864015  0.54179699  0.73503159  1
  O2-  O270  1  0.91145541  0.04058801  0.06232438  1
  O2-  O271  1  0.92332907  0.04600273  0.40167996  1
  O2-  O272  1  0.91521343  0.04450296  0.73119375  1
  O2-  O273  1  0.91991683  0.54266651  0.06793958  1
  O2-  O274  1  0.92093967  0.54640523  0.39146383  1
  O2-  O275  1  0.91640770  0.54661117  0.72862858  1
  O2-  O276  1  0.29227968  0.16484556  0.05866790  1
  O2-  O277  1  0.29089983  0.16948009  0.40137732  1
  O2-  O278  1  0.30003344  0.16783814  0.73098179  1
  O2-  O279  1  0.28881913  0.66911459  0.06789996  1
  O2-  O280  1  0.28966601  0.66930504  0.39927046  1
  O2-  O281  1  0.29245323  0.66965396  0.73564968  1
  O2-  O282  1  0.79393051  0.16204701  0.06153864  1
  O2-  O283  1  0.79152782  0.16722153  0.40371078  1
  O2-  O284  1  0.79356468  0.16278783  0.73383868  1
  O2-  O285  1  0.78793610  0.66471245  0.07044355  1
  O2-  O286  1  0.80238835  0.66549592  0.39340240  1
  O2-  O287  1  0.79748801  0.66506223  0.73045925  1
