# generated using pymatgen
data_Ca2Al2SiO7
_symmetry_space_group_name_H-M   'P 1'
_cell_length_a   15.45229720
_cell_length_b   15.45206102
_cell_length_c   15.27955673
_cell_angle_alpha   90.00311678
_cell_angle_beta   89.99701526
_cell_angle_gamma   89.99934075
_symmetry_Int_Tables_number   1
_chemical_formula_structural   Ca2Al2SiO7
_chemical_formula_sum   'Ca48 Al48 Si24 O168'
_cell_volume   3648.29729342
_cell_formula_units_Z   24
loop_
 _symmetry_equiv_pos_site_id
 _symmetry_equiv_pos_as_xyz
  1  'x, y, z'
loop_
 _atom_type_symbol
 _atom_type_oxidation_number
  Ca2+  2.0
  Al0+  0.0
  Si0+  0.0
  O2-  -2.0
loop_
 _atom_site_type_symbol
 _atom_site_label
 _atom_site_symmetry_multiplicity
 _atom_site_fract_x
 _atom_site_fract_y
 _atom_site_fract_z
 _atom_site_occupancy
  Ca2+  Ca0  1  0.17100597  0.07926751  0.17168888  1
  Ca2+  Ca1  1  0.17564048  0.08983073  0.50030002  1
  Ca2+  Ca2  1  0.17635194  0.07772195  0.83871020  1
  Ca2+  Ca3  1  0.17626769  0.57636671  0.17063981  1
  Ca2+  Ca4  1  0.17548580  0.57965492  0.50521492  1
  Ca2+  Ca5  1  0.16532112  0.57166993  0.84042271  1
  Ca2+  Ca6  1  0.66778895  0.07890814  0.16829044  1
  Ca2+  Ca7  1  0.66906466  0.07289784  0.50653305  1
  Ca2+  Ca8  1  0.67805017  0.08892646  0.84103015  1
  Ca2+  Ca9  1  0.66216534  0.58710154  0.16658114  1
  Ca2+  Ca10  1  0.66141881  0.58013467  0.50422986  1
  Ca2+  Ca11  1  0.66266680  0.57729830  0.83906346  1
  Ca2+  Ca12  1  0.08806157  0.32589520  0.16244728  1
  Ca2+  Ca13  1  0.08014316  0.33097773  0.49778043  1
  Ca2+  Ca14  1  0.07686340  0.33957063  0.82602253  1
  Ca2+  Ca15  1  0.07416444  0.83857480  0.15885720  1
  Ca2+  Ca16  1  0.07526279  0.83520276  0.49503516  1
  Ca2+  Ca17  1  0.08074681  0.83741380  0.83606700  1
  Ca2+  Ca18  1  0.57211746  0.33096692  0.15642544  1
  Ca2+  Ca19  1  0.57908446  0.33183008  0.49485207  1
  Ca2+  Ca20  1  0.58554187  0.33445900  0.83378189  1
  Ca2+  Ca21  1  0.58205892  0.82538988  0.15879196  1
  Ca2+  Ca22  1  0.58325153  0.82445735  0.49515772  1
  Ca2+  Ca23  1  0.57624017  0.82302711  0.82873644  1
  Ca2+  Ca24  1  0.33747297  0.41572435  0.17036536  1
  Ca2+  Ca25  1  0.33267192  0.42036189  0.50164943  1
  Ca2+  Ca26  1  0.32248999  0.41170894  0.84034053  1
  Ca2+  Ca27  1  0.33219417  0.91805996  0.17063511  1
  Ca2+  Ca28  1  0.33900726  0.92898300  0.50687553  1
  Ca2+  Ca29  1  0.33566795  0.91528330  0.83845176  1
  Ca2+  Ca30  1  0.82421547  0.42351801  0.16366404  1
  Ca2+  Ca31  1  0.82633412  0.41545964  0.51185559  1
  Ca2+  Ca32  1  0.82182455  0.41903473  0.84170352  1
  Ca2+  Ca33  1  0.83054063  0.91552319  0.17061327  1
  Ca2+  Ca34  1  0.82888943  0.91733731  0.50027834  1
  Ca2+  Ca35  1  0.83669648  0.92817914  0.84213818  1
  Ca2+  Ca36  1  0.41861797  0.17408089  0.16049581  1
  Ca2+  Ca37  1  0.40885974  0.17179003  0.49318053  1
  Ca2+  Ca38  1  0.42197542  0.16772768  0.83345195  1
  Ca2+  Ca39  1  0.42558513  0.66714338  0.15902787  1
  Ca2+  Ca40  1  0.42653201  0.66535530  0.49474926  1
  Ca2+  Ca41  1  0.42366592  0.67513455  0.82907695  1
  Ca2+  Ca42  1  0.92313547  0.16137815  0.16160457  1
  Ca2+  Ca43  1  0.91954955  0.16967890  0.49869357  1
  Ca2+  Ca44  1  0.91387881  0.17017181  0.82629108  1
  Ca2+  Ca45  1  0.91160137  0.67838501  0.15944490  1
  Ca2+  Ca46  1  0.91922696  0.67193420  0.49279436  1
  Ca2+  Ca47  1  0.91123526  0.66878188  0.83554789  1
  Al0+  Al48  1  0.00208931  0.00017596  0.00245978  1
  Al0+  Al49  1  -0.00023355  0.00142250  0.32744110  1
  Al0+  Al50  1  0.00171416  0.00070961  0.66781751  1
  Al0+  Al51  1  -0.00019933  0.49968150  0.01129828  1
  Al0+  Al52  1  -0.00108151  0.50025605  0.33277880  1
  Al0+  Al53  1  -0.00063112  0.50071231  0.66360320  1
  Al0+  Al54  1  0.50199696  0.00198480  -0.00735646  1
  Al0+  Al55  1  0.50123499  -0.00086159  0.34303178  1
  Al0+  Al56  1  0.50081262  -0.00002058  0.66881899  1
  Al0+  Al57  1  0.49753344  0.49835286  -0.00597785  1
  Al0+  Al58  1  0.49937826  0.49963713  0.33016631  1
  Al0+  Al59  1  0.49936996  0.49984961  0.66769337  1
  Al0+  Al60  1  0.24992728  0.24813436  -0.00035000  1
  Al0+  Al61  1  0.24764963  0.24962447  0.32881478  1
  Al0+  Al62  1  0.25013328  0.24821864  0.67540861  1
  Al0+  Al63  1  0.24742760  0.74919878  0.00106656  1
  Al0+  Al64  1  0.24979710  0.74875432  0.34011427  1
  Al0+  Al65  1  0.24955150  0.75180213  0.66154896  1
  Al0+  Al66  1  0.75188740  0.25133476  0.00885262  1
  Al0+  Al67  1  0.75067456  0.25057696  0.33334041  1
  Al0+  Al68  1  0.75008486  0.25060318  0.66769226  1
  Al0+  Al69  1  0.75119202  0.75180608  -0.00803695  1
  Al0+  Al70  1  0.75015158  0.74981525  0.33134221  1
  Al0+  Al71  1  0.74977855  0.74977328  0.66238315  1
  Al0+  Al72  1  0.92834628  0.32110575  0.65498814  1
  Al0+  Al73  1  0.82205979  0.07181375  0.01538548  1
  Al0+  Al74  1  0.32236552  0.57026337  0.34705947  1
  Al0+  Al75  1  0.57038642  0.67772851  0.64875789  1
  Al0+  Al76  1  0.56886949  0.68024450  0.31837204  1
  Al0+  Al77  1  0.93036255  0.82209407  0.98465435  1
  Al0+  Al78  1  0.32232468  0.07056121  0.68262427  1
  Al0+  Al79  1  0.42585751  0.82184494  0.98712059  1
  Al0+  Al80  1  0.67825942  0.42982867  0.67918582  1
  Al0+  Al81  1  0.42716006  0.32020070  0.98206895  1
  Al0+  Al82  1  0.57190993  0.67837013  0.98307454  1
  Al0+  Al83  1  0.68047843  0.92778599  0.34659754  1
  Al0+  Al84  1  0.18090645  0.92836239  0.01385827  1
  Al0+  Al85  1  0.43046426  0.31888514  0.32165430  1
  Al0+  Al86  1  0.93109566  0.81891439  0.31958032  1
  Al0+  Al87  1  0.57450480  0.18021108  0.98531036  1
  Al0+  Al88  1  0.82061164  0.06911035  0.67867197  1
  Al0+  Al89  1  0.06871321  0.18205227  0.31937318  1
  Al0+  Al90  1  0.42786876  0.82297920  0.64827532  1
  Al0+  Al91  1  0.17916878  0.43065711  0.67885489  1
  Al0+  Al92  1  0.31977659  0.07067380  0.34519402  1
  Al0+  Al93  1  0.67576154  0.43021927  0.01707884  1
  Al0+  Al94  1  0.17851942  0.42660776  0.01567233  1
  Al0+  Al95  1  0.81940556  0.57371402  0.01540001  1
  Si0+  Si96  1  0.17708712  0.42763165  0.35062032  1
  Si0+  Si97  1  0.67813166  0.92919863  0.01357258  1
  Si0+  Si98  1  0.17760614  0.92660492  0.68276724  1
  Si0+  Si99  1  0.07296228  0.17795273  0.65152789  1
  Si0+  Si100  1  0.42687328  0.82452697  0.31897865  1
  Si0+  Si101  1  0.82066029  0.57107051  0.34902024  1
  Si0+  Si102  1  0.67932431  0.92593961  0.68509987  1
  Si0+  Si103  1  0.32042380  0.57128252  0.01484458  1
  Si0+  Si104  1  0.07057647  0.67600073  0.98473300  1
  Si0+  Si105  1  0.57416341  0.17506419  0.31982748  1
  Si0+  Si106  1  0.07071757  0.17821365  0.98293219  1
  Si0+  Si107  1  0.82375504  0.07281522  0.35068884  1
  Si0+  Si108  1  0.93158091  0.32168669  0.98756753  1
  Si0+  Si109  1  0.93054356  0.82319875  0.65159190  1
  Si0+  Si110  1  0.82293270  0.57373455  0.68098716  1
  Si0+  Si111  1  0.92464025  0.32486893  0.31437305  1
  Si0+  Si112  1  0.57266529  0.18007386  0.65109091  1
  Si0+  Si113  1  0.67926124  0.42915956  0.34829048  1
  Si0+  Si114  1  0.32142773  0.57332952  0.68373389  1
  Si0+  Si115  1  0.42669418  0.31851083  0.65209608  1
  Si0+  Si116  1  0.07463412  0.67621696  0.31637896  1
  Si0+  Si117  1  0.32424648  0.07043109  0.01694213  1
  Si0+  Si118  1  0.17579623  0.92838124  0.35053925  1
  Si0+  Si119  1  0.07076272  0.67765579  0.65106285  1
  O2-  O120  1  0.25965726  -0.00200417  0.06105451  1
  O2-  O121  1  0.24798680  -0.00664515  0.39436185  1
  O2-  O122  1  0.25042726  -0.00866614  0.72568296  1
  O2-  O123  1  0.25591357  0.49889559  0.06044356  1
  O2-  O124  1  0.24439562  0.49797912  0.39404615  1
  O2-  O125  1  0.25241615  0.50511817  0.72810434  1
  O2-  O126  1  0.74603058  -0.00227968  0.06004794  1
  O2-  O127  1  0.75290055  0.00593831  0.39369694  1
  O2-  O128  1  0.74852001  -0.00576135  0.72872175  1
  O2-  O129  1  0.74285602  0.50732310  0.06716119  1
  O2-  O130  1  0.75356184  0.49660651  0.39157748  1
  O2-  O131  1  0.75252745  0.50641174  0.72324895  1
  O2-  O132  1  -0.00683673  0.25558094  0.27141316  1
  O2-  O133  1  0.00405128  0.24708733  0.60808949  1
  O2-  O134  1  0.00141507  0.25117475  0.94183308  1
  O2-  O135  1  0.00816218  0.74667994  0.27241697  1
  O2-  O136  1  -0.00000401  0.75008566  0.60995797  1
  O2-  O137  1  0.00253628  0.74436640  0.93819935  1
  O2-  O138  1  0.50454669  0.24284056  0.27664250  1
  O2-  O139  1  0.49840107  0.24828751  0.60882291  1
  O2-  O140  1  0.50305965  0.25173022  0.93280169  1
  O2-  O141  1  0.49316465  0.75482343  0.27356417  1
  O2-  O142  1  0.49890239  0.75008458  0.59811952  1
  O2-  O143  1  0.49828054  0.75077358  0.93638697  1
  O2-  O144  1  0.07031580  0.17858373  0.08826612  1
  O2-  O145  1  0.06863984  0.18421147  0.43297349  1
  O2-  O146  1  0.07177744  0.17651360  0.75700384  1
  O2-  O147  1  0.07104881  0.67742508  0.09019748  1
  O2-  O148  1  0.07149291  0.67514077  0.42258728  1
  O2-  O149  1  0.07080291  0.67527808  0.75585137  1
  O2-  O150  1  0.57099589  0.17839891  0.09944926  1
  O2-  O151  1  0.57630702  0.17796327  0.42585012  1
  O2-  O152  1  0.57488225  0.18245468  0.75569950  1
  O2-  O153  1  0.57023148  0.68146886  0.09713907  1
  O2-  O154  1  0.56931876  0.67888428  0.43126239  1
  O2-  O155  1  0.56992684  0.67829597  0.76168252  1
  O2-  O156  1  0.17736291  0.42806105  0.24521276  1
  O2-  O157  1  0.18047040  0.43153069  0.56557418  1
  O2-  O158  1  0.17560961  0.42951433  0.90224958  1
  O2-  O159  1  0.17500690  0.92959966  0.24510925  1
  O2-  O160  1  0.17265096  0.92862183  0.57719206  1
  O2-  O161  1  0.17907481  0.93253283  0.90054986  1
  O2-  O162  1  0.67944510  0.42932058  0.24384384  1
  O2-  O163  1  0.67974067  0.42843866  0.56520311  1
  O2-  O164  1  0.68103012  0.42840033  0.90339155  1
  O2-  O165  1  0.68127022  0.92805031  0.23358836  1
  O2-  O166  1  0.68197312  0.92663034  0.57896603  1
  O2-  O167  1  0.68109546  0.93071101  0.90797758  1
  O2-  O168  1  0.42589540  0.31700169  0.09603316  1
  O2-  O169  1  0.43123308  0.31888900  0.43564452  1
  O2-  O170  1  0.42544380  0.31689502  0.75657197  1
  O2-  O171  1  0.42626891  0.82106135  0.10126412  1
  O2-  O172  1  0.42951959  0.82453676  0.42432783  1
  O2-  O173  1  0.42762373  0.82014016  0.76171560  1
  O2-  O174  1  0.93413481  0.31969091  0.09279278  1
  O2-  O175  1  0.92371548  0.32528310  0.42030953  1
  O2-  O176  1  0.92931431  0.32105047  0.76810308  1
  O2-  O177  1  0.93204912  0.82236148  0.09772547  1
  O2-  O178  1  0.93226741  0.81717826  0.43367194  1
  O2-  O179  1  0.93239282  0.82497040  0.75627660  1
  O2-  O180  1  0.31844802  0.06999513  0.23241686  1
  O2-  O181  1  0.31764500  0.07461388  0.56918363  1
  O2-  O182  1  0.32076299  0.07169184  0.91126572  1
  O2-  O183  1  0.32155445  0.56902214  0.23419402  1
  O2-  O184  1  0.32028596  0.57031182  0.57771342  1
  O2-  O185  1  0.31529698  0.57291531  0.90921593  1
  O2-  O186  1  0.82417799  0.07237238  0.24534511  1
  O2-  O187  1  0.81995394  0.06692266  0.56529272  1
  O2-  O188  1  0.82352272  0.07155870  0.90189625  1
  O2-  O189  1  0.82041261  0.57165629  0.24452943  1
  O2-  O190  1  0.82506156  0.57271303  0.57483207  1
  O2-  O191  1  0.82371492  0.56828307  0.90164569  1
  O2-  O192  1  0.03996286  0.08584146  0.26337760  1
  O2-  O193  1  0.04722759  0.08484709  0.60362763  1
  O2-  O194  1  0.04085449  0.08771468  0.93521684  1
  O2-  O195  1  0.04826849  0.58248194  0.27090703  1
  O2-  O196  1  0.04162813  0.58827555  0.59910741  1
  O2-  O197  1  0.04281715  0.58173549  0.94048419  1
  O2-  O198  1  0.54960570  0.08036898  0.27652295  1
  O2-  O199  1  0.54826644  0.08622436  0.60620612  1
  O2-  O200  1  0.54860015  0.08290799  0.92855973  1
  O2-  O201  1  0.53802244  0.58400071  0.26463168  1
  O2-  O202  1  0.54033847  0.57833128  0.59655337  1
  O2-  O203  1  0.54358210  0.58015968  0.93097021  1
  O2-  O204  1  0.16313985  0.21304436  0.26145326  1
  O2-  O205  1  0.16641401  0.20638571  0.60649734  1
  O2-  O206  1  0.16329011  0.20333746  0.93651630  1
  O2-  O207  1  0.16995002  0.69901481  0.27313551  1
  O2-  O208  1  0.16185109  0.70484580  0.60136714  1
  O2-  O209  1  0.16314640  0.70121523  0.93662463  1
  O2-  O210  1  0.66807374  0.20013930  0.27372307  1
  O2-  O211  1  0.66234759  0.21050613  0.60090381  1
  O2-  O212  1  0.67478668  0.20975410  0.93591903  1
  O2-  O213  1  0.66577307  0.71098285  0.26609206  1
  O2-  O214  1  0.67056742  0.70473302  0.59614986  1
  O2-  O215  1  0.66936461  0.70637025  0.92848294  1
  O2-  O216  1  0.08502608  0.45829200  0.07433965  1
  O2-  O217  1  0.08187403  0.45197521  0.39556064  1
  O2-  O218  1  0.08185729  0.46256090  0.73155571  1
  O2-  O219  1  0.08731542  0.96524493  0.06967890  1
  O2-  O220  1  0.08320014  0.95930544  0.39661113  1
  O2-  O221  1  0.08611667  0.95637431  0.73129140  1
  O2-  O222  1  0.57397767  0.45252979  0.06543960  1
  O2-  O223  1  0.58847371  0.45959670  0.39566256  1
  O2-  O224  1  0.58108605  0.45722840  0.73335807  1
  O2-  O225  1  0.58408167  0.95435103  0.05931496  1
  O2-  O226  1  0.58561748  0.95597992  0.40604897  1
  O2-  O227  1  0.58575291  0.95151775  0.72939211  1
  O2-  O228  1  0.20786159  0.32870921  0.06784985  1
  O2-  O229  1  0.20412068  0.33457681  0.39605694  1
  O2-  O230  1  0.20732408  0.33464313  0.73460705  1
  O2-  O231  1  0.20261886  0.82967516  0.06833209  1
  O2-  O232  1  0.19409942  0.83288211  0.39620000  1
  O2-  O233  1  0.19767181  0.83093132  0.72715882  1
  O2-  O234  1  0.71088639  0.33542793  0.07358224  1
  O2-  O235  1  0.70432372  0.33576963  0.39578012  1
  O2-  O236  1  0.71169169  0.33472028  0.73343345  1
  O2-  O237  1  0.70525556  0.83561266  0.05799052  1
  O2-  O238  1  0.71676977  0.83325510  0.40252257  1
  O2-  O239  1  0.70536386  0.83171146  0.72892086  1
  O2-  O240  1  0.46277835  0.41338851  0.26585745  1
  O2-  O241  1  0.45279874  0.41165827  0.60652444  1
  O2-  O242  1  0.44793495  0.41953616  0.92880129  1
  O2-  O243  1  0.45335679  0.91876813  0.27493087  1
  O2-  O244  1  0.45812835  0.92268318  0.59802837  1
  O2-  O245  1  0.45227820  0.92015489  0.93328352  1
  O2-  O246  1  0.95003705  0.41894872  0.26930818  1
  O2-  O247  1  0.95806064  0.41724722  0.59809401  1
  O2-  O248  1  0.96047068  0.41409082  0.94223860  1
  O2-  O249  1  0.95791922  0.91627304  0.26599563  1
  O2-  O250  1  0.96158730  0.91347783  0.60205698  1
  O2-  O251  1  0.96734877  0.91735464  0.93106875  1
  O2-  O252  1  0.33361669  0.29090247  0.26771831  1
  O2-  O253  1  0.33490121  0.28834841  0.60525161  1
  O2-  O254  1  0.32924153  0.28719229  0.92935283  1
  O2-  O255  1  0.33024531  0.80171306  0.27779854  1
  O2-  O256  1  0.32712756  0.80010420  0.59608776  1
  O2-  O257  1  0.32690115  0.79328366  0.93398966  1
  O2-  O258  1  0.83085087  0.29974602  0.26842209  1
  O2-  O259  1  0.83355725  0.28776537  0.59810121  1
  O2-  O260  1  0.83884111  0.29456078  0.94289714  1
  O2-  O261  1  0.83624428  0.78514044  0.26548415  1
  O2-  O262  1  0.83846452  0.79709988  0.60389284  1
  O2-  O263  1  0.83502502  0.79568770  0.92701106  1
  O2-  O264  1  0.42022693  0.05052358  0.05980135  1
  O2-  O265  1  0.41643133  0.04590610  0.40274624  1
  O2-  O266  1  0.42039779  0.04427494  0.73553530  1
  O2-  O267  1  0.41499168  0.54801589  0.05873661  1
  O2-  O268  1  0.41706992  0.53443327  0.40238887  1
  O2-  O269  1  0.41443128  0.54758645  0.72915282  1
  O2-  O270  1  0.91779032  0.03820203  0.06891499  1
  O2-  O271  1  0.91693438  0.04456664  0.39641368  1
  O2-  O272  1  0.91853812  0.04119220  0.73206841  1
  O2-  O273  1  0.91501155  0.54184730  0.07302174  1
  O2-  O274  1  0.91461730  0.54711703  0.39607948  1
  O2-  O275  1  0.91629233  0.54841285  0.72687659  1
  O2-  O276  1  0.29215801  0.16186400  0.06332073  1
  O2-  O277  1  0.28327335  0.16645917  0.39908390  1
  O2-  O278  1  0.28781013  0.16357008  0.74068256  1
  O2-  O279  1  0.29111425  0.66257529  0.06369337  1
  O2-  O280  1  0.29381199  0.66649351  0.40474407  1
  O2-  O281  1  0.29455933  0.66797087  0.72610724  1
  O2-  O282  1  0.79550708  0.16731630  0.07289085  1
  O2-  O283  1  0.80131207  0.16836641  0.39542080  1
  O2-  O284  1  0.78926423  0.16537713  0.73220021  1
  O2-  O285  1  0.79577373  0.67539269  0.06405873  1
  O2-  O286  1  0.79101609  0.66146150  0.39771948  1
  O2-  O287  1  0.80015221  0.66868450  0.72562459  1
