# generated using pymatgen
data_Ca2Al2SiO7
_symmetry_space_group_name_H-M   'P 1'
_cell_length_a   15.46198038
_cell_length_b   15.46142177
_cell_length_c   15.28563049
_cell_angle_alpha   89.98653600
_cell_angle_beta   89.98238636
_cell_angle_gamma   89.99485461
_symmetry_Int_Tables_number   1
_chemical_formula_structural   Ca2Al2SiO7
_chemical_formula_sum   'Ca48 Al48 Si24 O168'
_cell_volume   3654.24673512
_cell_formula_units_Z   24
loop_
 _symmetry_equiv_pos_site_id
 _symmetry_equiv_pos_as_xyz
  1  'x, y, z'
loop_
 _atom_type_symbol
 _atom_type_oxidation_number
  Ca2+  2.0
  Al0+  0.0
  Si0+  0.0
  O2-  -2.0
loop_
 _atom_site_type_symbol
 _atom_site_label
 _atom_site_symmetry_multiplicity
 _atom_site_fract_x
 _atom_site_fract_y
 _atom_site_fract_z
 _atom_site_occupancy
  Ca2+  Ca0  1  0.16792646  0.08358882  0.17228864  1
  Ca2+  Ca1  1  0.17584768  0.08101432  0.51191456  1
  Ca2+  Ca2  1  0.16301365  0.08652769  0.82944749  1
  Ca2+  Ca3  1  0.17033611  0.58192904  0.17707124  1
  Ca2+  Ca4  1  0.16536511  0.58097060  0.50652762  1
  Ca2+  Ca5  1  0.15909646  0.57731173  0.82780562  1
  Ca2+  Ca6  1  0.67840594  0.08678395  0.17413674  1
  Ca2+  Ca7  1  0.67535054  0.09086460  0.50202371  1
  Ca2+  Ca8  1  0.68181234  0.08470821  0.83526001  1
  Ca2+  Ca9  1  0.67127921  0.57753259  0.17512470  1
  Ca2+  Ca10  1  0.67754262  0.58961769  0.50278074  1
  Ca2+  Ca11  1  0.67364545  0.57637682  0.83604306  1
  Ca2+  Ca12  1  0.07325689  0.32525402  0.15877878  1
  Ca2+  Ca13  1  0.08187148  0.33248573  0.50506039  1
  Ca2+  Ca14  1  0.07503549  0.32465368  0.82473550  1
  Ca2+  Ca15  1  0.07863402  0.82623059  0.16335861  1
  Ca2+  Ca16  1  0.08368080  0.82706561  0.50269919  1
  Ca2+  Ca17  1  0.07644391  0.82929986  0.82311590  1
  Ca2+  Ca18  1  0.58073553  0.33307740  0.16776348  1
  Ca2+  Ca19  1  0.57036626  0.32783566  0.49361518  1
  Ca2+  Ca20  1  0.57958125  0.33589486  0.82869985  1
  Ca2+  Ca21  1  0.58602649  0.82650555  0.16823117  1
  Ca2+  Ca22  1  0.57841940  0.83039010  0.49702855  1
  Ca2+  Ca23  1  0.57671831  0.83434546  0.82598668  1
  Ca2+  Ca24  1  0.32970401  0.41982486  0.17707572  1
  Ca2+  Ca25  1  0.33218059  0.41756784  0.50644305  1
  Ca2+  Ca26  1  0.32391193  0.40730215  0.82961862  1
  Ca2+  Ca27  1  0.32806277  0.92461055  0.17624068  1
  Ca2+  Ca28  1  0.33083472  0.92589382  0.51105925  1
  Ca2+  Ca29  1  0.32682228  0.91635312  0.82916009  1
  Ca2+  Ca30  1  0.82751520  0.41434733  0.17095740  1
  Ca2+  Ca31  1  0.83739141  0.42729102  0.50834771  1
  Ca2+  Ca32  1  0.83874079  0.41918198  0.83658628  1
  Ca2+  Ca33  1  0.84038563  0.92674756  0.16864472  1
  Ca2+  Ca34  1  0.83577134  0.92615271  0.50770504  1
  Ca2+  Ca35  1  0.85129578  0.92742940  0.83329936  1
  Ca2+  Ca36  1  0.41962743  0.16673949  0.17005835  1
  Ca2+  Ca37  1  0.41222942  0.17324948  0.49273017  1
  Ca2+  Ca38  1  0.41996603  0.17020904  0.82091320  1
  Ca2+  Ca39  1  0.42180988  0.65937486  0.16932652  1
  Ca2+  Ca40  1  0.41735136  0.67154245  0.49268889  1
  Ca2+  Ca41  1  0.42067489  0.67322195  0.82354512  1
  Ca2+  Ca42  1  0.91926771  0.16588485  0.15484901  1
  Ca2+  Ca43  1  0.91701651  0.16604838  0.50004804  1
  Ca2+  Ca44  1  0.92064485  0.17238908  0.82455229  1
  Ca2+  Ca45  1  0.91729917  0.66961937  0.16535229  1
  Ca2+  Ca46  1  0.92568814  0.66231210  0.49680263  1
  Ca2+  Ca47  1  0.91795505  0.67743851  0.82062648  1
  Al0+  Al48  1  0.00392691  -0.00279394  -0.00057453  1
  Al0+  Al49  1  -0.00111728  -0.00045621  0.33738211  1
  Al0+  Al50  1  0.00232616  -0.00060761  0.66578736  1
  Al0+  Al51  1  0.00212518  0.49996630  0.00009507  1
  Al0+  Al52  1  -0.00072794  0.49994401  0.33004747  1
  Al0+  Al53  1  0.00053472  0.50006618  0.67010131  1
  Al0+  Al54  1  0.50049939  -0.00037646  0.00080993  1
  Al0+  Al55  1  0.49985254  0.00099618  0.33162183  1
  Al0+  Al56  1  0.50199489  -0.00021833  0.66621722  1
  Al0+  Al57  1  0.50160486  0.50008530  0.00273014  1
  Al0+  Al58  1  0.49780861  0.50076439  0.33025575  1
  Al0+  Al59  1  0.50170064  0.49961690  0.66305447  1
  Al0+  Al60  1  0.25111880  0.25047768  -0.00005574  1
  Al0+  Al61  1  0.24700093  0.24954314  0.33159781  1
  Al0+  Al62  1  0.25030556  0.25185378  0.66752099  1
  Al0+  Al63  1  0.25147288  0.75115002  0.00200023  1
  Al0+  Al64  1  0.24805299  0.74833048  0.33157861  1
  Al0+  Al65  1  0.25196004  0.75147013  0.66355850  1
  Al0+  Al66  1  0.74812344  0.25106708  0.00499276  1
  Al0+  Al67  1  0.74761657  0.25059764  0.33559871  1
  Al0+  Al68  1  0.74920376  0.25157930  0.66705950  1
  Al0+  Al69  1  0.74872203  0.75022348  -0.00476909  1
  Al0+  Al70  1  0.74904456  0.75097732  0.33183044  1
  Al0+  Al71  1  0.75030296  0.75113980  0.66876943  1
  Al0+  Al72  1  0.57158315  0.68010175  0.31956376  1
  Al0+  Al73  1  0.07079259  0.67839577  0.65205931  1
  Al0+  Al74  1  0.07022398  0.67790037  0.31817693  1
  Al0+  Al75  1  0.18021507  0.92779331  0.68256463  1
  Al0+  Al76  1  0.82138954  0.06797373  0.01253132  1
  Al0+  Al77  1  0.07073458  0.17907611  0.64992078  1
  Al0+  Al78  1  0.31979414  0.07078009  0.34627432  1
  Al0+  Al79  1  0.43013269  0.82177645  0.65281963  1
  Al0+  Al80  1  0.42925243  0.32074224  0.65396775  1
  Al0+  Al81  1  0.92691377  0.32142683  0.65082446  1
  Al0+  Al82  1  0.82068226  0.07203586  0.34780484  1
  Al0+  Al83  1  0.42600006  0.32058704  0.31672681  1
  Al0+  Al84  1  0.82163700  0.57154638  0.68106834  1
  Al0+  Al85  1  0.32076606  0.57044504  0.34724619  1
  Al0+  Al86  1  0.92615177  0.32091672  0.98602706  1
  Al0+  Al87  1  0.92939038  0.81845167  0.98694754  1
  Al0+  Al88  1  0.82029167  0.57072347  0.34583730  1
  Al0+  Al89  1  0.32255272  0.07244650  0.68238909  1
  Al0+  Al90  1  0.67852551  0.42999806  0.01551782  1
  Al0+  Al91  1  0.17967439  0.42993240  0.68050647  1
  Al0+  Al92  1  0.82106386  0.07149489  0.68036306  1
  Al0+  Al93  1  0.57168458  0.17849840  0.31689445  1
  Al0+  Al94  1  0.92766604  0.82250002  0.64949462  1
  Al0+  Al95  1  0.07289426  0.17824081  0.98507282  1
  Si0+  Si96  1  0.67752471  0.92767987  0.34935259  1
  Si0+  Si97  1  0.67644172  0.42850964  0.35196742  1
  Si0+  Si98  1  0.67443099  0.92719686  0.01764816  1
  Si0+  Si99  1  0.07540519  0.67806126  0.98365647  1
  Si0+  Si100  1  0.32333333  0.07175978  0.01576657  1
  Si0+  Si101  1  0.17670977  0.42784626  0.34944181  1
  Si0+  Si102  1  0.43046090  0.32213680  0.98497907  1
  Si0+  Si103  1  0.67732145  0.42937850  0.68233310  1
  Si0+  Si104  1  0.82240091  0.57357342  0.01625804  1
  Si0+  Si105  1  0.32470655  0.57205633  0.68241630  1
  Si0+  Si106  1  0.57222927  0.67762849  0.65024158  1
  Si0+  Si107  1  0.17964133  0.42833490  0.01637696  1
  Si0+  Si108  1  0.57015315  0.17801105  0.98499904  1
  Si0+  Si109  1  0.18159499  0.92759896  0.01715463  1
  Si0+  Si110  1  0.92836051  0.32128836  0.31935017  1
  Si0+  Si111  1  0.67837427  0.92730332  0.68374619  1
  Si0+  Si112  1  0.56945551  0.67802876  0.98413658  1
  Si0+  Si113  1  0.17737183  0.92693056  0.34999199  1
  Si0+  Si114  1  0.57268127  0.17760041  0.65116715  1
  Si0+  Si115  1  0.42896270  0.82171071  0.98593412  1
  Si0+  Si116  1  0.92807212  0.82290801  0.31640448  1
  Si0+  Si117  1  0.32066596  0.57175457  0.01427167  1
  Si0+  Si118  1  0.06818734  0.17735093  0.31904323  1
  Si0+  Si119  1  0.42704500  0.82200072  0.31547052  1
  O2-  O120  1  0.25020152  0.00226216  0.05755268  1
  O2-  O121  1  0.24787865  -0.00582065  0.39246446  1
  O2-  O122  1  0.24990982  0.00200136  0.73422387  1
  O2-  O123  1  0.24839691  0.50230562  0.05724750  1
  O2-  O124  1  0.24751143  0.49476266  0.39275314  1
  O2-  O125  1  0.25573208  0.50450834  0.72805016  1
  O2-  O126  1  0.74655256  -0.00721682  0.06034652  1
  O2-  O127  1  0.74419221  -0.00173124  0.39291864  1
  O2-  O128  1  0.74930663  -0.00629077  0.72768698  1
  O2-  O129  1  0.75783480  0.50113282  0.06092945  1
  O2-  O130  1  0.74514669  0.49760262  0.39478982  1
  O2-  O131  1  0.74850434  0.49495788  0.72755848  1
  O2-  O132  1  -0.00555641  0.24551153  0.27681304  1
  O2-  O133  1  -0.00384574  0.24791861  0.59898385  1
  O2-  O134  1  -0.00320694  0.24711080  0.93708703  1
  O2-  O135  1  -0.00443777  0.75282467  0.27187668  1
  O2-  O136  1  -0.00246206  0.74823358  0.60047473  1
  O2-  O137  1  0.00049632  0.73989023  0.94126713  1
  O2-  O138  1  0.49869520  0.24947205  0.26559009  1
  O2-  O139  1  0.49953418  0.24205368  0.60850619  1
  O2-  O140  1  0.49922635  0.24915471  0.94255061  1
  O2-  O141  1  0.49512810  0.75281041  0.27037492  1
  O2-  O142  1  0.50293908  0.74558085  0.60654703  1
  O2-  O143  1  0.50038011  0.75136779  0.94303040  1
  O2-  O144  1  0.07357966  0.18036261  0.09977361  1
  O2-  O145  1  0.06946111  0.17731705  0.42334601  1
  O2-  O146  1  0.06927710  0.18197408  0.76358714  1
  O2-  O147  1  0.07883748  0.68036536  0.08950759  1
  O2-  O148  1  0.07046100  0.67632196  0.43016006  1
  O2-  O149  1  0.06957918  0.67924805  0.76633477  1
  O2-  O150  1  0.56783095  0.17631729  0.08960764  1
  O2-  O151  1  0.57253482  0.18132946  0.43015100  1
  O2-  O152  1  0.57334169  0.17930615  0.75751057  1
  O2-  O153  1  0.56855276  0.67789435  0.08908950  1
  O2-  O154  1  0.57198753  0.68403116  0.43218067  1
  O2-  O155  1  0.56954881  0.67681335  0.75658927  1
  O2-  O156  1  0.17696126  0.42916750  0.24293093  1
  O2-  O157  1  0.18149530  0.43099727  0.56752853  1
  O2-  O158  1  0.18106688  0.42706333  0.91180049  1
  O2-  O159  1  0.17745692  0.92892440  0.24332854  1
  O2-  O160  1  0.18420930  0.92694496  0.56891133  1
  O2-  O161  1  0.18481995  0.92119971  0.91325673  1
  O2-  O162  1  0.67888079  0.42884132  0.24582226  1
  O2-  O163  1  0.67472923  0.43190016  0.57720570  1
  O2-  O164  1  0.67072639  0.43502395  0.90296856  1
  O2-  O165  1  0.67957984  0.92617169  0.24340420  1
  O2-  O166  1  0.67614613  0.92719219  0.57833829  1
  O2-  O167  1  0.66596807  0.93022471  0.91278096  1
  O2-  O168  1  0.42973361  0.32247124  0.08969179  1
  O2-  O169  1  0.42638841  0.31968601  0.42997098  1
  O2-  O170  1  0.43315537  0.32178257  0.76806312  1
  O2-  O171  1  0.42826578  0.82114443  0.09085144  1
  O2-  O172  1  0.42831903  0.82169879  0.42067698  1
  O2-  O173  1  0.43256038  0.81904436  0.76695991  1
  O2-  O174  1  0.92852923  0.31988762  0.10057312  1
  O2-  O175  1  0.93091607  0.32370489  0.42376010  1
  O2-  O176  1  0.92716704  0.32053886  0.76444924  1
  O2-  O177  1  0.93212048  0.81796061  0.10058960  1
  O2-  O178  1  0.92860560  0.82433636  0.42111650  1
  O2-  O179  1  0.92995464  0.81977669  0.76355175  1
  O2-  O180  1  0.31622928  0.06910850  0.23204364  1
  O2-  O181  1  0.32242012  0.07072712  0.56878535  1
  O2-  O182  1  0.32767028  0.07093139  0.91152670  1
  O2-  O183  1  0.31830842  0.56933705  0.23304291  1
  O2-  O184  1  0.32665570  0.57018945  0.57713749  1
  O2-  O185  1  0.32206024  0.57338323  0.90954693  1
  O2-  O186  1  0.82311741  0.06958010  0.23418481  1
  O2-  O187  1  0.81643209  0.07205610  0.56735186  1
  O2-  O188  1  0.81948172  0.06764807  0.89987393  1
  O2-  O189  1  0.81926209  0.56820942  0.23218085  1
  O2-  O190  1  0.81931407  0.57129951  0.56779339  1
  O2-  O191  1  0.81883252  0.57463062  0.91096395  1
  O2-  O192  1  0.04276348  0.08438201  0.27157906  1
  O2-  O193  1  0.04824767  0.07939986  0.59874824  1
  O2-  O194  1  0.05231974  0.07713780  0.93652718  1
  O2-  O195  1  0.03897309  0.58215098  0.26131398  1
  O2-  O196  1  0.04331069  0.57973905  0.60062554  1
  O2-  O197  1  0.05756724  0.58137064  0.94191869  1
  O2-  O198  1  0.54522310  0.07937300  0.26301982  1
  O2-  O199  1  0.55350930  0.08277983  0.60625772  1
  O2-  O200  1  0.54205771  0.08614930  0.93739499  1
  O2-  O201  1  0.54062704  0.58424642  0.26375364  1
  O2-  O202  1  0.54864717  0.58481697  0.60297097  1
  O2-  O203  1  0.53753456  0.58790638  0.93600102  1
  O2-  O204  1  0.15835720  0.20708081  0.26913025  1
  O2-  O205  1  0.16862056  0.21165271  0.59891075  1
  O2-  O206  1  0.17117341  0.20973596  0.93350255  1
  O2-  O207  1  0.16648891  0.70899751  0.26200340  1
  O2-  O208  1  0.16983128  0.70591359  0.60056035  1
  O2-  O209  1  0.16729727  0.70961901  0.93763956  1
  O2-  O210  1  0.66998103  0.20959116  0.26340102  1
  O2-  O211  1  0.66334681  0.20853143  0.60336399  1
  O2-  O212  1  0.66164094  0.20696725  0.93869413  1
  O2-  O213  1  0.66647072  0.71282968  0.26165973  1
  O2-  O214  1  0.66506684  0.70558001  0.60551465  1
  O2-  O215  1  0.66101850  0.70339377  0.93544225  1
  O2-  O216  1  0.08721884  0.45350435  0.06497980  1
  O2-  O217  1  0.08405422  0.45622852  0.39424730  1
  O2-  O218  1  0.08523742  0.46134876  0.73831016  1
  O2-  O219  1  0.09021442  0.95297876  0.06643758  1
  O2-  O220  1  0.08468753  0.95298758  0.39581040  1
  O2-  O221  1  0.08137614  0.95370083  0.73523069  1
  O2-  O222  1  0.58382072  0.46574722  0.07220296  1
  O2-  O223  1  0.58196782  0.45414485  0.39439210  1
  O2-  O224  1  0.58534084  0.45937422  0.73130433  1
  O2-  O225  1  0.58224703  0.95417212  0.06738176  1
  O2-  O226  1  0.58254015  0.95017580  0.39355113  1
  O2-  O227  1  0.58618579  0.95552256  0.73223673  1
  O2-  O228  1  0.21097307  0.33794895  0.06549988  1
  O2-  O229  1  0.19946323  0.33348285  0.39375541  1
  O2-  O230  1  0.21273944  0.33560901  0.73767048  1
  O2-  O231  1  0.21382607  0.83792152  0.06840645  1
  O2-  O232  1  0.20120290  0.83250640  0.39328766  1
  O2-  O233  1  0.21373376  0.83050089  0.73684098  1
  O2-  O234  1  0.70366036  0.33291884  0.07163420  1
  O2-  O235  1  0.70086605  0.33526591  0.39792583  1
  O2-  O236  1  0.69836826  0.33505450  0.72872110  1
  O2-  O237  1  0.69809382  0.83121390  0.06016053  1
  O2-  O238  1  0.70367075  0.83503845  0.39638555  1
  O2-  O239  1  0.69860159  0.83318216  0.73149637  1
  O2-  O240  1  0.45391668  0.41932921  0.26361997  1
  O2-  O241  1  0.46236867  0.41605360  0.59881277  1
  O2-  O242  1  0.46029298  0.41366218  0.93833338  1
  O2-  O243  1  0.45342951  0.91488057  0.26795879  1
  O2-  O244  1  0.46305290  0.91727481  0.59829339  1
  O2-  O245  1  0.45651911  0.91343847  0.93833583  1
  O2-  O246  1  0.95989862  0.40992511  0.26770313  1
  O2-  O247  1  0.95935535  0.41925319  0.60026380  1
  O2-  O248  1  0.95637369  0.42051871  0.93598311  1
  O2-  O249  1  0.95781222  0.91578126  0.26925326  1
  O2-  O250  1  0.95738498  0.91986442  0.59708977  1
  O2-  O251  1  0.96587520  0.91282117  0.93374552  1
  O2-  O252  1  0.32726340  0.29155515  0.26276767  1
  O2-  O253  1  0.33230691  0.29520272  0.60059860  1
  O2-  O254  1  0.33804574  0.29537825  0.93873506  1
  O2-  O255  1  0.33348644  0.79640164  0.26895466  1
  O2-  O256  1  0.33519792  0.79266052  0.59706460  1
  O2-  O257  1  0.33796298  0.79185800  0.93834846  1
  O2-  O258  1  0.83410476  0.29820451  0.27496858  1
  O2-  O259  1  0.82695021  0.29745969  0.59901892  1
  O2-  O260  1  0.82504227  0.29835813  0.93663691  1
  O2-  O261  1  0.83437604  0.79892693  0.26986282  1
  O2-  O262  1  0.82653997  0.79853652  0.60070643  1
  O2-  O263  1  0.83073308  0.79533860  0.93304001  1
  O2-  O264  1  0.41367745  0.04038008  0.06496634  1
  O2-  O265  1  0.41835874  0.04402416  0.39720910  1
  O2-  O266  1  0.42191730  0.04290856  0.73409248  1
  O2-  O267  1  0.41174374  0.54182818  0.06218903  1
  O2-  O268  1  0.41866121  0.54405551  0.39994801  1
  O2-  O269  1  0.41855047  0.54575699  0.72892533  1
  O2-  O270  1  0.91892347  0.03637342  0.06596195  1
  O2-  O271  1  0.91653640  0.04053547  0.40214233  1
  O2-  O272  1  0.91846429  0.04230223  0.73249366  1
  O2-  O273  1  0.91919092  0.55410873  0.05917490  1
  O2-  O274  1  0.91684523  0.53796425  0.39790745  1
  O2-  O275  1  0.91712358  0.54252888  0.73699763  1
  O2-  O276  1  0.29691425  0.16439129  0.06274963  1
  O2-  O277  1  0.28710396  0.16726068  0.39803033  1
  O2-  O278  1  0.29606335  0.17123674  0.73505091  1
  O2-  O279  1  0.29518711  0.66394260  0.06312507  1
  O2-  O280  1  0.29100519  0.66804668  0.39890461  1
  O2-  O281  1  0.30072027  0.66616525  0.72764876  1
  O2-  O282  1  0.78978262  0.16433119  0.06666047  1
  O2-  O283  1  0.79037921  0.16883841  0.40130040  1
  O2-  O284  1  0.78662809  0.16745060  0.73455538  1
  O2-  O285  1  0.79139403  0.66616566  0.06204985  1
  O2-  O286  1  0.79020428  0.66831249  0.39752129  1
  O2-  O287  1  0.78804622  0.66724110  0.73602683  1
