# generated using pymatgen
data_Ca2Al2SiO7
_symmetry_space_group_name_H-M   'P 1'
_cell_length_a   15.47237629
_cell_length_b   15.47647637
_cell_length_c   15.29656187
_cell_angle_alpha   89.99597744
_cell_angle_beta   89.99720620
_cell_angle_gamma   90.02510718
_symmetry_Int_Tables_number   1
_chemical_formula_structural   Ca2Al2SiO7
_chemical_formula_sum   'Ca48 Al48 Si24 O168'
_cell_volume   3662.88169816
_cell_formula_units_Z   24
loop_
 _symmetry_equiv_pos_site_id
 _symmetry_equiv_pos_as_xyz
  1  'x, y, z'
loop_
 _atom_type_symbol
 _atom_type_oxidation_number
  Ca2+  2.0
  Al0+  0.0
  Si0+  0.0
  O2-  -2.0
loop_
 _atom_site_type_symbol
 _atom_site_label
 _atom_site_symmetry_multiplicity
 _atom_site_fract_x
 _atom_site_fract_y
 _atom_site_fract_z
 _atom_site_occupancy
  Ca2+  Ca0  1  0.16922481  0.08096507  0.18219504  1
  Ca2+  Ca1  1  0.16622956  0.09187725  0.50188672  1
  Ca2+  Ca2  1  0.16328494  0.08689393  0.83577747  1
  Ca2+  Ca3  1  0.16140373  0.57595422  0.16344607  1
  Ca2+  Ca4  1  0.17148095  0.57502733  0.51147134  1
  Ca2+  Ca5  1  0.16060409  0.57287740  0.83476169  1
  Ca2+  Ca6  1  0.67887342  0.08154016  0.17252414  1
  Ca2+  Ca7  1  0.68023209  0.09424869  0.50334834  1
  Ca2+  Ca8  1  0.67885048  0.09256248  0.83307368  1
  Ca2+  Ca9  1  0.67898758  0.57406133  0.17130999  1
  Ca2+  Ca10  1  0.67551056  0.57026609  0.50032183  1
  Ca2+  Ca11  1  0.67530093  0.56925584  0.83967128  1
  Ca2+  Ca12  1  0.07070220  0.33044687  0.16329741  1
  Ca2+  Ca13  1  0.07308446  0.32973748  0.49504303  1
  Ca2+  Ca14  1  0.07067104  0.33664380  0.82705178  1
  Ca2+  Ca15  1  0.08566223  0.82723092  0.16318975  1
  Ca2+  Ca16  1  0.08801235  0.82608023  0.49757674  1
  Ca2+  Ca17  1  0.08271795  0.81874184  0.82835129  1
  Ca2+  Ca18  1  0.57344552  0.34770965  0.16430237  1
  Ca2+  Ca19  1  0.58139429  0.33607395  0.49663473  1
  Ca2+  Ca20  1  0.58269865  0.33704378  0.82775007  1
  Ca2+  Ca21  1  0.58842311  0.83563514  0.16563003  1
  Ca2+  Ca22  1  0.58757262  0.83208248  0.49229841  1
  Ca2+  Ca23  1  0.58184592  0.82976550  0.82705258  1
  Ca2+  Ca24  1  0.32755554  0.40564110  0.16877529  1
  Ca2+  Ca25  1  0.32633455  0.41610829  0.50795777  1
  Ca2+  Ca26  1  0.31875236  0.41275215  0.83644644  1
  Ca2+  Ca27  1  0.32586820  0.92686368  0.17665961  1
  Ca2+  Ca28  1  0.32780652  0.92472381  0.49667553  1
  Ca2+  Ca29  1  0.33106605  0.92015399  0.83572284  1
  Ca2+  Ca30  1  0.83333303  0.42101063  0.17177724  1
  Ca2+  Ca31  1  0.82784887  0.40421502  0.50215788  1
  Ca2+  Ca32  1  0.82543530  0.40831952  0.84114894  1
  Ca2+  Ca33  1  0.83330284  0.93003640  0.17493639  1
  Ca2+  Ca34  1  0.83312668  0.93079004  0.49974475  1
  Ca2+  Ca35  1  0.84088863  0.93235718  0.83521227  1
  Ca2+  Ca36  1  0.41561276  0.17664834  0.16646351  1
  Ca2+  Ca37  1  0.42430048  0.17008594  0.49113334  1
  Ca2+  Ca38  1  0.42683479  0.17495161  0.82945109  1
  Ca2+  Ca39  1  0.42050502  0.66951182  0.16156059  1
  Ca2+  Ca40  1  0.41633056  0.66372720  0.49596970  1
  Ca2+  Ca41  1  0.41442204  0.66502958  0.82651655  1
  Ca2+  Ca42  1  0.91094731  0.17300831  0.16517124  1
  Ca2+  Ca43  1  0.92124122  0.17289572  0.49702163  1
  Ca2+  Ca44  1  0.91559992  0.17503829  0.82547910  1
  Ca2+  Ca45  1  0.91613735  0.66362361  0.15959431  1
  Ca2+  Ca46  1  0.92048880  0.66287436  0.49457004  1
  Ca2+  Ca47  1  0.92698010  0.65627396  0.83324959  1
  Al0+  Al48  1  0.00034116  -0.00239800  0.00516099  1
  Al0+  Al49  1  0.00022876  -0.00560115  0.33833750  1
  Al0+  Al50  1  0.00060930  -0.00082556  0.66844929  1
  Al0+  Al51  1  0.00142104  0.49826161  -0.00005226  1
  Al0+  Al52  1  0.00291046  0.50007968  0.33199625  1
  Al0+  Al53  1  -0.00015711  0.50142168  0.65941327  1
  Al0+  Al54  1  0.49817182  0.00013451  -0.00184007  1
  Al0+  Al55  1  0.49721178  -0.00133038  0.33717381  1
  Al0+  Al56  1  0.49970384  -0.00016628  0.66275394  1
  Al0+  Al57  1  0.49749264  0.50275253  -0.00423953  1
  Al0+  Al58  1  0.50229072  0.50240694  0.33060152  1
  Al0+  Al59  1  0.50156834  0.50317801  0.67239904  1
  Al0+  Al60  1  0.25203538  0.25003475  -0.00026476  1
  Al0+  Al61  1  0.25153015  0.24961737  0.33154682  1
  Al0+  Al62  1  0.25101214  0.25017367  0.67207381  1
  Al0+  Al63  1  0.24991269  0.75050134  -0.00443325  1
  Al0+  Al64  1  0.25188211  0.75126098  0.33382716  1
  Al0+  Al65  1  0.25056383  0.75254146  0.66514042  1
  Al0+  Al66  1  0.74686925  0.24774723  0.00727323  1
  Al0+  Al67  1  0.74833104  0.25005311  0.33524399  1
  Al0+  Al68  1  0.74868254  0.24925403  0.66826081  1
  Al0+  Al69  1  0.74929783  0.75086133  -0.00195767  1
  Al0+  Al70  1  0.75206783  0.74794296  0.33878517  1
  Al0+  Al71  1  0.74844420  0.75091769  0.66595651  1
  Al0+  Al72  1  0.17828687  0.92676805  0.34938717  1
  Al0+  Al73  1  0.31857190  0.07366563  0.34965486  1
  Al0+  Al74  1  0.67891142  0.92840827  0.34719320  1
  Al0+  Al75  1  0.07003854  0.17697822  0.31973330  1
  Al0+  Al76  1  0.43106983  0.32265176  0.32129404  1
  Al0+  Al77  1  0.67567617  0.42793022  0.01578001  1
  Al0+  Al78  1  0.82165751  0.07263540  0.35051044  1
  Al0+  Al79  1  0.07037040  0.67975855  0.65125517  1
  Al0+  Al80  1  0.56976214  0.17976008  0.65315449  1
  Al0+  Al81  1  0.42848297  0.32273561  0.98398732  1
  Al0+  Al82  1  0.82078948  0.06938090  0.68140604  1
  Al0+  Al83  1  0.06991548  0.67958764  0.98643347  1
  Al0+  Al84  1  0.07303067  0.17753724  0.65434656  1
  Al0+  Al85  1  0.82485597  0.56899196  0.34912482  1
  Al0+  Al86  1  0.17720417  0.42765786  0.68149136  1
  Al0+  Al87  1  0.67758846  0.42962577  0.34897757  1
  Al0+  Al88  1  0.68193290  0.42933729  0.68081184  1
  Al0+  Al89  1  0.82225592  0.57021155  0.01300137  1
  Al0+  Al90  1  0.92785697  0.31788188  0.98798397  1
  Al0+  Al91  1  0.92740313  0.32095690  0.31633739  1
  Al0+  Al92  1  0.92784448  0.32126753  0.65284777  1
  Al0+  Al93  1  0.17993999  0.42764334  0.01544664  1
  Al0+  Al94  1  0.82120080  0.07025707  0.01425003  1
  Al0+  Al95  1  0.32056839  0.57280477  0.68097168  1
  Si0+  Si96  1  0.92814921  0.81748611  0.31841112  1
  Si0+  Si97  1  0.32362286  0.07109450  0.68373895  1
  Si0+  Si98  1  0.57109500  0.17550511  0.31628955  1
  Si0+  Si99  1  0.32008103  0.57471701  0.01681523  1
  Si0+  Si100  1  0.18083660  0.92796032  0.01375380  1
  Si0+  Si101  1  0.67518718  0.92787537  0.01343593  1
  Si0+  Si102  1  0.42948863  0.32395711  0.65205738  1
  Si0+  Si103  1  0.32124071  0.07003560  0.01407415  1
  Si0+  Si104  1  0.18133916  0.42933485  0.34674722  1
  Si0+  Si105  1  0.92771990  0.82260213  0.64943374  1
  Si0+  Si106  1  0.42876123  0.82226776  0.64834812  1
  Si0+  Si107  1  0.07444936  0.67955107  0.31700718  1
  Si0+  Si108  1  0.57064995  0.67972576  0.64969403  1
  Si0+  Si109  1  0.82209328  0.57588149  0.68244670  1
  Si0+  Si110  1  0.57220762  0.68104121  0.31678972  1
  Si0+  Si111  1  0.32197134  0.57212019  0.34435103  1
  Si0+  Si112  1  0.56916823  0.17548100  0.98424369  1
  Si0+  Si113  1  0.07233580  0.17505498  0.98682589  1
  Si0+  Si114  1  0.42947266  0.82119659  0.98379322  1
  Si0+  Si115  1  0.92663133  0.82375448  0.98338068  1
  Si0+  Si116  1  0.42869706  0.82094278  0.31639302  1
  Si0+  Si117  1  0.67619952  0.92678102  0.68396353  1
  Si0+  Si118  1  0.18022945  0.92975183  0.68384242  1
  Si0+  Si119  1  0.57170161  0.68004004  0.98268945  1
  O2-  O120  1  0.24513609  0.00446752  0.05572545  1
  O2-  O121  1  0.24211843  0.00593849  0.39977839  1
  O2-  O122  1  0.24785884  0.00446697  0.72624375  1
  O2-  O123  1  0.25630882  0.50251449  0.06185064  1
  O2-  O124  1  0.25368147  0.50002694  0.38713275  1
  O2-  O125  1  0.24892147  0.50130650  0.73125496  1
  O2-  O126  1  0.74615052  -0.00663842  0.05696638  1
  O2-  O127  1  0.74451239  0.00413020  0.39910387  1
  O2-  O128  1  0.74516755  -0.00573178  0.72830493  1
  O2-  O129  1  0.75203019  0.49685392  0.06348774  1
  O2-  O130  1  0.75791088  0.49246539  0.39884535  1
  O2-  O131  1  0.75948704  0.50184015  0.72612654  1
  O2-  O132  1  -0.00385658  0.24482098  0.26685943  1
  O2-  O133  1  0.00421988  0.25223553  0.60515900  1
  O2-  O134  1  0.00218126  0.24147725  0.94261972  1
  O2-  O135  1  0.00015462  0.74737065  0.27559637  1
  O2-  O136  1  -0.00743175  0.75084953  0.60414820  1
  O2-  O137  1  -0.00858921  0.75104153  0.93998481  1
  O2-  O138  1  0.50644323  0.24868356  0.27294323  1
  O2-  O139  1  0.49528130  0.25426366  0.60619291  1
  O2-  O140  1  0.50720429  0.25080913  0.94034196  1
  O2-  O141  1  0.50315510  0.75421517  0.27333055  1
  O2-  O142  1  0.49924410  0.75051718  0.60693104  1
  O2-  O143  1  0.50068962  0.75177477  0.94031564  1
  O2-  O144  1  0.07331009  0.17363275  0.09201984  1
  O2-  O145  1  0.07201925  0.18327663  0.43286136  1
  O2-  O146  1  0.06978725  0.17546784  0.76835649  1
  O2-  O147  1  0.07401685  0.68460786  0.09957952  1
  O2-  O148  1  0.07786198  0.68148817  0.42183452  1
  O2-  O149  1  0.07111188  0.68202864  0.76448842  1
  O2-  O150  1  0.56302991  0.16506848  0.08875675  1
  O2-  O151  1  0.56755112  0.17422559  0.42190951  1
  O2-  O152  1  0.56779694  0.17901522  0.76655461  1
  O2-  O153  1  0.57048610  0.68261980  0.08777055  1
  O2-  O154  1  0.56808846  0.68083278  0.42183898  1
  O2-  O155  1  0.57044374  0.68317588  0.75495706  1
  O2-  O156  1  0.18104752  0.43108186  0.24151791  1
  O2-  O157  1  0.18088670  0.42861539  0.56741219  1
  O2-  O158  1  0.17905041  0.42891788  0.90282689  1
  O2-  O159  1  0.18484301  0.92199714  0.23530702  1
  O2-  O160  1  0.18336317  0.92609323  0.57953195  1
  O2-  O161  1  0.18388086  0.92659807  0.90846995  1
  O2-  O162  1  0.67131991  0.43777560  0.23624681  1
  O2-  O163  1  0.67853790  0.43193224  0.56823905  1
  O2-  O164  1  0.67635518  0.43040176  0.90198271  1
  O2-  O165  1  0.68197564  0.92805674  0.23290993  1
  O2-  O166  1  0.67582071  0.92438866  0.57909868  1
  O2-  O167  1  0.67115457  0.92840988  0.90804812  1
  O2-  O168  1  0.42724506  0.31928765  0.09714558  1
  O2-  O169  1  0.43069333  0.32399479  0.43435167  1
  O2-  O170  1  0.43086985  0.32136930  0.75775520  1
  O2-  O171  1  0.42879167  0.82115541  0.08864044  1
  O2-  O172  1  0.42581704  0.81695907  0.42119523  1
  O2-  O173  1  0.42977375  0.82390617  0.75408460  1
  O2-  O174  1  0.92946097  0.31827163  0.10066124  1
  O2-  O175  1  0.93140747  0.32272652  0.42944790  1
  O2-  O176  1  0.92611286  0.31904403  0.76693557  1
  O2-  O177  1  0.92882005  0.82601250  0.08880157  1
  O2-  O178  1  0.92723902  0.81469887  0.42328679  1
  O2-  O179  1  0.93091562  0.82393287  0.75527179  1
  O2-  O180  1  0.31999719  0.06968636  0.23538207  1
  O2-  O181  1  0.32625318  0.06880667  0.57939749  1
  O2-  O182  1  0.32352417  0.06595183  0.90869719  1
  O2-  O183  1  0.32079865  0.57571631  0.23934193  1
  O2-  O184  1  0.32088396  0.57197892  0.56665864  1
  O2-  O185  1  0.31754598  0.57897574  0.91182283  1
  O2-  O186  1  0.82112897  0.06867926  0.23664190  1
  O2-  O187  1  0.82018715  0.06763536  0.56922926  1
  O2-  O188  1  0.82215867  0.06888118  0.90106994  1
  O2-  O189  1  0.82182826  0.57324485  0.23567723  1
  O2-  O190  1  0.81670495  0.58242777  0.57751930  1
  O2-  O191  1  0.81982357  0.57144471  0.89943609  1
  O2-  O192  1  0.04994973  0.07312716  0.27325276  1
  O2-  O193  1  0.04562313  0.07832390  0.60258391  1
  O2-  O194  1  0.05038996  0.07924752  0.94239671  1
  O2-  O195  1  0.05030037  0.58704477  0.26989985  1
  O2-  O196  1  0.04530160  0.58392700  0.59416343  1
  O2-  O197  1  0.04163528  0.58286836  0.93237752  1
  O2-  O198  1  0.54021589  0.08278916  0.27055912  1
  O2-  O199  1  0.53926873  0.08319950  0.59894167  1
  O2-  O200  1  0.53620392  0.08548160  0.93277894  1
  O2-  O201  1  0.54037503  0.59243028  0.26634752  1
  O2-  O202  1  0.54167642  0.58846197  0.60250797  1
  O2-  O203  1  0.54190520  0.59041853  0.93307627  1
  O2-  O204  1  0.16895890  0.20610563  0.26716716  1
  O2-  O205  1  0.17521660  0.19999983  0.60640862  1
  O2-  O206  1  0.16661864  0.19985243  0.94161958  1
  O2-  O207  1  0.16479405  0.71213426  0.26869393  1
  O2-  O208  1  0.16637748  0.71604523  0.59849952  1
  O2-  O209  1  0.16445200  0.71609826  0.93091949  1
  O2-  O210  1  0.66641399  0.19540578  0.27282567  1
  O2-  O211  1  0.66519690  0.21110034  0.59971640  1
  O2-  O212  1  0.66520139  0.19580429  0.94255760  1
  O2-  O213  1  0.66437156  0.70918602  0.27073989  1
  O2-  O214  1  0.66171659  0.70885343  0.60170784  1
  O2-  O215  1  0.66248486  0.70825609  0.93311834  1
  O2-  O216  1  0.08554404  0.46208113  0.07032518  1
  O2-  O217  1  0.09127586  0.45949839  0.39460799  1
  O2-  O218  1  0.07791294  0.45920730  0.73112440  1
  O2-  O219  1  0.08753535  0.94688377  0.06124649  1
  O2-  O220  1  0.07748597  0.93934138  0.40061101  1
  O2-  O221  1  0.08782516  0.95254551  0.73190875  1
  O2-  O222  1  0.57741290  0.46391936  0.06482657  1
  O2-  O223  1  0.58211762  0.46850383  0.40294681  1
  O2-  O224  1  0.58683842  0.46436519  0.73562794  1
  O2-  O225  1  0.58166410  0.95402272  0.06055623  1
  O2-  O226  1  0.57659230  0.94532307  0.39592416  1
  O2-  O227  1  0.58140187  0.95179599  0.72855993  1
  O2-  O228  1  0.21309731  0.33139347  0.06898670  1
  O2-  O229  1  0.21028821  0.33872065  0.39359810  1
  O2-  O230  1  0.20649946  0.33070471  0.73793886  1
  O2-  O231  1  0.21579489  0.83881683  0.06163040  1
  O2-  O232  1  0.21876206  0.83243255  0.40413668  1
  O2-  O233  1  0.21444527  0.84062798  0.73312479  1
  O2-  O234  1  0.69337503  0.32739027  0.06697235  1
  O2-  O235  1  0.69465214  0.32787481  0.39787132  1
  O2-  O236  1  0.70848388  0.33263894  0.73586711  1
  O2-  O237  1  0.69691529  0.83315560  0.05832333  1
  O2-  O238  1  0.70984839  0.83162339  0.40162002  1
  O2-  O239  1  0.70036208  0.83273017  0.73086607  1
  O2-  O240  1  0.45958263  0.41985376  0.26533278  1
  O2-  O241  1  0.45614512  0.41829233  0.60845242  1
  O2-  O242  1  0.45204893  0.42157447  0.93104530  1
  O2-  O243  1  0.45208428  0.91379664  0.26879922  1
  O2-  O244  1  0.45691296  0.91282372  0.59967313  1
  O2-  O245  1  0.45614527  0.91269777  0.93430018  1
  O2-  O246  1  0.96255703  0.41899174  0.26447982  1
  O2-  O247  1  0.94948652  0.42063765  0.59931158  1
  O2-  O248  1  0.96020481  0.41398301  0.93454823  1
  O2-  O249  1  0.95520106  0.90910738  0.27041551  1
  O2-  O250  1  0.95844265  0.91381819  0.60271014  1
  O2-  O251  1  0.95951600  0.91484270  0.93546331  1
  O2-  O252  1  0.33588010  0.28956717  0.26533503  1
  O2-  O253  1  0.33440672  0.29980487  0.60958574  1
  O2-  O254  1  0.33381281  0.28611035  0.92892843  1
  O2-  O255  1  0.33943518  0.78785474  0.26628192  1
  O2-  O256  1  0.33736947  0.79539731  0.60070736  1
  O2-  O257  1  0.33889158  0.79270612  0.93405625  1
  O2-  O258  1  0.82588345  0.29779460  0.26711051  1
  O2-  O259  1  0.83141825  0.28711069  0.60061468  1
  O2-  O260  1  0.82879840  0.28751094  0.93809182  1
  O2-  O261  1  0.83699522  0.78864544  0.26993792  1
  O2-  O262  1  0.83182094  0.80151767  0.60636106  1
  O2-  O263  1  0.83120057  0.80532236  0.93789846  1
  O2-  O264  1  0.40992248  0.03489030  0.06260004  1
  O2-  O265  1  0.41417944  0.03786553  0.40344971  1
  O2-  O266  1  0.41274230  0.03518831  0.73223273  1
  O2-  O267  1  0.41608323  0.55515763  0.05949087  1
  O2-  O268  1  0.41472842  0.54850368  0.39088066  1
  O2-  O269  1  0.41954898  0.54918234  0.73450849  1
  O2-  O270  1  0.91702601  0.03787825  0.06934623  1
  O2-  O271  1  0.91749813  0.03704351  0.40294429  1
  O2-  O272  1  0.91667355  0.03600702  0.73634556  1
  O2-  O273  1  0.92128893  0.54608780  0.06533199  1
  O2-  O274  1  0.92652924  0.54916104  0.39848243  1
  O2-  O275  1  0.91909633  0.55633359  0.72172818  1
  O2-  O276  1  0.29967521  0.16305374  0.06009683  1
  O2-  O277  1  0.29592947  0.17278002  0.40303583  1
  O2-  O278  1  0.30176652  0.16337588  0.73276649  1
  O2-  O279  1  0.29156021  0.66779830  0.06395963  1
  O2-  O280  1  0.29334536  0.66256811  0.39359611  1
  O2-  O281  1  0.29536778  0.67347327  0.73163863  1
  O2-  O282  1  0.78770838  0.16315486  0.07204640  1
  O2-  O283  1  0.79535924  0.17130191  0.40261378  1
  O2-  O284  1  0.78614386  0.16398028  0.73605814  1
  O2-  O285  1  0.79291252  0.67071799  0.06338980  1
  O2-  O286  1  0.79067008  0.66450079  0.40391570  1
  O2-  O287  1  0.79162832  0.66750724  0.73095241  1
