# generated using pymatgen
data_Ca2Al2SiO7
_symmetry_space_group_name_H-M   'P 1'
_cell_length_a   15.45287136
_cell_length_b   15.45303956
_cell_length_c   15.27987505
_cell_angle_alpha   89.99655251
_cell_angle_beta   90.00559777
_cell_angle_gamma   90.00584856
_symmetry_Int_Tables_number   1
_chemical_formula_structural   Ca2Al2SiO7
_chemical_formula_sum   'Ca48 Al48 Si24 O168'
_cell_volume   3648.73988006
_cell_formula_units_Z   24
loop_
 _symmetry_equiv_pos_site_id
 _symmetry_equiv_pos_as_xyz
  1  'x, y, z'
loop_
 _atom_type_symbol
 _atom_type_oxidation_number
  Ca2+  2.0
  Al0+  0.0
  Si0+  0.0
  O2-  -2.0
loop_
 _atom_site_type_symbol
 _atom_site_label
 _atom_site_symmetry_multiplicity
 _atom_site_fract_x
 _atom_site_fract_y
 _atom_site_fract_z
 _atom_site_occupancy
  Ca2+  Ca0  1  0.16412129  0.08338868  0.17146493  1
  Ca2+  Ca1  1  0.16762225  0.08381118  0.50023690  1
  Ca2+  Ca2  1  0.17757082  0.09042840  0.83862900  1
  Ca2+  Ca3  1  0.17015744  0.58170494  0.17194621  1
  Ca2+  Ca4  1  0.17164085  0.57829734  0.50936439  1
  Ca2+  Ca5  1  0.17314369  0.57259215  0.83910450  1
  Ca2+  Ca6  1  0.67000862  0.07989167  0.17512886  1
  Ca2+  Ca7  1  0.67119951  0.08387005  0.50387673  1
  Ca2+  Ca8  1  0.66579823  0.06635577  0.83913065  1
  Ca2+  Ca9  1  0.66044671  0.58071699  0.16664577  1
  Ca2+  Ca10  1  0.66902942  0.57951976  0.51056245  1
  Ca2+  Ca11  1  0.66598581  0.57737987  0.83483731  1
  Ca2+  Ca12  1  0.08025544  0.32503268  0.16076832  1
  Ca2+  Ca13  1  0.07305344  0.33397234  0.49338885  1
  Ca2+  Ca14  1  0.08596381  0.33469258  0.82899520  1
  Ca2+  Ca15  1  0.08754802  0.83149558  0.16731254  1
  Ca2+  Ca16  1  0.08122950  0.82926282  0.49315683  1
  Ca2+  Ca17  1  0.07384356  0.83089271  0.82566034  1
  Ca2+  Ca18  1  0.57936918  0.32985980  0.16572374  1
  Ca2+  Ca19  1  0.57699767  0.33199611  0.49062705  1
  Ca2+  Ca20  1  0.58619848  0.33695199  0.82920225  1
  Ca2+  Ca21  1  0.58865102  0.82295680  0.16021376  1
  Ca2+  Ca22  1  0.58758413  0.82313166  0.50002166  1
  Ca2+  Ca23  1  0.58964529  0.82300374  0.82614802  1
  Ca2+  Ca24  1  0.33145109  0.41808818  0.16557878  1
  Ca2+  Ca25  1  0.32802928  0.41837227  0.50834663  1
  Ca2+  Ca26  1  0.32451005  0.42617521  0.83719126  1
  Ca2+  Ca27  1  0.32831617  0.92361764  0.17120137  1
  Ca2+  Ca28  1  0.32724245  0.92224239  0.50351025  1
  Ca2+  Ca29  1  0.33828528  0.93021919  0.83691967  1
  Ca2+  Ca30  1  0.82738170  0.41036322  0.17004800  1
  Ca2+  Ca31  1  0.83198222  0.41974035  0.50966338  1
  Ca2+  Ca32  1  0.82601756  0.41730871  0.83165302  1
  Ca2+  Ca33  1  0.82879005  0.92311802  0.17174382  1
  Ca2+  Ca34  1  0.83161342  0.92273367  0.50512853  1
  Ca2+  Ca35  1  0.82262125  0.90651785  0.83359156  1
  Ca2+  Ca36  1  0.41425709  0.17123873  0.16455399  1
  Ca2+  Ca37  1  0.42138504  0.17202731  0.49378203  1
  Ca2+  Ca38  1  0.41388394  0.16475141  0.82866358  1
  Ca2+  Ca39  1  0.42542632  0.66579871  0.15971749  1
  Ca2+  Ca40  1  0.42883733  0.65802000  0.49687537  1
  Ca2+  Ca41  1  0.42463830  0.65607582  0.83042910  1
  Ca2+  Ca42  1  0.92427998  0.16428051  0.16723028  1
  Ca2+  Ca43  1  0.91616517  0.17957630  0.48982134  1
  Ca2+  Ca44  1  0.92565654  0.17366841  0.82680686  1
  Ca2+  Ca45  1  0.92486035  0.66524596  0.16660595  1
  Ca2+  Ca46  1  0.91766276  0.67002642  0.49903354  1
  Ca2+  Ca47  1  0.91246465  0.66979634  0.82376352  1
  Al0+  Al48  1  0.00049674  0.00134257  -0.00798138  1
  Al0+  Al49  1  -0.00218918  0.00051024  0.33996615  1
  Al0+  Al50  1  0.00047251  0.00006095  0.66190918  1
  Al0+  Al51  1  -0.00087684  0.49971555  0.00219273  1
  Al0+  Al52  1  -0.00119716  0.50151166  0.32532037  1
  Al0+  Al53  1  -0.00078355  0.49974100  0.67068073  1
  Al0+  Al54  1  0.50023330  -0.00072133  0.01062482  1
  Al0+  Al55  1  0.49938154  -0.00175777  0.33226964  1
  Al0+  Al56  1  0.50041691  -0.00190679  0.67215886  1
  Al0+  Al57  1  0.50086127  0.49936240  0.00312243  1
  Al0+  Al58  1  0.49958664  0.50031073  0.32506193  1
  Al0+  Al59  1  0.49963508  0.49827692  0.66797381  1
  Al0+  Al60  1  0.25031974  0.25078066  0.00339997  1
  Al0+  Al61  1  0.24914973  0.25158829  0.32775751  1
  Al0+  Al62  1  0.25115930  0.24871642  0.67222948  1
  Al0+  Al63  1  0.25112092  0.75153582  -0.00031513  1
  Al0+  Al64  1  0.25081372  0.75051105  0.33526639  1
  Al0+  Al65  1  0.25160701  0.75218082  0.67121513  1
  Al0+  Al66  1  0.75025116  0.25020412  0.00211582  1
  Al0+  Al67  1  0.74798085  0.24972792  0.33050556  1
  Al0+  Al68  1  0.75222318  0.24856732  0.66733432  1
  Al0+  Al69  1  0.74980504  0.74885819  0.00210958  1
  Al0+  Al70  1  0.75052993  0.74911910  0.32880806  1
  Al0+  Al71  1  0.75054150  0.75004014  0.66266972  1
  Al0+  Al72  1  0.56974541  0.67942765  0.98350426  1
  Al0+  Al73  1  0.17930753  0.92886819  0.34743248  1
  Al0+  Al74  1  0.82041347  0.57181352  0.67946715  1
  Al0+  Al75  1  0.67829656  0.42614512  0.67872182  1
  Al0+  Al76  1  0.92856533  0.82084109  0.65136026  1
  Al0+  Al77  1  0.07139653  0.18030501  0.98398018  1
  Al0+  Al78  1  0.32289120  0.57309486  0.68022691  1
  Al0+  Al79  1  0.57153004  0.68066421  0.31844183  1
  Al0+  Al80  1  0.92746558  0.32307461  0.31657540  1
  Al0+  Al81  1  0.92954127  0.32121995  0.65357144  1
  Al0+  Al82  1  0.57063381  0.17676575  0.31905522  1
  Al0+  Al83  1  0.56817909  0.67833305  0.65312178  1
  Al0+  Al84  1  0.68158444  0.93025930  0.67817846  1
  Al0+  Al85  1  0.81865606  0.07159118  0.34779587  1
  Al0+  Al86  1  0.17773017  0.42884766  0.67957014  1
  Al0+  Al87  1  0.32058395  0.07114927  0.01632328  1
  Al0+  Al88  1  0.68007161  0.42837881  0.01588159  1
  Al0+  Al89  1  0.68056450  0.92734678  0.01573709  1
  Al0+  Al90  1  0.31986332  0.06901248  0.67868966  1
  Al0+  Al91  1  0.32094436  0.57237792  0.01729159  1
  Al0+  Al92  1  0.42780832  0.32163426  0.31742985  1
  Al0+  Al93  1  0.07243537  0.68027144  0.32114221  1
  Al0+  Al94  1  0.06960031  0.17786361  0.31942915  1
  Al0+  Al95  1  0.17752855  0.42973112  0.01859338  1
  Si0+  Si96  1  0.57092282  0.17585642  0.65552639  1
  Si0+  Si97  1  0.82208399  0.57149829  0.34747584  1
  Si0+  Si98  1  0.17525668  0.92911271  0.01457465  1
  Si0+  Si99  1  0.92864407  0.82238735  0.31611036  1
  Si0+  Si100  1  0.42778291  0.82533545  0.65009089  1
  Si0+  Si101  1  0.42947212  0.31911427  0.65464377  1
  Si0+  Si102  1  0.32214764  0.07418810  0.35021218  1
  Si0+  Si103  1  0.07474596  0.17921474  0.64900396  1
  Si0+  Si104  1  0.93024665  0.81990809  0.98588076  1
  Si0+  Si105  1  0.42778270  0.82427824  0.98305484  1
  Si0+  Si106  1  0.07270055  0.67791741  0.98445974  1
  Si0+  Si107  1  0.07395162  0.67866894  0.65240237  1
  Si0+  Si108  1  0.17742647  0.42982637  0.34715217  1
  Si0+  Si109  1  0.42671368  0.82186295  0.31690113  1
  Si0+  Si110  1  0.82272502  0.07134289  0.01464267  1
  Si0+  Si111  1  0.67743691  0.92526458  0.35072719  1
  Si0+  Si112  1  0.92621195  0.32299386  0.98098417  1
  Si0+  Si113  1  0.43085176  0.31927418  0.98284918  1
  Si0+  Si114  1  0.57222797  0.17727687  0.98466548  1
  Si0+  Si115  1  0.67824477  0.43114293  0.34709951  1
  Si0+  Si116  1  0.82432024  0.07292528  0.68427913  1
  Si0+  Si117  1  0.17547061  0.92773982  0.68428172  1
  Si0+  Si118  1  0.32156225  0.57025653  0.34828604  1
  Si0+  Si119  1  0.82174659  0.57301820  0.01897834  1
  O2-  O120  1  0.24431977  -0.00345267  0.05969673  1
  O2-  O121  1  0.25240262  0.00592627  0.39368365  1
  O2-  O122  1  0.24423136  -0.00372087  0.72772828  1
  O2-  O123  1  0.24633725  0.50451948  0.06939672  1
  O2-  O124  1  0.24985637  0.49950185  0.39014034  1
  O2-  O125  1  0.24724353  0.50408027  0.72840455  1
  O2-  O126  1  0.75325572  0.00447519  0.06051843  1
  O2-  O127  1  0.74178785  -0.00188668  0.39424173  1
  O2-  O128  1  0.75718847  0.00275007  0.72832775  1
  O2-  O129  1  0.75561083  0.50206383  0.06319729  1
  O2-  O130  1  0.75081983  0.50051285  0.38921471  1
  O2-  O131  1  0.74897540  0.49931130  0.72911396  1
  O2-  O132  1  -0.00032708  0.25079125  0.26763714  1
  O2-  O133  1  0.00501634  0.24723296  0.60634390  1
  O2-  O134  1  -0.00192252  0.25681988  0.93779677  1
  O2-  O135  1  -0.00081003  0.75564529  0.27182288  1
  O2-  O136  1  0.00642102  0.74809902  0.60688841  1
  O2-  O137  1  0.00119588  0.74881402  0.94318583  1
  O2-  O138  1  0.49681443  0.24603705  0.26773177  1
  O2-  O139  1  0.50362326  0.25061517  0.61332679  1
  O2-  O140  1  0.50171082  0.24760031  0.94016672  1
  O2-  O141  1  0.49913967  0.75770749  0.27227633  1
  O2-  O142  1  0.49039178  0.75074994  0.60624720  1
  O2-  O143  1  0.49422586  0.75419995  0.93764433  1
  O2-  O144  1  0.06737310  0.17631430  0.09663177  1
  O2-  O145  1  0.06989915  0.18130446  0.43318197  1
  O2-  O146  1  0.07469307  0.17919235  0.75482696  1
  O2-  O147  1  0.07236958  0.67994990  0.08973973  1
  O2-  O148  1  0.07136955  0.67964899  0.43414685  1
  O2-  O149  1  0.07304303  0.68147420  0.75829812  1
  O2-  O150  1  0.57198250  0.17875213  0.08946768  1
  O2-  O151  1  0.56971732  0.17933860  0.43354485  1
  O2-  O152  1  0.56822388  0.17376741  0.76086430  1
  O2-  O153  1  0.56962089  0.68220547  0.09687756  1
  O2-  O154  1  0.57132784  0.67877648  0.43163154  1
  O2-  O155  1  0.56899721  0.67953964  0.76600159  1
  O2-  O156  1  0.17782844  0.43222193  0.24246695  1
  O2-  O157  1  0.17979858  0.42830787  0.56523750  1
  O2-  O158  1  0.17911126  0.43102784  0.90493833  1
  O2-  O159  1  0.18207584  0.92806345  0.23406261  1
  O2-  O160  1  0.17634151  0.92718984  0.57868894  1
  O2-  O161  1  0.17404693  0.92955027  0.90905228  1
  O2-  O162  1  0.67852860  0.43303102  0.24190332  1
  O2-  O163  1  0.67705530  0.42663039  0.56475724  1
  O2-  O164  1  0.68131329  0.42793483  0.90295761  1
  O2-  O165  1  0.68132116  0.92384917  0.24503608  1
  O2-  O166  1  0.68093811  0.93314952  0.56520083  1
  O2-  O167  1  0.68217730  0.92611289  0.90241173  1
  O2-  O168  1  0.43208079  0.31793339  0.08793284  1
  O2-  O169  1  0.42914209  0.32315973  0.43188953  1
  O2-  O170  1  0.42829451  0.31730608  0.75977532  1
  O2-  O171  1  0.42793175  0.82377641  0.08877424  1
  O2-  O172  1  0.42549083  0.82080823  0.42255892  1
  O2-  O173  1  0.43164292  0.83099159  0.75528085  1
  O2-  O174  1  0.92485270  0.32074211  0.08638168  1
  O2-  O175  1  0.92895337  0.32513315  0.43044233  1
  O2-  O176  1  0.92837071  0.31748731  0.76661745  1
  O2-  O177  1  0.93207386  0.82116165  0.09097877  1
  O2-  O178  1  0.92731401  0.81960523  0.42153944  1
  O2-  O179  1  0.92946058  0.81910165  0.76525536  1
  O2-  O180  1  0.32227931  0.07189429  0.24478329  1
  O2-  O181  1  0.32041546  0.06934633  0.56567332  1
  O2-  O182  1  0.32148124  0.06996798  0.90287330  1
  O2-  O183  1  0.32058318  0.57122178  0.24346921  1
  O2-  O184  1  0.32327960  0.56900676  0.56587902  1
  O2-  O185  1  0.31978273  0.56917426  0.90385979  1
  O2-  O186  1  0.81954532  0.06695436  0.23428150  1
  O2-  O187  1  0.82115620  0.07397740  0.57875923  1
  O2-  O188  1  0.82105985  0.06998455  0.90900763  1
  O2-  O189  1  0.82175893  0.57286836  0.24236817  1
  O2-  O190  1  0.81964218  0.57137017  0.56532158  1
  O2-  O191  1  0.82136310  0.57564240  0.91362719  1
  O2-  O192  1  0.03878398  0.07892444  0.26838324  1
  O2-  O193  1  0.05144023  0.08448390  0.60419465  1
  O2-  O194  1  0.04081862  0.08461244  0.92634140  1
  O2-  O195  1  0.03919462  0.58721981  0.26215283  1
  O2-  O196  1  0.04805113  0.58498009  0.60757588  1
  O2-  O197  1  0.04439003  0.58579139  0.93831983  1
  O2-  O198  1  0.54770476  0.07610435  0.26748209  1
  O2-  O199  1  0.53902167  0.08617970  0.60651492  1
  O2-  O200  1  0.54313390  0.08375493  0.94093259  1
  O2-  O201  1  0.53818471  0.58637979  0.26256005  1
  O2-  O202  1  0.53878927  0.58073908  0.59863216  1
  O2-  O203  1  0.53932762  0.58114556  0.93266603  1
  O2-  O204  1  0.16840554  0.20277296  0.26641741  1
  O2-  O205  1  0.16903554  0.20452020  0.60417870  1
  O2-  O206  1  0.16937926  0.21127493  0.93236723  1
  O2-  O207  1  0.16865156  0.71148986  0.26652425  1
  O2-  O208  1  0.16863015  0.70370634  0.60716616  1
  O2-  O209  1  0.16430875  0.70592155  0.93672341  1
  O2-  O210  1  0.66685756  0.20677226  0.26370290  1
  O2-  O211  1  0.66447723  0.19891323  0.60984222  1
  O2-  O212  1  0.66476508  0.20403757  0.93767154  1
  O2-  O213  1  0.66823943  0.70925146  0.26272536  1
  O2-  O214  1  0.66328712  0.71241160  0.59821778  1
  O2-  O215  1  0.66800033  0.71114413  0.93297188  1
  O2-  O216  1  0.07708400  0.45440866  0.06922445  1
  O2-  O217  1  0.08514080  0.46039273  0.39229327  1
  O2-  O218  1  0.08042323  0.45430949  0.73513713  1
  O2-  O219  1  0.08168929  0.95586960  0.06031286  1
  O2-  O220  1  0.08249257  0.95588602  0.40254721  1
  O2-  O221  1  0.08121644  0.95311740  0.72930372  1
  O2-  O222  1  0.58449765  0.45992206  0.07031772  1
  O2-  O223  1  0.58600366  0.46130344  0.39265030  1
  O2-  O224  1  0.58050717  0.45296425  0.73272396  1
  O2-  O225  1  0.58498133  0.95571043  0.07174458  1
  O2-  O226  1  0.58096329  0.94427296  0.39354036  1
  O2-  O227  1  0.58681584  0.96098770  0.73569341  1
  O2-  O228  1  0.21001198  0.33275291  0.07069549  1
  O2-  O229  1  0.20390344  0.33705478  0.39322895  1
  O2-  O230  1  0.20951740  0.33245634  0.73446550  1
  O2-  O231  1  0.19986358  0.83503070  0.06030980  1
  O2-  O232  1  0.21280265  0.83352395  0.40380276  1
  O2-  O233  1  0.19884736  0.83443800  0.73192846  1
  O2-  O234  1  0.70952212  0.33103167  0.07027366  1
  O2-  O235  1  0.70181614  0.33769910  0.39233073  1
  O2-  O236  1  0.70710310  0.32820620  0.73344123  1
  O2-  O237  1  0.71543925  0.83275957  0.07083129  1
  O2-  O238  1  0.70867251  0.83266579  0.39621566  1
  O2-  O239  1  0.71392125  0.83428462  0.73174066  1
  O2-  O240  1  0.46011940  0.41681411  0.26068842  1
  O2-  O241  1  0.45424775  0.41056766  0.60558713  1
  O2-  O242  1  0.46041305  0.41099323  0.93699081  1
  O2-  O243  1  0.44668634  0.91698773  0.27134872  1
  O2-  O244  1  0.45995662  0.91592191  0.60075743  1
  O2-  O245  1  0.45646210  0.91866321  0.93969509  1
  O2-  O246  1  0.95399375  0.42047807  0.26117172  1
  O2-  O247  1  0.95746865  0.41942528  0.60068793  1
  O2-  O248  1  0.94859477  0.41883553  0.93783263  1
  O2-  O249  1  0.95332990  0.91631213  0.27176154  1
  O2-  O250  1  0.95691756  0.91834229  0.59704465  1
  O2-  O251  1  0.95626990  0.91056586  0.93500178  1
  O2-  O252  1  0.32966572  0.29687031  0.26280361  1
  O2-  O253  1  0.33881706  0.28778927  0.60628665  1
  O2-  O254  1  0.33866690  0.29111076  0.93691757  1
  O2-  O255  1  0.33528279  0.79250280  0.26886288  1
  O2-  O256  1  0.33071891  0.80692357  0.60755628  1
  O2-  O257  1  0.33242453  0.80409013  0.93698612  1
  O2-  O258  1  0.82934197  0.29344903  0.26504168  1
  O2-  O259  1  0.83295901  0.28916021  0.59844182  1
  O2-  O260  1  0.83325396  0.29370563  0.93496032  1
  O2-  O261  1  0.83678282  0.79426828  0.26750238  1
  O2-  O262  1  0.83446174  0.78888317  0.59418654  1
  O2-  O263  1  0.83887307  0.78945487  0.93928765  1
  O2-  O264  1  0.41531512  0.04033516  0.07353982  1
  O2-  O265  1  0.41596128  0.04710531  0.39606113  1
  O2-  O266  1  0.41485294  0.03725622  0.73598494  1
  O2-  O267  1  0.41799161  0.53973919  0.06981374  1
  O2-  O268  1  0.41387530  0.53974025  0.39344967  1
  O2-  O269  1  0.41794570  0.53856235  0.73493183  1
  O2-  O270  1  0.91612778  0.04178603  0.05898515  1
  O2-  O271  1  0.91303575  0.04027183  0.40542439  1
  O2-  O272  1  0.91957952  0.04848396  0.72741990  1
  O2-  O273  1  0.91660367  0.55032147  0.06409538  1
  O2-  O274  1  0.91460681  0.54454142  0.39387336  1
  O2-  O275  1  0.91820722  0.54660700  0.73483406  1
  O2-  O276  1  0.29069264  0.16723996  0.06963312  1
  O2-  O277  1  0.29724724  0.16884181  0.39466325  1
  O2-  O278  1  0.29120937  0.16422593  0.73660054  1
  O2-  O279  1  0.29683441  0.67371951  0.06713671  1
  O2-  O280  1  0.29535747  0.66202381  0.39607772  1
  O2-  O281  1  0.30255870  0.67364256  0.73268989  1
  O2-  O282  1  0.79914974  0.16485545  0.06096094  1
  O2-  O283  1  0.78731510  0.16878172  0.40155157  1
  O2-  O284  1  0.79840539  0.16496304  0.73225952  1
  O2-  O285  1  0.79443344  0.66497186  0.06748801  1
  O2-  O286  1  0.79438630  0.66428929  0.39348627  1
  O2-  O287  1  0.79149375  0.66975295  0.73242676  1
