# generated using pymatgen
data_Ca2Al2SiO7
_symmetry_space_group_name_H-M   'P 1'
_cell_length_a   15.45275974
_cell_length_b   15.45300090
_cell_length_c   15.28022324
_cell_angle_alpha   90.00477840
_cell_angle_beta   89.99468054
_cell_angle_gamma   90.01085815
_symmetry_Int_Tables_number   1
_chemical_formula_structural   Ca2Al2SiO7
_chemical_formula_sum   'Ca48 Al48 Si24 O168'
_cell_volume   3648.78748667
_cell_formula_units_Z   24
loop_
 _symmetry_equiv_pos_site_id
 _symmetry_equiv_pos_as_xyz
  1  'x, y, z'
loop_
 _atom_type_symbol
 _atom_type_oxidation_number
  Ca2+  2.0
  Al0+  0.0
  Si0+  0.0
  O2-  -2.0
loop_
 _atom_site_type_symbol
 _atom_site_label
 _atom_site_symmetry_multiplicity
 _atom_site_fract_x
 _atom_site_fract_y
 _atom_site_fract_z
 _atom_site_occupancy
  Ca2+  Ca0  1  0.17650040  0.07328258  0.17917393  1
  Ca2+  Ca1  1  0.17557772  0.07441660  0.50477831  1
  Ca2+  Ca2  1  0.17010073  0.07956226  0.83118707  1
  Ca2+  Ca3  1  0.16849055  0.58290202  0.17031051  1
  Ca2+  Ca4  1  0.18378618  0.58676173  0.50374630  1
  Ca2+  Ca5  1  0.16938620  0.58111690  0.83709193  1
  Ca2+  Ca6  1  0.66526182  0.07407213  0.17013753  1
  Ca2+  Ca7  1  0.65693470  0.07649593  0.49742343  1
  Ca2+  Ca8  1  0.67549611  0.07704276  0.84356241  1
  Ca2+  Ca9  1  0.66867213  0.58017514  0.17422056  1
  Ca2+  Ca10  1  0.67248725  0.58518548  0.50891918  1
  Ca2+  Ca11  1  0.66578514  0.57541018  0.83018719  1
  Ca2+  Ca12  1  0.07686500  0.33912547  0.16246807  1
  Ca2+  Ca13  1  0.06993154  0.33972265  0.49628867  1
  Ca2+  Ca14  1  0.07868467  0.33418649  0.82634800  1
  Ca2+  Ca15  1  0.08786367  0.82591929  0.16068999  1
  Ca2+  Ca16  1  0.08095498  0.84106925  0.49957204  1
  Ca2+  Ca17  1  0.07789468  0.83000037  0.82630478  1
  Ca2+  Ca18  1  0.58558674  0.32858694  0.16496639  1
  Ca2+  Ca19  1  0.58106704  0.32964471  0.49780281  1
  Ca2+  Ca20  1  0.58265344  0.33717988  0.82465691  1
  Ca2+  Ca21  1  0.57649144  0.83592897  0.16581677  1
  Ca2+  Ca22  1  0.58014775  0.82124140  0.48910267  1
  Ca2+  Ca23  1  0.58186708  0.82916414  0.82965964  1
  Ca2+  Ca24  1  0.32466609  0.42380204  0.17210621  1
  Ca2+  Ca25  1  0.34240560  0.42645517  0.50644049  1
  Ca2+  Ca26  1  0.33518503  0.42403467  0.83505292  1
  Ca2+  Ca27  1  0.33241679  0.91316631  0.17912356  1
  Ca2+  Ca28  1  0.32907610  0.92158319  0.50278789  1
  Ca2+  Ca29  1  0.33429688  0.91813076  0.83350486  1
  Ca2+  Ca30  1  0.82925569  0.42177671  0.17283264  1
  Ca2+  Ca31  1  0.83110857  0.42522520  0.50662544  1
  Ca2+  Ca32  1  0.82345326  0.41556793  0.83477933  1
  Ca2+  Ca33  1  0.82118808  0.91852142  0.17117267  1
  Ca2+  Ca34  1  0.82605366  0.91080083  0.50475449  1
  Ca2+  Ca35  1  0.82966407  0.91899770  0.83946341  1
  Ca2+  Ca36  1  0.42415884  0.15618857  0.16804582  1
  Ca2+  Ca37  1  0.41427889  0.16847101  0.49570742  1
  Ca2+  Ca38  1  0.41729547  0.17465381  0.82414120  1
  Ca2+  Ca39  1  0.41506313  0.67748255  0.16660420  1
  Ca2+  Ca40  1  0.42744118  0.66289049  0.49217775  1
  Ca2+  Ca41  1  0.42150182  0.67024184  0.82614891  1
  Ca2+  Ca42  1  0.91341877  0.17044242  0.16426356  1
  Ca2+  Ca43  1  0.91289099  0.18214189  0.49438587  1
  Ca2+  Ca44  1  0.91587388  0.16986449  0.82542959  1
  Ca2+  Ca45  1  0.92178857  0.66434051  0.16361010  1
  Ca2+  Ca46  1  0.91204041  0.66792156  0.49738170  1
  Ca2+  Ca47  1  0.92093566  0.66768836  0.82549860  1
  Al0+  Al48  1  0.00201659  0.00175421  0.00398106  1
  Al0+  Al49  1  -0.00127338  0.00216113  0.33514137  1
  Al0+  Al50  1  0.00033287  -0.00135986  0.66539906  1
  Al0+  Al51  1  0.00102646  0.49943134  -0.00287251  1
  Al0+  Al52  1  -0.00251707  0.50074784  0.33196224  1
  Al0+  Al53  1  0.00086688  0.50174209  0.66454517  1
  Al0+  Al54  1  0.50083114  0.00087028  -0.00462206  1
  Al0+  Al55  1  0.50020643  0.00065621  0.33470452  1
  Al0+  Al56  1  0.49923237  -0.00025301  0.67231012  1
  Al0+  Al57  1  0.50012388  0.50089409  0.00611815  1
  Al0+  Al58  1  0.50042570  0.49769745  0.32963852  1
  Al0+  Al59  1  0.50069633  0.49933999  0.66702314  1
  Al0+  Al60  1  0.24905307  0.25135125  0.00464961  1
  Al0+  Al61  1  0.24681836  0.24990512  0.33626708  1
  Al0+  Al62  1  0.25104941  0.24904288  0.66415419  1
  Al0+  Al63  1  0.25124587  0.75080109  -0.01103194  1
  Al0+  Al64  1  0.24872811  0.74797763  0.33917871  1
  Al0+  Al65  1  0.24964669  0.75041074  0.67542305  1
  Al0+  Al66  1  0.75024681  0.25098984  0.00683878  1
  Al0+  Al67  1  0.74879674  0.25064620  0.32286719  1
  Al0+  Al68  1  0.74993524  0.24875210  0.66425206  1
  Al0+  Al69  1  0.74915440  0.74980973  0.00307500  1
  Al0+  Al70  1  0.75068390  0.74943215  0.33488842  1
  Al0+  Al71  1  0.75142198  0.74883319  0.66520240  1
  Al0+  Al72  1  0.67755240  0.92793893  0.01507512  1
  Al0+  Al73  1  0.42876413  0.81874453  0.32229543  1
  Al0+  Al74  1  0.32232656  0.07216880  0.68448333  1
  Al0+  Al75  1  0.68043793  0.42757224  0.67917383  1
  Al0+  Al76  1  0.56814905  0.17968255  0.31867401  1
  Al0+  Al77  1  0.57395805  0.67669551  0.31659010  1
  Al0+  Al78  1  0.43065808  0.82209787  0.98396230  1
  Al0+  Al79  1  0.17746751  0.92956355  0.68546444  1
  Al0+  Al80  1  0.32259598  0.07181908  0.34828035  1
  Al0+  Al81  1  0.82363312  0.07146877  0.01567568  1
  Al0+  Al82  1  0.93005886  0.82041850  0.65323930  1
  Al0+  Al83  1  0.93010397  0.32205027  0.31633801  1
  Al0+  Al84  1  0.67763447  0.43004252  0.01581742  1
  Al0+  Al85  1  0.92857305  0.32115559  0.65376497  1
  Al0+  Al86  1  0.32298017  0.56997796  0.68125604  1
  Al0+  Al87  1  0.32114210  0.56869989  0.34553363  1
  Al0+  Al88  1  0.42939742  0.32049342  0.65442884  1
  Al0+  Al89  1  0.56925673  0.68030595  0.65425627  1
  Al0+  Al90  1  0.82276262  0.57257974  0.68306447  1
  Al0+  Al91  1  0.17882852  0.42947083  0.01270736  1
  Al0+  Al92  1  0.68000271  0.92994195  0.34837896  1
  Al0+  Al93  1  0.17691915  0.92647013  0.34808367  1
  Al0+  Al94  1  0.07019010  0.67843036  0.98531842  1
  Al0+  Al95  1  0.82026053  0.57015388  0.34668903  1
  Si0+  Si96  1  0.07301427  0.17866069  0.98530477  1
  Si0+  Si97  1  0.67846470  0.42609029  0.34946757  1
  Si0+  Si98  1  0.07143172  0.17782806  0.31531118  1
  Si0+  Si99  1  0.42799625  0.32142058  0.98712032  1
  Si0+  Si100  1  0.07209706  0.17742857  0.64876697  1
  Si0+  Si101  1  0.92791946  0.82308652  0.98609961  1
  Si0+  Si102  1  0.82024836  0.07075615  0.67816366  1
  Si0+  Si103  1  0.32098747  0.57418654  0.01673919  1
  Si0+  Si104  1  0.82295076  0.57112499  0.01567265  1
  Si0+  Si105  1  0.06986365  0.68062267  0.32014474  1
  Si0+  Si106  1  0.57136002  0.18125703  0.98380974  1
  Si0+  Si107  1  0.18103170  0.92847454  0.01396532  1
  Si0+  Si108  1  0.42420479  0.32282901  0.31452573  1
  Si0+  Si109  1  0.92920437  0.31947225  0.98381047  1
  Si0+  Si110  1  0.07408395  0.67793722  0.64815702  1
  Si0+  Si111  1  0.82094865  0.07393424  0.35088072  1
  Si0+  Si112  1  0.67931813  0.92745653  0.68079400  1
  Si0+  Si113  1  0.57273104  0.17552341  0.65173145  1
  Si0+  Si114  1  0.17764393  0.42820145  0.68079417  1
  Si0+  Si115  1  0.92806827  0.82366758  0.31775314  1
  Si0+  Si116  1  0.17606389  0.42854873  0.35032193  1
  Si0+  Si117  1  0.57327886  0.67579063  0.98290022  1
  Si0+  Si118  1  0.32029304  0.07230589  0.01433575  1
  Si0+  Si119  1  0.42703179  0.82329284  0.64985879  1
  O2-  O120  1  0.25299090  -0.00211835  0.05657669  1
  O2-  O121  1  0.25020677  -0.00132632  0.39545239  1
  O2-  O122  1  0.25181862  -0.00065467  0.73580599  1
  O2-  O123  1  0.25150107  0.50553568  0.06002502  1
  O2-  O124  1  0.25042227  0.49038860  0.39400872  1
  O2-  O125  1  0.24689793  0.49537062  0.72643758  1
  O2-  O126  1  0.75232787  -0.00191493  0.06406041  1
  O2-  O127  1  0.75536597  0.00380216  0.39699281  1
  O2-  O128  1  0.74937641  0.00037785  0.72153800  1
  O2-  O129  1  0.75115389  0.50651878  0.06086383  1
  O2-  O130  1  0.74209385  0.49903279  0.39301601  1
  O2-  O131  1  0.75335739  0.49754431  0.73156957  1
  O2-  O132  1  0.00479056  0.24737226  0.26877611  1
  O2-  O133  1  0.00508165  0.24851962  0.60569434  1
  O2-  O134  1  -0.00053079  0.24700290  0.94218826  1
  O2-  O135  1  0.00165304  0.75444692  0.27669136  1
  O2-  O136  1  0.00485728  0.74642813  0.60465022  1
  O2-  O137  1  -0.00593965  0.75284095  0.94062515  1
  O2-  O138  1  0.49063495  0.25169938  0.27038340  1
  O2-  O139  1  0.50226626  0.24314843  0.60928554  1
  O2-  O140  1  0.50121454  0.25350684  0.94256848  1
  O2-  O141  1  0.50086303  0.74875760  0.26824407  1
  O2-  O142  1  0.49443121  0.75412615  0.60606486  1
  O2-  O143  1  0.50643742  0.74688598  0.93952198  1
  O2-  O144  1  0.07459311  0.17948035  0.09004542  1
  O2-  O145  1  0.06945166  0.17860905  0.42060124  1
  O2-  O146  1  0.07003787  0.17774262  0.75523243  1
  O2-  O147  1  0.07087630  0.68020354  0.09913503  1
  O2-  O148  1  0.06889974  0.67859623  0.42472783  1
  O2-  O149  1  0.07214582  0.67752638  0.75406836  1
  O2-  O150  1  0.56895716  0.17953513  0.08876667  1
  O2-  O151  1  0.56988256  0.18243679  0.43179283  1
  O2-  O152  1  0.57479341  0.17580625  0.75768101  1
  O2-  O153  1  0.57206981  0.67415624  0.08813625  1
  O2-  O154  1  0.57388036  0.67731299  0.43025442  1
  O2-  O155  1  0.56860563  0.68218873  0.76793871  1
  O2-  O156  1  0.17515455  0.43146159  0.24426140  1
  O2-  O157  1  0.17669509  0.43063050  0.57527188  1
  O2-  O158  1  0.18031600  0.42730444  0.89981646  1
  O2-  O159  1  0.17733388  0.92609463  0.23340392  1
  O2-  O160  1  0.17659095  0.93260910  0.57227622  1
  O2-  O161  1  0.17851726  0.93172306  0.90937353  1
  O2-  O162  1  0.68160502  0.42645494  0.24338169  1
  O2-  O163  1  0.68138848  0.42605292  0.56594655  1
  O2-  O164  1  0.67839740  0.42751885  0.90298594  1
  O2-  O165  1  0.68095855  0.93140368  0.23539065  1
  O2-  O166  1  0.67911965  0.92829772  0.57579698  1
  O2-  O167  1  0.67972300  0.93060396  0.90069901  1
  O2-  O168  1  0.42696080  0.31870692  0.09196696  1
  O2-  O169  1  0.42673936  0.32458903  0.41997787  1
  O2-  O170  1  0.43051165  0.32022548  0.76844608  1
  O2-  O171  1  0.42639737  0.82169393  0.09684079  1
  O2-  O172  1  0.42969210  0.81695638  0.43563072  1
  O2-  O173  1  0.43138225  0.82330633  0.75591181  1
  O2-  O174  1  0.93171850  0.32039283  0.08886853  1
  O2-  O175  1  0.93077327  0.32189836  0.42953069  1
  O2-  O176  1  0.92890671  0.31663147  0.76739214  1
  O2-  O177  1  0.93037200  0.82257846  0.09181970  1
  O2-  O178  1  0.92768596  0.82302514  0.42273108  1
  O2-  O179  1  0.93034467  0.82143969  0.76680346  1
  O2-  O180  1  0.32026366  0.06994358  0.23363065  1
  O2-  O181  1  0.32180946  0.07186956  0.57150502  1
  O2-  O182  1  0.31726056  0.07546246  0.90958373  1
  O2-  O183  1  0.31519636  0.56971752  0.23208460  1
  O2-  O184  1  0.32295098  0.56874384  0.56809493  1
  O2-  O185  1  0.32210747  0.57095703  0.91108609  1
  O2-  O186  1  0.82085587  0.07117378  0.24524099  1
  O2-  O187  1  0.81906421  0.07192182  0.57339526  1
  O2-  O188  1  0.82260414  0.07227836  0.90118121  1
  O2-  O189  1  0.82405054  0.56732885  0.23310601  1
  O2-  O190  1  0.82079897  0.57206187  0.56958778  1
  O2-  O191  1  0.82428575  0.56899161  0.91044389  1
  O2-  O192  1  0.04435075  0.08446237  0.26797879  1
  O2-  O193  1  0.04359459  0.08521720  0.60288902  1
  O2-  O194  1  0.04744726  0.08587675  0.93766232  1
  O2-  O195  1  0.03885322  0.59041164  0.27044381  1
  O2-  O196  1  0.05117020  0.58434297  0.60125484  1
  O2-  O197  1  0.04068819  0.58184336  0.92993315  1
  O2-  O198  1  0.53844765  0.08328557  0.26299034  1
  O2-  O199  1  0.54687484  0.08119388  0.60689627  1
  O2-  O200  1  0.54383342  0.09050955  0.93424795  1
  O2-  O201  1  0.54686546  0.57731762  0.26451840  1
  O2-  O202  1  0.53941642  0.58376266  0.60078481  1
  O2-  O203  1  0.54414515  0.58230676  0.93737155  1
  O2-  O204  1  0.16609098  0.20130489  0.26940494  1
  O2-  O205  1  0.16607628  0.20044564  0.60329227  1
  O2-  O206  1  0.16372929  0.21003400  0.93709294  1
  O2-  O207  1  0.16170562  0.70617399  0.27160370  1
  O2-  O208  1  0.16874646  0.70538508  0.60522796  1
  O2-  O209  1  0.16503458  0.70884467  0.92848269  1
  O2-  O210  1  0.66268024  0.21110749  0.26003608  1
  O2-  O211  1  0.66496814  0.20075780  0.60308535  1
  O2-  O212  1  0.66473257  0.20888407  0.93923117  1
  O2-  O213  1  0.67258544  0.70635665  0.26443260  1
  O2-  O214  1  0.66584578  0.71107464  0.60101554  1
  O2-  O215  1  0.66837398  0.69927050  0.93813472  1
  O2-  O216  1  0.08202435  0.46002672  0.06682707  1
  O2-  O217  1  0.08464890  0.46066838  0.39608244  1
  O2-  O218  1  0.08495821  0.45491557  0.72860883  1
  O2-  O219  1  0.08971743  0.95543868  0.06295379  1
  O2-  O220  1  0.07850533  0.95771183  0.40024002  1
  O2-  O221  1  0.07917409  0.96160731  0.73850449  1
  O2-  O222  1  0.58080945  0.45697735  0.07188509  1
  O2-  O223  1  0.58174576  0.44401234  0.39091028  1
  O2-  O224  1  0.58375144  0.45854244  0.73403067  1
  O2-  O225  1  0.57995940  0.96230650  0.06624098  1
  O2-  O226  1  0.58481055  0.96231365  0.40286663  1
  O2-  O227  1  0.58786048  0.95335210  0.72973468  1
  O2-  O228  1  0.20996412  0.33454567  0.07082644  1
  O2-  O229  1  0.19206453  0.33235722  0.39411153  1
  O2-  O230  1  0.19984865  0.33305380  0.72474078  1
  O2-  O231  1  0.20879684  0.83508678  0.05763304  1
  O2-  O232  1  0.20172132  0.82893061  0.40285899  1
  O2-  O233  1  0.20208405  0.83082871  0.73918503  1
  O2-  O234  1  0.71003298  0.33490067  0.07110434  1
  O2-  O235  1  0.70886800  0.33307371  0.39306921  1
  O2-  O236  1  0.70792222  0.32817560  0.73298711  1
  O2-  O237  1  0.70178918  0.82858368  0.06812940  1
  O2-  O238  1  0.71231292  0.83388954  0.40178664  1
  O2-  O239  1  0.71052049  0.83783766  0.72925289  1
  O2-  O240  1  0.45196587  0.41423196  0.26488359  1
  O2-  O241  1  0.46312568  0.41478618  0.59881728  1
  O2-  O242  1  0.45361347  0.41536708  0.94253672  1
  O2-  O243  1  0.45561633  0.91789469  0.27001651  1
  O2-  O244  1  0.45282985  0.91811267  0.60683904  1
  O2-  O245  1  0.46093248  0.91872698  0.92815692  1
  O2-  O246  1  0.96334471  0.41776242  0.26105563  1
  O2-  O247  1  0.95910432  0.41795722  0.59972066  1
  O2-  O248  1  0.95840512  0.41031324  0.93591630  1
  O2-  O249  1  0.95200118  0.91722036  0.27132839  1
  O2-  O250  1  0.95905384  0.91716933  0.59767848  1
  O2-  O251  1  0.95595614  0.91701369  0.94092048  1
  O2-  O252  1  0.32770179  0.30117536  0.27189554  1
  O2-  O253  1  0.33249907  0.29345533  0.59864639  1
  O2-  O254  1  0.33656695  0.29113966  0.93980640  1
  O2-  O255  1  0.32953847  0.78818488  0.26958789  1
  O2-  O256  1  0.33069767  0.80003562  0.61015645  1
  O2-  O257  1  0.33595048  0.79150038  0.92594396  1
  O2-  O258  1  0.83492170  0.29099146  0.26007257  1
  O2-  O259  1  0.83393878  0.28700277  0.59779401  1
  O2-  O260  1  0.83620656  0.29145308  0.93901031  1
  O2-  O261  1  0.83828673  0.79239787  0.26907759  1
  O2-  O262  1  0.83429780  0.78968866  0.59786942  1
  O2-  O263  1  0.83261096  0.80101323  0.94152522  1
  O2-  O264  1  0.41445441  0.04730791  0.05701406  1
  O2-  O265  1  0.42052614  0.04685264  0.40164409  1
  O2-  O266  1  0.42103656  0.04557619  0.73974305  1
  O2-  O267  1  0.41351006  0.54860115  0.06420530  1
  O2-  O268  1  0.41919066  0.53902006  0.39734917  1
  O2-  O269  1  0.41691157  0.53590346  0.73764091  1
  O2-  O270  1  0.92299098  0.04726138  0.06967760  1
  O2-  O271  1  0.91582406  0.05342542  0.39597007  1
  O2-  O272  1  0.91186815  0.04365755  0.72610762  1
  O2-  O273  1  0.91538564  0.54121136  0.06193334  1
  O2-  O274  1  0.91573712  0.53657538  0.40123309  1
  O2-  O275  1  0.92326281  0.54705687  0.73305236  1
  O2-  O276  1  0.29030819  0.16191969  0.06447065  1
  O2-  O277  1  0.29321854  0.17078563  0.40060216  1
  O2-  O278  1  0.29197912  0.17124685  0.73660077  1
  O2-  O279  1  0.29250649  0.66833930  0.05918354  1
  O2-  O280  1  0.28702233  0.66178217  0.40294445  1
  O2-  O281  1  0.29362459  0.66576713  0.73713293  1
  O2-  O282  1  0.79350007  0.16835501  0.06980033  1
  O2-  O283  1  0.79182006  0.16837070  0.39266014  1
  O2-  O284  1  0.79275894  0.16150206  0.72816681  1
  O2-  O285  1  0.80320205  0.66656198  0.06078913  1
  O2-  O286  1  0.79530187  0.66790868  0.40009682  1
  O2-  O287  1  0.79216552  0.67011986  0.73673180  1
