# generated using pymatgen
data_Ca2Al2SiO7
_symmetry_space_group_name_H-M   'P 1'
_cell_length_a   15.45332320
_cell_length_b   15.45315444
_cell_length_c   15.28014399
_cell_angle_alpha   89.99715480
_cell_angle_beta   90.00770047
_cell_angle_gamma   90.00505959
_symmetry_Int_Tables_number   1
_chemical_formula_structural   Ca2Al2SiO7
_chemical_formula_sum   'Ca48 Al48 Si24 O168'
_cell_volume   3648.93790727
_cell_formula_units_Z   24
loop_
 _symmetry_equiv_pos_site_id
 _symmetry_equiv_pos_as_xyz
  1  'x, y, z'
loop_
 _atom_type_symbol
 _atom_type_oxidation_number
  Ca2+  2.0
  Al0+  0.0
  Si0+  0.0
  O2-  -2.0
loop_
 _atom_site_type_symbol
 _atom_site_label
 _atom_site_symmetry_multiplicity
 _atom_site_fract_x
 _atom_site_fract_y
 _atom_site_fract_z
 _atom_site_occupancy
  Ca2+  Ca0  1  0.17616386  0.08042346  0.17130309  1
  Ca2+  Ca1  1  0.16240619  0.07297361  0.50712187  1
  Ca2+  Ca2  1  0.17100967  0.08192390  0.83430238  1
  Ca2+  Ca3  1  0.17308000  0.57598981  0.17535310  1
  Ca2+  Ca4  1  0.17009382  0.57296987  0.51231456  1
  Ca2+  Ca5  1  0.17413853  0.58398259  0.82854369  1
  Ca2+  Ca6  1  0.67039383  0.08953640  0.17170832  1
  Ca2+  Ca7  1  0.67122660  0.08556562  0.50307374  1
  Ca2+  Ca8  1  0.66147834  0.07080276  0.84158310  1
  Ca2+  Ca9  1  0.66576091  0.58074370  0.17023876  1
  Ca2+  Ca10  1  0.66619925  0.58335037  0.50530173  1
  Ca2+  Ca11  1  0.67459878  0.59381277  0.83774387  1
  Ca2+  Ca12  1  0.07585480  0.33939141  0.16682453  1
  Ca2+  Ca13  1  0.08169935  0.33312492  0.49687948  1
  Ca2+  Ca14  1  0.08392870  0.32656919  0.82254268  1
  Ca2+  Ca15  1  0.08243898  0.83797027  0.16663395  1
  Ca2+  Ca16  1  0.09315600  0.82764799  0.49845105  1
  Ca2+  Ca17  1  0.08040655  0.82875894  0.82128307  1
  Ca2+  Ca18  1  0.58468150  0.32353642  0.16102612  1
  Ca2+  Ca19  1  0.57834514  0.33486945  0.49226126  1
  Ca2+  Ca20  1  0.57247514  0.32721992  0.83053153  1
  Ca2+  Ca21  1  0.59282608  0.82262989  0.16108617  1
  Ca2+  Ca22  1  0.58430778  0.82461588  0.50149452  1
  Ca2+  Ca23  1  0.58487396  0.82981175  0.82522216  1
  Ca2+  Ca24  1  0.33075896  0.41293474  0.17022041  1
  Ca2+  Ca25  1  0.32578769  0.41913037  0.51065219  1
  Ca2+  Ca26  1  0.33495971  0.41286301  0.83147986  1
  Ca2+  Ca27  1  0.33229308  0.92364911  0.16899278  1
  Ca2+  Ca28  1  0.32677371  0.91343997  0.50799307  1
  Ca2+  Ca29  1  0.33128248  0.91676554  0.83422055  1
  Ca2+  Ca30  1  0.82690752  0.41956845  0.17471308  1
  Ca2+  Ca31  1  0.82698460  0.41698367  0.50145412  1
  Ca2+  Ca32  1  0.83307559  0.43004787  0.83523079  1
  Ca2+  Ca33  1  0.82590408  0.92934536  0.16605521  1
  Ca2+  Ca34  1  0.82668146  0.92271246  0.50533714  1
  Ca2+  Ca35  1  0.82006726  0.91961667  0.83925522  1
  Ca2+  Ca36  1  0.42669808  0.16949611  0.15638592  1
  Ca2+  Ca37  1  0.42284653  0.17259643  0.49757494  1
  Ca2+  Ca38  1  0.41231180  0.17376603  0.83195066  1
  Ca2+  Ca39  1  0.43021545  0.66627880  0.16228316  1
  Ca2+  Ca40  1  0.42102995  0.66752270  0.50133544  1
  Ca2+  Ca41  1  0.42927181  0.67057373  0.82087860  1
  Ca2+  Ca42  1  0.90850096  0.17024374  0.16567729  1
  Ca2+  Ca43  1  0.92038972  0.17006546  0.49274183  1
  Ca2+  Ca44  1  0.92213803  0.16299743  0.82860711  1
  Ca2+  Ca45  1  0.91721155  0.66695901  0.16032985  1
  Ca2+  Ca46  1  0.92018312  0.66221739  0.50258964  1
  Ca2+  Ca47  1  0.91795933  0.66381361  0.82486277  1
  Al0+  Al48  1  -0.00255932  -0.00068708  0.00233834  1
  Al0+  Al49  1  0.00042381  -0.00031515  0.33970721  1
  Al0+  Al50  1  0.00010727  0.00042438  0.66656821  1
  Al0+  Al51  1  0.00002858  0.50006828  0.00329220  1
  Al0+  Al52  1  0.00130315  0.50016031  0.33179236  1
  Al0+  Al53  1  -0.00139295  0.49930232  0.67015138  1
  Al0+  Al54  1  0.49717185  -0.00294975  0.00654539  1
  Al0+  Al55  1  0.50034490  -0.00053728  0.32992374  1
  Al0+  Al56  1  0.50000882  -0.00000759  0.66574824  1
  Al0+  Al57  1  0.49967140  0.50098156  -0.00816850  1
  Al0+  Al58  1  0.50052116  0.50160925  0.33173418  1
  Al0+  Al59  1  0.49987186  0.49819227  0.66260208  1
  Al0+  Al60  1  0.24780167  0.24879545  0.00294962  1
  Al0+  Al61  1  0.24938247  0.24896949  0.33762572  1
  Al0+  Al62  1  0.24876358  0.24830503  0.65924705  1
  Al0+  Al63  1  0.24968940  0.74655419  0.00290698  1
  Al0+  Al64  1  0.25140280  0.75072740  0.33291131  1
  Al0+  Al65  1  0.24948512  0.74868325  0.66791613  1
  Al0+  Al66  1  0.74989506  0.25139727  -0.00622744  1
  Al0+  Al67  1  0.75104026  0.25251219  0.33513559  1
  Al0+  Al68  1  0.75111979  0.25163047  0.66968338  1
  Al0+  Al69  1  0.75360868  0.75110502  0.00530420  1
  Al0+  Al70  1  0.75243637  0.75162643  0.32839609  1
  Al0+  Al71  1  0.75086443  0.75160033  0.66903849  1
  Al0+  Al72  1  0.67687549  0.92901088  0.01647512  1
  Al0+  Al73  1  0.32274347  0.57020873  0.68222212  1
  Al0+  Al74  1  0.57231960  0.17593248  0.98409212  1
  Al0+  Al75  1  0.57421673  0.67940223  0.65146610  1
  Al0+  Al76  1  0.67911836  0.93142002  0.67848803  1
  Al0+  Al77  1  0.57091094  0.18033692  0.32098028  1
  Al0+  Al78  1  0.42829471  0.82254299  0.65230793  1
  Al0+  Al79  1  0.81863220  0.07188363  0.34828338  1
  Al0+  Al80  1  0.81813446  0.56956870  0.67823369  1
  Al0+  Al81  1  0.17908096  0.42669494  0.68273148  1
  Al0+  Al82  1  0.06977370  0.17798848  0.65237519  1
  Al0+  Al83  1  0.06987683  0.67870554  0.65380075  1
  Al0+  Al84  1  0.82172228  0.57018325  0.01564208  1
  Al0+  Al85  1  0.42634566  0.32003448  0.98509196  1
  Al0+  Al86  1  0.17881739  0.92810949  0.68101284  1
  Al0+  Al87  1  0.42944685  0.31977813  0.65065550  1
  Al0+  Al88  1  0.18091081  0.93028506  0.34752360  1
  Al0+  Al89  1  0.82077548  0.07331641  0.01422078  1
  Al0+  Al90  1  0.93112890  0.32077039  0.31965411  1
  Al0+  Al91  1  0.31895139  0.07134346  0.01343234  1
  Al0+  Al92  1  0.57174285  0.67981850  0.31823948  1
  Al0+  Al93  1  0.67918621  0.43091232  0.34511551  1
  Al0+  Al94  1  0.17858384  0.42907010  0.34757823  1
  Al0+  Al95  1  0.57241907  0.68174623  0.98540407  1
  Si0+  Si96  1  0.82274319  0.57420195  0.34925322  1
  Si0+  Si97  1  0.32476116  0.07199494  0.35185771  1
  Si0+  Si98  1  0.07164287  0.67977851  0.31779612  1
  Si0+  Si99  1  0.07170317  0.67694643  0.98563250  1
  Si0+  Si100  1  0.92820844  0.82232221  0.64954764  1
  Si0+  Si101  1  0.67769026  0.92605617  0.35054302  1
  Si0+  Si102  1  0.42622716  0.32198879  0.31723965  1
  Si0+  Si103  1  0.07184980  0.17550220  0.31556437  1
  Si0+  Si104  1  0.92900873  0.32371451  0.98402090  1
  Si0+  Si105  1  0.42623895  0.82148267  0.31418707  1
  Si0+  Si106  1  0.67577168  0.42555776  0.68498038  1
  Si0+  Si107  1  0.17689799  0.92569844  0.01575704  1
  Si0+  Si108  1  0.93003101  0.82308765  0.31734889  1
  Si0+  Si109  1  0.17932715  0.42876244  0.01544733  1
  Si0+  Si110  1  0.92751406  0.32263081  0.65027712  1
  Si0+  Si111  1  0.32240943  0.57087457  0.01557537  1
  Si0+  Si112  1  0.32191986  0.07163665  0.68165662  1
  Si0+  Si113  1  0.57366388  0.17793725  0.65051826  1
  Si0+  Si114  1  0.82217160  0.07413769  0.68336059  1
  Si0+  Si115  1  0.42435490  0.82054930  0.98456327  1
  Si0+  Si116  1  0.06911082  0.17904410  0.98744570  1
  Si0+  Si117  1  0.93208906  0.82074251  0.98521227  1
  Si0+  Si118  1  0.67669462  0.42980059  0.01417988  1
  Si0+  Si119  1  0.32249025  0.57174736  0.34943893  1
  O2-  O120  1  0.24640575  -0.00666290  0.05939673  1
  O2-  O121  1  0.25549703  0.00388039  0.39548799  1
  O2-  O122  1  0.25496223  0.00113506  0.72682476  1
  O2-  O123  1  0.25276942  0.49780282  0.05729401  1
  O2-  O124  1  0.25535559  0.50147440  0.39278963  1
  O2-  O125  1  0.25236479  0.49660630  0.73395724  1
  O2-  O126  1  0.74188349  0.00902868  0.06483297  1
  O2-  O127  1  0.74224479  -0.00134079  0.39465436  1
  O2-  O128  1  0.75056381  0.00885750  0.72634324  1
  O2-  O129  1  0.74541172  0.49737269  0.06107799  1
  O2-  O130  1  0.75128850  0.50852680  0.39206794  1
  O2-  O131  1  0.74080786  0.49878443  0.72733744  1
  O2-  O132  1  0.00584015  0.24639798  0.27026841  1
  O2-  O133  1  -0.00545508  0.25233579  0.60648524  1
  O2-  O134  1  -0.00380203  0.24787322  0.94436910  1
  O2-  O135  1  0.00084308  0.75079041  0.27499017  1
  O2-  O136  1  -0.00147157  0.75549960  0.60446004  1
  O2-  O137  1  0.00357707  0.75015411  0.94353150  1
  O2-  O138  1  0.49410134  0.25287310  0.27327263  1
  O2-  O139  1  0.50819096  0.24874789  0.60509067  1
  O2-  O140  1  0.49802740  0.24690174  0.93570695  1
  O2-  O141  1  0.49851303  0.75608547  0.27076048  1
  O2-  O142  1  0.49935572  0.74930441  0.60229107  1
  O2-  O143  1  0.49770651  0.75724155  0.94076552  1
  O2-  O144  1  0.07052169  0.18052549  0.09251171  1
  O2-  O145  1  0.06901193  0.17473956  0.42086509  1
  O2-  O146  1  0.06797429  0.17791309  0.76646426  1
  O2-  O147  1  0.07167897  0.67687429  0.09124998  1
  O2-  O148  1  0.07133341  0.67910112  0.42247769  1
  O2-  O149  1  0.06703230  0.67981139  0.76744109  1
  O2-  O150  1  0.57272025  0.18124648  0.09795994  1
  O2-  O151  1  0.56956396  0.18199026  0.43427615  1
  O2-  O152  1  0.57260036  0.17745795  0.75585699  1
  O2-  O153  1  0.56980917  0.67994335  0.09896711  1
  O2-  O154  1  0.57212010  0.68073021  0.43070095  1
  O2-  O155  1  0.57638334  0.68422539  0.76508847  1
  O2-  O156  1  0.17833866  0.43261089  0.23353032  1
  O2-  O157  1  0.17888055  0.42906815  0.56908754  1
  O2-  O158  1  0.17638324  0.42862076  0.91104525  1
  O2-  O159  1  0.18162517  0.93127080  0.23372600  1
  O2-  O160  1  0.17918637  0.92998291  0.56795466  1
  O2-  O161  1  0.17538575  0.92470807  0.91058678  1
  O2-  O162  1  0.68087166  0.43099003  0.23175092  1
  O2-  O163  1  0.67930579  0.42156619  0.57926287  1
  O2-  O164  1  0.67933309  0.43134461  0.90873457  1
  O2-  O165  1  0.68149216  0.92429560  0.24513586  1
  O2-  O166  1  0.68227784  0.93204901  0.56510028  1
  O2-  O167  1  0.68148701  0.92694687  0.90284276  1
  O2-  O168  1  0.42516925  0.31933592  0.09903280  1
  O2-  O169  1  0.42709967  0.32128537  0.42264153  1
  O2-  O170  1  0.42846076  0.31571641  0.76369069  1
  O2-  O171  1  0.41883971  0.81505208  0.09015207  1
  O2-  O172  1  0.42234669  0.81992908  0.41923133  1
  O2-  O173  1  0.43005499  0.82347945  0.76618676  1
  O2-  O174  1  0.93136033  0.32695872  0.08923283  1
  O2-  O175  1  0.93201191  0.32046334  0.43246585  1
  O2-  O176  1  0.92796370  0.32186717  0.75632134  1
  O2-  O177  1  0.93492241  0.82121620  0.09073835  1
  O2-  O178  1  0.92836798  0.82216224  0.42208316  1
  O2-  O179  1  0.92936290  0.82146576  0.75549592  1
  O2-  O180  1  0.32260469  0.07180008  0.24596242  1
  O2-  O181  1  0.32143386  0.07083234  0.57600916  1
  O2-  O182  1  0.31352536  0.07322571  0.90058265  1
  O2-  O183  1  0.32016823  0.57183282  0.24291651  1
  O2-  O184  1  0.31969047  0.56889161  0.56827134  1
  O2-  O185  1  0.31989233  0.57534946  0.91144864  1
  O2-  O186  1  0.81857687  0.07075878  0.23529853  1
  O2-  O187  1  0.82184422  0.07436900  0.57756881  1
  O2-  O188  1  0.82873367  0.06620256  0.90127115  1
  O2-  O189  1  0.82407490  0.57278450  0.24343518  1
  O2-  O190  1  0.81921930  0.56740656  0.56498451  1
  O2-  O191  1  0.82529056  0.56928639  0.90281941  1
  O2-  O192  1  0.04476589  0.08203389  0.27001676  1
  O2-  O193  1  0.03822252  0.08183218  0.59727870  1
  O2-  O194  1  0.04329078  0.08593120  0.94079395  1
  O2-  O195  1  0.04356899  0.58893648  0.26813912  1
  O2-  O196  1  0.03555853  0.58267543  0.60030699  1
  O2-  O197  1  0.04130840  0.58596546  0.93892839  1
  O2-  O198  1  0.54478811  0.08199053  0.26698840  1
  O2-  O199  1  0.54663051  0.08570845  0.60295496  1
  O2-  O200  1  0.54345592  0.07485457  0.93748883  1
  O2-  O201  1  0.53920409  0.58378437  0.26258036  1
  O2-  O202  1  0.54999382  0.57916443  0.60093352  1
  O2-  O203  1  0.54280015  0.58580414  0.93057752  1
  O2-  O204  1  0.16774012  0.19931404  0.27258082  1
  O2-  O205  1  0.16467506  0.20588659  0.59480413  1
  O2-  O206  1  0.15906769  0.20948594  0.93878700  1
  O2-  O207  1  0.16349979  0.70789655  0.26927496  1
  O2-  O208  1  0.16622087  0.70730640  0.59933266  1
  O2-  O209  1  0.16483330  0.70196258  0.93965340  1
  O2-  O210  1  0.66642698  0.21471779  0.26766703  1
  O2-  O211  1  0.66940612  0.20206804  0.60730835  1
  O2-  O212  1  0.67025849  0.20367999  0.92888841  1
  O2-  O213  1  0.66966289  0.70898401  0.26418878  1
  O2-  O214  1  0.67149887  0.71185360  0.59782401  1
  O2-  O215  1  0.67166961  0.71208237  0.93678655  1
  O2-  O216  1  0.08944948  0.46103665  0.06493197  1
  O2-  O217  1  0.08285108  0.46303597  0.40069426  1
  O2-  O218  1  0.08079451  0.45528890  0.73551511  1
  O2-  O219  1  0.08429923  0.95352107  0.06286364  1
  O2-  O220  1  0.08470436  0.95820422  0.40298021  1
  O2-  O221  1  0.08194244  0.96014946  0.73473380  1
  O2-  O222  1  0.58252223  0.45544002  0.05909456  1
  O2-  O223  1  0.58167182  0.45925689  0.39874810  1
  O2-  O224  1  0.58042212  0.44539648  0.72768913  1
  O2-  O225  1  0.57550744  0.94278560  0.06824818  1
  O2-  O226  1  0.58120512  0.94612363  0.39205701  1
  O2-  O227  1  0.58209367  0.95955043  0.73320673  1
  O2-  O228  1  0.20396834  0.33725094  0.06493048  1
  O2-  O229  1  0.20321088  0.33041980  0.40001132  1
  O2-  O230  1  0.20672180  0.32621880  0.73188408  1
  O2-  O231  1  0.20086993  0.83148371  0.06302910  1
  O2-  O232  1  0.21056276  0.83209788  0.39914459  1
  O2-  O233  1  0.20579370  0.83138182  0.73561700  1
  O2-  O234  1  0.70337226  0.33549103  0.05812059  1
  O2-  O235  1  0.71331789  0.33752973  0.40240565  1
  O2-  O236  1  0.70638082  0.33435110  0.73448709  1
  O2-  O237  1  0.71809123  0.83573957  0.07222866  1
  O2-  O238  1  0.71041427  0.83429206  0.39645301  1
  O2-  O239  1  0.71392663  0.83729383  0.73426350  1
  O2-  O240  1  0.45001010  0.41640661  0.27203534  1
  O2-  O241  1  0.45644898  0.41649216  0.59541057  1
  O2-  O242  1  0.45334986  0.41803140  0.93085009  1
  O2-  O243  1  0.44815706  0.91664647  0.26941577  1
  O2-  O244  1  0.45592264  0.92078249  0.59766317  1
  O2-  O245  1  0.44203470  0.91714437  0.94300443  1
  O2-  O246  1  0.96297685  0.41723305  0.26348169  1
  O2-  O247  1  0.95407745  0.41511793  0.60378734  1
  O2-  O248  1  0.96338838  0.41359296  0.93623658  1
  O2-  O249  1  0.96222519  0.91370094  0.26983629  1
  O2-  O250  1  0.95123918  0.91668755  0.60439886  1
  O2-  O251  1  0.95906199  0.91218469  0.93633070  1
  O2-  O252  1  0.33128578  0.29680481  0.27243702  1
  O2-  O253  1  0.33474581  0.28645923  0.59468196  1
  O2-  O254  1  0.32693806  0.29010741  0.93376311  1
  O2-  O255  1  0.33425998  0.79258014  0.26477248  1
  O2-  O256  1  0.32971330  0.79346834  0.60022231  1
  O2-  O257  1  0.33143135  0.79099967  0.93777735  1
  O2-  O258  1  0.83505683  0.29011842  0.26495037  1
  O2-  O259  1  0.83300272  0.29808112  0.60470148  1
  O2-  O260  1  0.83683793  0.30277295  0.93506400  1
  O2-  O261  1  0.83966966  0.79628422  0.26632380  1
  O2-  O262  1  0.83650290  0.79387937  0.60214888  1
  O2-  O263  1  0.84102431  0.79128974  0.93862029  1
  O2-  O264  1  0.41405968  0.04249484  0.07118812  1
  O2-  O265  1  0.41876388  0.04630127  0.39679536  1
  O2-  O266  1  0.41584377  0.04925117  0.72810204  1
  O2-  O267  1  0.41491622  0.54358182  0.06184653  1
  O2-  O268  1  0.41658985  0.54915104  0.39415561  1
  O2-  O269  1  0.42252721  0.54336672  0.73300710  1
  O2-  O270  1  0.91683365  0.03850430  0.07061720  1
  O2-  O271  1  0.91450016  0.03906328  0.40234527  1
  O2-  O272  1  0.91466982  0.04518105  0.72926035  1
  O2-  O273  1  0.91795320  0.53778887  0.07114304  1
  O2-  O274  1  0.91599817  0.54590730  0.39401551  1
  O2-  O275  1  0.91270943  0.53649080  0.73562751  1
  O2-  O276  1  0.28333811  0.16501106  0.07140507  1
  O2-  O277  1  0.30036622  0.16588555  0.39754491  1
  O2-  O278  1  0.29068614  0.16355115  0.72701398  1
  O2-  O279  1  0.29104453  0.66009806  0.06760970  1
  O2-  O280  1  0.29514668  0.66508724  0.39385082  1
  O2-  O281  1  0.29085209  0.66692655  0.73647948  1
  O2-  O282  1  0.80025900  0.17605024  0.06207839  1
  O2-  O283  1  0.78981386  0.16814119  0.40312937  1
  O2-  O284  1  0.80234542  0.16916970  0.72939165  1
  O2-  O285  1  0.79586153  0.66722347  0.07031077  1
  O2-  O286  1  0.80136329  0.66981441  0.39271363  1
  O2-  O287  1  0.79294781  0.66726419  0.73332018  1
