# generated using pymatgen
data_Ca2Al2SiO7
_symmetry_space_group_name_H-M   'P 1'
_cell_length_a   15.45540842
_cell_length_b   15.45706101
_cell_length_c   15.28236828
_cell_angle_alpha   90.00204374
_cell_angle_beta   89.99638528
_cell_angle_gamma   89.99497313
_symmetry_Int_Tables_number   1
_chemical_formula_structural   Ca2Al2SiO7
_chemical_formula_sum   'Ca48 Al48 Si24 O168'
_cell_volume   3650.88426277
_cell_formula_units_Z   24
loop_
 _symmetry_equiv_pos_site_id
 _symmetry_equiv_pos_as_xyz
  1  'x, y, z'
loop_
 _atom_type_symbol
 _atom_type_oxidation_number
  Ca2+  2.0
  Al0+  0.0
  Si0+  0.0
  O2-  -2.0
loop_
 _atom_site_type_symbol
 _atom_site_label
 _atom_site_symmetry_multiplicity
 _atom_site_fract_x
 _atom_site_fract_y
 _atom_site_fract_z
 _atom_site_occupancy
  Ca2+  Ca0  1  0.16828356  0.08161403  0.17238978  1
  Ca2+  Ca1  1  0.16579654  0.08654215  0.50407006  1
  Ca2+  Ca2  1  0.15571430  0.07404440  0.83185804  1
  Ca2+  Ca3  1  0.17825732  0.57302105  0.17076483  1
  Ca2+  Ca4  1  0.17536931  0.57574784  0.50623559  1
  Ca2+  Ca5  1  0.17094653  0.56962605  0.84341475  1
  Ca2+  Ca6  1  0.67177817  0.08603697  0.17854233  1
  Ca2+  Ca7  1  0.67978063  0.09409605  0.50331997  1
  Ca2+  Ca8  1  0.67629288  0.08706506  0.83467023  1
  Ca2+  Ca9  1  0.66670072  0.58741388  0.16772650  1
  Ca2+  Ca10  1  0.66242843  0.57980118  0.50634083  1
  Ca2+  Ca11  1  0.66890448  0.58256173  0.83530311  1
  Ca2+  Ca12  1  0.08376146  0.32769707  0.15999494  1
  Ca2+  Ca13  1  0.08379654  0.32426240  0.49992380  1
  Ca2+  Ca14  1  0.07658782  0.33584641  0.82415317  1
  Ca2+  Ca15  1  0.07863063  0.83718190  0.16439498  1
  Ca2+  Ca16  1  0.07391498  0.84429110  0.50016537  1
  Ca2+  Ca17  1  0.08337058  0.83375399  0.82527670  1
  Ca2+  Ca18  1  0.57225860  0.32901543  0.16688382  1
  Ca2+  Ca19  1  0.57398888  0.33401123  0.49555726  1
  Ca2+  Ca20  1  0.57135216  0.34299098  0.82797687  1
  Ca2+  Ca21  1  0.58127284  0.82230972  0.16210940  1
  Ca2+  Ca22  1  0.58749938  0.81974451  0.49557093  1
  Ca2+  Ca23  1  0.58239902  0.82022278  0.82870420  1
  Ca2+  Ca24  1  0.34059078  0.42014577  0.16797215  1
  Ca2+  Ca25  1  0.33490300  0.41541144  0.50432042  1
  Ca2+  Ca26  1  0.32461339  0.41259853  0.83771194  1
  Ca2+  Ca27  1  0.32669710  0.92231043  0.17358765  1
  Ca2+  Ca28  1  0.32983590  0.92804061  0.50615003  1
  Ca2+  Ca29  1  0.31974352  0.91684000  0.83923658  1
  Ca2+  Ca30  1  0.83645749  0.42129860  0.16675807  1
  Ca2+  Ca31  1  0.82346483  0.41375054  0.51091592  1
  Ca2+  Ca32  1  0.83018542  0.41581782  0.84009032  1
  Ca2+  Ca33  1  0.83175197  0.92234768  0.17670016  1
  Ca2+  Ca34  1  0.84022579  0.92505482  0.50378039  1
  Ca2+  Ca35  1  0.83932097  0.92244529  0.83094538  1
  Ca2+  Ca36  1  0.41149768  0.17535105  0.16544125  1
  Ca2+  Ca37  1  0.41677042  0.17813233  0.48988308  1
  Ca2+  Ca38  1  0.41519793  0.17930957  0.82796521  1
  Ca2+  Ca39  1  0.42409240  0.65426914  0.16275181  1
  Ca2+  Ca40  1  0.42638784  0.66108803  0.49414812  1
  Ca2+  Ca41  1  0.42636918  0.65415973  0.83234645  1
  Ca2+  Ca42  1  0.92044610  0.17061381  0.16566193  1
  Ca2+  Ca43  1  0.92564664  0.16200080  0.49780183  1
  Ca2+  Ca44  1  0.92123457  0.17798287  0.82429956  1
  Ca2+  Ca45  1  0.91455145  0.67205089  0.16121433  1
  Ca2+  Ca46  1  0.91629521  0.68114245  0.49551840  1
  Ca2+  Ca47  1  0.91574915  0.67104543  0.82806738  1
  Al0+  Al48  1  -0.00129002  0.00030458  0.00491609  1
  Al0+  Al49  1  -0.00240613  0.00102266  0.32690251  1
  Al0+  Al50  1  0.00005156  0.00071619  0.66873915  1
  Al0+  Al51  1  -0.00090626  0.50127608  0.00561597  1
  Al0+  Al52  1  -0.00008426  0.50207114  0.33634942  1
  Al0+  Al53  1  0.00053533  0.50194012  0.66425468  1
  Al0+  Al54  1  0.50091316  -0.00200249  -0.00191164  1
  Al0+  Al55  1  0.50005848  -0.00267443  0.33671629  1
  Al0+  Al56  1  0.50166006  -0.00069375  0.66935217  1
  Al0+  Al57  1  0.50174586  0.49724198  -0.00528986  1
  Al0+  Al58  1  0.50052599  0.49989461  0.32942872  1
  Al0+  Al59  1  0.50246431  0.49970678  0.66219052  1
  Al0+  Al60  1  0.24926437  0.24593510  -0.00324122  1
  Al0+  Al61  1  0.24749145  0.24890439  0.32803330  1
  Al0+  Al62  1  0.25036137  0.25182677  0.66332751  1
  Al0+  Al63  1  0.24927636  0.75029139  0.00952707  1
  Al0+  Al64  1  0.24866450  0.74748005  0.34014055  1
  Al0+  Al65  1  0.25308850  0.75147388  0.67038441  1
  Al0+  Al66  1  0.75121173  0.25011886  -0.00099778  1
  Al0+  Al67  1  0.74966734  0.25142449  0.33445139  1
  Al0+  Al68  1  0.74875828  0.25177708  0.67663194  1
  Al0+  Al69  1  0.74910580  0.75076501  -0.00162889  1
  Al0+  Al70  1  0.75043447  0.75072930  0.32537795  1
  Al0+  Al71  1  0.75022918  0.75104567  0.65846614  1
  Al0+  Al72  1  0.42837930  0.31959790  0.31726192  1
  Al0+  Al73  1  0.17731054  0.42524705  0.01524923  1
  Al0+  Al74  1  0.17751555  0.92908345  0.01601447  1
  Al0+  Al75  1  0.32232513  0.56848179  0.34898508  1
  Al0+  Al76  1  0.93201383  0.81975377  0.31730329  1
  Al0+  Al77  1  0.93198289  0.81976210  0.65404684  1
  Al0+  Al78  1  0.56869546  0.68115419  0.65187136  1
  Al0+  Al79  1  0.32278840  0.56786241  0.01440414  1
  Al0+  Al80  1  0.92564758  0.32466846  0.65217160  1
  Al0+  Al81  1  0.56993843  0.68000801  0.98424762  1
  Al0+  Al82  1  0.18059428  0.93077294  0.67930868  1
  Al0+  Al83  1  0.32116010  0.07143168  0.34651072  1
  Al0+  Al84  1  0.42937814  0.31816905  0.98392829  1
  Al0+  Al85  1  0.43026371  0.31913034  0.65209442  1
  Al0+  Al86  1  0.57295942  0.17691611  0.32129769  1
  Al0+  Al87  1  0.82064339  0.07042931  0.68191698  1
  Al0+  Al88  1  0.67938239  0.43028597  0.68090293  1
  Al0+  Al89  1  0.06869834  0.18016378  0.65223816  1
  Al0+  Al90  1  0.56870490  0.67998823  0.31734945  1
  Al0+  Al91  1  0.06882213  0.18030738  0.31778753  1
  Al0+  Al92  1  0.17872246  0.42940990  0.67905586  1
  Al0+  Al93  1  0.81945837  0.07138365  0.34722151  1
  Al0+  Al94  1  0.81968169  0.57252358  0.01303938  1
  Al0+  Al95  1  0.93052260  0.32273372  0.98723097  1
  Si0+  Si96  1  0.67871233  0.42712011  0.01843675  1
  Si0+  Si97  1  0.07179064  0.68037212  0.98740141  1
  Si0+  Si98  1  0.32424051  0.07390159  0.68346648  1
  Si0+  Si99  1  0.17666656  0.92899938  0.35040734  1
  Si0+  Si100  1  0.17606168  0.42671735  0.35108737  1
  Si0+  Si101  1  0.32345641  0.57119775  0.68262127  1
  Si0+  Si102  1  0.82162462  0.57477260  0.67996399  1
  Si0+  Si103  1  0.57294277  0.17508329  0.65263112  1
  Si0+  Si104  1  0.32425671  0.06983051  0.01570659  1
  Si0+  Si105  1  0.67837597  0.92493709  0.68363192  1
  Si0+  Si106  1  0.42437522  0.82208004  0.31826689  1
  Si0+  Si107  1  0.81902287  0.07121440  0.01703951  1
  Si0+  Si108  1  0.42602925  0.82504040  0.65001200  1
  Si0+  Si109  1  0.07361502  0.67529969  0.31571631  1
  Si0+  Si110  1  0.68112553  0.43168797  0.34702514  1
  Si0+  Si111  1  0.67836895  0.92543216  0.34996845  1
  Si0+  Si112  1  0.42571251  0.82341554  0.98370327  1
  Si0+  Si113  1  0.07041342  0.17634628  0.98249430  1
  Si0+  Si114  1  0.92632701  0.32506689  0.31801318  1
  Si0+  Si115  1  0.92944996  0.82161132  0.98425130  1
  Si0+  Si116  1  0.07668417  0.67736828  0.65107915  1
  Si0+  Si117  1  0.57377027  0.17523362  0.98275268  1
  Si0+  Si118  1  0.82175583  0.57431638  0.34883543  1
  Si0+  Si119  1  0.67908076  0.92856487  0.01451651  1
  O2-  O120  1  0.25503089  0.00160851  0.06009581  1
  O2-  O121  1  0.24800693  -0.00494072  0.39388916  1
  O2-  O122  1  0.25650538  0.00373910  0.72754182  1
  O2-  O123  1  0.25284398  0.49391822  0.06520925  1
  O2-  O124  1  0.24681717  0.49420088  0.39446555  1
  O2-  O125  1  0.25076626  0.50687904  0.72607332  1
  O2-  O126  1  0.74511320  0.00298779  0.05843558  1
  O2-  O127  1  0.74139522  -0.00051870  0.39375547  1
  O2-  O128  1  0.74342638  -0.00309853  0.72851474  1
  O2-  O129  1  0.74735168  0.49644810  0.06217326  1
  O2-  O130  1  0.75371219  0.50104145  0.39043406  1
  O2-  O131  1  0.75917426  0.50121259  0.72543121  1
  O2-  O132  1  -0.00337126  0.25860996  0.27319809  1
  O2-  O133  1  -0.00334397  0.25228116  0.60151698  1
  O2-  O134  1  0.00775507  0.25100402  0.94001950  1
  O2-  O135  1  0.00628586  0.74492510  0.27026156  1
  O2-  O136  1  0.00778967  0.74620519  0.60678583  1
  O2-  O137  1  0.00143146  0.75155145  0.94271618  1
  O2-  O138  1  0.49666906  0.24240281  0.26883898  1
  O2-  O139  1  0.50218823  0.24047023  0.60786000  1
  O2-  O140  1  0.50447660  0.24254031  0.93831089  1
  O2-  O141  1  0.49168500  0.75317902  0.27177853  1
  O2-  O142  1  0.49445799  0.75652908  0.60557533  1
  O2-  O143  1  0.49069833  0.75124675  0.93904497  1
  O2-  O144  1  0.06732397  0.17370180  0.08816692  1
  O2-  O145  1  0.06820438  0.17867914  0.43049049  1
  O2-  O146  1  0.06650871  0.17853885  0.76598146  1
  O2-  O147  1  0.06913507  0.68262910  0.09239348  1
  O2-  O148  1  0.07088489  0.67356158  0.42124396  1
  O2-  O149  1  0.07579789  0.67840028  0.75703099  1
  O2-  O150  1  0.57482869  0.17425293  0.08814118  1
  O2-  O151  1  0.57605843  0.18395218  0.43456651  1
  O2-  O152  1  0.57046345  0.17397580  0.75854842  1
  O2-  O153  1  0.57114477  0.68337547  0.09722367  1
  O2-  O154  1  0.57005765  0.68006809  0.43040335  1
  O2-  O155  1  0.56909347  0.68186924  0.76507286  1
  O2-  O156  1  0.17277046  0.42924699  0.24569685  1
  O2-  O157  1  0.18124239  0.42993942  0.56590541  1
  O2-  O158  1  0.17648773  0.42859465  0.90151668  1
  O2-  O159  1  0.17751949  0.93005135  0.24449502  1
  O2-  O160  1  0.18110675  0.93235721  0.56642247  1
  O2-  O161  1  0.17530697  0.93025047  0.90280814  1
  O2-  O162  1  0.68241208  0.43228183  0.24184944  1
  O2-  O163  1  0.67694021  0.43312121  0.56731386  1
  O2-  O164  1  0.67935644  0.42809883  0.91286897  1
  O2-  O165  1  0.68180081  0.92341293  0.24382447  1
  O2-  O166  1  0.67933853  0.92245779  0.57840887  1
  O2-  O167  1  0.68164022  0.92796853  0.90948397  1
  O2-  O168  1  0.43182815  0.31725861  0.09675660  1
  O2-  O169  1  0.43103479  0.32141429  0.43078451  1
  O2-  O170  1  0.43059282  0.31952190  0.76531082  1
  O2-  O171  1  0.42996787  0.82874997  0.08900519  1
  O2-  O172  1  0.42627424  0.82142322  0.42383527  1
  O2-  O173  1  0.42553585  0.82555428  0.75563531  1
  O2-  O174  1  0.92852681  0.31822074  0.10063482  1
  O2-  O175  1  0.92499109  0.32512222  0.42319106  1
  O2-  O176  1  0.92779285  0.32364073  0.76607843  1
  O2-  O177  1  0.92909648  0.82169622  0.08929120  1
  O2-  O178  1  0.93271941  0.82031636  0.43041693  1
  O2-  O179  1  0.93190600  0.81803965  0.76773371  1
  O2-  O180  1  0.31859898  0.06890891  0.23310513  1
  O2-  O181  1  0.32502563  0.07203206  0.57789894  1
  O2-  O182  1  0.32614471  0.06765243  0.91016084  1
  O2-  O183  1  0.32240895  0.56679837  0.23613552  1
  O2-  O184  1  0.32320732  0.57018330  0.57679422  1
  O2-  O185  1  0.31994121  0.56846497  0.90063287  1
  O2-  O186  1  0.81856402  0.06899261  0.23350742  1
  O2-  O187  1  0.82095095  0.06841218  0.56886851  1
  O2-  O188  1  0.82028922  0.06930911  0.91198842  1
  O2-  O189  1  0.82127162  0.57427099  0.24360609  1
  O2-  O190  1  0.81732009  0.57721856  0.57418220  1
  O2-  O191  1  0.81805478  0.57562828  0.90004053  1
  O2-  O192  1  0.03445585  0.08625396  0.26097538  1
  O2-  O193  1  0.03907310  0.08208268  0.59947482  1
  O2-  O194  1  0.03575760  0.08467603  0.93692654  1
  O2-  O195  1  0.04604579  0.58246267  0.26877080  1
  O2-  O196  1  0.05216790  0.58503835  0.60262717  1
  O2-  O197  1  0.04285876  0.58886389  0.94052023  1
  O2-  O198  1  0.55383382  0.07409450  0.27314900  1
  O2-  O199  1  0.55463498  0.07917458  0.60757205  1
  O2-  O200  1  0.55142035  0.08036671  0.93653654  1
  O2-  O201  1  0.53971347  0.58384193  0.26250188  1
  O2-  O202  1  0.53723894  0.58609472  0.59611967  1
  O2-  O203  1  0.54382241  0.58230785  0.93066709  1
  O2-  O204  1  0.16457465  0.20774378  0.26084229  1
  O2-  O205  1  0.16751239  0.20738838  0.59974760  1
  O2-  O206  1  0.16646890  0.19080772  0.93814749  1
  O2-  O207  1  0.16849600  0.69976496  0.27199648  1
  O2-  O208  1  0.17095209  0.70313458  0.60628267  1
  O2-  O209  1  0.16415501  0.70815138  0.94118714  1
  O2-  O210  1  0.66911254  0.21107027  0.26547707  1
  O2-  O211  1  0.66662768  0.20412760  0.61051430  1
  O2-  O212  1  0.66738589  0.20201050  0.93716245  1
  O2-  O213  1  0.66438945  0.71241368  0.26227521  1
  O2-  O214  1  0.66418651  0.71208772  0.59564264  1
  O2-  O215  1  0.66492598  0.71664048  0.93003761  1
  O2-  O216  1  0.08125048  0.45747062  0.07061093  1
  O2-  O217  1  0.08312609  0.45466901  0.39861992  1
  O2-  O218  1  0.08080291  0.45902958  0.73223079  1
  O2-  O219  1  0.08179493  0.96226752  0.07132985  1
  O2-  O220  1  0.08356227  0.95992975  0.39339300  1
  O2-  O221  1  0.08503683  0.96160961  0.73559571  1
  O2-  O222  1  0.58555147  0.45397496  0.06334783  1
  O2-  O223  1  0.59017893  0.46229898  0.39385012  1
  O2-  O224  1  0.58484495  0.46810559  0.73515051  1
  O2-  O225  1  0.58506365  0.95037031  0.06088952  1
  O2-  O226  1  0.58245279  0.94004939  0.39470618  1
  O2-  O227  1  0.58325137  0.94549577  0.73026211  1
  O2-  O228  1  0.20095734  0.32351834  0.06307826  1
  O2-  O229  1  0.20029824  0.33204792  0.39388399  1
  O2-  O230  1  0.21119167  0.33339619  0.73310536  1
  O2-  O231  1  0.20464876  0.83342145  0.07335281  1
  O2-  O232  1  0.19559621  0.83356152  0.39555288  1
  O2-  O233  1  0.20945205  0.83356967  0.73547437  1
  O2-  O234  1  0.70528343  0.33328529  0.06407244  1
  O2-  O235  1  0.70740321  0.34030455  0.39587452  1
  O2-  O236  1  0.70209482  0.33436042  0.73991751  1
  O2-  O237  1  0.71118586  0.83914507  0.06361048  1
  O2-  O238  1  0.71223239  0.83386124  0.39582058  1
  O2-  O239  1  0.70974741  0.83305335  0.73049188  1
  O2-  O240  1  0.46478140  0.41488728  0.26346961  1
  O2-  O241  1  0.46526931  0.41382211  0.59764757  1
  O2-  O242  1  0.46176564  0.41344947  0.92871416  1
  O2-  O243  1  0.44980090  0.91545260  0.27138982  1
  O2-  O244  1  0.45170132  0.91923179  0.60453216  1
  O2-  O245  1  0.45480957  0.91477113  0.93369125  1
  O2-  O246  1  0.94947429  0.42068729  0.27386423  1
  O2-  O247  1  0.95007271  0.42434438  0.59945973  1
  O2-  O248  1  0.95524912  0.42214602  0.93607159  1
  O2-  O249  1  0.96202133  0.91486400  0.26038816  1
  O2-  O250  1  0.96399516  0.91566529  0.60040363  1
  O2-  O251  1  0.95737747  0.91446689  0.93898044  1
  O2-  O252  1  0.32942710  0.29511028  0.26438296  1
  O2-  O253  1  0.33413771  0.29126931  0.59672413  1
  O2-  O254  1  0.33238909  0.28641490  0.93016725  1
  O2-  O255  1  0.32898125  0.79835393  0.27495733  1
  O2-  O256  1  0.33246723  0.80084345  0.60322037  1
  O2-  O257  1  0.32935839  0.80098836  0.94226766  1
  O2-  O258  1  0.83398709  0.29781110  0.27051476  1
  O2-  O259  1  0.82453018  0.29681691  0.60506382  1
  O2-  O260  1  0.83394811  0.28961495  0.93363911  1
  O2-  O261  1  0.83633014  0.78867328  0.26142042  1
  O2-  O262  1  0.83693942  0.79012299  0.59672224  1
  O2-  O263  1  0.83811373  0.79351601  0.93674558  1
  O2-  O264  1  0.41831216  0.04464816  0.06197299  1
  O2-  O265  1  0.41825514  0.04290098  0.40199833  1
  O2-  O266  1  0.41849556  0.04990768  0.73021827  1
  O2-  O267  1  0.42246278  0.53838856  0.06478466  1
  O2-  O268  1  0.41971138  0.53720389  0.40146851  1
  O2-  O269  1  0.41570189  0.54034558  0.72730728  1
  O2-  O270  1  0.90902776  0.03987365  0.06548109  1
  O2-  O271  1  0.91530458  0.03488090  0.39863818  1
  O2-  O272  1  0.91455172  0.03493672  0.73800344  1
  O2-  O273  1  0.91550662  0.54536140  0.07040601  1
  O2-  O274  1  0.91499914  0.55229705  0.39633397  1
  O2-  O275  1  0.91825864  0.55823452  0.72293223  1
  O2-  O276  1  0.29727672  0.16287940  0.06109529  1
  O2-  O277  1  0.28838387  0.16818237  0.39863318  1
  O2-  O278  1  0.29677594  0.16682890  0.72850687  1
  O2-  O279  1  0.29655795  0.66660933  0.06828272  1
  O2-  O280  1  0.29322721  0.66543849  0.40466711  1
  O2-  O281  1  0.30535398  0.66703521  0.72751322  1
  O2-  O282  1  0.79330278  0.16377624  0.06391535  1
  O2-  O283  1  0.79172597  0.16907140  0.40104891  1
  O2-  O284  1  0.79028033  0.16542472  0.73983085  1
  O2-  O285  1  0.78663524  0.66894391  0.06772614  1
  O2-  O286  1  0.79044672  0.66588062  0.39435572  1
  O2-  O287  1  0.78998344  0.66663767  0.72686924  1
