# generated using pymatgen
data_Ca2Al2SiO7
_symmetry_space_group_name_H-M   'P 1'
_cell_length_a   15.46599008
_cell_length_b   15.46512792
_cell_length_c   15.28891549
_cell_angle_alpha   90.01189221
_cell_angle_beta   90.00722024
_cell_angle_gamma   90.02025912
_symmetry_Int_Tables_number   1
_chemical_formula_structural   Ca2Al2SiO7
_chemical_formula_sum   'Ca48 Al48 Si24 O168'
_cell_volume   3656.85621084
_cell_formula_units_Z   24
loop_
 _symmetry_equiv_pos_site_id
 _symmetry_equiv_pos_as_xyz
  1  'x, y, z'
loop_
 _atom_type_symbol
 _atom_type_oxidation_number
  Ca2+  2.0
  Al0+  0.0
  Si0+  0.0
  O2-  -2.0
loop_
 _atom_site_type_symbol
 _atom_site_label
 _atom_site_symmetry_multiplicity
 _atom_site_fract_x
 _atom_site_fract_y
 _atom_site_fract_z
 _atom_site_occupancy
  Ca2+  Ca0  1  0.16143993  0.06907416  0.16900022  1
  Ca2+  Ca1  1  0.16886520  0.06927069  0.50811222  1
  Ca2+  Ca2  1  0.17232721  0.07245213  0.83511503  1
  Ca2+  Ca3  1  0.17016427  0.59211719  0.17438327  1
  Ca2+  Ca4  1  0.17595417  0.59118430  0.50589643  1
  Ca2+  Ca5  1  0.17090288  0.59584443  0.83326934  1
  Ca2+  Ca6  1  0.67561526  0.06800941  0.16893891  1
  Ca2+  Ca7  1  0.67428518  0.07455233  0.50429320  1
  Ca2+  Ca8  1  0.67211775  0.06948057  0.83568337  1
  Ca2+  Ca9  1  0.66096036  0.58091129  0.16959882  1
  Ca2+  Ca10  1  0.66398215  0.57923277  0.50326528  1
  Ca2+  Ca11  1  0.65815258  0.57215168  0.83886539  1
  Ca2+  Ca12  1  0.06738618  0.33083829  0.16019917  1
  Ca2+  Ca13  1  0.07540350  0.32661431  0.49159153  1
  Ca2+  Ca14  1  0.07560096  0.32983521  0.82938238  1
  Ca2+  Ca15  1  0.08450968  0.82927931  0.15962331  1
  Ca2+  Ca16  1  0.09325713  0.82719371  0.49770425  1
  Ca2+  Ca17  1  0.08447238  0.83244052  0.83153867  1
  Ca2+  Ca18  1  0.58451457  0.33133623  0.15935662  1
  Ca2+  Ca19  1  0.58015250  0.33554730  0.50185052  1
  Ca2+  Ca20  1  0.58411292  0.33361403  0.82548469  1
  Ca2+  Ca21  1  0.59167391  0.82438447  0.16056285  1
  Ca2+  Ca22  1  0.57915049  0.83779996  0.49445289  1
  Ca2+  Ca23  1  0.58233521  0.83438098  0.82550659  1
  Ca2+  Ca24  1  0.32773703  0.42630579  0.17338527  1
  Ca2+  Ca25  1  0.33694494  0.42945288  0.50729430  1
  Ca2+  Ca26  1  0.33750834  0.42395353  0.83375536  1
  Ca2+  Ca27  1  0.32084783  0.90956022  0.16931118  1
  Ca2+  Ca28  1  0.32546958  0.91549593  0.50944196  1
  Ca2+  Ca29  1  0.32399641  0.90654250  0.83129588  1
  Ca2+  Ca30  1  0.83259292  0.41317328  0.16670666  1
  Ca2+  Ca31  1  0.82962340  0.41766652  0.50533147  1
  Ca2+  Ca32  1  0.82352945  0.41677518  0.83973015  1
  Ca2+  Ca33  1  0.83262380  0.92041313  0.17217295  1
  Ca2+  Ca34  1  0.82343290  0.92331186  0.50715753  1
  Ca2+  Ca35  1  0.83159124  0.92440849  0.84279728  1
  Ca2+  Ca36  1  0.41948997  0.16849424  0.16158261  1
  Ca2+  Ca37  1  0.41032570  0.17107013  0.50022592  1
  Ca2+  Ca38  1  0.41453414  0.17392996  0.82023831  1
  Ca2+  Ca39  1  0.42593658  0.66485581  0.16631304  1
  Ca2+  Ca40  1  0.41814286  0.66947574  0.49766075  1
  Ca2+  Ca41  1  0.42191581  0.67194872  0.82690504  1
  Ca2+  Ca42  1  0.90208234  0.17281093  0.16332265  1
  Ca2+  Ca43  1  0.90478270  0.16974088  0.49593448  1
  Ca2+  Ca44  1  0.90315512  0.16760967  0.83320630  1
  Ca2+  Ca45  1  0.92869399  0.67680654  0.15657339  1
  Ca2+  Ca46  1  0.93147880  0.66734162  0.49431663  1
  Ca2+  Ca47  1  0.92681937  0.67488235  0.83147247  1
  Al0+  Al48  1  0.00275046  0.00213086  0.00529380  1
  Al0+  Al49  1  0.00055278  0.00099924  0.34368621  1
  Al0+  Al50  1  -0.00005032  0.00091824  0.67367678  1
  Al0+  Al51  1  0.00041457  0.49735498  -0.00969685  1
  Al0+  Al52  1  -0.00066841  0.49822137  0.32486378  1
  Al0+  Al53  1  0.00006003  0.49968465  0.66145993  1
  Al0+  Al54  1  0.50071325  0.00094844  0.00319890  1
  Al0+  Al55  1  0.49821873  0.00179539  0.33248049  1
  Al0+  Al56  1  0.50122623  0.00202993  0.66683158  1
  Al0+  Al57  1  0.49900843  0.50059880  0.00212363  1
  Al0+  Al58  1  0.49815592  0.50083101  0.33356865  1
  Al0+  Al59  1  0.49851504  0.49918282  0.67011586  1
  Al0+  Al60  1  0.24900884  0.25297620  0.00117596  1
  Al0+  Al61  1  0.24729256  0.25114774  0.32906431  1
  Al0+  Al62  1  0.24755589  0.25149625  0.66246083  1
  Al0+  Al63  1  0.25376770  0.75007158  0.00260517  1
  Al0+  Al64  1  0.25301741  0.74982793  0.33729352  1
  Al0+  Al65  1  0.25352922  0.74847707  0.66718362  1
  Al0+  Al66  1  0.74670726  0.25070907  0.00238903  1
  Al0+  Al67  1  0.74643043  0.25016949  0.33195983  1
  Al0+  Al68  1  0.74760632  0.25078003  0.67119100  1
  Al0+  Al69  1  0.75228623  0.74562047  -0.00815582  1
  Al0+  Al70  1  0.75011908  0.74729859  0.33402710  1
  Al0+  Al71  1  0.75283073  0.74753171  0.66754279  1
  Al0+  Al72  1  0.07065289  0.68120998  0.65144385  1
  Al0+  Al73  1  0.82031889  0.07061025  0.68307631  1
  Al0+  Al74  1  0.42766025  0.32189164  0.65226575  1
  Al0+  Al75  1  0.67810330  0.92478375  0.34807920  1
  Al0+  Al76  1  0.18099052  0.92940572  0.34813363  1
  Al0+  Al77  1  0.92696194  0.31762071  0.98323984  1
  Al0+  Al78  1  0.18118331  0.92715435  0.68339541  1
  Al0+  Al79  1  0.81913948  0.07224071  0.34918775  1
  Al0+  Al80  1  0.67804234  0.92349455  0.01434077  1
  Al0+  Al81  1  0.92703215  0.31872633  0.31933886  1
  Al0+  Al82  1  0.07297421  0.68127479  0.32026316  1
  Al0+  Al83  1  0.43280538  0.82159912  0.65300076  1
  Al0+  Al84  1  0.93010273  0.82439899  0.98597431  1
  Al0+  Al85  1  0.68040398  0.43305965  0.67893468  1
  Al0+  Al86  1  0.67797645  0.92531024  0.68106850  1
  Al0+  Al87  1  0.67876816  0.43189331  0.01572196  1
  Al0+  Al88  1  0.32110448  0.07412981  0.67937994  1
  Al0+  Al89  1  0.31961669  0.56926231  0.68229290  1
  Al0+  Al90  1  0.82047142  0.07002273  0.01643287  1
  Al0+  Al91  1  0.07461188  0.67942541  0.98448392  1
  Al0+  Al92  1  0.57124133  0.67901702  0.32101499  1
  Al0+  Al93  1  0.18215511  0.92951968  0.01483628  1
  Al0+  Al94  1  0.57154406  0.67789580  0.98601514  1
  Al0+  Al95  1  0.32000343  0.56851868  0.34811686  1
  Si0+  Si96  1  0.57333557  0.67625104  0.65100313  1
  Si0+  Si97  1  0.17508244  0.42790581  0.68233650  1
  Si0+  Si98  1  0.43036488  0.82248213  0.98487790  1
  Si0+  Si99  1  0.31938340  0.56944298  0.01654205  1
  Si0+  Si100  1  0.57235776  0.18006860  0.64842618  1
  Si0+  Si101  1  0.42918126  0.82353203  0.31642943  1
  Si0+  Si102  1  0.92780345  0.82484221  0.64899957  1
  Si0+  Si103  1  0.17527570  0.42757301  0.34890316  1
  Si0+  Si104  1  0.92842113  0.82245873  0.32045593  1
  Si0+  Si105  1  0.17722415  0.42736711  0.01496609  1
  Si0+  Si106  1  0.82709186  0.57129933  0.68331309  1
  Si0+  Si107  1  0.82337010  0.56970220  0.34630608  1
  Si0+  Si108  1  0.07110324  0.17815764  0.65139654  1
  Si0+  Si109  1  0.56883401  0.17960913  0.31667648  1
  Si0+  Si110  1  0.92725108  0.31869060  0.65136313  1
  Si0+  Si111  1  0.42795954  0.32224075  0.31715972  1
  Si0+  Si112  1  0.56884463  0.17957780  0.98465127  1
  Si0+  Si113  1  0.42788178  0.32092289  0.98576588  1
  Si0+  Si114  1  0.67810086  0.42977324  0.34787595  1
  Si0+  Si115  1  0.32221542  0.07620944  0.34834240  1
  Si0+  Si116  1  0.82581826  0.56977809  0.01583549  1
  Si0+  Si117  1  0.32233154  0.07688529  0.01688749  1
  Si0+  Si118  1  0.07221983  0.17612834  0.31604240  1
  Si0+  Si119  1  0.07465703  0.17899174  0.98237319  1
  O2-  O120  1  0.25620250  0.00609474  0.06108910  1
  O2-  O121  1  0.25449793  0.00704562  0.39148492  1
  O2-  O122  1  0.25467200  -0.00084035  0.73204807  1
  O2-  O123  1  0.24327048  0.50297528  0.05752842  1
  O2-  O124  1  0.24273773  0.49597170  0.39447049  1
  O2-  O125  1  0.24319805  0.49583512  0.72864055  1
  O2-  O126  1  0.75511439  -0.00940790  0.06436598  1
  O2-  O127  1  0.75087834  -0.00376716  0.39742443  1
  O2-  O128  1  0.75401249  -0.00717546  0.73086791  1
  O2-  O129  1  0.75340499  0.50598248  0.06312703  1
  O2-  O130  1  0.75037944  0.49987237  0.38881040  1
  O2-  O131  1  0.75251803  0.50890156  0.72700762  1
  O2-  O132  1  0.00029626  0.24210432  0.27276034  1
  O2-  O133  1  -0.00345465  0.24636592  0.60925647  1
  O2-  O134  1  0.00052817  0.24145919  0.93710904  1
  O2-  O135  1  -0.00035342  0.75713382  0.27460839  1
  O2-  O136  1  -0.00272501  0.75690149  0.60391384  1
  O2-  O137  1  0.00362467  0.75298279  0.93608520  1
  O2-  O138  1  0.49494407  0.24846342  0.27388676  1
  O2-  O139  1  0.49936251  0.24510426  0.60382514  1
  O2-  O140  1  0.49399791  0.24684249  0.94280374  1
  O2-  O141  1  0.50269460  0.75923857  0.27342345  1
  O2-  O142  1  0.51247808  0.75138883  0.60646280  1
  O2-  O143  1  0.50503455  0.76032333  0.94092659  1
  O2-  O144  1  0.07989129  0.18452507  0.08781515  1
  O2-  O145  1  0.07710659  0.18072864  0.42140327  1
  O2-  O146  1  0.07474322  0.18209771  0.75613963  1
  O2-  O147  1  0.07470578  0.68056071  0.09850585  1
  O2-  O148  1  0.07226657  0.68031577  0.43326308  1
  O2-  O149  1  0.06865258  0.68055112  0.76408580  1
  O2-  O150  1  0.56644413  0.18230135  0.09030668  1
  O2-  O151  1  0.56900866  0.18173344  0.42144562  1
  O2-  O152  1  0.57372352  0.18434226  0.75400882  1
  O2-  O153  1  0.56494113  0.67325669  0.09919912  1
  O2-  O154  1  0.56725302  0.67313273  0.43363663  1
  O2-  O155  1  0.56817824  0.67319967  0.75643857  1
  O2-  O156  1  0.17811618  0.42689238  0.24306926  1
  O2-  O157  1  0.17435325  0.42898809  0.57662665  1
  O2-  O158  1  0.18148419  0.42157791  0.91040721  1
  O2-  O159  1  0.18230857  0.92916399  0.23474635  1
  O2-  O160  1  0.18262421  0.92810367  0.56970418  1
  O2-  O161  1  0.18557836  0.92828241  0.90248124  1
  O2-  O162  1  0.67639351  0.42987570  0.24293109  1
  O2-  O163  1  0.68202360  0.43276650  0.56508324  1
  O2-  O164  1  0.67686488  0.43137336  0.90288739  1
  O2-  O165  1  0.68044078  0.92450965  0.23470413  1
  O2-  O166  1  0.67804698  0.92833732  0.56735319  1
  O2-  O167  1  0.67353784  0.92963073  0.90149169  1
  O2-  O168  1  0.42841839  0.32071645  0.09143993  1
  O2-  O169  1  0.42957425  0.32317006  0.42191207  1
  O2-  O170  1  0.43016859  0.32224702  0.76568137  1
  O2-  O171  1  0.42615295  0.81859361  0.09055795  1
  O2-  O172  1  0.42823496  0.82267861  0.42187433  1
  O2-  O173  1  0.43127042  0.81719991  0.76627189  1
  O2-  O174  1  0.92830260  0.31785411  0.09652380  1
  O2-  O175  1  0.92758437  0.31971390  0.43288047  1
  O2-  O176  1  0.92776319  0.31922402  0.75617481  1
  O2-  O177  1  0.93227873  0.82238166  0.10033077  1
  O2-  O178  1  0.92758338  0.81805827  0.42590221  1
  O2-  O179  1  0.92836170  0.82337225  0.75428700  1
  O2-  O180  1  0.32230439  0.07822606  0.24257269  1
  O2-  O181  1  0.31524172  0.07531907  0.56563384  1
  O2-  O182  1  0.32044373  0.08283745  0.91208246  1
  O2-  O183  1  0.32081274  0.56566615  0.23455185  1
  O2-  O184  1  0.32064656  0.56793440  0.56920717  1
  O2-  O185  1  0.32134691  0.56743394  0.91170502  1
  O2-  O186  1  0.81562776  0.07368965  0.23608693  1
  O2-  O187  1  0.81666268  0.07364083  0.56952946  1
  O2-  O188  1  0.81477659  0.07179952  0.90330163  1
  O2-  O189  1  0.82413128  0.56860309  0.24161164  1
  O2-  O190  1  0.82980769  0.56691412  0.57714062  1
  O2-  O191  1  0.82641432  0.56430526  0.91038540  1
  O2-  O192  1  0.04920700  0.08047467  0.27381167  1
  O2-  O193  1  0.04618339  0.08472201  0.60618823  1
  O2-  O194  1  0.05684255  0.08287682  0.94058926  1
  O2-  O195  1  0.04364892  0.58414174  0.26623632  1
  O2-  O196  1  0.03960166  0.58383193  0.59681768  1
  O2-  O197  1  0.04861248  0.58054904  0.93153676  1
  O2-  O198  1  0.54233616  0.08801383  0.26740195  1
  O2-  O199  1  0.55185373  0.08580036  0.60263791  1
  O2-  O200  1  0.54523936  0.08640580  0.93848670  1
  O2-  O201  1  0.53411642  0.58388990  0.26558406  1
  O2-  O202  1  0.53965151  0.58523202  0.60419371  1
  O2-  O203  1  0.53035948  0.58382439  0.93204886  1
  O2-  O204  1  0.16422390  0.20382270  0.26617983  1
  O2-  O205  1  0.15936411  0.20962788  0.59893813  1
  O2-  O206  1  0.16563486  0.21249816  0.93443346  1
  O2-  O207  1  0.17077276  0.71132921  0.26827364  1
  O2-  O208  1  0.16869141  0.71030525  0.59981286  1
  O2-  O209  1  0.17443295  0.70791081  0.93461246  1
  O2-  O210  1  0.65755641  0.21292695  0.26739945  1
  O2-  O211  1  0.66306208  0.21434259  0.60077453  1
  O2-  O212  1  0.65753434  0.21375665  0.93708908  1
  O2-  O213  1  0.67029796  0.70101582  0.26695418  1
  O2-  O214  1  0.67144872  0.68964028  0.60904842  1
  O2-  O215  1  0.67117142  0.69155486  0.93234881  1
  O2-  O216  1  0.08293213  0.45041698  0.05892972  1
  O2-  O217  1  0.08027451  0.45035402  0.39261128  1
  O2-  O218  1  0.08112166  0.45264731  0.72794671  1
  O2-  O219  1  0.08684391  0.95979624  0.07124492  1
  O2-  O220  1  0.08521928  0.95690403  0.40505168  1
  O2-  O221  1  0.08332897  0.95644711  0.73559625  1
  O2-  O222  1  0.58156358  0.46189027  0.07045802  1
  O2-  O223  1  0.58687481  0.45893943  0.39545343  1
  O2-  O224  1  0.58398537  0.46060160  0.73432680  1
  O2-  O225  1  0.58067079  0.95679131  0.06929517  1
  O2-  O226  1  0.57840819  0.95696864  0.39676628  1
  O2-  O227  1  0.58122955  0.95810584  0.73413253  1
  O2-  O228  1  0.20987596  0.33913900  0.06735460  1
  O2-  O229  1  0.20098154  0.33320134  0.39374317  1
  O2-  O230  1  0.19996756  0.33427671  0.72749469  1
  O2-  O231  1  0.21680502  0.83389413  0.07001399  1
  O2-  O232  1  0.21616644  0.83501830  0.40260265  1
  O2-  O233  1  0.21306609  0.83011930  0.73578351  1
  O2-  O234  1  0.70873016  0.33547842  0.07002689  1
  O2-  O235  1  0.70456481  0.33824527  0.39535542  1
  O2-  O236  1  0.71138584  0.33776210  0.73410586  1
  O2-  O237  1  0.70027815  0.82048870  0.05998738  1
  O2-  O238  1  0.70288674  0.82527541  0.40082337  1
  O2-  O239  1  0.69906141  0.82337875  0.72964307  1
  O2-  O240  1  0.45969842  0.41192455  0.26821896  1
  O2-  O241  1  0.46373637  0.41692393  0.59777456  1
  O2-  O242  1  0.45895966  0.41173105  0.93948866  1
  O2-  O243  1  0.44542714  0.91960914  0.27101190  1
  O2-  O244  1  0.45634605  0.92066718  0.59945150  1
  O2-  O245  1  0.44655044  0.91956249  0.94256806  1
  O2-  O246  1  0.95888483  0.41316284  0.26125302  1
  O2-  O247  1  0.95582542  0.40970660  0.60236816  1
  O2-  O248  1  0.95954112  0.41215135  0.92674427  1
  O2-  O249  1  0.95147448  0.91871648  0.27933121  1
  O2-  O250  1  0.95180615  0.92007361  0.60572304  1
  O2-  O251  1  0.95865839  0.92399630  0.93575982  1
  O2-  O252  1  0.33461813  0.29863390  0.26929993  1
  O2-  O253  1  0.33018344  0.29554943  0.59673715  1
  O2-  O254  1  0.33467765  0.29797829  0.93900884  1
  O2-  O255  1  0.33862020  0.78938529  0.26916778  1
  O2-  O256  1  0.33820718  0.78506262  0.59849939  1
  O2-  O257  1  0.34031174  0.78818033  0.93706317  1
  O2-  O258  1  0.82913862  0.29075791  0.26562436  1
  O2-  O259  1  0.83472580  0.29169701  0.60447310  1
  O2-  O260  1  0.82865761  0.28848155  0.93163211  1
  O2-  O261  1  0.83640545  0.79358915  0.27307898  1
  O2-  O262  1  0.83419597  0.79750744  0.60249199  1
  O2-  O263  1  0.83356786  0.79479890  0.92974100  1
  O2-  O264  1  0.41664070  0.05353688  0.06252858  1
  O2-  O265  1  0.41650869  0.05417305  0.39371695  1
  O2-  O266  1  0.42251454  0.05579633  0.72837146  1
  O2-  O267  1  0.40798570  0.53448082  0.06589700  1
  O2-  O268  1  0.41465327  0.53283914  0.40277677  1
  O2-  O269  1  0.41403712  0.53497340  0.73790287  1
  O2-  O270  1  0.92269177  0.05435715  0.06679180  1
  O2-  O271  1  0.91941855  0.05315531  0.40193444  1
  O2-  O272  1  0.92047734  0.05123735  0.73569624  1
  O2-  O273  1  0.91852533  0.53878127  0.06139016  1
  O2-  O274  1  0.91414362  0.53784915  0.39419876  1
  O2-  O275  1  0.91735533  0.53834075  0.73095329  1
  O2-  O276  1  0.29561700  0.17004673  0.06525309  1
  O2-  O277  1  0.29667840  0.17092143  0.39291686  1
  O2-  O278  1  0.28925948  0.17245938  0.73168443  1
  O2-  O279  1  0.29682511  0.66170967  0.06496151  1
  O2-  O280  1  0.29311277  0.66530284  0.40199383  1
  O2-  O281  1  0.29035505  0.66479868  0.73735129  1
  O2-  O282  1  0.78206553  0.16594720  0.06872678  1
  O2-  O283  1  0.78369582  0.16976797  0.40137319  1
  O2-  O284  1  0.78644747  0.16759330  0.73559518  1
  O2-  O285  1  0.80590188  0.66555587  0.05835257  1
  O2-  O286  1  0.79751004  0.66037224  0.39620457  1
  O2-  O287  1  0.80977101  0.66717151  0.72635306  1
