# generated using pymatgen
data_Ca2Al2SiO7
_symmetry_space_group_name_H-M   'P 1'
_cell_length_a   15.45505928
_cell_length_b   15.45403159
_cell_length_c   15.28072740
_cell_angle_alpha   90.00062029
_cell_angle_beta   89.98167074
_cell_angle_gamma   89.99154532
_symmetry_Int_Tables_number   1
_chemical_formula_structural   Ca2Al2SiO7
_chemical_formula_sum   'Ca48 Al48 Si24 O168'
_cell_volume   3649.69415432
_cell_formula_units_Z   24
loop_
 _symmetry_equiv_pos_site_id
 _symmetry_equiv_pos_as_xyz
  1  'x, y, z'
loop_
 _atom_type_symbol
 _atom_type_oxidation_number
  Ca2+  2.0
  Al0+  0.0
  Si0+  0.0
  O2-  -2.0
loop_
 _atom_site_type_symbol
 _atom_site_label
 _atom_site_symmetry_multiplicity
 _atom_site_fract_x
 _atom_site_fract_y
 _atom_site_fract_z
 _atom_site_occupancy
  Ca2+  Ca0  1  0.16020706  0.08154461  0.17291374  1
  Ca2+  Ca1  1  0.16685144  0.07901090  0.49958357  1
  Ca2+  Ca2  1  0.17025797  0.08679303  0.83476528  1
  Ca2+  Ca3  1  0.18031462  0.57679292  0.17754699  1
  Ca2+  Ca4  1  0.16959280  0.58059804  0.50145162  1
  Ca2+  Ca5  1  0.17189021  0.58314560  0.83946298  1
  Ca2+  Ca6  1  0.67813807  0.08018389  0.16968672  1
  Ca2+  Ca7  1  0.67915300  0.08718157  0.50552624  1
  Ca2+  Ca8  1  0.67777424  0.07634660  0.84164147  1
  Ca2+  Ca9  1  0.66947097  0.58810340  0.16330354  1
  Ca2+  Ca10  1  0.66623921  0.58355230  0.50226619  1
  Ca2+  Ca11  1  0.66653126  0.58702887  0.84165149  1
  Ca2+  Ca12  1  0.08741155  0.32267967  0.16690126  1
  Ca2+  Ca13  1  0.07434158  0.32754410  0.49016886  1
  Ca2+  Ca14  1  0.07638171  0.32702750  0.82944999  1
  Ca2+  Ca15  1  0.07156326  0.84258330  0.16579154  1
  Ca2+  Ca16  1  0.08489320  0.82998202  0.49357149  1
  Ca2+  Ca17  1  0.07712937  0.82577937  0.83153698  1
  Ca2+  Ca18  1  0.57294567  0.33506974  0.16511866  1
  Ca2+  Ca19  1  0.57153292  0.33221904  0.49613172  1
  Ca2+  Ca20  1  0.57096968  0.33678270  0.82977397  1
  Ca2+  Ca21  1  0.57921001  0.83088305  0.16006926  1
  Ca2+  Ca22  1  0.57277925  0.83283839  0.49845013  1
  Ca2+  Ca23  1  0.58642548  0.82440073  0.82984603  1
  Ca2+  Ca24  1  0.33585277  0.42435660  0.17433249  1
  Ca2+  Ca25  1  0.33002240  0.41418288  0.49974144  1
  Ca2+  Ca26  1  0.33706655  0.42100334  0.84193529  1
  Ca2+  Ca27  1  0.32435264  0.91505600  0.17834688  1
  Ca2+  Ca28  1  0.33203068  0.91600947  0.50571193  1
  Ca2+  Ca29  1  0.33710711  0.91952589  0.83293466  1
  Ca2+  Ca30  1  0.83763614  0.42301749  0.17237874  1
  Ca2+  Ca31  1  0.83496266  0.41045182  0.50664017  1
  Ca2+  Ca32  1  0.83323019  0.42310922  0.83811736  1
  Ca2+  Ca33  1  0.83419755  0.92050371  0.17041965  1
  Ca2+  Ca34  1  0.84122513  0.92896909  0.50163902  1
  Ca2+  Ca35  1  0.83030143  0.92317145  0.84496439  1
  Ca2+  Ca36  1  0.40888052  0.18177742  0.16218613  1
  Ca2+  Ca37  1  0.40856373  0.17441345  0.49690529  1
  Ca2+  Ca38  1  0.41319861  0.17704763  0.82588547  1
  Ca2+  Ca39  1  0.41692795  0.66590775  0.16224425  1
  Ca2+  Ca40  1  0.41818362  0.67440098  0.49550736  1
  Ca2+  Ca41  1  0.42790134  0.66875248  0.82686083  1
  Ca2+  Ca42  1  0.92617988  0.15955736  0.16509002  1
  Ca2+  Ca43  1  0.91553965  0.17237818  0.48976170  1
  Ca2+  Ca44  1  0.91766988  0.16435255  0.83015023  1
  Ca2+  Ca45  1  0.91252350  0.67829830  0.15966717  1
  Ca2+  Ca46  1  0.92663571  0.67264471  0.49444167  1
  Ca2+  Ca47  1  0.91520648  0.67172765  0.83001738  1
  Al0+  Al48  1  0.00153489  0.00013927  -0.00877949  1
  Al0+  Al49  1  0.00038875  -0.00058040  0.33685535  1
  Al0+  Al50  1  0.00205091  -0.00056095  0.67350401  1
  Al0+  Al51  1  0.00060279  0.49851128  0.00627028  1
  Al0+  Al52  1  0.00159167  0.50022344  0.33398577  1
  Al0+  Al53  1  0.00006262  0.49936257  0.66078376  1
  Al0+  Al54  1  0.49967130  0.00247563  0.00538169  1
  Al0+  Al55  1  0.50165416  -0.00154949  0.32881843  1
  Al0+  Al56  1  0.50110683  0.00052655  0.66934361  1
  Al0+  Al57  1  0.49949484  0.50167341  -0.00347176  1
  Al0+  Al58  1  0.50245018  0.50052000  0.33459593  1
  Al0+  Al59  1  0.49998355  0.49958007  0.65856040  1
  Al0+  Al60  1  0.24761599  0.24990634  -0.00990093  1
  Al0+  Al61  1  0.24933773  0.25112434  0.32909698  1
  Al0+  Al62  1  0.24705654  0.24959235  0.66720906  1
  Al0+  Al63  1  0.24951887  0.75062018  0.00457279  1
  Al0+  Al64  1  0.25181789  0.74969373  0.33779817  1
  Al0+  Al65  1  0.24939576  0.74839492  0.66284507  1
  Al0+  Al66  1  0.74927757  0.25009678  0.00525091  1
  Al0+  Al67  1  0.74937972  0.25178340  0.33281655  1
  Al0+  Al68  1  0.74840710  0.25165523  0.67171754  1
  Al0+  Al69  1  0.74815042  0.75035942  -0.00070951  1
  Al0+  Al70  1  0.74944815  0.74989309  0.33287219  1
  Al0+  Al71  1  0.75094785  0.75010192  0.66010775  1
  Al0+  Al72  1  0.82148824  0.07213504  0.68191006  1
  Al0+  Al73  1  0.42963585  0.82264339  0.65319082  1
  Al0+  Al74  1  0.67791470  0.92794227  0.01621996  1
  Al0+  Al75  1  0.93065161  0.81950900  0.32110907  1
  Al0+  Al76  1  0.06854126  0.17939319  0.98267727  1
  Al0+  Al77  1  0.43095983  0.31979844  0.98544427  1
  Al0+  Al78  1  0.57354129  0.67820278  0.64922994  1
  Al0+  Al79  1  0.32395775  0.57048756  0.35197976  1
  Al0+  Al80  1  0.56814104  0.68214922  0.98714523  1
  Al0+  Al81  1  0.42986698  0.31956742  0.31949833  1
  Al0+  Al82  1  0.42676600  0.31986557  0.65165323  1
  Al0+  Al83  1  0.07061030  0.67815111  0.65361823  1
  Al0+  Al84  1  0.92825228  0.31852303  0.65538085  1
  Al0+  Al85  1  0.17926005  0.93023101  0.34674206  1
  Al0+  Al86  1  0.82397634  0.07098417  0.01699433  1
  Al0+  Al87  1  0.92928019  0.81896859  0.98575418  1
  Al0+  Al88  1  0.32036769  0.07121226  0.67991040  1
  Al0+  Al89  1  0.81931976  0.06936556  0.34735541  1
  Al0+  Al90  1  0.42837002  0.82100380  0.31839817  1
  Al0+  Al91  1  0.82153218  0.57044973  0.01241414  1
  Al0+  Al92  1  0.17904003  0.42737554  0.34970560  1
  Al0+  Al93  1  0.32103666  0.57053504  0.01174957  1
  Al0+  Al94  1  0.92634687  0.32334386  0.31682643  1
  Al0+  Al95  1  0.06912520  0.17887699  0.31966109  1
  Si0+  Si96  1  0.67891045  0.92701182  0.68278577  1
  Si0+  Si97  1  0.18085696  0.92958695  0.01365352  1
  Si0+  Si98  1  0.42417873  0.82529530  0.98488453  1
  Si0+  Si99  1  0.67719138  0.43093636  0.68201659  1
  Si0+  Si100  1  0.57401762  0.17715956  0.31637248  1
  Si0+  Si101  1  0.17825495  0.42589653  0.01578015  1
  Si0+  Si102  1  0.92554583  0.32452942  0.98442333  1
  Si0+  Si103  1  0.32114734  0.56992608  0.68179541  1
  Si0+  Si104  1  0.67662047  0.92576621  0.35229031  1
  Si0+  Si105  1  0.57367411  0.17673498  0.98347106  1
  Si0+  Si106  1  0.07375180  0.67738119  0.31551420  1
  Si0+  Si107  1  0.07324387  0.67596277  0.98728096  1
  Si0+  Si108  1  0.82155625  0.57287217  0.34925836  1
  Si0+  Si109  1  0.57193500  0.67821023  0.31440409  1
  Si0+  Si110  1  0.17735921  0.42974363  0.68257844  1
  Si0+  Si111  1  0.07098172  0.17648508  0.64905781  1
  Si0+  Si112  1  0.82175022  0.57077448  0.67903685  1
  Si0+  Si113  1  0.31995404  0.07376569  0.01403062  1
  Si0+  Si114  1  0.92923747  0.82331248  0.65002268  1
  Si0+  Si115  1  0.32430102  0.07227627  0.34674167  1
  Si0+  Si116  1  0.57186439  0.17884042  0.65244323  1
  Si0+  Si117  1  0.17899844  0.92460444  0.68652126  1
  Si0+  Si118  1  0.68032119  0.42970218  0.34949256  1
  Si0+  Si119  1  0.67652276  0.42876843  0.01640908  1
  O2-  O120  1  0.25433662  -0.00186459  0.05580161  1
  O2-  O121  1  0.25821107  0.00161077  0.39170537  1
  O2-  O122  1  0.24840438  -0.00591006  0.72883212  1
  O2-  O123  1  0.24545378  0.49678734  0.05825792  1
  O2-  O124  1  0.25086108  0.49892450  0.40161409  1
  O2-  O125  1  0.25121511  0.49801394  0.72539504  1
  O2-  O126  1  0.75072432  -0.00050854  0.06589948  1
  O2-  O127  1  0.74389326  -0.00401882  0.39644213  1
  O2-  O128  1  0.74951497  -0.00611346  0.72694226  1
  O2-  O129  1  0.75018847  0.49263195  0.06015565  1
  O2-  O130  1  0.75509500  0.49742361  0.39160668  1
  O2-  O131  1  0.74758513  0.50358760  0.72282925  1
  O2-  O132  1  -0.00206129  0.25099549  0.26759758  1
  O2-  O133  1  -0.00316391  0.23971919  0.60683400  1
  O2-  O134  1  -0.00939771  0.25290059  0.93923904  1
  O2-  O135  1  0.00381158  0.74470296  0.27130434  1
  O2-  O136  1  -0.00126673  0.75532605  0.60667003  1
  O2-  O137  1  0.00107902  0.73991994  0.94105318  1
  O2-  O138  1  0.50053933  0.24121346  0.27242555  1
  O2-  O139  1  0.49859046  0.24162313  0.60635119  1
  O2-  O140  1  0.50503995  0.24486320  0.93787685  1
  O2-  O141  1  0.50246523  0.74635268  0.27116196  1
  O2-  O142  1  0.50098731  0.75058946  0.60191209  1
  O2-  O143  1  0.49450973  0.75832184  0.94102294  1
  O2-  O144  1  0.07188060  0.17883179  0.09517772  1
  O2-  O145  1  0.06761587  0.17802251  0.43337945  1
  O2-  O146  1  0.07221630  0.17988439  0.75490426  1
  O2-  O147  1  0.07432878  0.67894939  0.09232339  1
  O2-  O148  1  0.07072880  0.67833030  0.42160511  1
  O2-  O149  1  0.06863362  0.67775290  0.76727273  1
  O2-  O150  1  0.57168123  0.17816199  0.08902520  1
  O2-  O151  1  0.57600970  0.18032198  0.42224050  1
  O2-  O152  1  0.57207599  0.18314352  0.75799037  1
  O2-  O153  1  0.56623243  0.68047550  0.09999778  1
  O2-  O154  1  0.57333346  0.67898532  0.41998067  1
  O2-  O155  1  0.57361550  0.67730205  0.76295830  1
  O2-  O156  1  0.18211876  0.42850588  0.23580299  1
  O2-  O157  1  0.17715310  0.43031043  0.57802398  1
  O2-  O158  1  0.17787822  0.42724644  0.90948475  1
  O2-  O159  1  0.17828482  0.93253001  0.23308989  1
  O2-  O160  1  0.17666436  0.92491928  0.58116456  1
  O2-  O161  1  0.18262094  0.92753791  0.90845662  1
  O2-  O162  1  0.67751820  0.43177137  0.24446161  1
  O2-  O163  1  0.67835238  0.42889964  0.57688710  1
  O2-  O164  1  0.67530950  0.43090334  0.91042207  1
  O2-  O165  1  0.67756438  0.92479919  0.24695113  1
  O2-  O166  1  0.67855546  0.92874944  0.57720106  1
  O2-  O167  1  0.67976487  0.92857770  0.90206765  1
  O2-  O168  1  0.43121292  0.31999818  0.09846163  1
  O2-  O169  1  0.43129003  0.31779561  0.43269304  1
  O2-  O170  1  0.42923959  0.32224043  0.76491049  1
  O2-  O171  1  0.42225082  0.82313989  0.09034306  1
  O2-  O172  1  0.43052224  0.82249658  0.43130793  1
  O2-  O173  1  0.43019768  0.82004325  0.76716822  1
  O2-  O174  1  0.92837109  0.32745762  0.08929924  1
  O2-  O175  1  0.92513222  0.31979455  0.43090100  1
  O2-  O176  1  0.93075820  0.32187614  0.76852675  1
  O2-  O177  1  0.93148044  0.82027729  0.09880843  1
  O2-  O178  1  0.93252390  0.81782865  0.43449722  1
  O2-  O179  1  0.92790926  0.82055733  0.75574174  1
  O2-  O180  1  0.32295357  0.07177362  0.24074994  1
  O2-  O181  1  0.31678066  0.07254933  0.56690777  1
  O2-  O182  1  0.31881464  0.07413154  0.90875281  1
  O2-  O183  1  0.32448885  0.56857150  0.23783691  1
  O2-  O184  1  0.31984862  0.56915422  0.57722892  1
  O2-  O185  1  0.32029707  0.56984154  0.89795886  1
  O2-  O186  1  0.81954285  0.06701221  0.23480644  1
  O2-  O187  1  0.82016391  0.07275058  0.56860558  1
  O2-  O188  1  0.82166366  0.06935086  0.90294469  1
  O2-  O189  1  0.81820988  0.57485956  0.24415421  1
  O2-  O190  1  0.82202831  0.56820580  0.57394210  1
  O2-  O191  1  0.82112027  0.56935616  0.89859847  1
  O2-  O192  1  0.03906530  0.08090181  0.26682924  1
  O2-  O193  1  0.05237908  0.07928155  0.60852016  1
  O2-  O194  1  0.04162508  0.08386431  0.92460216  1
  O2-  O195  1  0.05015177  0.58332679  0.27077137  1
  O2-  O196  1  0.03682568  0.58470909  0.59591100  1
  O2-  O197  1  0.05295640  0.58000745  0.94342280  1
  O2-  O198  1  0.55565329  0.08181796  0.27162344  1
  O2-  O199  1  0.55401579  0.08333578  0.60833832  1
  O2-  O200  1  0.54804627  0.08270622  0.93801881  1
  O2-  O201  1  0.54824443  0.58400067  0.26932018  1
  O2-  O202  1  0.54516359  0.58074660  0.59504526  1
  O2-  O203  1  0.53759023  0.58644402  0.93057554  1
  O2-  O204  1  0.16755479  0.20554710  0.26496161  1
  O2-  O205  1  0.16212624  0.20713129  0.60239361  1
  O2-  O206  1  0.16259941  0.21328333  0.92430103  1
  O2-  O207  1  0.16796594  0.70299529  0.27253322  1
  O2-  O208  1  0.16657195  0.70612087  0.59807736  1
  O2-  O209  1  0.16498017  0.70709602  0.93894741  1
  O2-  O210  1  0.66387289  0.20994486  0.26751158  1
  O2-  O211  1  0.66280810  0.21167120  0.60502918  1
  O2-  O212  1  0.66808622  0.20190717  0.93849733  1
  O2-  O213  1  0.66548740  0.70482489  0.26874318  1
  O2-  O214  1  0.67194495  0.70464412  0.59429733  1
  O2-  O215  1  0.66454534  0.71064610  0.93136469  1
  O2-  O216  1  0.08470453  0.44640886  0.06334623  1
  O2-  O217  1  0.07977566  0.45560553  0.40268134  1
  O2-  O218  1  0.08644334  0.46170330  0.73018453  1
  O2-  O219  1  0.08944266  0.96176659  0.05815786  1
  O2-  O220  1  0.08560031  0.96268444  0.40517090  1
  O2-  O221  1  0.08629363  0.95074489  0.73510426  1
  O2-  O222  1  0.58573963  0.46171677  0.06370570  1
  O2-  O223  1  0.59102184  0.46133964  0.39985508  1
  O2-  O224  1  0.58476009  0.45927590  0.72856740  1
  O2-  O225  1  0.57898224  0.95607024  0.07023389  1
  O2-  O226  1  0.58205899  0.95123777  0.39693379  1
  O2-  O227  1  0.58631036  0.95212818  0.73102432  1
  O2-  O228  1  0.20766733  0.33236075  0.05915107  1
  O2-  O229  1  0.20819866  0.32851482  0.40200795  1
  O2-  O230  1  0.20171180  0.33686816  0.72968138  1
  O2-  O231  1  0.20393172  0.83817478  0.06424607  1
  O2-  O232  1  0.20747860  0.83345213  0.40125309  1
  O2-  O233  1  0.20480507  0.83065969  0.73260080  1
  O2-  O234  1  0.69435472  0.33378716  0.06242200  1
  O2-  O235  1  0.70353394  0.33733094  0.39819202  1
  O2-  O236  1  0.70463449  0.34084681  0.73299234  1
  O2-  O237  1  0.70507198  0.82962236  0.06879586  1
  O2-  O238  1  0.70299602  0.83224708  0.39833245  1
  O2-  O239  1  0.70474210  0.83164745  0.72625262  1
  O2-  O240  1  0.46690104  0.41531009  0.26767636  1
  O2-  O241  1  0.46117266  0.41361202  0.59591010  1
  O2-  O242  1  0.46364992  0.41539609  0.93039772  1
  O2-  O243  1  0.45689002  0.91794347  0.26290285  1
  O2-  O244  1  0.45715489  0.92189049  0.60073560  1
  O2-  O245  1  0.44729046  0.92128344  0.94244042  1
  O2-  O246  1  0.95333565  0.42352881  0.26703255  1
  O2-  O247  1  0.96075245  0.41315889  0.59925308  1
  O2-  O248  1  0.95469455  0.41758370  0.93725623  1
  O2-  O249  1  0.96334261  0.91511204  0.26785120  1
  O2-  O250  1  0.95671087  0.91764137  0.60691218  1
  O2-  O251  1  0.96486154  0.91194652  0.92827014  1
  O2-  O252  1  0.33391898  0.29201427  0.26343721  1
  O2-  O253  1  0.32907909  0.29014772  0.60005221  1
  O2-  O254  1  0.33516596  0.28941911  0.92964000  1
  O2-  O255  1  0.33091827  0.79071031  0.26597595  1
  O2-  O256  1  0.33104753  0.79479568  0.60110229  1
  O2-  O257  1  0.33080667  0.79870478  0.93861587  1
  O2-  O258  1  0.82618076  0.29991885  0.26579394  1
  O2-  O259  1  0.82882732  0.29373429  0.60396869  1
  O2-  O260  1  0.82909207  0.30418002  0.94149071  1
  O2-  O261  1  0.83334159  0.78908813  0.26817735  1
  O2-  O262  1  0.83677929  0.79875821  0.60202027  1
  O2-  O263  1  0.83301984  0.78890561  0.93155908  1
  O2-  O264  1  0.41339121  0.05536408  0.06163187  1
  O2-  O265  1  0.41973809  0.05044704  0.39103929  1
  O2-  O266  1  0.41861344  0.04554619  0.73470831  1
  O2-  O267  1  0.41672766  0.53776252  0.06571792  1
  O2-  O268  1  0.42309986  0.54223645  0.40333204  1
  O2-  O269  1  0.41457104  0.54133953  0.72610939  1
  O2-  O270  1  0.92375762  0.03923501  0.06425395  1
  O2-  O271  1  0.91433281  0.03697923  0.40320104  1
  O2-  O272  1  0.91930575  0.04424891  0.73538771  1
  O2-  O273  1  0.91839712  0.54463475  0.06910623  1
  O2-  O274  1  0.91552062  0.55093979  0.39470220  1
  O2-  O275  1  0.91234649  0.53958962  0.72712066  1
  O2-  O276  1  0.28549495  0.16438481  0.05966442  1
  O2-  O277  1  0.29612463  0.16521665  0.39209441  1
  O2-  O278  1  0.28563906  0.16687506  0.73577595  1
  O2-  O279  1  0.29213518  0.66713961  0.06731474  1
  O2-  O280  1  0.29473386  0.66853757  0.40463782  1
  O2-  O281  1  0.29248456  0.66182088  0.72864005  1
  O2-  O282  1  0.79785452  0.17077233  0.06865739  1
  O2-  O283  1  0.78742459  0.16740570  0.39930465  1
  O2-  O284  1  0.78761299  0.16758545  0.73708939  1
  O2-  O285  1  0.78637318  0.66496417  0.06686305  1
  O2-  O286  1  0.78916527  0.66248274  0.39890536  1
  O2-  O287  1  0.79764335  0.66500531  0.72394953  1
