# generated using pymatgen
data_Ca2Al2SiO7
_symmetry_space_group_name_H-M   'P 1'
_cell_length_a   15.45851500
_cell_length_b   15.45886807
_cell_length_c   15.28439313
_cell_angle_alpha   89.99438622
_cell_angle_beta   89.99646654
_cell_angle_gamma   90.00939496
_symmetry_Int_Tables_number   1
_chemical_formula_structural   Ca2Al2SiO7
_chemical_formula_sum   'Ca48 Al48 Si24 O168'
_cell_volume   3652.52883691
_cell_formula_units_Z   24
loop_
 _symmetry_equiv_pos_site_id
 _symmetry_equiv_pos_as_xyz
  1  'x, y, z'
loop_
 _atom_type_symbol
 _atom_type_oxidation_number
  Ca2+  2.0
  Al0+  0.0
  Si0+  0.0
  O2-  -2.0
loop_
 _atom_site_type_symbol
 _atom_site_label
 _atom_site_symmetry_multiplicity
 _atom_site_fract_x
 _atom_site_fract_y
 _atom_site_fract_z
 _atom_site_occupancy
  Ca2+  Ca0  1  0.17832230  0.08272771  0.17853157  1
  Ca2+  Ca1  1  0.16896173  0.07976652  0.49571303  1
  Ca2+  Ca2  1  0.17654020  0.08090825  0.84068865  1
  Ca2+  Ca3  1  0.16799389  0.57716257  0.17319912  1
  Ca2+  Ca4  1  0.16460274  0.58326774  0.50399905  1
  Ca2+  Ca5  1  0.17824183  0.58672425  0.83429287  1
  Ca2+  Ca6  1  0.67467483  0.08330223  0.17338224  1
  Ca2+  Ca7  1  0.67335888  0.07466983  0.50615299  1
  Ca2+  Ca8  1  0.66912458  0.08919047  0.83401377  1
  Ca2+  Ca9  1  0.66831131  0.57423219  0.17199491  1
  Ca2+  Ca10  1  0.67297172  0.58113714  0.50334718  1
  Ca2+  Ca11  1  0.65508030  0.56689214  0.83556210  1
  Ca2+  Ca12  1  0.08592163  0.32966505  0.17044030  1
  Ca2+  Ca13  1  0.08403098  0.32805838  0.48897368  1
  Ca2+  Ca14  1  0.07885585  0.33110787  0.82977446  1
  Ca2+  Ca15  1  0.08008540  0.83756298  0.17227913  1
  Ca2+  Ca16  1  0.08048824  0.82330011  0.48781690  1
  Ca2+  Ca17  1  0.08239329  0.82719141  0.82495442  1
  Ca2+  Ca18  1  0.57797211  0.32607206  0.15362686  1
  Ca2+  Ca19  1  0.58240862  0.33119481  0.50311715  1
  Ca2+  Ca20  1  0.58059758  0.32741655  0.82717074  1
  Ca2+  Ca21  1  0.58095311  0.83749964  0.17009569  1
  Ca2+  Ca22  1  0.57614250  0.84591414  0.49556793  1
  Ca2+  Ca23  1  0.57657322  0.83378713  0.82451870  1
  Ca2+  Ca24  1  0.33341953  0.42100108  0.17081229  1
  Ca2+  Ca25  1  0.32838869  0.42137173  0.50614770  1
  Ca2+  Ca26  1  0.34679649  0.42556214  0.83574394  1
  Ca2+  Ca27  1  0.33262431  0.92881384  0.17709260  1
  Ca2+  Ca28  1  0.33503014  0.91528010  0.49906285  1
  Ca2+  Ca29  1  0.33653444  0.92149118  0.83653424  1
  Ca2+  Ca30  1  0.82707618  0.42059622  0.17126854  1
  Ca2+  Ca31  1  0.83073187  0.42269376  0.50297824  1
  Ca2+  Ca32  1  0.81719679  0.41198463  0.83566376  1
  Ca2+  Ca33  1  0.82755617  0.92333854  0.17869975  1
  Ca2+  Ca34  1  0.82885965  0.92118512  0.50352914  1
  Ca2+  Ca35  1  0.82620569  0.92705853  0.83599681  1
  Ca2+  Ca36  1  0.41928445  0.16852295  0.15660709  1
  Ca2+  Ca37  1  0.42239735  0.16623475  0.49576306  1
  Ca2+  Ca38  1  0.42687806  0.17534285  0.82732436  1
  Ca2+  Ca39  1  0.41017899  0.67392243  0.16540657  1
  Ca2+  Ca40  1  0.41433801  0.67777971  0.49796203  1
  Ca2+  Ca41  1  0.41137191  0.67007510  0.82374172  1
  Ca2+  Ca42  1  0.92253636  0.15280551  0.16707460  1
  Ca2+  Ca43  1  0.91824875  0.16232480  0.49322397  1
  Ca2+  Ca44  1  0.91170339  0.16236072  0.83023437  1
  Ca2+  Ca45  1  0.91646970  0.66904218  0.17032756  1
  Ca2+  Ca46  1  0.92421662  0.66956898  0.48648920  1
  Ca2+  Ca47  1  0.92618563  0.66735964  0.82528605  1
  Al0+  Al48  1  -0.00176375  -0.00202390  -0.00050148  1
  Al0+  Al49  1  0.00276458  -0.00044364  0.33164484  1
  Al0+  Al50  1  0.00055519  -0.00084998  0.67129118  1
  Al0+  Al51  1  0.00079851  0.50017373  -0.00328752  1
  Al0+  Al52  1  -0.00052133  0.49842285  0.33529819  1
  Al0+  Al53  1  0.00140802  0.49784986  0.66449451  1
  Al0+  Al54  1  0.50042861  -0.00070712  -0.00100095  1
  Al0+  Al55  1  0.50118263  0.00227177  0.33362414  1
  Al0+  Al56  1  0.50033340  0.00099815  0.66345357  1
  Al0+  Al57  1  0.49937621  0.50179455  0.00887711  1
  Al0+  Al58  1  0.49895394  0.50010158  0.33363833  1
  Al0+  Al59  1  0.49920308  0.50120107  0.66744823  1
  Al0+  Al60  1  0.24870423  0.25112923  -0.00268358  1
  Al0+  Al61  1  0.24989876  0.25222680  0.33717698  1
  Al0+  Al62  1  0.24881620  0.25072530  0.66488620  1
  Al0+  Al63  1  0.24836359  0.74837665  0.00355000  1
  Al0+  Al64  1  0.25136797  0.75055219  0.32550490  1
  Al0+  Al65  1  0.24918497  0.74932964  0.66255136  1
  Al0+  Al66  1  0.75140614  0.24953542  0.00643994  1
  Al0+  Al67  1  0.74891026  0.25049580  0.33630348  1
  Al0+  Al68  1  0.75096050  0.25116221  0.66780730  1
  Al0+  Al69  1  0.75043165  0.75031885  -0.00393482  1
  Al0+  Al70  1  0.74872155  0.74768286  0.33622075  1
  Al0+  Al71  1  0.75070032  0.75169853  0.67261469  1
  Al0+  Al72  1  0.43004494  0.82098562  0.65363144  1
  Al0+  Al73  1  0.32242658  0.07298565  0.34955129  1
  Al0+  Al74  1  0.82031660  0.06972864  0.01604937  1
  Al0+  Al75  1  0.18009625  0.43089002  0.34649839  1
  Al0+  Al76  1  0.67966959  0.42984311  0.01477740  1
  Al0+  Al77  1  0.81977972  0.56926328  0.34558552  1
  Al0+  Al78  1  0.42743102  0.32319676  0.98560742  1
  Al0+  Al79  1  0.31756222  0.57051740  0.67789539  1
  Al0+  Al80  1  0.18066489  0.92765790  0.34820235  1
  Al0+  Al81  1  0.07076610  0.17947052  0.32012664  1
  Al0+  Al82  1  0.57264069  0.18028536  0.64881909  1
  Al0+  Al83  1  0.67884759  0.92834253  0.34770611  1
  Al0+  Al84  1  0.07149637  0.67611506  0.31522910  1
  Al0+  Al85  1  0.82193004  0.07034316  0.68286332  1
  Al0+  Al86  1  0.43089154  0.82212003  0.31772517  1
  Al0+  Al87  1  0.82279734  0.07152040  0.34864283  1
  Al0+  Al88  1  0.92714425  0.82065663  0.31851499  1
  Al0+  Al89  1  0.68013060  0.43165422  0.67913371  1
  Al0+  Al90  1  0.32091294  0.07101515  0.01109842  1
  Al0+  Al91  1  0.06960017  0.67901389  0.65284836  1
  Al0+  Al92  1  0.42823445  0.32344830  0.64943222  1
  Al0+  Al93  1  0.32044031  0.57106163  0.01520448  1
  Al0+  Al94  1  0.67590214  0.92874065  0.68437067  1
  Al0+  Al95  1  0.57297918  0.17820353  0.98530950  1
  Si0+  Si96  1  0.67764776  0.92471066  0.01720720  1
  Si0+  Si97  1  0.17666365  0.42532954  0.68514423  1
  Si0+  Si98  1  0.57142436  0.67500434  0.31597301  1
  Si0+  Si99  1  0.92968948  0.31980251  0.65176932  1
  Si0+  Si100  1  0.57387242  0.67754693  0.65150841  1
  Si0+  Si101  1  0.67533257  0.42738650  0.35113603  1
  Si0+  Si102  1  0.32086587  0.07337097  0.68163106  1
  Si0+  Si103  1  0.07019677  0.17744928  0.98459577  1
  Si0+  Si104  1  0.82438598  0.57280050  0.01444618  1
  Si0+  Si105  1  0.92599549  0.32135418  0.31627698  1
  Si0+  Si106  1  0.42897809  0.32210249  0.31831504  1
  Si0+  Si107  1  0.32286827  0.57298708  0.35064637  1
  Si0+  Si108  1  0.92995978  0.32222649  0.98553120  1
  Si0+  Si109  1  0.57132177  0.18101366  0.31780343  1
  Si0+  Si110  1  0.82511504  0.57227319  0.68357991  1
  Si0+  Si111  1  0.92822852  0.82238109  0.65128209  1
  Si0+  Si112  1  0.57182765  0.67951846  0.98597532  1
  Si0+  Si113  1  0.18070754  0.92920323  0.68094728  1
  Si0+  Si114  1  0.42789628  0.81943010  0.98555104  1
  Si0+  Si115  1  0.92818871  0.82136179  0.98221716  1
  Si0+  Si116  1  0.07055868  0.67853692  0.98317630  1
  Si0+  Si117  1  0.07150789  0.17701203  0.65271137  1
  Si0+  Si118  1  0.17459281  0.42825872  0.01580380  1
  Si0+  Si119  1  0.17755856  0.92748268  0.01590823  1
  O2-  O120  1  0.24572958  -0.00280115  0.05807606  1
  O2-  O121  1  0.25306260  -0.00178417  0.39990819  1
  O2-  O122  1  0.25083791  0.00074928  0.72403883  1
  O2-  O123  1  0.24809185  0.49254174  0.05837936  1
  O2-  O124  1  0.25060818  0.50839273  0.39445227  1
  O2-  O125  1  0.24702284  0.49282075  0.72804632  1
  O2-  O126  1  0.74351514  -0.00351558  0.06005971  1
  O2-  O127  1  0.75382097  -0.00303585  0.39774248  1
  O2-  O128  1  0.74723183  0.00165539  0.73404160  1
  O2-  O129  1  0.75459941  0.50573997  0.05892099  1
  O2-  O130  1  0.74484645  0.49580754  0.39364426  1
  O2-  O131  1  0.75255852  0.50828592  0.72848800  1
  O2-  O132  1  -0.00832923  0.24960192  0.27191813  1
  O2-  O133  1  0.00049518  0.24817192  0.61127074  1
  O2-  O134  1  -0.00125345  0.24858929  0.94262118  1
  O2-  O135  1  -0.00002270  0.74958178  0.26601409  1
  O2-  O136  1  -0.00959608  0.74838411  0.60711715  1
  O2-  O137  1  -0.00031418  0.74984088  0.94087238  1
  O2-  O138  1  0.50040112  0.25221119  0.27582150  1
  O2-  O139  1  0.49788589  0.24993334  0.59841257  1
  O2-  O140  1  0.49978496  0.25059821  0.93668241  1
  O2-  O141  1  0.50474410  0.74575348  0.27142237  1
  O2-  O142  1  0.50992081  0.75074075  0.60791657  1
  O2-  O143  1  0.49966666  0.74927013  0.94309413  1
  O2-  O144  1  0.07071414  0.17732871  0.08915583  1
  O2-  O145  1  0.07140065  0.18317809  0.43350488  1
  O2-  O146  1  0.07229585  0.17821723  0.75846984  1
  O2-  O147  1  0.06967343  0.67583815  0.08730916  1
  O2-  O148  1  0.06891092  0.67607630  0.42896418  1
  O2-  O149  1  0.07045011  0.68226430  0.76698461  1
  O2-  O150  1  0.57182865  0.17944877  0.09931895  1
  O2-  O151  1  0.57208182  0.18274858  0.42259047  1
  O2-  O152  1  0.57173700  0.18241801  0.76264808  1
  O2-  O153  1  0.57466352  0.68145215  0.09076028  1
  O2-  O154  1  0.56898862  0.66908856  0.42114997  1
  O2-  O155  1  0.56953647  0.67549334  0.75766987  1
  O2-  O156  1  0.18345480  0.42939327  0.23298279  1
  O2-  O157  1  0.17424759  0.42503414  0.57995233  1
  O2-  O158  1  0.16738327  0.43148340  0.91045916  1
  O2-  O159  1  0.18265141  0.93158445  0.23411331  1
  O2-  O160  1  0.17908074  0.92980993  0.57680468  1
  O2-  O161  1  0.17781383  0.92689268  0.90934980  1
  O2-  O162  1  0.67506074  0.42795996  0.24536804  1
  O2-  O163  1  0.68380414  0.43360596  0.56622226  1
  O2-  O164  1  0.68040387  0.43092853  0.90155004  1
  O2-  O165  1  0.67804928  0.93200411  0.23350116  1
  O2-  O166  1  0.67828756  0.92841102  0.57144627  1
  O2-  O167  1  0.67959144  0.92003512  0.91194021  1
  O2-  O168  1  0.42824405  0.32160358  0.09974143  1
  O2-  O169  1  0.43065960  0.32421365  0.42312390  1
  O2-  O170  1  0.42987696  0.32266123  0.76306444  1
  O2-  O171  1  0.42814342  0.81890658  0.09027600  1
  O2-  O172  1  0.43163241  0.81961475  0.43075982  1
  O2-  O173  1  0.42715520  0.81812996  0.76760214  1
  O2-  O174  1  0.93274282  0.32748764  0.08986483  1
  O2-  O175  1  0.92720884  0.32245981  0.42212491  1
  O2-  O176  1  0.93111140  0.32170865  0.75746657  1
  O2-  O177  1  0.92688860  0.82171199  0.08655954  1
  O2-  O178  1  0.92793985  0.81754829  0.43222103  1
  O2-  O179  1  0.93303522  0.82230140  0.75766602  1
  O2-  O180  1  0.32186369  0.07386204  0.23544483  1
  O2-  O181  1  0.31833191  0.07454567  0.57712777  1
  O2-  O182  1  0.31833793  0.06771253  0.89745276  1
  O2-  O183  1  0.32474324  0.56847779  0.24479084  1
  O2-  O184  1  0.31419647  0.57173458  0.56533623  1
  O2-  O185  1  0.31793319  0.57582656  0.90200283  1
  O2-  O186  1  0.81857843  0.07156925  0.23482638  1
  O2-  O187  1  0.82672023  0.06757758  0.57016706  1
  O2-  O188  1  0.82332303  0.06759773  0.90319700  1
  O2-  O189  1  0.81744808  0.56629454  0.23195561  1
  O2-  O190  1  0.82626916  0.56922480  0.57826346  1
  O2-  O191  1  0.82679843  0.57082297  0.90881810  1
  O2-  O192  1  0.04620809  0.08274478  0.26367786  1
  O2-  O193  1  0.04398371  0.08452648  0.60718250  1
  O2-  O194  1  0.04257924  0.08529018  0.93660030  1
  O2-  O195  1  0.03963295  0.57761416  0.26344434  1
  O2-  O196  1  0.04457719  0.57988378  0.60135505  1
  O2-  O197  1  0.04269753  0.58748546  0.93329089  1
  O2-  O198  1  0.54408034  0.08987953  0.26970849  1
  O2-  O199  1  0.54489533  0.08155294  0.59741905  1
  O2-  O200  1  0.54627969  0.07859619  0.93294464  1
  O2-  O201  1  0.54264910  0.58255069  0.26695704  1
  O2-  O202  1  0.54513341  0.58646994  0.60311928  1
  O2-  O203  1  0.54259793  0.58714360  0.94115214  1
  O2-  O204  1  0.16622883  0.21688780  0.26622213  1
  O2-  O205  1  0.16245339  0.20430998  0.60437541  1
  O2-  O206  1  0.16065836  0.20571122  0.93417637  1
  O2-  O207  1  0.17033480  0.70179494  0.26214969  1
  O2-  O208  1  0.16326138  0.71361795  0.59774387  1
  O2-  O209  1  0.16241825  0.70870277  0.93605528  1
  O2-  O210  1  0.66336458  0.20965039  0.27043095  1
  O2-  O211  1  0.67090759  0.21212061  0.59743806  1
  O2-  O212  1  0.67263885  0.20862298  0.93553731  1
  O2-  O213  1  0.66554933  0.69775207  0.27022387  1
  O2-  O214  1  0.67097829  0.69714025  0.61016884  1
  O2-  O215  1  0.66333448  0.70467509  0.93559912  1
  O2-  O216  1  0.08349473  0.45947519  0.06443678  1
  O2-  O217  1  0.08224985  0.45543337  0.40063072  1
  O2-  O218  1  0.08312879  0.45231286  0.73183008  1
  O2-  O219  1  0.08342585  0.95229863  0.05986467  1
  O2-  O220  1  0.08269355  0.95584776  0.40086071  1
  O2-  O221  1  0.09000086  0.95642337  0.73198624  1
  O2-  O222  1  0.58555464  0.46204182  0.07200951  1
  O2-  O223  1  0.58235423  0.45472283  0.39707324  1
  O2-  O224  1  0.58371705  0.46180529  0.73412272  1
  O2-  O225  1  0.58232929  0.94653665  0.06047299  1
  O2-  O226  1  0.58283627  0.96236871  0.40057474  1
  O2-  O227  1  0.57614876  0.95609964  0.73589263  1
  O2-  O228  1  0.19468152  0.33245092  0.05886590  1
  O2-  O229  1  0.21270158  0.33705705  0.40378564  1
  O2-  O230  1  0.19888071  0.33083573  0.73151364  1
  O2-  O231  1  0.20185196  0.83427089  0.06186300  1
  O2-  O232  1  0.20812294  0.82734109  0.39740655  1
  O2-  O233  1  0.21008505  0.83811315  0.72932066  1
  O2-  O234  1  0.71251700  0.33552645  0.07083674  1
  O2-  O235  1  0.70136243  0.33486290  0.39780773  1
  O2-  O236  1  0.71468085  0.33710746  0.73445474  1
  O2-  O237  1  0.70693195  0.83181290  0.06348856  1
  O2-  O238  1  0.69830893  0.82748256  0.39830943  1
  O2-  O239  1  0.70289127  0.82945779  0.73892032  1
  O2-  O240  1  0.45610290  0.41441766  0.27040489  1
  O2-  O241  1  0.45783057  0.42197997  0.59717594  1
  O2-  O242  1  0.45780265  0.42380752  0.93776060  1
  O2-  O243  1  0.46332511  0.91887082  0.26373805  1
  O2-  O244  1  0.45460220  0.91847362  0.59960563  1
  O2-  O245  1  0.45443544  0.91117420  0.93727359  1
  O2-  O246  1  0.95580029  0.41282675  0.26865701  1
  O2-  O247  1  0.95805632  0.41085346  0.60290111  1
  O2-  O248  1  0.95942021  0.41213911  0.93378206  1
  O2-  O249  1  0.95706552  0.91842400  0.26437066  1
  O2-  O250  1  0.95993655  0.91432349  0.60640224  1
  O2-  O251  1  0.95831983  0.91192614  0.93281235  1
  O2-  O252  1  0.33710559  0.29458294  0.27189911  1
  O2-  O253  1  0.32721146  0.29788230  0.60003559  1
  O2-  O254  1  0.32734795  0.29973872  0.93259633  1
  O2-  O255  1  0.33573090  0.79252747  0.26017920  1
  O2-  O256  1  0.33566180  0.78578045  0.59871462  1
  O2-  O257  1  0.33503008  0.79109581  0.93945213  1
  O2-  O258  1  0.83042324  0.30047600  0.27173666  1
  O2-  O259  1  0.83864635  0.29428250  0.60325590  1
  O2-  O260  1  0.83780025  0.29414550  0.93950208  1
  O2-  O261  1  0.82865094  0.78955120  0.26556143  1
  O2-  O262  1  0.83151751  0.80371667  0.61006988  1
  O2-  O263  1  0.83710106  0.79339220  0.93256216  1
  O2-  O264  1  0.41735855  0.04000512  0.06492392  1
  O2-  O265  1  0.42079302  0.04560333  0.40104228  1
  O2-  O266  1  0.41272839  0.04558599  0.72770968  1
  O2-  O267  1  0.41624971  0.54608352  0.07284893  1
  O2-  O268  1  0.41509399  0.54379512  0.39738370  1
  O2-  O269  1  0.41542509  0.54440486  0.73241207  1
  O2-  O270  1  0.91738614  0.03582006  0.06770869  1
  O2-  O271  1  0.92344897  0.04824516  0.39710944  1
  O2-  O272  1  0.91998972  0.03994355  0.73873955  1
  O2-  O273  1  0.91729784  0.54509381  0.06056420  1
  O2-  O274  1  0.91459049  0.53670126  0.40116831  1
  O2-  O275  1  0.91735200  0.54112716  0.73043634  1
  O2-  O276  1  0.28993451  0.16849348  0.06308493  1
  O2-  O277  1  0.29097784  0.16960975  0.40309497  1
  O2-  O278  1  0.28989689  0.16408199  0.72999065  1
  O2-  O279  1  0.28572999  0.66592975  0.07070142  1
  O2-  O280  1  0.30187774  0.66900480  0.39111329  1
  O2-  O281  1  0.28296650  0.66600152  0.73379123  1
  O2-  O282  1  0.79684412  0.16740949  0.07040787  1
  O2-  O283  1  0.79377990  0.17044102  0.40058478  1
  O2-  O284  1  0.79667360  0.17059235  0.73382681  1
  O2-  O285  1  0.79928631  0.66742097  0.05804480  1
  O2-  O286  1  0.79023849  0.66407520  0.40247359  1
  O2-  O287  1  0.80705172  0.66781861  0.72849686  1
