# generated using pymatgen
data_Ca2Al2SiO7
_symmetry_space_group_name_H-M   'P 1'
_cell_length_a   15.47130675
_cell_length_b   15.47251420
_cell_length_c   15.29594117
_cell_angle_alpha   90.01031248
_cell_angle_beta   90.00360181
_cell_angle_gamma   90.00338164
_symmetry_Int_Tables_number   1
_chemical_formula_structural   Ca2Al2SiO7
_chemical_formula_sum   'Ca48 Al48 Si24 O168'
_cell_volume   3661.54253029
_cell_formula_units_Z   24
loop_
 _symmetry_equiv_pos_site_id
 _symmetry_equiv_pos_as_xyz
  1  'x, y, z'
loop_
 _atom_type_symbol
 _atom_type_oxidation_number
  Ca2+  2.0
  Al0+  0.0
  Si0+  0.0
  O2-  -2.0
loop_
 _atom_site_type_symbol
 _atom_site_label
 _atom_site_symmetry_multiplicity
 _atom_site_fract_x
 _atom_site_fract_y
 _atom_site_fract_z
 _atom_site_occupancy
  Ca2+  Ca0  1  0.17612965  0.07768823  0.17220693  1
  Ca2+  Ca1  1  0.17467310  0.08018608  0.50245885  1
  Ca2+  Ca2  1  0.18023693  0.07058405  0.83481003  1
  Ca2+  Ca3  1  0.17136769  0.58722686  0.16328149  1
  Ca2+  Ca4  1  0.16745316  0.57593840  0.50321170  1
  Ca2+  Ca5  1  0.17296173  0.58302452  0.84296877  1
  Ca2+  Ca6  1  0.66192485  0.07162662  0.17156508  1
  Ca2+  Ca7  1  0.66659031  0.07703764  0.50656986  1
  Ca2+  Ca8  1  0.66229274  0.07359740  0.83220624  1
  Ca2+  Ca9  1  0.65927506  0.57295477  0.16978434  1
  Ca2+  Ca10  1  0.66220508  0.58311203  0.50757848  1
  Ca2+  Ca11  1  0.65609926  0.57742265  0.83860266  1
  Ca2+  Ca12  1  0.08665979  0.32390205  0.16580717  1
  Ca2+  Ca13  1  0.08102576  0.32203941  0.49200829  1
  Ca2+  Ca14  1  0.08089002  0.33024615  0.82961810  1
  Ca2+  Ca15  1  0.08217126  0.83916504  0.15976081  1
  Ca2+  Ca16  1  0.07224906  0.85370279  0.49760851  1
  Ca2+  Ca17  1  0.08707063  0.83590348  0.82781956  1
  Ca2+  Ca18  1  0.57583425  0.32453363  0.16176974  1
  Ca2+  Ca19  1  0.57423322  0.31468656  0.49701457  1
  Ca2+  Ca20  1  0.57615954  0.32609989  0.82678411  1
  Ca2+  Ca21  1  0.57803269  0.83901570  0.16051429  1
  Ca2+  Ca22  1  0.58205250  0.83994862  0.49970506  1
  Ca2+  Ca23  1  0.57574782  0.83586646  0.82693550  1
  Ca2+  Ca24  1  0.34591412  0.42180652  0.16800169  1
  Ca2+  Ca25  1  0.34264560  0.41244888  0.50238283  1
  Ca2+  Ca26  1  0.34480650  0.42301518  0.83944744  1
  Ca2+  Ca27  1  0.32685396  0.92501196  0.17101699  1
  Ca2+  Ca28  1  0.32746951  0.92981521  0.50901708  1
  Ca2+  Ca29  1  0.33598352  0.92208961  0.84167949  1
  Ca2+  Ca30  1  0.82664849  0.41723212  0.16738322  1
  Ca2+  Ca31  1  0.83234853  0.42171060  0.50621657  1
  Ca2+  Ca32  1  0.82287903  0.42063624  0.84270512  1
  Ca2+  Ca33  1  0.82193554  0.90908872  0.17177332  1
  Ca2+  Ca34  1  0.82568478  0.91611014  0.50779132  1
  Ca2+  Ca35  1  0.82301185  0.91420202  0.82930797  1
  Ca2+  Ca36  1  0.41248486  0.16924905  0.16368720  1
  Ca2+  Ca37  1  0.41943950  0.16455007  0.49330390  1
  Ca2+  Ca38  1  0.41303162  0.17323009  0.82594148  1
  Ca2+  Ca39  1  0.41262616  0.67633201  0.15708418  1
  Ca2+  Ca40  1  0.42101270  0.67697351  0.50591292  1
  Ca2+  Ca41  1  0.41539890  0.68099751  0.83087620  1
  Ca2+  Ca42  1  0.92609318  0.15962819  0.16553121  1
  Ca2+  Ca43  1  0.92341954  0.15532192  0.49537558  1
  Ca2+  Ca44  1  0.91523380  0.16166272  0.82702870  1
  Ca2+  Ca45  1  0.92561500  0.67405719  0.16267436  1
  Ca2+  Ca46  1  0.91798667  0.68283666  0.49625614  1
  Ca2+  Ca47  1  0.92592675  0.67448443  0.82840740  1
  Al0+  Al48  1  -0.00103589  0.00067202  -0.00170462  1
  Al0+  Al49  1  -0.00223679  0.00034575  0.32224685  1
  Al0+  Al50  1  0.00067910  0.00049991  0.67132592  1
  Al0+  Al51  1  -0.00012556  0.50086568  -0.00283271  1
  Al0+  Al52  1  0.00029708  0.50189719  0.33341546  1
  Al0+  Al53  1  -0.00028469  0.50024958  0.66720159  1
  Al0+  Al54  1  0.50207846  0.00172218  0.00428310  1
  Al0+  Al55  1  0.49972304  -0.00108829  0.33632529  1
  Al0+  Al56  1  0.50012484  0.00142647  0.66715133  1
  Al0+  Al57  1  0.50012647  0.49821038  0.00773541  1
  Al0+  Al58  1  0.50077648  0.49955137  0.33481829  1
  Al0+  Al59  1  0.49941274  0.49984943  0.66011017  1
  Al0+  Al60  1  0.24856881  0.25076188  -0.00383712  1
  Al0+  Al61  1  0.24838636  0.25270277  0.32800735  1
  Al0+  Al62  1  0.24584750  0.25144255  0.66720892  1
  Al0+  Al63  1  0.24967145  0.74825137  -0.00065314  1
  Al0+  Al64  1  0.24877928  0.74703678  0.34069595  1
  Al0+  Al65  1  0.25041689  0.74508554  0.66269342  1
  Al0+  Al66  1  0.75070785  0.25114226  0.00541537  1
  Al0+  Al67  1  0.74786044  0.25101649  0.33057974  1
  Al0+  Al68  1  0.74898950  0.25322617  0.66600954  1
  Al0+  Al69  1  0.75297894  0.74871631  0.00356578  1
  Al0+  Al70  1  0.75179709  0.74797665  0.33209838  1
  Al0+  Al71  1  0.75443936  0.74848265  0.66505674  1
  Al0+  Al72  1  0.07079748  0.68055067  0.98595152  1
  Al0+  Al73  1  0.06913479  0.17946274  0.31834106  1
  Al0+  Al74  1  0.93354099  0.82116591  0.65356867  1
  Al0+  Al75  1  0.42686863  0.31960046  0.65213540  1
  Al0+  Al76  1  0.42943128  0.32046171  0.98549824  1
  Al0+  Al77  1  0.17615501  0.92782489  0.34756809  1
  Al0+  Al78  1  0.67994739  0.92729222  0.34732694  1
  Al0+  Al79  1  0.32197726  0.07376480  0.01505497  1
  Al0+  Al80  1  0.42736464  0.82351603  0.65191984  1
  Al0+  Al81  1  0.67888490  0.42952229  0.01537650  1
  Al0+  Al82  1  0.67846989  0.92692498  0.68126852  1
  Al0+  Al83  1  0.57260640  0.17779238  0.65278479  1
  Al0+  Al84  1  0.32017519  0.56915296  0.01295385  1
  Al0+  Al85  1  0.17946253  0.92787376  0.01369242  1
  Al0+  Al86  1  0.42936761  0.32086614  0.31618494  1
  Al0+  Al87  1  0.43088038  0.82217961  0.98993862  1
  Al0+  Al88  1  0.32238358  0.07318073  0.68111368  1
  Al0+  Al89  1  0.68085443  0.92808272  0.01371400  1
  Al0+  Al90  1  0.57125834  0.17515853  0.31559080  1
  Al0+  Al91  1  0.57184750  0.68007896  0.65479833  1
  Al0+  Al92  1  0.82117783  0.07303181  0.67958300  1
  Al0+  Al93  1  0.93008662  0.82028807  0.31776034  1
  Al0+  Al94  1  0.31949441  0.07268800  0.34808550  1
  Al0+  Al95  1  0.18048507  0.92740411  0.68061550  1
  Si0+  Si96  1  0.07272472  0.67452521  0.64776655  1
  Si0+  Si97  1  0.42764733  0.81894987  0.32010534  1
  Si0+  Si98  1  0.92771996  0.32400522  0.65258961  1
  Si0+  Si99  1  0.82394183  0.57106235  0.68329464  1
  Si0+  Si100  1  0.17479943  0.42820353  0.01655611  1
  Si0+  Si101  1  0.06734310  0.18104339  0.65250629  1
  Si0+  Si102  1  0.57452438  0.17878693  0.98308299  1
  Si0+  Si103  1  0.57111924  0.67918272  0.31880910  1
  Si0+  Si104  1  0.82085636  0.07317475  0.34621169  1
  Si0+  Si105  1  0.92661615  0.82300554  0.98067893  1
  Si0+  Si106  1  0.92743531  0.32585038  0.31648193  1
  Si0+  Si107  1  0.57352764  0.67753925  0.98874548  1
  Si0+  Si108  1  0.82145258  0.56900647  0.34975019  1
  Si0+  Si109  1  0.17791040  0.43047221  0.34754820  1
  Si0+  Si110  1  0.07270365  0.67499920  0.31620008  1
  Si0+  Si111  1  0.82444369  0.57070442  0.01841652  1
  Si0+  Si112  1  0.32143662  0.56709786  0.68136179  1
  Si0+  Si113  1  0.07039521  0.17832575  0.98091911  1
  Si0+  Si114  1  0.67942196  0.43298181  0.68114161  1
  Si0+  Si115  1  0.17549917  0.42944624  0.68202064  1
  Si0+  Si116  1  0.32352198  0.57041102  0.35195615  1
  Si0+  Si117  1  0.82204592  0.07335063  0.01770580  1
  Si0+  Si118  1  0.92876401  0.32033545  0.98503418  1
  Si0+  Si119  1  0.67832528  0.42932800  0.35215901  1
  O2-  O120  1  0.25112833  -0.00032918  0.06361247  1
  O2-  O121  1  0.24862748  -0.00104582  0.39716897  1
  O2-  O122  1  0.25993073  -0.00850797  0.72992900  1
  O2-  O123  1  0.24687588  0.49296287  0.06077671  1
  O2-  O124  1  0.25173446  0.49791364  0.39096719  1
  O2-  O125  1  0.24895674  0.49740768  0.72348985  1
  O2-  O126  1  0.75575528  0.00261942  0.06116938  1
  O2-  O127  1  0.75198251  0.00591024  0.39096804  1
  O2-  O128  1  0.74750249  0.00327075  0.72992628  1
  O2-  O129  1  0.75158539  0.50666186  0.06296606  1
  O2-  O130  1  0.75134405  0.49849350  0.39446505  1
  O2-  O131  1  0.74860131  0.50499395  0.72549752  1
  O2-  O132  1  -0.00773349  0.25403274  0.27224049  1
  O2-  O133  1  -0.00645130  0.24958520  0.60936030  1
  O2-  O134  1  -0.00252331  0.24913751  0.94017696  1
  O2-  O135  1  0.01093151  0.75031026  0.27358122  1
  O2-  O136  1  0.01124911  0.74965601  0.60469996  1
  O2-  O137  1  0.00008241  0.75825317  0.93839682  1
  O2-  O138  1  0.49714980  0.24552402  0.26604289  1
  O2-  O139  1  0.49223873  0.24154637  0.60344164  1
  O2-  O140  1  0.50164232  0.24359636  0.93951485  1
  O2-  O141  1  0.50081399  0.74991404  0.27649897  1
  O2-  O142  1  0.50680643  0.75733940  0.60286107  1
  O2-  O143  1  0.50929443  0.74950520  0.94489193  1
  O2-  O144  1  0.06901877  0.18016256  0.08599520  1
  O2-  O145  1  0.06686344  0.18257967  0.43179602  1
  O2-  O146  1  0.06625591  0.18600650  0.75752329  1
  O2-  O147  1  0.06701529  0.67679836  0.09897038  1
  O2-  O148  1  0.06743432  0.66396925  0.42087269  1
  O2-  O149  1  0.06881790  0.66730379  0.75293273  1
  O2-  O150  1  0.57747635  0.18122026  0.08846457  1
  O2-  O151  1  0.57494437  0.17835630  0.42873638  1
  O2-  O152  1  0.57939507  0.18502931  0.76609142  1
  O2-  O153  1  0.57168751  0.67722353  0.09472970  1
  O2-  O154  1  0.57078439  0.67755656  0.42364638  1
  O2-  O155  1  0.56631648  0.67382080  0.76816521  1
  O2-  O156  1  0.17282392  0.43375182  0.24301068  1
  O2-  O157  1  0.16934546  0.43157923  0.57699737  1
  O2-  O158  1  0.17043662  0.43095947  0.91092782  1
  O2-  O159  1  0.17921027  0.92734450  0.23410954  1
  O2-  O160  1  0.17629203  0.93570974  0.56753585  1
  O2-  O161  1  0.18037538  0.92923558  0.90032625  1
  O2-  O162  1  0.67917925  0.43237875  0.24708846  1
  O2-  O163  1  0.68354357  0.43512346  0.57605023  1
  O2-  O164  1  0.68127195  0.43084928  0.90194747  1
  O2-  O165  1  0.68207755  0.92471101  0.23402078  1
  O2-  O166  1  0.68383066  0.92502865  0.56785502  1
  O2-  O167  1  0.68172168  0.92596132  0.90123685  1
  O2-  O168  1  0.43240953  0.32231991  0.09806740  1
  O2-  O169  1  0.43293101  0.32308087  0.42944928  1
  O2-  O170  1  0.43168426  0.32422140  0.76562096  1
  O2-  O171  1  0.43044672  0.81898188  0.10358387  1
  O2-  O172  1  0.42846854  0.81606312  0.42484151  1
  O2-  O173  1  0.42539844  0.81841445  0.76562351  1
  O2-  O174  1  0.93009863  0.32080980  0.09006645  1
  O2-  O175  1  0.93043523  0.33033450  0.42214748  1
  O2-  O176  1  0.93069451  0.32839054  0.75759362  1
  O2-  O177  1  0.92490670  0.81981582  0.08634600  1
  O2-  O178  1  0.92873315  0.81820417  0.43078146  1
  O2-  O179  1  0.93326819  0.81665823  0.76642820  1
  O2-  O180  1  0.31777990  0.07177270  0.23465041  1
  O2-  O181  1  0.31576719  0.07791187  0.56786994  1
  O2-  O182  1  0.32007838  0.07499008  0.90168170  1
  O2-  O183  1  0.32432218  0.57244193  0.24704717  1
  O2-  O184  1  0.32010549  0.56516469  0.57595897  1
  O2-  O185  1  0.31972013  0.56785477  0.89980458  1
  O2-  O186  1  0.82066613  0.07245231  0.24057200  1
  O2-  O187  1  0.82395355  0.07129198  0.56603516  1
  O2-  O188  1  0.82092804  0.07653728  0.91247272  1
  O2-  O189  1  0.82164154  0.56673546  0.24484835  1
  O2-  O190  1  0.82806734  0.56619792  0.57814266  1
  O2-  O191  1  0.82673638  0.56743076  0.91290123  1
  O2-  O192  1  0.03783524  0.08644838  0.25837259  1
  O2-  O193  1  0.04042529  0.08946269  0.60595000  1
  O2-  O194  1  0.04117494  0.08733412  0.93322810  1
  O2-  O195  1  0.03914206  0.58529075  0.26566742  1
  O2-  O196  1  0.03816667  0.58368196  0.59946308  1
  O2-  O197  1  0.03691143  0.58433277  0.93073654  1
  O2-  O198  1  0.54494236  0.07521622  0.26482167  1
  O2-  O199  1  0.55477677  0.07703420  0.60238500  1
  O2-  O200  1  0.55335210  0.08353764  0.94018484  1
  O2-  O201  1  0.54195927  0.58721947  0.27230010  1
  O2-  O202  1  0.53677625  0.58547348  0.59639769  1
  O2-  O203  1  0.54473794  0.58431466  0.94459207  1
  O2-  O204  1  0.16217879  0.21596935  0.26179947  1
  O2-  O205  1  0.15638923  0.21346776  0.60326547  1
  O2-  O206  1  0.15990882  0.20931196  0.93195301  1
  O2-  O207  1  0.17008745  0.69286406  0.27559980  1
  O2-  O208  1  0.16870696  0.68813462  0.60354098  1
  O2-  O209  1  0.16789633  0.70496834  0.93091549  1
  O2-  O210  1  0.66948199  0.20768874  0.26273461  1
  O2-  O211  1  0.66782770  0.21639062  0.59726680  1
  O2-  O212  1  0.66731164  0.21046258  0.93855454  1
  O2-  O213  1  0.66397518  0.70191723  0.27154613  1
  O2-  O214  1  0.67423211  0.69559551  0.60468632  1
  O2-  O215  1  0.66999331  0.69525468  0.94517339  1
  O2-  O216  1  0.08273747  0.45721836  0.06425903  1
  O2-  O217  1  0.08732107  0.46124904  0.39759520  1
  O2-  O218  1  0.08522456  0.46009403  0.73216512  1
  O2-  O219  1  0.07904359  0.95693601  0.06306814  1
  O2-  O220  1  0.07606849  0.96105458  0.39396771  1
  O2-  O221  1  0.08550043  0.96267561  0.73623799  1
  O2-  O222  1  0.58520782  0.46029018  0.07412059  1
  O2-  O223  1  0.58861515  0.46192003  0.40000382  1
  O2-  O224  1  0.58718287  0.46162936  0.72677714  1
  O2-  O225  1  0.58580150  0.95949076  0.06996925  1
  O2-  O226  1  0.58240808  0.95347770  0.40007562  1
  O2-  O227  1  0.57902622  0.95124041  0.73328221  1
  O2-  O228  1  0.19654149  0.33304604  0.05925571  1
  O2-  O229  1  0.20173831  0.33822025  0.39496842  1
  O2-  O230  1  0.19746484  0.33716932  0.72991247  1
  O2-  O231  1  0.20391828  0.82852637  0.06539919  1
  O2-  O232  1  0.19681857  0.82688750  0.39967136  1
  O2-  O233  1  0.19700744  0.82238228  0.72449077  1
  O2-  O234  1  0.71522566  0.33598671  0.07195786  1
  O2-  O235  1  0.70565580  0.33689283  0.39781427  1
  O2-  O236  1  0.70922019  0.34282280  0.72949070  1
  O2-  O237  1  0.71097028  0.83078842  0.06863541  1
  O2-  O238  1  0.71364186  0.83035329  0.39919701  1
  O2-  O239  1  0.71262576  0.82893571  0.73331251  1
  O2-  O240  1  0.46371564  0.41965085  0.26578801  1
  O2-  O241  1  0.46163737  0.41493975  0.59668722  1
  O2-  O242  1  0.46406110  0.41817444  0.93507684  1
  O2-  O243  1  0.45364788  0.91096934  0.27378013  1
  O2-  O244  1  0.44870251  0.92351559  0.60098880  1
  O2-  O245  1  0.46073999  0.91922798  0.93718877  1
  O2-  O246  1  0.95760392  0.41744975  0.26844216  1
  O2-  O247  1  0.96069745  0.41348687  0.60254382  1
  O2-  O248  1  0.95699742  0.41157386  0.93645991  1
  O2-  O249  1  0.95267919  0.91628379  0.25976363  1
  O2-  O250  1  0.96173421  0.91915916  0.60071313  1
  O2-  O251  1  0.94618657  0.91869379  0.93734914  1
  O2-  O252  1  0.32795104  0.30360774  0.26557640  1
  O2-  O253  1  0.32364380  0.30273951  0.60380375  1
  O2-  O254  1  0.32992790  0.29794441  0.93256449  1
  O2-  O255  1  0.33591320  0.78627809  0.27512772  1
  O2-  O256  1  0.33289761  0.78453603  0.59590431  1
  O2-  O257  1  0.33669629  0.78611379  0.93560567  1
  O2-  O258  1  0.83223179  0.30502898  0.27256525  1
  O2-  O259  1  0.83485288  0.30406909  0.60502987  1
  O2-  O260  1  0.83607899  0.29427467  0.93830035  1
  O2-  O261  1  0.83637265  0.77998312  0.26282042  1
  O2-  O262  1  0.83915007  0.78591064  0.59789731  1
  O2-  O263  1  0.83510004  0.79022842  0.93426728  1
  O2-  O264  1  0.42114360  0.04940835  0.06713400  1
  O2-  O265  1  0.41783207  0.04392915  0.39990980  1
  O2-  O266  1  0.42397121  0.05710722  0.73090615  1
  O2-  O267  1  0.41525797  0.54054323  0.07114789  1
  O2-  O268  1  0.41457789  0.54076477  0.39989804  1
  O2-  O269  1  0.41247944  0.53657352  0.72795489  1
  O2-  O270  1  0.91679525  0.04913638  0.06180525  1
  O2-  O271  1  0.91510285  0.04639637  0.38915164  1
  O2-  O272  1  0.91756853  0.04310382  0.73595322  1
  O2-  O273  1  0.91518811  0.53784635  0.06628791  1
  O2-  O274  1  0.91288465  0.54045544  0.39801077  1
  O2-  O275  1  0.91301955  0.53678178  0.73281225  1
  O2-  O276  1  0.28868649  0.17216157  0.06593802  1
  O2-  O277  1  0.28901421  0.17272180  0.39696770  1
  O2-  O278  1  0.28319629  0.16915004  0.73431253  1
  O2-  O279  1  0.28626964  0.66341356  0.06933392  1
  O2-  O280  1  0.29444087  0.65973682  0.40300817  1
  O2-  O281  1  0.29483641  0.65911183  0.72807404  1
  O2-  O282  1  0.79875541  0.16664521  0.06567484  1
  O2-  O283  1  0.80124576  0.16920680  0.39098197  1
  O2-  O284  1  0.79937496  0.17512768  0.73015534  1
  O2-  O285  1  0.80471378  0.66527343  0.06391878  1
  O2-  O286  1  0.79257266  0.65998984  0.39722433  1
  O2-  O287  1  0.80321967  0.66373316  0.73004619  1
