# generated using pymatgen
data_Ca2Al2SiO7
_symmetry_space_group_name_H-M   'P 1'
_cell_length_a   15.45526896
_cell_length_b   15.45629372
_cell_length_c   15.28242219
_cell_angle_alpha   90.00028286
_cell_angle_beta   89.99967749
_cell_angle_gamma   89.99408424
_symmetry_Int_Tables_number   1
_chemical_formula_structural   Ca2Al2SiO7
_chemical_formula_sum   'Ca48 Al48 Si24 O168'
_cell_volume   3650.68297433
_cell_formula_units_Z   24
loop_
 _symmetry_equiv_pos_site_id
 _symmetry_equiv_pos_as_xyz
  1  'x, y, z'
loop_
 _atom_type_symbol
 _atom_type_oxidation_number
  Ca2+  2.0
  Al0+  0.0
  Si0+  0.0
  O2-  -2.0
loop_
 _atom_site_type_symbol
 _atom_site_label
 _atom_site_symmetry_multiplicity
 _atom_site_fract_x
 _atom_site_fract_y
 _atom_site_fract_z
 _atom_site_occupancy
  Ca2+  Ca0  1  0.17639030  0.08252900  0.17184432  1
  Ca2+  Ca1  1  0.16867204  0.07437439  0.50411129  1
  Ca2+  Ca2  1  0.16340381  0.08244845  0.83807245  1
  Ca2+  Ca3  1  0.17392507  0.57550431  0.17843377  1
  Ca2+  Ca4  1  0.17594441  0.58655610  0.50578580  1
  Ca2+  Ca5  1  0.17007798  0.58833117  0.83159744  1
  Ca2+  Ca6  1  0.66461101  0.07391849  0.16783411  1
  Ca2+  Ca7  1  0.67259558  0.07813572  0.51322623  1
  Ca2+  Ca8  1  0.66793415  0.07414199  0.83327720  1
  Ca2+  Ca9  1  0.66163767  0.58106895  0.17197528  1
  Ca2+  Ca10  1  0.66123374  0.57787409  0.49933466  1
  Ca2+  Ca11  1  0.66766310  0.58579903  0.84013904  1
  Ca2+  Ca12  1  0.07807414  0.33336326  0.15915731  1
  Ca2+  Ca13  1  0.08039877  0.32895868  0.49380212  1
  Ca2+  Ca14  1  0.08131490  0.31948120  0.83117108  1
  Ca2+  Ca15  1  0.08043762  0.83675398  0.16375624  1
  Ca2+  Ca16  1  0.08530152  0.83777243  0.50112937  1
  Ca2+  Ca17  1  0.07350311  0.83680324  0.82223337  1
  Ca2+  Ca18  1  0.57658725  0.33365324  0.16231968  1
  Ca2+  Ca19  1  0.58698362  0.32703532  0.49617126  1
  Ca2+  Ca20  1  0.57551003  0.32647014  0.82904248  1
  Ca2+  Ca21  1  0.57324823  0.82535656  0.15925680  1
  Ca2+  Ca22  1  0.57651230  0.82954218  0.49019544  1
  Ca2+  Ca23  1  0.58169478  0.83818546  0.83381798  1
  Ca2+  Ca24  1  0.32945889  0.41975503  0.17595919  1
  Ca2+  Ca25  1  0.33055733  0.43003088  0.50096740  1
  Ca2+  Ca26  1  0.33618299  0.42074224  0.83692775  1
  Ca2+  Ca27  1  0.33649097  0.92404863  0.17307848  1
  Ca2+  Ca28  1  0.32570664  0.91482199  0.50077838  1
  Ca2+  Ca29  1  0.32728635  0.92201430  0.84063577  1
  Ca2+  Ca30  1  0.83038419  0.41293424  0.17479675  1
  Ca2+  Ca31  1  0.83045583  0.41212018  0.49873938  1
  Ca2+  Ca32  1  0.83524360  0.41702492  0.83840271  1
  Ca2+  Ca33  1  0.82891207  0.91151548  0.16456493  1
  Ca2+  Ca34  1  0.82607373  0.92029096  0.51430716  1
  Ca2+  Ca35  1  0.82849290  0.91393372  0.83622157  1
  Ca2+  Ca36  1  0.40877190  0.17003830  0.15874780  1
  Ca2+  Ca37  1  0.42420568  0.15904662  0.49698565  1
  Ca2+  Ca38  1  0.41689261  0.16795340  0.83237294  1
  Ca2+  Ca39  1  0.42109669  0.67308296  0.16379745  1
  Ca2+  Ca40  1  0.41569744  0.67009730  0.49061315  1
  Ca2+  Ca41  1  0.42000226  0.67092222  0.83110775  1
  Ca2+  Ca42  1  0.92588259  0.17845169  0.16002336  1
  Ca2+  Ca43  1  0.92265097  0.16342984  0.49775073  1
  Ca2+  Ca44  1  0.92476561  0.16296189  0.82824703  1
  Ca2+  Ca45  1  0.92031876  0.67165767  0.15960072  1
  Ca2+  Ca46  1  0.92203397  0.67269061  0.50096264  1
  Ca2+  Ca47  1  0.92219954  0.67938237  0.82781055  1
  Al0+  Al48  1  -0.00153052  0.00000007  -0.00407659  1
  Al0+  Al49  1  0.00055794  0.00126104  0.33291459  1
  Al0+  Al50  1  -0.00098876  0.00211666  0.66457189  1
  Al0+  Al51  1  -0.00030669  0.50024375  -0.00309061  1
  Al0+  Al52  1  -0.00245088  0.50055623  0.33368933  1
  Al0+  Al53  1  0.00046054  0.50031954  0.66404070  1
  Al0+  Al54  1  0.49997171  -0.00099069  0.00556094  1
  Al0+  Al55  1  0.50180382  -0.00126951  0.33297894  1
  Al0+  Al56  1  0.49965803  0.00078241  0.66588891  1
  Al0+  Al57  1  0.50081738  0.49981677  -0.00705682  1
  Al0+  Al58  1  0.50208434  0.49719800  0.33878226  1
  Al0+  Al59  1  0.49841359  0.50086192  0.67091280  1
  Al0+  Al60  1  0.24970103  0.25084713  -0.00517625  1
  Al0+  Al61  1  0.25213287  0.24826902  0.34343454  1
  Al0+  Al62  1  0.24892682  0.25344878  0.66014744  1
  Al0+  Al63  1  0.25204555  0.74973267  -0.00065498  1
  Al0+  Al64  1  0.24898639  0.75198073  0.33375606  1
  Al0+  Al65  1  0.25075031  0.75035516  0.67390746  1
  Al0+  Al66  1  0.74990122  0.25023184  -0.00149085  1
  Al0+  Al67  1  0.75131732  0.24996564  0.33197329  1
  Al0+  Al68  1  0.74783650  0.24961016  0.66885197  1
  Al0+  Al69  1  0.75151941  0.74845867  -0.00116844  1
  Al0+  Al70  1  0.75052804  0.74814786  0.33044119  1
  Al0+  Al71  1  0.74869539  0.74758225  0.66569009  1
  Al0+  Al72  1  0.18043324  0.93158183  0.68174607  1
  Al0+  Al73  1  0.68055075  0.42825855  0.34631140  1
  Al0+  Al74  1  0.42894507  0.32072688  0.98782828  1
  Al0+  Al75  1  0.07080015  0.18021435  0.98619196  1
  Al0+  Al76  1  0.93006935  0.32072257  0.32028803  1
  Al0+  Al77  1  0.57018113  0.67954773  0.98357681  1
  Al0+  Al78  1  0.42705895  0.82170960  0.31808912  1
  Al0+  Al79  1  0.68068936  0.92808921  0.01606816  1
  Al0+  Al80  1  0.31890518  0.07125179  0.01186058  1
  Al0+  Al81  1  0.32090955  0.57068224  0.34635383  1
  Al0+  Al82  1  0.56865882  0.17989443  0.65374330  1
  Al0+  Al83  1  0.32038531  0.57094820  0.68371512  1
  Al0+  Al84  1  0.17527130  0.42782151  0.34850226  1
  Al0+  Al85  1  0.67694695  0.92611339  0.68120083  1
  Al0+  Al86  1  0.07143923  0.17891934  0.64974005  1
  Al0+  Al87  1  0.92689788  0.32299759  0.98410905  1
  Al0+  Al88  1  0.07286866  0.68016015  0.65111493  1
  Al0+  Al89  1  0.57119251  0.67649426  0.31905715  1
  Al0+  Al90  1  0.42824147  0.82348147  0.98310153  1
  Al0+  Al91  1  0.82086130  0.07185012  0.68234220  1
  Al0+  Al92  1  0.92771781  0.82137150  0.65023426  1
  Al0+  Al93  1  0.32473555  0.07109297  0.35024761  1
  Al0+  Al94  1  0.17692902  0.93000598  0.34781139  1
  Al0+  Al95  1  0.93045742  0.81990396  0.98707340  1
  Si0+  Si96  1  0.82175559  0.56981726  0.68195965  1
  Si0+  Si97  1  0.82232572  0.57439835  0.35115409  1
  Si0+  Si98  1  0.92690237  0.32261153  0.64939535  1
  Si0+  Si99  1  0.32222739  0.07470696  0.68308144  1
  Si0+  Si100  1  0.17641875  0.42780408  0.68533382  1
  Si0+  Si101  1  0.92849244  0.82236796  0.31828024  1
  Si0+  Si102  1  0.18000283  0.43079440  0.01252544  1
  Si0+  Si103  1  0.42864046  0.32503805  0.64698547  1
  Si0+  Si104  1  0.57289486  0.17837395  0.31783993  1
  Si0+  Si105  1  0.67815589  0.42844578  0.01385015  1
  Si0+  Si106  1  0.42996814  0.31874254  0.32129267  1
  Si0+  Si107  1  0.67870717  0.42921210  0.68373796  1
  Si0+  Si108  1  0.82128868  0.56923478  0.01478776  1
  Si0+  Si109  1  0.17579645  0.92680540  0.01538807  1
  Si0+  Si110  1  0.07387708  0.17836779  0.31700851  1
  Si0+  Si111  1  0.57281449  0.17625673  0.98510104  1
  Si0+  Si112  1  0.82352416  0.07327208  0.01893693  1
  Si0+  Si113  1  0.81930123  0.07051813  0.34603513  1
  Si0+  Si114  1  0.68132692  0.92697227  0.34729768  1
  Si0+  Si115  1  0.42971640  0.82081715  0.65278555  1
  Si0+  Si116  1  0.07388517  0.67702550  0.98501704  1
  Si0+  Si117  1  0.07067559  0.67913519  0.31876295  1
  Si0+  Si118  1  0.57064690  0.67678396  0.65077248  1
  Si0+  Si119  1  0.32332209  0.57096262  0.01545877  1
  O2-  O120  1  0.24597389  -0.00555328  0.05864591  1
  O2-  O121  1  0.25154380  -0.00063569  0.39786699  1
  O2-  O122  1  0.25122107  0.00990212  0.72875037  1
  O2-  O123  1  0.24962543  0.50226389  0.05664280  1
  O2-  O124  1  0.24542825  0.50236481  0.39736516  1
  O2-  O125  1  0.24525728  0.49612231  0.73030037  1
  O2-  O126  1  0.75456540  0.00451934  0.06350429  1
  O2-  O127  1  0.75211000  -0.00293027  0.38983519  1
  O2-  O128  1  0.75154529  -0.00388091  0.73064730  1
  O2-  O129  1  0.75178754  0.49646824  0.05657482  1
  O2-  O130  1  0.75353049  0.50457330  0.39369203  1
  O2-  O131  1  0.75087744  0.49899885  0.72554543  1
  O2-  O132  1  0.01046754  0.25252961  0.27339882  1
  O2-  O133  1  -0.00497168  0.25375566  0.60524009  1
  O2-  O134  1  -0.00499290  0.24809603  0.93493985  1
  O2-  O135  1  0.00040710  0.75148213  0.27680612  1
  O2-  O136  1  0.00238207  0.75258887  0.59903414  1
  O2-  O137  1  0.01098574  0.75110498  0.94195437  1
  O2-  O138  1  0.49709885  0.24484075  0.27674541  1
  O2-  O139  1  0.49374961  0.25268172  0.60341917  1
  O2-  O140  1  0.50304442  0.24480136  0.94232567  1
  O2-  O141  1  0.49847106  0.74764657  0.26974481  1
  O2-  O142  1  0.50281925  0.75123132  0.61060493  1
  O2-  O143  1  0.50013462  0.75197756  0.93175809  1
  O2-  O144  1  0.07232726  0.18419968  0.10011672  1
  O2-  O145  1  0.06890671  0.17607456  0.42232937  1
  O2-  O146  1  0.07257651  0.18131314  0.76270028  1
  O2-  O147  1  0.07078381  0.67307505  0.09101374  1
  O2-  O148  1  0.06935266  0.67785463  0.42328808  1
  O2-  O149  1  0.06922716  0.68045460  0.76500603  1
  O2-  O150  1  0.57448055  0.17919209  0.09118890  1
  O2-  O151  1  0.57509387  0.18003654  0.42295350  1
  O2-  O152  1  0.56702738  0.18221932  0.76686635  1
  O2-  O153  1  0.56770249  0.67600767  0.09689854  1
  O2-  O154  1  0.57258848  0.67968796  0.43311265  1
  O2-  O155  1  0.57007416  0.67353597  0.75560432  1
  O2-  O156  1  0.17740287  0.42924384  0.23378706  1
  O2-  O157  1  0.17685060  0.42877357  0.57990928  1
  O2-  O158  1  0.18062818  0.43232017  0.90766387  1
  O2-  O159  1  0.17180029  0.93374809  0.23414145  1
  O2-  O160  1  0.18400247  0.93039188  0.56887224  1
  O2-  O161  1  0.17551430  0.92769804  0.90994042  1
  O2-  O162  1  0.68128306  0.42690194  0.23301572  1
  O2-  O163  1  0.67871459  0.42953514  0.57849422  1
  O2-  O164  1  0.67797697  0.43016383  0.90862216  1
  O2-  O165  1  0.68265123  0.92755120  0.24206712  1
  O2-  O166  1  0.67674526  0.92783308  0.56677312  1
  O2-  O167  1  0.68196001  0.92966271  0.90341883  1
  O2-  O168  1  0.42968291  0.32247731  0.10142070  1
  O2-  O169  1  0.43427045  0.31997373  0.42609234  1
  O2-  O170  1  0.43132455  0.32611587  0.75290024  1
  O2-  O171  1  0.42790617  0.82117027  0.09643427  1
  O2-  O172  1  0.43037922  0.82155704  0.43235366  1
  O2-  O173  1  0.43075159  0.82045816  0.75775066  1
  O2-  O174  1  0.92936946  0.32454419  0.09784833  1
  O2-  O175  1  0.92633303  0.31509045  0.43312192  1
  O2-  O176  1  0.92817519  0.32411199  0.75488816  1
  O2-  O177  1  0.93081697  0.81654434  0.10111177  1
  O2-  O178  1  0.92558083  0.82193030  0.42268047  1
  O2-  O179  1  0.92697594  0.81736088  0.76380947  1
  O2-  O180  1  0.32277300  0.07395387  0.23638396  1
  O2-  O181  1  0.32410256  0.07038731  0.57772716  1
  O2-  O182  1  0.31762859  0.07220000  0.89876689  1
  O2-  O183  1  0.32036434  0.56678424  0.23217149  1
  O2-  O184  1  0.32264404  0.56972934  0.57080695  1
  O2-  O185  1  0.32283067  0.56964047  0.91042632  1
  O2-  O186  1  0.81725613  0.06997503  0.24080144  1
  O2-  O187  1  0.81705038  0.07279828  0.56774983  1
  O2-  O188  1  0.82309220  0.07392655  0.91388101  1
  O2-  O189  1  0.82412314  0.57598852  0.24543480  1
  O2-  O190  1  0.82057372  0.56918826  0.57683313  1
  O2-  O191  1  0.82124503  0.56862847  0.90956814  1
  O2-  O192  1  0.04193271  0.08760853  0.26842907  1
  O2-  O193  1  0.03964425  0.08387468  0.59429066  1
  O2-  O194  1  0.04488280  0.08134317  0.93382769  1
  O2-  O195  1  0.04070470  0.58825887  0.26981965  1
  O2-  O196  1  0.04307132  0.58150582  0.59854627  1
  O2-  O197  1  0.04283418  0.58663559  0.93588355  1
  O2-  O198  1  0.55015655  0.08496816  0.27169166  1
  O2-  O199  1  0.53989566  0.08326285  0.59757340  1
  O2-  O200  1  0.54697209  0.08307800  0.94058512  1
  O2-  O201  1  0.54552178  0.57577896  0.26928291  1
  O2-  O202  1  0.53902271  0.58554651  0.60395317  1
  O2-  O203  1  0.54204460  0.58209382  0.92802402  1
  O2-  O204  1  0.17089892  0.19906494  0.27674206  1
  O2-  O205  1  0.16755004  0.21042010  0.59449273  1
  O2-  O206  1  0.16556888  0.21321846  0.92924653  1
  O2-  O207  1  0.16200512  0.70496986  0.26966591  1
  O2-  O208  1  0.17299036  0.70785288  0.60198676  1
  O2-  O209  1  0.16960060  0.69544689  0.94155979  1
  O2-  O210  1  0.66190729  0.21100862  0.26826469  1
  O2-  O211  1  0.66489321  0.21312663  0.59929554  1
  O2-  O212  1  0.66531854  0.20290802  0.93794679  1
  O2-  O213  1  0.67028489  0.70391505  0.26572183  1
  O2-  O214  1  0.66379638  0.69821579  0.60371526  1
  O2-  O215  1  0.67004200  0.70509138  0.93305454  1
  O2-  O216  1  0.08735904  0.45836877  0.05970906  1
  O2-  O217  1  0.07553624  0.45318764  0.39962141  1
  O2-  O218  1  0.08230864  0.45336730  0.73070164  1
  O2-  O219  1  0.08153823  0.95209469  0.06083065  1
  O2-  O220  1  0.07890522  0.96054308  0.40217327  1
  O2-  O221  1  0.08180006  0.95994140  0.73191492  1
  O2-  O222  1  0.58675115  0.45920722  0.06086318  1
  O2-  O223  1  0.58580439  0.45579294  0.40525463  1
  O2-  O224  1  0.58769011  0.45889179  0.73132707  1
  O2-  O225  1  0.58496257  0.95923730  0.07207074  1
  O2-  O226  1  0.58976861  0.95473427  0.39394199  1
  O2-  O227  1  0.57987142  0.95966074  0.73430453  1
  O2-  O228  1  0.20858217  0.33952732  0.05961685  1
  O2-  O229  1  0.20457465  0.33115809  0.40304999  1
  O2-  O230  1  0.20435493  0.33409421  0.73044279  1
  O2-  O231  1  0.19893512  0.83154007  0.06043089  1
  O2-  O232  1  0.20086428  0.83042165  0.39976277  1
  O2-  O233  1  0.21171090  0.83644110  0.73768989  1
  O2-  O234  1  0.70130975  0.33526479  0.06135816  1
  O2-  O235  1  0.71490749  0.33272137  0.40157740  1
  O2-  O236  1  0.70435614  0.33769763  0.73216156  1
  O2-  O237  1  0.71551218  0.83172437  0.06913881  1
  O2-  O238  1  0.70856632  0.83471470  0.39376551  1
  O2-  O239  1  0.70167219  0.82577113  0.73211147  1
  O2-  O240  1  0.46135024  0.40904501  0.27305046  1
  O2-  O241  1  0.46113428  0.41698987  0.60159843  1
  O2-  O242  1  0.46252894  0.41397160  0.92933034  1
  O2-  O243  1  0.46014534  0.91926957  0.26508918  1
  O2-  O244  1  0.45487324  0.91291311  0.60498345  1
  O2-  O245  1  0.45732766  0.92256087  0.93265085  1
  O2-  O246  1  0.95146668  0.42062810  0.26751530  1
  O2-  O247  1  0.95214020  0.41596943  0.60237767  1
  O2-  O248  1  0.95731602  0.42048145  0.93016503  1
  O2-  O249  1  0.95551905  0.91421882  0.27003772  1
  O2-  O250  1  0.95193054  0.92083973  0.59906551  1
  O2-  O251  1  0.95275805  0.91781502  0.93325807  1
  O2-  O252  1  0.33604932  0.29450595  0.27587568  1
  O2-  O253  1  0.33332971  0.30675168  0.60275290  1
  O2-  O254  1  0.33426359  0.29217012  0.92993887  1
  O2-  O255  1  0.32742822  0.79763420  0.26551782  1
  O2-  O256  1  0.33874894  0.78916568  0.60729082  1
  O2-  O257  1  0.32917504  0.79492816  0.93107336  1
  O2-  O258  1  0.83543381  0.28484624  0.26420396  1
  O2-  O259  1  0.83156258  0.29874819  0.60636377  1
  O2-  O260  1  0.82623500  0.30056040  0.93334138  1
  O2-  O261  1  0.83800430  0.79230281  0.26896025  1
  O2-  O262  1  0.82992225  0.78762336  0.59727765  1
  O2-  O263  1  0.83736406  0.78240727  0.93231218  1
  O2-  O264  1  0.41619809  0.04544765  0.06738019  1
  O2-  O265  1  0.42405656  0.04193000  0.40216087  1
  O2-  O266  1  0.41489920  0.04687332  0.72954653  1
  O2-  O267  1  0.41472965  0.53903496  0.06051949  1
  O2-  O268  1  0.41723920  0.53865689  0.40136210  1
  O2-  O269  1  0.41615260  0.53738578  0.73912985  1
  O2-  O270  1  0.91689433  0.04629595  0.06543887  1
  O2-  O271  1  0.91241712  0.04610282  0.39175083  1
  O2-  O272  1  0.92008005  0.04707582  0.73341079  1
  O2-  O273  1  0.91393941  0.54307151  0.06275857  1
  O2-  O274  1  0.91476514  0.54836750  0.39873643  1
  O2-  O275  1  0.91362183  0.54226539  0.72963640  1
  O2-  O276  1  0.28711773  0.16887979  0.06513254  1
  O2-  O277  1  0.30100694  0.16877288  0.40648085  1
  O2-  O278  1  0.30104668  0.17213480  0.72305840  1
  O2-  O279  1  0.29822503  0.66375188  0.06240587  1
  O2-  O280  1  0.29451695  0.66983241  0.39765946  1
  O2-  O281  1  0.29022487  0.66583309  0.74077024  1
  O2-  O282  1  0.79720857  0.16780861  0.06433135  1
  O2-  O283  1  0.78841493  0.16038582  0.39436463  1
  O2-  O284  1  0.78917365  0.16928142  0.73624513  1
  O2-  O285  1  0.79306577  0.65968563  0.06417966  1
  O2-  O286  1  0.79548170  0.66712982  0.39880290  1
  O2-  O287  1  0.79229037  0.66055848  0.73019237  1
