# generated using pymatgen
data_Ca2Al2SiO7
_symmetry_space_group_name_H-M   'P 1'
_cell_length_a   15.46717700
_cell_length_b   15.46764617
_cell_length_c   15.29032350
_cell_angle_alpha   90.01899462
_cell_angle_beta   90.00759559
_cell_angle_gamma   89.99336623
_symmetry_Int_Tables_number   1
_chemical_formula_structural   Ca2Al2SiO7
_chemical_formula_sum   'Ca48 Al48 Si24 O168'
_cell_volume   3658.06929146
_cell_formula_units_Z   24
loop_
 _symmetry_equiv_pos_site_id
 _symmetry_equiv_pos_as_xyz
  1  'x, y, z'
loop_
 _atom_type_symbol
 _atom_type_oxidation_number
  Ca2+  2.0
  Al0+  0.0
  Si0+  0.0
  O2-  -2.0
loop_
 _atom_site_type_symbol
 _atom_site_label
 _atom_site_symmetry_multiplicity
 _atom_site_fract_x
 _atom_site_fract_y
 _atom_site_fract_z
 _atom_site_occupancy
  Ca2+  Ca0  1  0.16486437  0.07774412  0.16776422  1
  Ca2+  Ca1  1  0.16928536  0.08453815  0.50341516  1
  Ca2+  Ca2  1  0.16975098  0.07789104  0.84246392  1
  Ca2+  Ca3  1  0.17203025  0.57602219  0.17251482  1
  Ca2+  Ca4  1  0.16415096  0.57971162  0.49619462  1
  Ca2+  Ca5  1  0.18052348  0.57897179  0.84663198  1
  Ca2+  Ca6  1  0.66115829  0.07561261  0.17537479  1
  Ca2+  Ca7  1  0.66871623  0.08559267  0.49519580  1
  Ca2+  Ca8  1  0.66346951  0.07372471  0.84400399  1
  Ca2+  Ca9  1  0.66697880  0.57408370  0.17276922  1
  Ca2+  Ca10  1  0.65959519  0.57542287  0.49940758  1
  Ca2+  Ca11  1  0.66002647  0.57628359  0.83850036  1
  Ca2+  Ca12  1  0.07205827  0.34491488  0.16400509  1
  Ca2+  Ca13  1  0.07572431  0.33631749  0.48704371  1
  Ca2+  Ca14  1  0.07651476  0.34324205  0.83688519  1
  Ca2+  Ca15  1  0.07751943  0.82739276  0.15956801  1
  Ca2+  Ca16  1  0.07506496  0.82508373  0.49298337  1
  Ca2+  Ca17  1  0.07246263  0.83953619  0.83149963  1
  Ca2+  Ca18  1  0.58335279  0.32961761  0.15697998  1
  Ca2+  Ca19  1  0.57610100  0.33651568  0.48952327  1
  Ca2+  Ca20  1  0.57358129  0.34311953  0.83226905  1
  Ca2+  Ca21  1  0.59738070  0.82275902  0.16273382  1
  Ca2+  Ca22  1  0.58952554  0.82276194  0.49269703  1
  Ca2+  Ca23  1  0.59248035  0.81895079  0.83348248  1
  Ca2+  Ca24  1  0.32805207  0.41039499  0.16676728  1
  Ca2+  Ca25  1  0.33091140  0.40744894  0.50086929  1
  Ca2+  Ca26  1  0.33328056  0.41775115  0.84498010  1
  Ca2+  Ca27  1  0.32822125  0.91477157  0.16904333  1
  Ca2+  Ca28  1  0.33356186  0.91846742  0.50155006  1
  Ca2+  Ca29  1  0.32546479  0.91712456  0.84477542  1
  Ca2+  Ca30  1  0.82534795  0.41588348  0.17634602  1
  Ca2+  Ca31  1  0.82107788  0.41831425  0.49705951  1
  Ca2+  Ca32  1  0.82050776  0.41650739  0.84108768  1
  Ca2+  Ca33  1  0.82590176  0.92286534  0.17117675  1
  Ca2+  Ca34  1  0.83002479  0.91816973  0.49754603  1
  Ca2+  Ca35  1  0.83329826  0.91601850  0.84254520  1
  Ca2+  Ca36  1  0.42917355  0.17713818  0.16417665  1
  Ca2+  Ca37  1  0.42479110  0.17770329  0.49075512  1
  Ca2+  Ca38  1  0.42289416  0.17707419  0.83383162  1
  Ca2+  Ca39  1  0.42877307  0.66064094  0.16239123  1
  Ca2+  Ca40  1  0.42986001  0.66639245  0.49588543  1
  Ca2+  Ca41  1  0.42873078  0.65578682  0.83604780  1
  Ca2+  Ca42  1  0.90742332  0.17900388  0.16679340  1
  Ca2+  Ca43  1  0.91512729  0.17228712  0.49137985  1
  Ca2+  Ca44  1  0.91530216  0.17405425  0.83737558  1
  Ca2+  Ca45  1  0.91971346  0.66357065  0.16309249  1
  Ca2+  Ca46  1  0.91635918  0.66788842  0.49031254  1
  Ca2+  Ca47  1  0.91269622  0.68117132  0.83072592  1
  Al0+  Al48  1  0.00080423  0.00027165  0.00114829  1
  Al0+  Al49  1  -0.00027089  -0.00055913  0.33821301  1
  Al0+  Al50  1  -0.00077276  0.00044514  0.66197024  1
  Al0+  Al51  1  0.00161714  0.50141940  -0.00624724  1
  Al0+  Al52  1  0.00125137  0.50057265  0.33381330  1
  Al0+  Al53  1  -0.00127823  0.50138204  0.66797073  1
  Al0+  Al54  1  0.49945319  -0.00166490  0.00113884  1
  Al0+  Al55  1  0.49661785  0.00009136  0.33643185  1
  Al0+  Al56  1  0.50036494  0.00095254  0.66847617  1
  Al0+  Al57  1  0.50134867  0.49979661  0.00121560  1
  Al0+  Al58  1  0.49583595  0.50327121  0.32880521  1
  Al0+  Al59  1  0.49798691  0.49982109  0.66112214  1
  Al0+  Al60  1  0.25049405  0.24882254  0.00119610  1
  Al0+  Al61  1  0.24949970  0.24817429  0.33379855  1
  Al0+  Al62  1  0.25011777  0.24882285  0.66643114  1
  Al0+  Al63  1  0.25177480  0.74939993  0.00890373  1
  Al0+  Al64  1  0.24817683  0.74843380  0.33214035  1
  Al0+  Al65  1  0.24937855  0.74976350  0.66810742  1
  Al0+  Al66  1  0.75203259  0.24829354  -0.00761699  1
  Al0+  Al67  1  0.74979145  0.24810642  0.33542944  1
  Al0+  Al68  1  0.75033700  0.24906795  0.67289942  1
  Al0+  Al69  1  0.75211632  0.75087996  -0.00522036  1
  Al0+  Al70  1  0.75070430  0.75202151  0.33563385  1
  Al0+  Al71  1  0.75114597  0.75076187  0.65696414  1
  Al0+  Al72  1  0.67549031  0.42919749  0.34563251  1
  Al0+  Al73  1  0.67659646  0.92909644  0.34976584  1
  Al0+  Al74  1  0.93008653  0.82196951  0.64940313  1
  Al0+  Al75  1  0.57142882  0.17929328  0.31978965  1
  Al0+  Al76  1  0.82209704  0.57083998  0.34612814  1
  Al0+  Al77  1  0.42946665  0.31933081  0.65216339  1
  Al0+  Al78  1  0.57207372  0.68132756  0.31807927  1
  Al0+  Al79  1  0.68147596  0.42847474  0.01215777  1
  Al0+  Al80  1  0.67845473  0.43077085  0.68076227  1
  Al0+  Al81  1  0.93202956  0.82062604  0.98806328  1
  Al0+  Al82  1  0.17763277  0.42753609  0.01518295  1
  Al0+  Al83  1  0.57139353  0.68005855  0.98718630  1
  Al0+  Al84  1  0.67952842  0.92814678  0.01199473  1
  Al0+  Al85  1  0.57340037  0.17567521  0.98400185  1
  Al0+  Al86  1  0.56896565  0.68029682  0.65184069  1
  Al0+  Al87  1  0.18127758  0.42911802  0.34735986  1
  Al0+  Al88  1  0.17800171  0.92945930  0.01441106  1
  Al0+  Al89  1  0.43064712  0.32014307  0.98476799  1
  Al0+  Al90  1  0.92927110  0.32366998  0.98541824  1
  Al0+  Al91  1  0.32373610  0.57001405  0.01740356  1
  Al0+  Al92  1  0.82150059  0.07179740  0.34882443  1
  Al0+  Al93  1  0.42725006  0.32256466  0.31679069  1
  Al0+  Al94  1  0.92967850  0.31976345  0.32239994  1
  Al0+  Al95  1  0.06997444  0.67885883  0.31824345  1
  Si0+  Si96  1  0.17930727  0.93015007  0.68068855  1
  Si0+  Si97  1  0.42576802  0.82170566  0.98490222  1
  Si0+  Si98  1  0.07172405  0.17764700  0.98438689  1
  Si0+  Si99  1  0.42631696  0.82248025  0.31758674  1
  Si0+  Si100  1  0.82287062  0.07140223  0.01533303  1
  Si0+  Si101  1  0.82235906  0.57313380  0.01221818  1
  Si0+  Si102  1  0.42547204  0.82484902  0.65210481  1
  Si0+  Si103  1  0.31848472  0.06985359  0.35033423  1
  Si0+  Si104  1  0.32071035  0.57487272  0.35339653  1
  Si0+  Si105  1  0.92813438  0.32181254  0.65173493  1
  Si0+  Si106  1  0.06999292  0.18015692  0.65265973  1
  Si0+  Si107  1  0.92874666  0.82352647  0.31502604  1
  Si0+  Si108  1  0.68000163  0.92829665  0.68180139  1
  Si0+  Si109  1  0.82283187  0.57420776  0.68369119  1
  Si0+  Si110  1  0.07512902  0.67860639  0.98221714  1
  Si0+  Si111  1  0.31925642  0.57066584  0.68041209  1
  Si0+  Si112  1  0.07373365  0.67809613  0.65052747  1
  Si0+  Si113  1  0.17836787  0.92688551  0.35079815  1
  Si0+  Si114  1  0.07281428  0.17549826  0.31759569  1
  Si0+  Si115  1  0.17735743  0.42738099  0.68122132  1
  Si0+  Si116  1  0.32110734  0.07179874  0.68283026  1
  Si0+  Si117  1  0.82276823  0.07031736  0.68431663  1
  Si0+  Si118  1  0.32284581  0.07168425  0.01883647  1
  Si0+  Si119  1  0.57324049  0.17534051  0.64995176  1
  O2-  O120  1  0.25383300  0.00219447  0.06213596  1
  O2-  O121  1  0.24794888  -0.00164390  0.39442927  1
  O2-  O122  1  0.25279280  -0.00242210  0.72467656  1
  O2-  O123  1  0.25032641  0.49827298  0.06511649  1
  O2-  O124  1  0.25725316  0.50077631  0.39750750  1
  O2-  O125  1  0.24747360  0.49961239  0.72178695  1
  O2-  O126  1  0.74866269  0.00816290  0.05755044  1
  O2-  O127  1  0.74834337  0.00149625  0.40033850  1
  O2-  O128  1  0.75012829  0.00008127  0.72492846  1
  O2-  O129  1  0.75910653  0.50051981  0.05691033  1
  O2-  O130  1  0.74621390  0.50283550  0.39681701  1
  O2-  O131  1  0.75407567  0.50568084  0.72750005  1
  O2-  O132  1  0.00316388  0.24320582  0.27539672  1
  O2-  O133  1  0.00265562  0.25389287  0.61013347  1
  O2-  O134  1  0.00749460  0.25043372  0.93959074  1
  O2-  O135  1  -0.00629729  0.75147998  0.27142174  1
  O2-  O136  1  0.00274101  0.74393842  0.60587635  1
  O2-  O137  1  0.00720922  0.74777765  0.93745859  1
  O2-  O138  1  0.50818762  0.25895209  0.26962519  1
  O2-  O139  1  0.50737201  0.24719616  0.60738148  1
  O2-  O140  1  0.50498263  0.25098789  0.93310248  1
  O2-  O141  1  0.49853457  0.75864814  0.27319172  1
  O2-  O142  1  0.49564806  0.75852355  0.60787782  1
  O2-  O143  1  0.49553479  0.75464175  0.94008720  1
  O2-  O144  1  0.06902347  0.17248945  0.08928794  1
  O2-  O145  1  0.07414641  0.17636747  0.42404321  1
  O2-  O146  1  0.06997776  0.17708234  0.75743113  1
  O2-  O147  1  0.07276178  0.67866371  0.08748613  1
  O2-  O148  1  0.07121081  0.68276013  0.43203479  1
  O2-  O149  1  0.07700729  0.68071840  0.75576281  1
  O2-  O150  1  0.57112146  0.17455574  0.09701468  1
  O2-  O151  1  0.56643572  0.17788448  0.43399549  1
  O2-  O152  1  0.56971575  0.16950378  0.75498128  1
  O2-  O153  1  0.57318700  0.68180423  0.09952197  1
  O2-  O154  1  0.56821632  0.68187654  0.43172203  1
  O2-  O155  1  0.56783707  0.68058200  0.76501694  1
  O2-  O156  1  0.18024776  0.43023090  0.23523762  1
  O2-  O157  1  0.17610349  0.42612927  0.57628804  1
  O2-  O158  1  0.17843382  0.43113371  0.90029373  1
  O2-  O159  1  0.17865272  0.92797490  0.24600841  1
  O2-  O160  1  0.18054915  0.93177313  0.57560009  1
  O2-  O161  1  0.17836914  0.93286459  0.90027602  1
  O2-  O162  1  0.67868213  0.42855413  0.23223070  1
  O2-  O163  1  0.67906722  0.42992148  0.56802734  1
  O2-  O164  1  0.68005846  0.43260083  0.89839331  1
  O2-  O165  1  0.67888068  0.92935407  0.23626739  1
  O2-  O166  1  0.67949921  0.92984047  0.57721960  1
  O2-  O167  1  0.68366804  0.92666851  0.89794520  1
  O2-  O168  1  0.42978678  0.31760328  0.09744441  1
  O2-  O169  1  0.42493799  0.31652579  0.43110461  1
  O2-  O170  1  0.42605462  0.31841812  0.76481434  1
  O2-  O171  1  0.42386013  0.82238868  0.08998943  1
  O2-  O172  1  0.42357497  0.82028550  0.42380458  1
  O2-  O173  1  0.42142930  0.82621050  0.75709344  1
  O2-  O174  1  0.92829049  0.32267301  0.09797700  1
  O2-  O175  1  0.93253019  0.31857489  0.43635264  1
  O2-  O176  1  0.92994884  0.32063496  0.75677892  1
  O2-  O177  1  0.93304948  0.81976162  0.10040182  1
  O2-  O178  1  0.93350382  0.82464847  0.42105389  1
  O2-  O179  1  0.93247639  0.82442000  0.76268544  1
  O2-  O180  1  0.31615179  0.06750004  0.24580472  1
  O2-  O181  1  0.31785124  0.07159220  0.57779285  1
  O2-  O182  1  0.32015786  0.07001153  0.91240327  1
  O2-  O183  1  0.31700291  0.58102317  0.24881750  1
  O2-  O184  1  0.31746280  0.57316891  0.57576694  1
  O2-  O185  1  0.32216524  0.56983013  0.90235757  1
  O2-  O186  1  0.82675404  0.06841841  0.23580577  1
  O2-  O187  1  0.82462381  0.07172145  0.57979024  1
  O2-  O188  1  0.82667035  0.06728911  0.90901243  1
  O2-  O189  1  0.82328060  0.56842200  0.23242621  1
  O2-  O190  1  0.82662980  0.57196761  0.57869164  1
  O2-  O191  1  0.81965072  0.57422102  0.90610073  1
  O2-  O192  1  0.04936043  0.08038167  0.27398574  1
  O2-  O193  1  0.04108128  0.08992550  0.60233181  1
  O2-  O194  1  0.04119122  0.08659334  0.93420979  1
  O2-  O195  1  0.04191792  0.58246953  0.26455527  1
  O2-  O196  1  0.05017613  0.58287208  0.60630353  1
  O2-  O197  1  0.05134902  0.58629198  0.93282214  1
  O2-  O198  1  0.53344617  0.08245224  0.26887012  1
  O2-  O199  1  0.54449935  0.08284909  0.60222068  1
  O2-  O200  1  0.53946357  0.07775411  0.93068414  1
  O2-  O201  1  0.53912867  0.58621999  0.26367449  1
  O2-  O202  1  0.53326811  0.58656618  0.59624452  1
  O2-  O203  1  0.53848766  0.58472561  0.93189157  1
  O2-  O204  1  0.16575411  0.19949109  0.27134339  1
  O2-  O205  1  0.16292387  0.20404777  0.60525538  1
  O2-  O206  1  0.16682496  0.19728548  0.93864219  1
  O2-  O207  1  0.16540498  0.71275401  0.26451536  1
  O2-  O208  1  0.16607250  0.70663533  0.60261485  1
  O2-  O209  1  0.16986659  0.70542933  0.93920442  1
  O2-  O210  1  0.67347199  0.19381209  0.27127461  1
  O2-  O211  1  0.66966015  0.19814622  0.60919787  1
  O2-  O212  1  0.67327026  0.19555613  0.93054743  1
  O2-  O213  1  0.66964540  0.71151141  0.26642083  1
  O2-  O214  1  0.66518734  0.70880339  0.59707331  1
  O2-  O215  1  0.66609119  0.71261609  0.92963384  1
  O2-  O216  1  0.07822207  0.45812009  0.06430006  1
  O2-  O217  1  0.08645737  0.46337672  0.40333183  1
  O2-  O218  1  0.08464440  0.45381496  0.72819470  1
  O2-  O219  1  0.08362714  0.96340285  0.06994154  1
  O2-  O220  1  0.08753606  0.95428156  0.40015896  1
  O2-  O221  1  0.08820216  0.96288484  0.72662470  1
  O2-  O222  1  0.58633612  0.46012404  0.06561131  1
  O2-  O223  1  0.57584502  0.45885724  0.39685637  1
  O2-  O224  1  0.58056651  0.46407958  0.73150438  1
  O2-  O225  1  0.58048696  0.95061603  0.06406062  1
  O2-  O226  1  0.57655718  0.95413318  0.40250228  1
  O2-  O227  1  0.58671010  0.95384814  0.72857002  1
  O2-  O228  1  0.20090249  0.32714972  0.06536031  1
  O2-  O229  1  0.20774274  0.33034004  0.40152777  1
  O2-  O230  1  0.20473646  0.33512369  0.72783704  1
  O2-  O231  1  0.20649809  0.83392872  0.06998783  1
  O2-  O232  1  0.20824771  0.83606064  0.39909507  1
  O2-  O233  1  0.20318776  0.83730693  0.72807640  1
  O2-  O234  1  0.71064474  0.32919979  0.06017713  1
  O2-  O235  1  0.70456516  0.33135132  0.39934843  1
  O2-  O236  1  0.70887520  0.33367117  0.73507346  1
  O2-  O237  1  0.71722985  0.83363980  0.06480906  1
  O2-  O238  1  0.70883540  0.83270117  0.40459289  1
  O2-  O239  1  0.70997099  0.83571052  0.72618323  1
  O2-  O240  1  0.43986510  0.42529674  0.26983786  1
  O2-  O241  1  0.45513882  0.41618946  0.59735329  1
  O2-  O242  1  0.45867335  0.41891353  0.93189564  1
  O2-  O243  1  0.44410986  0.91836687  0.27444273  1
  O2-  O244  1  0.44915247  0.91941793  0.60608385  1
  O2-  O245  1  0.44767011  0.91585663  0.93832148  1
  O2-  O246  1  0.96356483  0.41448853  0.26880641  1
  O2-  O247  1  0.95322358  0.41524630  0.60662209  1
  O2-  O248  1  0.95930811  0.41904936  0.92658373  1
  O2-  O249  1  0.96037079  0.91590476  0.27061909  1
  O2-  O250  1  0.96490354  0.91700545  0.59447781  1
  O2-  O251  1  0.96455361  0.91680689  0.93235785  1
  O2-  O252  1  0.33166520  0.28301089  0.26553418  1
  O2-  O253  1  0.33261182  0.28496354  0.59911345  1
  O2-  O254  1  0.33119652  0.28978284  0.93258096  1
  O2-  O255  1  0.33345736  0.79453855  0.27149252  1
  O2-  O256  1  0.33200054  0.79801290  0.60480900  1
  O2-  O257  1  0.33174318  0.79564930  0.93850558  1
  O2-  O258  1  0.83363194  0.28928784  0.26858692  1
  O2-  O259  1  0.83696537  0.28940411  0.60671700  1
  O2-  O260  1  0.83687296  0.28845514  0.92552968  1
  O2-  O261  1  0.83327358  0.80400175  0.27285517  1
  O2-  O262  1  0.83437236  0.79437445  0.59371204  1
  O2-  O263  1  0.83805893  0.78881304  0.92889577  1
  O2-  O264  1  0.41502007  0.04442645  0.06527800  1
  O2-  O265  1  0.40821389  0.04164863  0.40157943  1
  O2-  O266  1  0.41385562  0.04730603  0.72968145  1
  O2-  O267  1  0.42105824  0.54146647  0.06984240  1
  O2-  O268  1  0.41587337  0.55415803  0.39725550  1
  O2-  O269  1  0.41052405  0.54132620  0.72704569  1
  O2-  O270  1  0.91381993  0.04123934  0.06287133  1
  O2-  O271  1  0.91996170  0.04233970  0.40500071  1
  O2-  O272  1  0.91487168  0.03994398  0.73046831  1
  O2-  O273  1  0.91897966  0.55334540  0.05313272  1
  O2-  O274  1  0.91900700  0.54069380  0.40203692  1
  O2-  O275  1  0.91707710  0.55068318  0.73121588  1
  O2-  O276  1  0.29539482  0.16375801  0.06524913  1
  O2-  O277  1  0.28800398  0.15965788  0.40038216  1
  O2-  O278  1  0.28807474  0.16107720  0.73215515  1
  O2-  O279  1  0.29790985  0.66830645  0.07092488  1
  O2-  O280  1  0.28839317  0.66606431  0.40248087  1
  O2-  O281  1  0.29227445  0.66268150  0.72955086  1
  O2-  O282  1  0.80357175  0.16745197  0.05669412  1
  O2-  O283  1  0.79503441  0.16910224  0.40572757  1
  O2-  O284  1  0.79823656  0.16218571  0.73348419  1
  O2-  O285  1  0.79505018  0.66541136  0.05872793  1
  O2-  O286  1  0.80019064  0.67141653  0.39747251  1
  O2-  O287  1  0.79682975  0.66968614  0.72607948  1
