# generated using pymatgen
data_Ca2Al2SiO7
_symmetry_space_group_name_H-M   'P 1'
_cell_length_a   15.47264978
_cell_length_b   15.46719105
_cell_length_c   15.29292966
_cell_angle_alpha   90.00049471
_cell_angle_beta   90.00465174
_cell_angle_gamma   90.00497412
_symmetry_Int_Tables_number   1
_chemical_formula_structural   Ca2Al2SiO7
_chemical_formula_sum   'Ca48 Al48 Si24 O168'
_cell_volume   3659.87989280
_cell_formula_units_Z   24
loop_
 _symmetry_equiv_pos_site_id
 _symmetry_equiv_pos_as_xyz
  1  'x, y, z'
loop_
 _atom_type_symbol
 _atom_type_oxidation_number
  Ca2+  2.0
  Al0+  0.0
  Si0+  0.0
  O2-  -2.0
loop_
 _atom_site_type_symbol
 _atom_site_label
 _atom_site_symmetry_multiplicity
 _atom_site_fract_x
 _atom_site_fract_y
 _atom_site_fract_z
 _atom_site_occupancy
  Ca2+  Ca0  1  0.17174115  0.08004785  0.16926996  1
  Ca2+  Ca1  1  0.18113948  0.07944470  0.50566246  1
  Ca2+  Ca2  1  0.16695033  0.07396140  0.84049342  1
  Ca2+  Ca3  1  0.17269224  0.57871822  0.17056018  1
  Ca2+  Ca4  1  0.17642143  0.58343654  0.49740598  1
  Ca2+  Ca5  1  0.17740403  0.57649713  0.84445237  1
  Ca2+  Ca6  1  0.66619733  0.08696278  0.17416786  1
  Ca2+  Ca7  1  0.65679202  0.07050893  0.49924659  1
  Ca2+  Ca8  1  0.67020060  0.08404167  0.83938907  1
  Ca2+  Ca9  1  0.66549975  0.57700802  0.17715268  1
  Ca2+  Ca10  1  0.65501132  0.57569950  0.49822563  1
  Ca2+  Ca11  1  0.66973906  0.58226657  0.83809486  1
  Ca2+  Ca12  1  0.08260705  0.33515629  0.16116478  1
  Ca2+  Ca13  1  0.07595084  0.34036040  0.49058663  1
  Ca2+  Ca14  1  0.09520810  0.32429795  0.83642780  1
  Ca2+  Ca15  1  0.09491957  0.82055244  0.15964332  1
  Ca2+  Ca16  1  0.08905061  0.82902708  0.49419972  1
  Ca2+  Ca17  1  0.09536577  0.83011228  0.83214588  1
  Ca2+  Ca18  1  0.57969531  0.32514886  0.16137781  1
  Ca2+  Ca19  1  0.57735724  0.32614170  0.49234192  1
  Ca2+  Ca20  1  0.57052741  0.32807640  0.83398559  1
  Ca2+  Ca21  1  0.57141331  0.83305353  0.16738916  1
  Ca2+  Ca22  1  0.57991800  0.82978811  0.48595263  1
  Ca2+  Ca23  1  0.57631099  0.83562335  0.83191636  1
  Ca2+  Ca24  1  0.32747076  0.42344824  0.17262809  1
  Ca2+  Ca25  1  0.34035542  0.43008272  0.50336533  1
  Ca2+  Ca26  1  0.33851856  0.42466541  0.84255626  1
  Ca2+  Ca27  1  0.33639175  0.91745447  0.17006000  1
  Ca2+  Ca28  1  0.33896468  0.92918628  0.50179825  1
  Ca2+  Ca29  1  0.32603276  0.92028644  0.83746924  1
  Ca2+  Ca30  1  0.82729229  0.41238749  0.17628584  1
  Ca2+  Ca31  1  0.82790762  0.41270968  0.49488501  1
  Ca2+  Ca32  1  0.82986418  0.41548405  0.83807670  1
  Ca2+  Ca33  1  0.82571820  0.92411116  0.17004195  1
  Ca2+  Ca34  1  0.81752144  0.91055767  0.50257446  1
  Ca2+  Ca35  1  0.82408159  0.92073176  0.84013156  1
  Ca2+  Ca36  1  0.42599727  0.16737384  0.16071015  1
  Ca2+  Ca37  1  0.41455956  0.16804399  0.49344854  1
  Ca2+  Ca38  1  0.40728950  0.18008096  0.83095679  1
  Ca2+  Ca39  1  0.40787983  0.67475065  0.16467957  1
  Ca2+  Ca40  1  0.41416303  0.67433705  0.49009935  1
  Ca2+  Ca41  1  0.40477031  0.67091954  0.83401259  1
  Ca2+  Ca42  1  0.92045950  0.17005827  0.15991731  1
  Ca2+  Ca43  1  0.92165543  0.17227853  0.49225620  1
  Ca2+  Ca44  1  0.92225298  0.15808333  0.83802331  1
  Ca2+  Ca45  1  0.93190152  0.66546023  0.16276982  1
  Ca2+  Ca46  1  0.92682530  0.66846830  0.48953173  1
  Ca2+  Ca47  1  0.92736371  0.66658738  0.83173950  1
  Al0+  Al48  1  -0.00314612  -0.00007569  0.00590035  1
  Al0+  Al49  1  -0.00092274  0.00086743  0.33433423  1
  Al0+  Al50  1  -0.00249367  -0.00132734  0.66591161  1
  Al0+  Al51  1  -0.00012693  0.50125703  -0.00403497  1
  Al0+  Al52  1  -0.00156030  0.50031815  0.32812028  1
  Al0+  Al53  1  0.00022170  0.50053602  0.66538552  1
  Al0+  Al54  1  0.50096340  -0.00321110  -0.00988452  1
  Al0+  Al55  1  0.50017611  0.00037634  0.33286796  1
  Al0+  Al56  1  0.50006845  0.00078172  0.67743818  1
  Al0+  Al57  1  0.50264629  0.50105245  0.00156130  1
  Al0+  Al58  1  0.50043212  0.49978689  0.33923050  1
  Al0+  Al59  1  0.50111045  0.49890003  0.66927098  1
  Al0+  Al60  1  0.24885814  0.24963227  -0.00391746  1
  Al0+  Al61  1  0.24729618  0.24958183  0.34157364  1
  Al0+  Al62  1  0.24891637  0.25204496  0.66078476  1
  Al0+  Al63  1  0.25036849  0.74980843  -0.00312164  1
  Al0+  Al64  1  0.24898966  0.74938582  0.32904620  1
  Al0+  Al65  1  0.25176782  0.74853249  0.66948425  1
  Al0+  Al66  1  0.75078173  0.24950969  -0.00117028  1
  Al0+  Al67  1  0.75126147  0.25129457  0.33256274  1
  Al0+  Al68  1  0.75005715  0.24989975  0.66630548  1
  Al0+  Al69  1  0.75039399  0.75059133  0.00107705  1
  Al0+  Al70  1  0.75126808  0.75042343  0.33207634  1
  Al0+  Al71  1  0.75157414  0.74882410  0.67151488  1
  Al0+  Al72  1  0.17852125  0.92990409  0.67993707  1
  Al0+  Al73  1  0.67885743  0.92717149  0.68186311  1
  Al0+  Al74  1  0.42929621  0.82113460  0.31951842  1
  Al0+  Al75  1  0.42878863  0.32171331  0.65081708  1
  Al0+  Al76  1  0.17945488  0.92998831  0.01435072  1
  Al0+  Al77  1  0.32120966  0.07497233  0.68382773  1
  Al0+  Al78  1  0.81814987  0.07091307  0.01517526  1
  Al0+  Al79  1  0.57255121  0.67641217  0.31968421  1
  Al0+  Al80  1  0.93078387  0.31917807  0.31930946  1
  Al0+  Al81  1  0.32135609  0.07059837  0.34373596  1
  Al0+  Al82  1  0.17636876  0.42932620  0.34860232  1
  Al0+  Al83  1  0.68048217  0.93009326  0.34444619  1
  Al0+  Al84  1  0.32086346  0.57187050  0.34905995  1
  Al0+  Al85  1  0.07022440  0.17747443  0.98773376  1
  Al0+  Al86  1  0.06986342  0.68124666  0.31914855  1
  Al0+  Al87  1  0.32198026  0.56863025  0.68142319  1
  Al0+  Al88  1  0.56858364  0.18000652  0.32237441  1
  Al0+  Al89  1  0.32290713  0.57083939  0.01684795  1
  Al0+  Al90  1  0.42890422  0.32148485  0.98795918  1
  Al0+  Al91  1  0.67840727  0.42794381  0.34724948  1
  Al0+  Al92  1  0.07060764  0.67966969  0.98319689  1
  Al0+  Al93  1  0.17850693  0.42663788  0.01429605  1
  Al0+  Al94  1  0.42871339  0.81903131  0.98321398  1
  Al0+  Al95  1  0.57308960  0.17785487  0.98424293  1
  Si0+  Si96  1  0.82284813  0.07339394  0.35154355  1
  Si0+  Si97  1  0.57428112  0.67989081  0.65343789  1
  Si0+  Si98  1  0.68058416  0.42840150  0.68312666  1
  Si0+  Si99  1  0.17387983  0.43025677  0.68277031  1
  Si0+  Si100  1  0.32336173  0.07191077  0.01520843  1
  Si0+  Si101  1  0.82192532  0.57274115  0.01472178  1
  Si0+  Si102  1  0.92655830  0.82493197  0.31578327  1
  Si0+  Si103  1  0.07107195  0.68038966  0.65062150  1
  Si0+  Si104  1  0.92812950  0.32209717  0.98191804  1
  Si0+  Si105  1  0.57317990  0.17832356  0.64977482  1
  Si0+  Si106  1  0.67618930  0.92640926  0.01859870  1
  Si0+  Si107  1  0.42514960  0.32279898  0.31914717  1
  Si0+  Si108  1  0.82119080  0.07294836  0.68275896  1
  Si0+  Si109  1  0.06933797  0.17714872  0.65079116  1
  Si0+  Si110  1  0.17685230  0.92747224  0.34757164  1
  Si0+  Si111  1  0.92664765  0.82150137  0.98257861  1
  Si0+  Si112  1  0.92664912  0.82028687  0.65135466  1
  Si0+  Si113  1  0.92808796  0.32205010  0.65127162  1
  Si0+  Si114  1  0.68168910  0.43011985  0.01450432  1
  Si0+  Si115  1  0.43043852  0.82051073  0.65246926  1
  Si0+  Si116  1  0.82329526  0.56999044  0.68170866  1
  Si0+  Si117  1  0.82139265  0.57171373  0.34905821  1
  Si0+  Si118  1  0.57496823  0.67799295  0.98291856  1
  Si0+  Si119  1  0.07351330  0.17584479  0.31727235  1
  O2-  O120  1  0.25475991  0.00394195  0.06066062  1
  O2-  O121  1  0.24508188  -0.00336946  0.39056198  1
  O2-  O122  1  0.24748088  0.00351928  0.73179785  1
  O2-  O123  1  0.25198664  0.49653245  0.06419309  1
  O2-  O124  1  0.25191802  0.49678980  0.39986819  1
  O2-  O125  1  0.24816959  0.49234626  0.72619963  1
  O2-  O126  1  0.73963733  0.00041978  0.06144466  1
  O2-  O127  1  0.75564067  0.00308965  0.39500144  1
  O2-  O128  1  0.75167889  0.00493307  0.72614931  1
  O2-  O129  1  0.75210099  0.50150202  0.05687732  1
  O2-  O130  1  0.74870314  0.50775831  0.39466254  1
  O2-  O131  1  0.75233130  0.49939147  0.72463575  1
  O2-  O132  1  0.00634887  0.24599661  0.27351989  1
  O2-  O133  1  0.00001190  0.25148529  0.61038883  1
  O2-  O134  1  -0.00095645  0.25555418  0.93825084  1
  O2-  O135  1  -0.00134585  0.75999826  0.27246263  1
  O2-  O136  1  0.00198620  0.75398438  0.60879833  1
  O2-  O137  1  -0.00280107  0.75611627  0.93588732  1
  O2-  O138  1  0.49397237  0.25432608  0.27524314  1
  O2-  O139  1  0.50020809  0.24246169  0.60590506  1
  O2-  O140  1  0.49650183  0.24561042  0.93555376  1
  O2-  O141  1  0.49825354  0.74531963  0.26982444  1
  O2-  O142  1  0.50509493  0.75243652  0.61130010  1
  O2-  O143  1  0.50419771  0.74340297  0.93763197  1
  O2-  O144  1  0.06721879  0.17713439  0.10030355  1
  O2-  O145  1  0.06935416  0.17319971  0.42320230  1
  O2-  O146  1  0.06714897  0.17592980  0.75581958  1
  O2-  O147  1  0.06766071  0.67948478  0.09590591  1
  O2-  O148  1  0.06825942  0.68318717  0.43323583  1
  O2-  O149  1  0.06782325  0.67885280  0.75535760  1
  O2-  O150  1  0.57413869  0.18150819  0.09794324  1
  O2-  O151  1  0.56739221  0.17895100  0.43582313  1
  O2-  O152  1  0.57972415  0.18387491  0.75466398  1
  O2-  O153  1  0.58045894  0.67923189  0.08765767  1
  O2-  O154  1  0.57295401  0.68029919  0.43411233  1
  O2-  O155  1  0.57732758  0.68031625  0.75849844  1
  O2-  O156  1  0.17606439  0.43009612  0.23553017  1
  O2-  O157  1  0.16606220  0.43630391  0.57787571  1
  O2-  O158  1  0.17836394  0.42873442  0.90008051  1
  O2-  O159  1  0.17540457  0.92874361  0.24225189  1
  O2-  O160  1  0.17883994  0.93021776  0.56616014  1
  O2-  O161  1  0.18006731  0.93163419  0.90116538  1
  O2-  O162  1  0.68241580  0.42613843  0.23423788  1
  O2-  O163  1  0.68172059  0.42807431  0.57827323  1
  O2-  O164  1  0.68431948  0.43171209  0.90873106  1
  O2-  O165  1  0.68167517  0.93247456  0.23197194  1
  O2-  O166  1  0.68038045  0.92479081  0.56868417  1
  O2-  O167  1  0.68158400  0.92250818  0.91280142  1
  O2-  O168  1  0.43220425  0.32216138  0.10142524  1
  O2-  O169  1  0.42897582  0.32148090  0.42513089  1
  O2-  O170  1  0.43263627  0.32421624  0.76368145  1
  O2-  O171  1  0.43039279  0.82090003  0.09586974  1
  O2-  O172  1  0.43157577  0.82320583  0.43388802  1
  O2-  O173  1  0.42977801  0.81698826  0.75731635  1
  O2-  O174  1  0.92516884  0.32145606  0.08709589  1
  O2-  O175  1  0.93031387  0.31775251  0.43335841  1
  O2-  O176  1  0.92537755  0.32421189  0.75587692  1
  O2-  O177  1  0.92328909  0.81706522  0.08776159  1
  O2-  O178  1  0.92556432  0.82269476  0.42202031  1
  O2-  O179  1  0.92317868  0.81720964  0.75596061  1
  O2-  O180  1  0.32147475  0.07042492  0.23080153  1
  O2-  O181  1  0.32186343  0.07173042  0.56986066  1
  O2-  O182  1  0.31961029  0.07154922  0.90967061  1
  O2-  O183  1  0.31902601  0.57250382  0.23625765  1
  O2-  O184  1  0.32098837  0.57196922  0.56871129  1
  O2-  O185  1  0.32077084  0.56904096  0.90267582  1
  O2-  O186  1  0.82319390  0.07318116  0.24622549  1
  O2-  O187  1  0.82255286  0.07414171  0.57741974  1
  O2-  O188  1  0.81813293  0.06807036  0.90143424  1
  O2-  O189  1  0.82179961  0.56875613  0.24348442  1
  O2-  O190  1  0.82589617  0.56995542  0.57715091  1
  O2-  O191  1  0.82010769  0.57215852  0.90885600  1
  O2-  O192  1  0.04635770  0.08265117  0.27070728  1
  O2-  O193  1  0.03765501  0.08696822  0.60197458  1
  O2-  O194  1  0.03247996  0.08242911  0.93346264  1
  O2-  O195  1  0.03322076  0.58765542  0.26437471  1
  O2-  O196  1  0.03810732  0.58993355  0.60335221  1
  O2-  O197  1  0.03579988  0.58477497  0.92680008  1
  O2-  O198  1  0.53942543  0.08476561  0.26652025  1
  O2-  O199  1  0.55067495  0.08104208  0.61034389  1
  O2-  O200  1  0.55439933  0.07743153  0.93264615  1
  O2-  O201  1  0.55078078  0.57487972  0.27098686  1
  O2-  O202  1  0.54624984  0.58701387  0.60881786  1
  O2-  O203  1  0.55431632  0.58297924  0.93739358  1
  O2-  O204  1  0.16822229  0.19886796  0.27379919  1
  O2-  O205  1  0.16109096  0.20191903  0.60247680  1
  O2-  O206  1  0.16596836  0.20448390  0.92976947  1
  O2-  O207  1  0.16529580  0.70932124  0.26313801  1
  O2-  O208  1  0.16335645  0.70743398  0.60426523  1
  O2-  O209  1  0.16602993  0.71057613  0.92840014  1
  O2-  O210  1  0.66580500  0.21070146  0.27039816  1
  O2-  O211  1  0.66555571  0.20785604  0.60180721  1
  O2-  O212  1  0.66955565  0.21235641  0.92980365  1
  O2-  O213  1  0.67168985  0.70394048  0.26758597  1
  O2-  O214  1  0.66752192  0.70414756  0.60681810  1
  O2-  O215  1  0.66796246  0.70635714  0.93439874  1
  O2-  O216  1  0.07817569  0.45657286  0.06276025  1
  O2-  O217  1  0.07806260  0.46294994  0.40012643  1
  O2-  O218  1  0.08249294  0.45934344  0.73222104  1
  O2-  O219  1  0.08217866  0.95722784  0.06789361  1
  O2-  O220  1  0.08223349  0.95075389  0.39430787  1
  O2-  O221  1  0.07727063  0.95325187  0.73051117  1
  O2-  O222  1  0.59093604  0.45674022  0.06272396  1
  O2-  O223  1  0.58295873  0.45456726  0.40566128  1
  O2-  O224  1  0.59102962  0.45864928  0.73234836  1
  O2-  O225  1  0.57972181  0.94645659  0.05883242  1
  O2-  O226  1  0.58550647  0.96221455  0.40052500  1
  O2-  O227  1  0.58371306  0.95475516  0.73863300  1
  O2-  O228  1  0.20080265  0.32593537  0.06487479  1
  O2-  O229  1  0.19491370  0.32899981  0.40210914  1
  O2-  O230  1  0.19385271  0.33286703  0.72123406  1
  O2-  O231  1  0.21157167  0.83314408  0.06516673  1
  O2-  O232  1  0.20169099  0.83396364  0.39286693  1
  O2-  O233  1  0.20929088  0.83197999  0.73210211  1
  O2-  O234  1  0.71143706  0.33894447  0.06074852  1
  O2-  O235  1  0.71638832  0.33450626  0.40394480  1
  O2-  O236  1  0.71121149  0.33756854  0.73075754  1
  O2-  O237  1  0.70818957  0.83486288  0.06525008  1
  O2-  O238  1  0.71197504  0.83339635  0.39984059  1
  O2-  O239  1  0.71419188  0.83237230  0.73740403  1
  O2-  O240  1  0.45095031  0.41686509  0.27615136  1
  O2-  O241  1  0.46716349  0.41707502  0.59799687  1
  O2-  O242  1  0.46451895  0.41836443  0.93408430  1
  O2-  O243  1  0.46232887  0.91707033  0.26514123  1
  O2-  O244  1  0.45554828  0.91557951  0.61052748  1
  O2-  O245  1  0.45911698  0.91370103  0.92476398  1
  O2-  O246  1  0.95619016  0.41602911  0.26425316  1
  O2-  O247  1  0.95570100  0.41406463  0.60322647  1
  O2-  O248  1  0.94854780  0.41677370  0.93547394  1
  O2-  O249  1  0.94696892  0.92069366  0.27235031  1
  O2-  O250  1  0.94751225  0.91386770  0.60419677  1
  O2-  O251  1  0.94864123  0.91663217  0.93946480  1
  O2-  O252  1  0.33007007  0.29787905  0.27743258  1
  O2-  O253  1  0.33011504  0.29897179  0.59661998  1
  O2-  O254  1  0.33046402  0.29696523  0.93252953  1
  O2-  O255  1  0.33056248  0.79621125  0.26648092  1
  O2-  O256  1  0.33983039  0.78927567  0.60479138  1
  O2-  O257  1  0.33359663  0.78741428  0.92708165  1
  O2-  O258  1  0.83511623  0.28786972  0.26452499  1
  O2-  O259  1  0.83643865  0.29358324  0.60312587  1
  O2-  O260  1  0.83637738  0.29291583  0.93345508  1
  O2-  O261  1  0.83497427  0.79710845  0.26788408  1
  O2-  O262  1  0.83723545  0.78569632  0.60239644  1
  O2-  O263  1  0.83424933  0.79208406  0.93432346  1
  O2-  O264  1  0.41856257  0.04407726  0.05619222  1
  O2-  O265  1  0.41575641  0.03767731  0.40100661  1
  O2-  O266  1  0.41878484  0.04906602  0.73820924  1
  O2-  O267  1  0.42402846  0.54836036  0.06653847  1
  O2-  O268  1  0.41987478  0.54740387  0.40357199  1
  O2-  O269  1  0.41929279  0.54002621  0.73555670  1
  O2-  O270  1  0.91196618  0.03809502  0.07239156  1
  O2-  O271  1  0.91699793  0.04918932  0.39825870  1
  O2-  O272  1  0.91368297  0.04492978  0.72966667  1
  O2-  O273  1  0.91399724  0.54590125  0.06036393  1
  O2-  O274  1  0.91219425  0.54005316  0.39712410  1
  O2-  O275  1  0.91399273  0.54063677  0.73102914  1
  O2-  O276  1  0.29879218  0.16589612  0.05957067  1
  O2-  O277  1  0.29167098  0.16509861  0.40299132  1
  O2-  O278  1  0.29185364  0.17537878  0.73170474  1
  O2-  O279  1  0.29022492  0.66885432  0.06575205  1
  O2-  O280  1  0.28768019  0.67012746  0.40125058  1
  O2-  O281  1  0.28859739  0.66417307  0.73508446  1
  O2-  O282  1  0.79189614  0.16943857  0.06761002  1
  O2-  O283  1  0.79671935  0.16627588  0.39784041  1
  O2-  O284  1  0.79685371  0.16696531  0.72947461  1
  O2-  O285  1  0.79510463  0.66431032  0.06212460  1
  O2-  O286  1  0.80324675  0.66730505  0.39404471  1
  O2-  O287  1  0.79555597  0.66029869  0.73193023  1
