# generated using pymatgen
data_Ca2Al2SiO7
_symmetry_space_group_name_H-M   'P 1'
_cell_length_a   15.47022251
_cell_length_b   15.46818703
_cell_length_c   15.29032347
_cell_angle_alpha   90.01361361
_cell_angle_beta   90.02289885
_cell_angle_gamma   89.97224181
_symmetry_Int_Tables_number   1
_chemical_formula_structural   Ca2Al2SiO7
_chemical_formula_sum   'Ca48 Al48 Si24 O168'
_cell_volume   3658.91693326
_cell_formula_units_Z   24
loop_
 _symmetry_equiv_pos_site_id
 _symmetry_equiv_pos_as_xyz
  1  'x, y, z'
loop_
 _atom_type_symbol
 _atom_type_oxidation_number
  Ca2+  2.0
  Al0+  0.0
  Si0+  0.0
  O2-  -2.0
loop_
 _atom_site_type_symbol
 _atom_site_label
 _atom_site_symmetry_multiplicity
 _atom_site_fract_x
 _atom_site_fract_y
 _atom_site_fract_z
 _atom_site_occupancy
  Ca2+  Ca0  1  0.17383666  0.09456030  0.16521705  1
  Ca2+  Ca1  1  0.16385692  0.07867540  0.51047281  1
  Ca2+  Ca2  1  0.16221655  0.08083206  0.83869379  1
  Ca2+  Ca3  1  0.15590315  0.57431032  0.16988289  1
  Ca2+  Ca4  1  0.15558414  0.57732303  0.50324952  1
  Ca2+  Ca5  1  0.15308444  0.57329957  0.83616485  1
  Ca2+  Ca6  1  0.67341120  0.07988104  0.17975066  1
  Ca2+  Ca7  1  0.67167594  0.07910497  0.50350183  1
  Ca2+  Ca8  1  0.66612368  0.08278441  0.83143362  1
  Ca2+  Ca9  1  0.67052333  0.57905559  0.17179842  1
  Ca2+  Ca10  1  0.66997952  0.57747455  0.51342909  1
  Ca2+  Ca11  1  0.66698252  0.58104743  0.83225211  1
  Ca2+  Ca12  1  0.07573653  0.33397927  0.15834147  1
  Ca2+  Ca13  1  0.07583612  0.33785737  0.49719366  1
  Ca2+  Ca14  1  0.08180304  0.32723753  0.82604332  1
  Ca2+  Ca15  1  0.08475548  0.82127527  0.16175239  1
  Ca2+  Ca16  1  0.07794749  0.82781670  0.49526527  1
  Ca2+  Ca17  1  0.08243762  0.82376643  0.82039893  1
  Ca2+  Ca18  1  0.57667316  0.32450994  0.16148596  1
  Ca2+  Ca19  1  0.59272485  0.31996845  0.49857532  1
  Ca2+  Ca20  1  0.57469003  0.33147034  0.82255917  1
  Ca2+  Ca21  1  0.57959685  0.83797649  0.16317527  1
  Ca2+  Ca22  1  0.59057585  0.83371552  0.49927321  1
  Ca2+  Ca23  1  0.57715038  0.83272176  0.82507611  1
  Ca2+  Ca24  1  0.31912747  0.40919804  0.16753433  1
  Ca2+  Ca25  1  0.31828827  0.41778557  0.50631569  1
  Ca2+  Ca26  1  0.32083805  0.41345014  0.84003044  1
  Ca2+  Ca27  1  0.33608646  0.92107923  0.16542416  1
  Ca2+  Ca28  1  0.32422052  0.91927059  0.50731624  1
  Ca2+  Ca29  1  0.32914830  0.92203520  0.83799697  1
  Ca2+  Ca30  1  0.84177754  0.41524453  0.17164262  1
  Ca2+  Ca31  1  0.83384872  0.41377658  0.50754824  1
  Ca2+  Ca32  1  0.83037986  0.40513706  0.83348516  1
  Ca2+  Ca33  1  0.82973145  0.92514829  0.18148011  1
  Ca2+  Ca34  1  0.82932308  0.91400829  0.50626318  1
  Ca2+  Ca35  1  0.82858370  0.90970884  0.83286657  1
  Ca2+  Ca36  1  0.42124889  0.16687319  0.15961717  1
  Ca2+  Ca37  1  0.42963245  0.16366697  0.49872608  1
  Ca2+  Ca38  1  0.41688977  0.16849109  0.83232372  1
  Ca2+  Ca39  1  0.41787082  0.67471604  0.15997603  1
  Ca2+  Ca40  1  0.42384332  0.66400391  0.50146430  1
  Ca2+  Ca41  1  0.41976308  0.67247178  0.82909903  1
  Ca2+  Ca42  1  0.91789038  0.17574997  0.16263197  1
  Ca2+  Ca43  1  0.91633828  0.17550233  0.49873752  1
  Ca2+  Ca44  1  0.92776909  0.17547939  0.82858703  1
  Ca2+  Ca45  1  0.92621257  0.67117776  0.16757634  1
  Ca2+  Ca46  1  0.92395258  0.67836928  0.49952322  1
  Ca2+  Ca47  1  0.92706946  0.67098787  0.82760074  1
  Al0+  Al48  1  -0.00301934  -0.00108480  0.00013342  1
  Al0+  Al49  1  0.00151449  0.00293876  0.33367879  1
  Al0+  Al50  1  -0.00112327  0.00177857  0.66653038  1
  Al0+  Al51  1  -0.00466521  0.50191470  -0.00216665  1
  Al0+  Al52  1  -0.00101572  0.49998679  0.33135351  1
  Al0+  Al53  1  -0.00111976  0.50216159  0.66526845  1
  Al0+  Al54  1  0.49826706  -0.00217580  -0.00040352  1
  Al0+  Al55  1  0.50155980  -0.00051221  0.33339883  1
  Al0+  Al56  1  0.50061731  0.00084528  0.66661029  1
  Al0+  Al57  1  0.49962720  0.49867156  -0.00119651  1
  Al0+  Al58  1  0.49835160  0.50009355  0.33225729  1
  Al0+  Al59  1  0.49898535  0.50137497  0.66646524  1
  Al0+  Al60  1  0.25156141  0.24848894  0.00190098  1
  Al0+  Al61  1  0.25100870  0.25180180  0.34146660  1
  Al0+  Al62  1  0.25167146  0.25094862  0.66647227  1
  Al0+  Al63  1  0.25178644  0.74868023  -0.00855291  1
  Al0+  Al64  1  0.25353750  0.74877160  0.32994138  1
  Al0+  Al65  1  0.25153636  0.75101081  0.66590370  1
  Al0+  Al66  1  0.74906049  0.24713732  -0.00086400  1
  Al0+  Al67  1  0.74981672  0.24863252  0.32733629  1
  Al0+  Al68  1  0.74904761  0.24945950  0.66615363  1
  Al0+  Al69  1  0.74994234  0.74678708  0.00424175  1
  Al0+  Al70  1  0.75059336  0.74860518  0.33214226  1
  Al0+  Al71  1  0.74862138  0.74940425  0.66659580  1
  Al0+  Al72  1  0.07196134  0.17849700  0.98674644  1
  Al0+  Al73  1  0.43057723  0.82106908  0.98520389  1
  Al0+  Al74  1  0.67998477  0.92875188  0.68224723  1
  Al0+  Al75  1  0.31996292  0.06913847  0.01381063  1
  Al0+  Al76  1  0.07358335  0.67959890  0.65088932  1
  Al0+  Al77  1  0.92999755  0.32063861  0.65167626  1
  Al0+  Al78  1  0.56925819  0.17909827  0.31872378  1
  Al0+  Al79  1  0.42935934  0.32078027  0.98684368  1
  Al0+  Al80  1  0.56974546  0.17923967  0.65348170  1
  Al0+  Al81  1  0.17733392  0.92985517  0.67912892  1
  Al0+  Al82  1  0.07403897  0.17906211  0.65135568  1
  Al0+  Al83  1  0.56973240  0.67921701  0.65401866  1
  Al0+  Al84  1  0.07188771  0.68056047  0.31740510  1
  Al0+  Al85  1  0.92723183  0.32168229  0.98435957  1
  Al0+  Al86  1  0.92775372  0.82244645  0.65382707  1
  Al0+  Al87  1  0.17806195  0.43075854  0.01307364  1
  Al0+  Al88  1  0.92811907  0.82410471  0.31792342  1
  Al0+  Al89  1  0.82352118  0.07388096  0.34968647  1
  Al0+  Al90  1  0.17818475  0.43129326  0.68140955  1
  Al0+  Al91  1  0.67904742  0.42761210  0.67978550  1
  Al0+  Al92  1  0.07016968  0.68030472  0.98529873  1
  Al0+  Al93  1  0.93063297  0.31908057  0.31967322  1
  Al0+  Al94  1  0.17868450  0.43146522  0.34759027  1
  Al0+  Al95  1  0.67995739  0.92828197  0.34929827  1
  Si0+  Si96  1  0.82026217  0.57198183  0.68477116  1
  Si0+  Si97  1  0.57193030  0.67641236  0.31821090  1
  Si0+  Si98  1  0.32434405  0.57443884  0.35044055  1
  Si0+  Si99  1  0.57095082  0.17678947  0.98308843  1
  Si0+  Si100  1  0.67958952  0.92804904  0.01448438  1
  Si0+  Si101  1  0.43073319  0.82052046  0.31853688  1
  Si0+  Si102  1  0.42932300  0.82314048  0.64799880  1
  Si0+  Si103  1  0.57348725  0.67688630  0.98437246  1
  Si0+  Si104  1  0.42677898  0.32241814  0.31717898  1
  Si0+  Si105  1  0.81850538  0.57053698  0.01805965  1
  Si0+  Si106  1  0.32200353  0.07088201  0.34870178  1
  Si0+  Si107  1  0.67686017  0.42947777  0.34635422  1
  Si0+  Si108  1  0.32405363  0.57269634  0.01658528  1
  Si0+  Si109  1  0.82058979  0.07086137  0.01604422  1
  Si0+  Si110  1  0.32340905  0.57291782  0.68450596  1
  Si0+  Si111  1  0.82151717  0.07329364  0.68627711  1
  Si0+  Si112  1  0.67704674  0.42680767  0.01568270  1
  Si0+  Si113  1  0.17685389  0.92569572  0.01567506  1
  Si0+  Si114  1  0.42772012  0.32406690  0.64825311  1
  Si0+  Si115  1  0.92578905  0.82177384  0.98506775  1
  Si0+  Si116  1  0.32267118  0.07160878  0.68299158  1
  Si0+  Si117  1  0.07703765  0.17796341  0.31777479  1
  Si0+  Si118  1  0.18151910  0.92686041  0.34539997  1
  Si0+  Si119  1  0.81982795  0.56965333  0.34910288  1
  O2-  O120  1  0.24206312  -0.00266991  0.06171067  1
  O2-  O121  1  0.24735047  0.00289366  0.38858756  1
  O2-  O122  1  0.24916371  0.00758379  0.72597085  1
  O2-  O123  1  0.25335424  0.50613356  0.06070747  1
  O2-  O124  1  0.25338803  0.50768171  0.39271906  1
  O2-  O125  1  0.25174666  0.50761710  0.72836958  1
  O2-  O126  1  0.75070813  -0.00223349  0.05728644  1
  O2-  O127  1  0.75580769  -0.00343109  0.39850277  1
  O2-  O128  1  0.75561643  0.00110303  0.73098233  1
  O2-  O129  1  0.74972983  0.49570408  0.05908143  1
  O2-  O130  1  0.74698720  0.49996291  0.38994996  1
  O2-  O131  1  0.75461877  0.49984370  0.72919292  1
  O2-  O132  1  0.00580020  0.24427150  0.27440016  1
  O2-  O133  1  0.00449028  0.25242239  0.60016717  1
  O2-  O134  1  0.00380300  0.25388404  0.93661960  1
  O2-  O135  1  0.00348074  0.75607568  0.26710789  1
  O2-  O136  1  0.00495362  0.75618598  0.60391155  1
  O2-  O137  1  0.00048563  0.76053810  0.94088794  1
  O2-  O138  1  0.49441214  0.25339291  0.27197425  1
  O2-  O139  1  0.49789980  0.25622955  0.60527857  1
  O2-  O140  1  0.50558340  0.24831414  0.93928931  1
  O2-  O141  1  0.50308299  0.74987251  0.27691750  1
  O2-  O142  1  0.49783610  0.75450454  0.60372165  1
  O2-  O143  1  0.50492724  0.74530879  0.94077483  1
  O2-  O144  1  0.06979058  0.17955038  0.10074688  1
  O2-  O145  1  0.08059757  0.17964316  0.42283823  1
  O2-  O146  1  0.07346263  0.17990326  0.76492090  1
  O2-  O147  1  0.06812770  0.67994232  0.09849493  1
  O2-  O148  1  0.07091776  0.68220654  0.43028568  1
  O2-  O149  1  0.07020897  0.67938661  0.76462352  1
  O2-  O150  1  0.57014304  0.17729382  0.08893765  1
  O2-  O151  1  0.56792263  0.17931359  0.43160530  1
  O2-  O152  1  0.56654746  0.17972708  0.76678536  1
  O2-  O153  1  0.57397139  0.67746399  0.09051715  1
  O2-  O154  1  0.57031689  0.67277271  0.42274639  1
  O2-  O155  1  0.56720286  0.68029196  0.76724786  1
  O2-  O156  1  0.17983440  0.43058967  0.23422509  1
  O2-  O157  1  0.17984742  0.43251884  0.56814891  1
  O2-  O158  1  0.17952369  0.43186578  0.90031431  1
  O2-  O159  1  0.18632345  0.92340623  0.24037758  1
  O2-  O160  1  0.18225254  0.92950194  0.56528966  1
  O2-  O161  1  0.17924961  0.92640058  0.91036938  1
  O2-  O162  1  0.67498644  0.43308564  0.24080890  1
  O2-  O163  1  0.67988922  0.42950551  0.56617879  1
  O2-  O164  1  0.67568209  0.42856024  0.91093654  1
  O2-  O165  1  0.67675007  0.93041117  0.23478132  1
  O2-  O166  1  0.67977755  0.92974149  0.56975959  1
  O2-  O167  1  0.68013518  0.92691947  0.90960282  1
  O2-  O168  1  0.43201929  0.31917928  0.10029747  1
  O2-  O169  1  0.42770460  0.32249543  0.42245867  1
  O2-  O170  1  0.42809798  0.32345907  0.75407031  1
  O2-  O171  1  0.43366601  0.82112536  0.09906195  1
  O2-  O172  1  0.42858592  0.82013526  0.42315469  1
  O2-  O173  1  0.43073312  0.82309791  0.75358538  1
  O2-  O174  1  0.92659300  0.31925218  0.09819547  1
  O2-  O175  1  0.92968838  0.32159184  0.43207425  1
  O2-  O176  1  0.92921922  0.31752828  0.76502393  1
  O2-  O177  1  0.92346058  0.81931788  0.09043009  1
  O2-  O178  1  0.92764057  0.82004801  0.43092499  1
  O2-  O179  1  0.92689489  0.81732981  0.76795438  1
  O2-  O180  1  0.32319939  0.07037584  0.24354212  1
  O2-  O181  1  0.32565823  0.06779908  0.57686249  1
  O2-  O182  1  0.32434160  0.06592073  0.90136673  1
  O2-  O183  1  0.32924815  0.57547598  0.24516848  1
  O2-  O184  1  0.32733662  0.56997408  0.57877053  1
  O2-  O185  1  0.32827443  0.57148413  0.91154390  1
  O2-  O186  1  0.81772124  0.07408358  0.23519496  1
  O2-  O187  1  0.81826359  0.07559433  0.58104426  1
  O2-  O188  1  0.81927914  0.07212121  0.91136472  1
  O2-  O189  1  0.81779282  0.56891426  0.24339682  1
  O2-  O190  1  0.81704213  0.57288768  0.57893421  1
  O2-  O191  1  0.81516246  0.57708025  0.91378259  1
  O2-  O192  1  0.05810665  0.08292526  0.27215488  1
  O2-  O193  1  0.04486829  0.08088621  0.59935365  1
  O2-  O194  1  0.04112879  0.07938818  0.93556431  1
  O2-  O195  1  0.03594747  0.58446926  0.26464445  1
  O2-  O196  1  0.03919534  0.58388517  0.59761854  1
  O2-  O197  1  0.03125041  0.58705466  0.93158351  1
  O2-  O198  1  0.53742642  0.08261508  0.26456683  1
  O2-  O199  1  0.53665943  0.08400278  0.59826047  1
  O2-  O200  1  0.54226910  0.08418560  0.93804067  1
  O2-  O201  1  0.54180784  0.58604312  0.26791134  1
  O2-  O202  1  0.53773323  0.58377467  0.59764180  1
  O2-  O203  1  0.54896658  0.58321573  0.93904849  1
  O2-  O204  1  0.17078514  0.20707003  0.27267742  1
  O2-  O205  1  0.17487014  0.20167878  0.60049328  1
  O2-  O206  1  0.17235022  0.20020062  0.93674476  1
  O2-  O207  1  0.17254524  0.70445143  0.26543083  1
  O2-  O208  1  0.17392352  0.70279966  0.59987283  1
  O2-  O209  1  0.16829780  0.70247121  0.93167666  1
  O2-  O210  1  0.66351758  0.21123980  0.26173084  1
  O2-  O211  1  0.66548879  0.20977680  0.59909256  1
  O2-  O212  1  0.66517819  0.19892998  0.93825807  1
  O2-  O213  1  0.66370485  0.70099063  0.26958405  1
  O2-  O214  1  0.66583478  0.70752922  0.59958614  1
  O2-  O215  1  0.66695152  0.70293784  0.93921591  1
  O2-  O216  1  0.08002383  0.46283960  0.06467280  1
  O2-  O217  1  0.08205258  0.46367707  0.40024876  1
  O2-  O218  1  0.08074661  0.46125080  0.73408012  1
  O2-  O219  1  0.08078614  0.94517616  0.05964711  1
  O2-  O220  1  0.08819110  0.94972867  0.39085710  1
  O2-  O221  1  0.07995672  0.95585381  0.73377895  1
  O2-  O222  1  0.58629862  0.45685400  0.06498810  1
  O2-  O223  1  0.58472660  0.45627626  0.39348520  1
  O2-  O224  1  0.58232153  0.46088889  0.73282389  1
  O2-  O225  1  0.58769658  0.95634476  0.06121578  1
  O2-  O226  1  0.58128723  0.95802952  0.40127858  1
  O2-  O227  1  0.58290277  0.96157008  0.73524095  1
  O2-  O228  1  0.21099997  0.33459382  0.06696124  1
  O2-  O229  1  0.21098955  0.33644722  0.40445803  1
  O2-  O230  1  0.21230438  0.33422712  0.73332310  1
  O2-  O231  1  0.20909776  0.83284466  0.06024911  1
  O2-  O232  1  0.21563706  0.83738655  0.39394997  1
  O2-  O233  1  0.21189792  0.83393821  0.73301912  1
  O2-  O234  1  0.70168409  0.33317219  0.06157185  1
  O2-  O235  1  0.70530692  0.33695160  0.39000891  1
  O2-  O236  1  0.70656533  0.33093659  0.73529136  1
  O2-  O237  1  0.70420650  0.83503535  0.06216712  1
  O2-  O238  1  0.70285763  0.82654782  0.39813209  1
  O2-  O239  1  0.70792699  0.83117524  0.73673237  1
  O2-  O240  1  0.45228868  0.41593462  0.27039740  1
  O2-  O241  1  0.45136623  0.41787248  0.60315213  1
  O2-  O242  1  0.45859199  0.41748045  0.93237255  1
  O2-  O243  1  0.45887947  0.91170136  0.26995125  1
  O2-  O244  1  0.45545384  0.91604475  0.60181361  1
  O2-  O245  1  0.46338880  0.91566140  0.92961206  1
  O2-  O246  1  0.96105715  0.41555607  0.26484394  1
  O2-  O247  1  0.95297543  0.42096036  0.60107584  1
  O2-  O248  1  0.94503419  0.42286303  0.93509374  1
  O2-  O249  1  0.95184044  0.92507481  0.26789139  1
  O2-  O250  1  0.94748146  0.92298487  0.60392452  1
  O2-  O251  1  0.94134132  0.91772745  0.94117878  1
  O2-  O252  1  0.33300678  0.29496188  0.27272075  1
  O2-  O253  1  0.33583566  0.29597226  0.60090251  1
  O2-  O254  1  0.33442556  0.28794376  0.93274724  1
  O2-  O255  1  0.34128283  0.79164449  0.26711782  1
  O2-  O256  1  0.33658197  0.79675634  0.60118194  1
  O2-  O257  1  0.33562431  0.79220391  0.92841585  1
  O2-  O258  1  0.83403090  0.29095772  0.26357797  1
  O2-  O259  1  0.83129460  0.29084649  0.60011585  1
  O2-  O260  1  0.82902266  0.28881886  0.93314561  1
  O2-  O261  1  0.83060720  0.79065383  0.26419117  1
  O2-  O262  1  0.83168042  0.78794178  0.60050296  1
  O2-  O263  1  0.83387918  0.78815353  0.93957236  1
  O2-  O264  1  0.41564866  0.03363214  0.06972014  1
  O2-  O265  1  0.41175252  0.03779469  0.39660475  1
  O2-  O266  1  0.41362297  0.04048607  0.73110299  1
  O2-  O267  1  0.41781740  0.54693742  0.06431851  1
  O2-  O268  1  0.41716245  0.54584308  0.39828756  1
  O2-  O269  1  0.41570340  0.54565415  0.73269338  1
  O2-  O270  1  0.91238321  0.04504891  0.06490657  1
  O2-  O271  1  0.92573560  0.05605643  0.39881591  1
  O2-  O272  1  0.91601660  0.05168876  0.73155594  1
  O2-  O273  1  0.90980125  0.54439973  0.06691537  1
  O2-  O274  1  0.91039931  0.53993914  0.39589415  1
  O2-  O275  1  0.91465509  0.54999163  0.72965753  1
  O2-  O276  1  0.29363688  0.16552119  0.07121188  1
  O2-  O277  1  0.30003228  0.16321765  0.39743428  1
  O2-  O278  1  0.30439770  0.16755634  0.72635597  1
  O2-  O279  1  0.30042740  0.66833031  0.06017909  1
  O2-  O280  1  0.30261422  0.66889954  0.39677392  1
  O2-  O281  1  0.30360948  0.66891394  0.72765944  1
  O2-  O282  1  0.79000319  0.16161908  0.06501995  1
  O2-  O283  1  0.78693689  0.17069033  0.40103738  1
  O2-  O284  1  0.78882368  0.16398204  0.73424795  1
  O2-  O285  1  0.78693002  0.65971322  0.07056581  1
  O2-  O286  1  0.79206511  0.66121447  0.39598458  1
  O2-  O287  1  0.78851394  0.66257573  0.73332986  1
