# generated using pymatgen
data_Ca2Al2SiO7
_symmetry_space_group_name_H-M   'P 1'
_cell_length_a   15.46049771
_cell_length_b   15.46009697
_cell_length_c   15.28556485
_cell_angle_alpha   89.98649953
_cell_angle_beta   89.99250379
_cell_angle_gamma   89.99658163
_symmetry_Int_Tables_number   1
_chemical_formula_structural   Ca2Al2SiO7
_chemical_formula_sum   'Ca48 Al48 Si24 O168'
_cell_volume   3653.56770456
_cell_formula_units_Z   24
loop_
 _symmetry_equiv_pos_site_id
 _symmetry_equiv_pos_as_xyz
  1  'x, y, z'
loop_
 _atom_type_symbol
 _atom_type_oxidation_number
  Ca2+  2.0
  Al0+  0.0
  Si0+  0.0
  O2-  -2.0
loop_
 _atom_site_type_symbol
 _atom_site_label
 _atom_site_symmetry_multiplicity
 _atom_site_fract_x
 _atom_site_fract_y
 _atom_site_fract_z
 _atom_site_occupancy
  Ca2+  Ca0  1  0.17238227  0.08345986  0.17850543  1
  Ca2+  Ca1  1  0.16838422  0.07972461  0.50047843  1
  Ca2+  Ca2  1  0.16390626  0.07507434  0.83255841  1
  Ca2+  Ca3  1  0.17650762  0.57833429  0.17633028  1
  Ca2+  Ca4  1  0.17428130  0.58487367  0.50684886  1
  Ca2+  Ca5  1  0.15769176  0.57572397  0.83157977  1
  Ca2+  Ca6  1  0.67516173  0.08630348  0.17555502  1
  Ca2+  Ca7  1  0.67430772  0.08457822  0.50443955  1
  Ca2+  Ca8  1  0.68009383  0.08161545  0.83738778  1
  Ca2+  Ca9  1  0.66750121  0.58531635  0.16945384  1
  Ca2+  Ca10  1  0.67161710  0.58437571  0.50542281  1
  Ca2+  Ca11  1  0.67186103  0.58098450  0.83642883  1
  Ca2+  Ca12  1  0.08337737  0.32504808  0.16765348  1
  Ca2+  Ca13  1  0.07838049  0.33232837  0.49868039  1
  Ca2+  Ca14  1  0.07397796  0.33230169  0.82233442  1
  Ca2+  Ca15  1  0.07640770  0.83286359  0.16817071  1
  Ca2+  Ca16  1  0.07652046  0.83258510  0.50232641  1
  Ca2+  Ca17  1  0.07804869  0.82559176  0.82056540  1
  Ca2+  Ca18  1  0.57645193  0.33509786  0.16563863  1
  Ca2+  Ca19  1  0.58176200  0.33012328  0.49308447  1
  Ca2+  Ca20  1  0.58342749  0.34431627  0.83100745  1
  Ca2+  Ca21  1  0.58009454  0.82335186  0.16802568  1
  Ca2+  Ca22  1  0.58154578  0.82181772  0.49156215  1
  Ca2+  Ca23  1  0.58771553  0.82018724  0.82879522  1
  Ca2+  Ca24  1  0.33866304  0.41565221  0.17449636  1
  Ca2+  Ca25  1  0.32992515  0.41769812  0.50078952  1
  Ca2+  Ca26  1  0.32825330  0.41477519  0.83474765  1
  Ca2+  Ca27  1  0.33225336  0.91907706  0.18005143  1
  Ca2+  Ca28  1  0.33534061  0.92142780  0.50413584  1
  Ca2+  Ca29  1  0.32528054  0.91230217  0.83314507  1
  Ca2+  Ca30  1  0.82513684  0.42945127  0.17150809  1
  Ca2+  Ca31  1  0.82879613  0.42686569  0.51078230  1
  Ca2+  Ca32  1  0.82458331  0.42533811  0.83608016  1
  Ca2+  Ca33  1  0.83225327  0.92319827  0.17453294  1
  Ca2+  Ca34  1  0.84708452  0.92619999  0.50108843  1
  Ca2+  Ca35  1  0.84311136  0.92617407  0.83353061  1
  Ca2+  Ca36  1  0.41975325  0.17358222  0.16639511  1
  Ca2+  Ca37  1  0.42359988  0.17138849  0.48587571  1
  Ca2+  Ca38  1  0.42037110  0.17493117  0.83058755  1
  Ca2+  Ca39  1  0.42891891  0.65891929  0.16680836  1
  Ca2+  Ca40  1  0.42730317  0.66680349  0.49032916  1
  Ca2+  Ca41  1  0.43117402  0.66208432  0.82789713  1
  Ca2+  Ca42  1  0.92022912  0.15832515  0.16608993  1
  Ca2+  Ca43  1  0.91486416  0.17219563  0.49439534  1
  Ca2+  Ca44  1  0.90929310  0.17204737  0.82504230  1
  Ca2+  Ca45  1  0.90496634  0.67076871  0.16632298  1
  Ca2+  Ca46  1  0.91272207  0.67383866  0.49525999  1
  Ca2+  Ca47  1  0.91637606  0.66802897  0.81948367  1
  Al0+  Al48  1  0.00257955  -0.00193944  0.00325652  1
  Al0+  Al49  1  -0.00015252  -0.00009875  0.32864308  1
  Al0+  Al50  1  0.00395908  -0.00019064  0.67244260  1
  Al0+  Al51  1  0.00035140  0.49837816  0.00642180  1
  Al0+  Al52  1  -0.00076003  0.49988909  0.33557179  1
  Al0+  Al53  1  0.00230349  0.49912215  0.66504669  1
  Al0+  Al54  1  0.49881206  0.00089194  -0.00289162  1
  Al0+  Al55  1  0.50095637  -0.00077959  0.33034902  1
  Al0+  Al56  1  0.50192953  0.00231486  0.67078146  1
  Al0+  Al57  1  0.49886185  0.49954336  -0.00672239  1
  Al0+  Al58  1  0.49879695  0.49919096  0.33159140  1
  Al0+  Al59  1  0.49923852  0.49995986  0.66409617  1
  Al0+  Al60  1  0.24979736  0.24805736  -0.00610388  1
  Al0+  Al61  1  0.24802460  0.24713990  0.33131622  1
  Al0+  Al62  1  0.25104636  0.25152353  0.67117417  1
  Al0+  Al63  1  0.24767162  0.74876564  0.00052585  1
  Al0+  Al64  1  0.24756599  0.74845768  0.33583051  1
  Al0+  Al65  1  0.25156808  0.75225367  0.66895036  1
  Al0+  Al66  1  0.75071462  0.25046591  0.00928528  1
  Al0+  Al67  1  0.75043584  0.25168724  0.33251069  1
  Al0+  Al68  1  0.74953110  0.25113782  0.67001451  1
  Al0+  Al69  1  0.74958342  0.75355313  -0.00257009  1
  Al0+  Al70  1  0.75024938  0.75121026  0.32838167  1
  Al0+  Al71  1  0.74952867  0.75325455  0.66012561  1
  Al0+  Al72  1  0.07318266  0.67707630  0.65192113  1
  Al0+  Al73  1  0.67612260  0.43061423  0.01719659  1
  Al0+  Al74  1  0.42952451  0.31968610  0.98322295  1
  Al0+  Al75  1  0.57067688  0.67885029  0.65127184  1
  Al0+  Al76  1  0.57039128  0.68098595  0.98388103  1
  Al0+  Al77  1  0.92942070  0.82274109  0.65150764  1
  Al0+  Al78  1  0.82151328  0.06977262  0.01561196  1
  Al0+  Al79  1  0.17943685  0.42891297  0.67997926  1
  Al0+  Al80  1  0.67768086  0.42977964  0.68063485  1
  Al0+  Al81  1  0.32238470  0.06976628  0.34572453  1
  Al0+  Al82  1  0.81997026  0.57301384  0.34863728  1
  Al0+  Al83  1  0.06759039  0.17994839  0.32127171  1
  Al0+  Al84  1  0.92734922  0.32048354  0.65443753  1
  Al0+  Al85  1  0.82146815  0.06989584  0.67898384  1
  Al0+  Al86  1  0.57054134  0.67844621  0.31734015  1
  Al0+  Al87  1  0.42824734  0.31910185  0.31981121  1
  Al0+  Al88  1  0.82210416  0.57339458  0.01480412  1
  Al0+  Al89  1  0.18166439  0.92956028  0.68035718  1
  Al0+  Al90  1  0.82140771  0.07117137  0.34773520  1
  Al0+  Al91  1  0.57410795  0.17759149  0.31889046  1
  Al0+  Al92  1  0.32104399  0.57033925  0.34668810  1
  Al0+  Al93  1  0.42582825  0.82124956  0.32069653  1
  Al0+  Al94  1  0.82118133  0.57429732  0.67888572  1
  Al0+  Al95  1  0.93126684  0.81978416  0.31785974  1
  Si0+  Si96  1  0.17838661  0.42553950  0.01597538  1
  Si0+  Si97  1  0.18112402  0.92763855  0.01733835  1
  Si0+  Si98  1  0.07219711  0.67502358  0.31575166  1
  Si0+  Si99  1  0.92692504  0.32488899  0.31513353  1
  Si0+  Si100  1  0.07045496  0.17743157  0.98314373  1
  Si0+  Si101  1  0.93110615  0.82079792  0.98498793  1
  Si0+  Si102  1  0.31970289  0.07132452  0.01417459  1
  Si0+  Si103  1  0.57096813  0.17919048  0.65329013  1
  Si0+  Si104  1  0.67759756  0.42915782  0.35027979  1
  Si0+  Si105  1  0.42453372  0.82320404  0.98272154  1
  Si0+  Si106  1  0.67519282  0.92963308  0.68368133  1
  Si0+  Si107  1  0.57441877  0.17749806  0.98206433  1
  Si0+  Si108  1  0.67850377  0.92841942  0.34962321  1
  Si0+  Si109  1  0.42795133  0.32010145  0.65057396  1
  Si0+  Si110  1  0.32460873  0.07319456  0.68557240  1
  Si0+  Si111  1  0.31863723  0.56890564  0.01268307  1
  Si0+  Si112  1  0.07145706  0.67745637  0.98646084  1
  Si0+  Si113  1  0.92963884  0.32053507  0.98687345  1
  Si0+  Si114  1  0.67583805  0.92885666  0.01687632  1
  Si0+  Si115  1  0.17760475  0.42589408  0.34979300  1
  Si0+  Si116  1  0.07342898  0.17858305  0.65143474  1
  Si0+  Si117  1  0.32170831  0.57218371  0.68379914  1
  Si0+  Si118  1  0.42915200  0.82429799  0.65187187  1
  Si0+  Si119  1  0.17719298  0.92745791  0.35024421  1
  O2-  O120  1  0.25463935  -0.00405328  0.05812592  1
  O2-  O121  1  0.25211453  -0.00930090  0.39247911  1
  O2-  O122  1  0.25654564  0.00364027  0.72947436  1
  O2-  O123  1  0.25006473  0.49605171  0.05675168  1
  O2-  O124  1  0.24477730  0.49666921  0.39255114  1
  O2-  O125  1  0.25000311  0.50683278  0.72887899  1
  O2-  O126  1  0.74238274  -0.00051448  0.06124347  1
  O2-  O127  1  0.74446583  -0.00048164  0.39474471  1
  O2-  O128  1  0.74916421  -0.00654058  0.72724061  1
  O2-  O129  1  0.74723503  0.50455052  0.06542557  1
  O2-  O130  1  0.74638130  0.49743009  0.39417509  1
  O2-  O131  1  0.74881700  0.50323383  0.72981039  1
  O2-  O132  1  -0.00664174  0.25335702  0.27104111  1
  O2-  O133  1  0.00261473  0.24518991  0.60852811  1
  O2-  O134  1  -0.00229103  0.24677654  0.94237163  1
  O2-  O135  1  0.00242330  0.74176755  0.26986832  1
  O2-  O136  1  -0.00340535  0.74490545  0.60284914  1
  O2-  O137  1  -0.00481953  0.74285733  0.94460260  1
  O2-  O138  1  0.50054017  0.24800430  0.26881965  1
  O2-  O139  1  0.49965050  0.24943117  0.61065267  1
  O2-  O140  1  0.50793997  0.24810846  0.93640978  1
  O2-  O141  1  0.49454996  0.74776719  0.26824508  1
  O2-  O142  1  0.49621412  0.75536891  0.60735635  1
  O2-  O143  1  0.49507370  0.75701382  0.93828599  1
  O2-  O144  1  0.07290167  0.17746515  0.08813690  1
  O2-  O145  1  0.06807343  0.18072957  0.43414354  1
  O2-  O146  1  0.07384271  0.17989022  0.75779143  1
  O2-  O147  1  0.07746666  0.68082271  0.09119258  1
  O2-  O148  1  0.07367191  0.67530368  0.42074473  1
  O2-  O149  1  0.07293631  0.67978938  0.76661884  1
  O2-  O150  1  0.57048783  0.17453668  0.08701751  1
  O2-  O151  1  0.57345613  0.17989786  0.43316224  1
  O2-  O152  1  0.56867722  0.17755170  0.75862358  1
  O2-  O153  1  0.56795412  0.68154912  0.09648848  1
  O2-  O154  1  0.56972924  0.67959364  0.43072923  1
  O2-  O155  1  0.56831743  0.67974101  0.76490079  1
  O2-  O156  1  0.17773331  0.42650659  0.24340449  1
  O2-  O157  1  0.18518427  0.42290955  0.56764267  1
  O2-  O158  1  0.17647332  0.42626249  0.91101874  1
  O2-  O159  1  0.17651611  0.93000563  0.24379353  1
  O2-  O160  1  0.18286771  0.93232272  0.56774467  1
  O2-  O161  1  0.17991272  0.92813057  0.91234332  1
  O2-  O162  1  0.67796370  0.42920128  0.24459809  1
  O2-  O163  1  0.67715276  0.42745300  0.56736414  1
  O2-  O164  1  0.67887993  0.43193645  0.90365149  1
  O2-  O165  1  0.68100503  0.92817786  0.24355791  1
  O2-  O166  1  0.66588862  0.93566238  0.57923451  1
  O2-  O167  1  0.67717355  0.92919977  0.91107732  1
  O2-  O168  1  0.42444286  0.31602998  0.09550101  1
  O2-  O169  1  0.42813097  0.31797716  0.43365763  1
  O2-  O170  1  0.42669218  0.31859524  0.75605865  1
  O2-  O171  1  0.42162354  0.82302274  0.08772734  1
  O2-  O172  1  0.42879566  0.82131687  0.43440358  1
  O2-  O173  1  0.42997249  0.82375437  0.75801389  1
  O2-  O174  1  0.93496112  0.32066441  0.09176586  1
  O2-  O175  1  0.92871011  0.32489365  0.42068248  1
  O2-  O176  1  0.92826996  0.31754160  0.76836226  1
  O2-  O177  1  0.93479395  0.82325256  0.09004925  1
  O2-  O178  1  0.93523410  0.82259401  0.43021260  1
  O2-  O179  1  0.93342475  0.82506175  0.76591371  1
  O2-  O180  1  0.31748264  0.07033467  0.23204286  1
  O2-  O181  1  0.32606429  0.07367470  0.58038099  1
  O2-  O182  1  0.31619622  0.07142355  0.90891638  1
  O2-  O183  1  0.31914379  0.56822032  0.23270724  1
  O2-  O184  1  0.32203184  0.56953614  0.57838090  1
  O2-  O185  1  0.31480867  0.56956322  0.90766099  1
  O2-  O186  1  0.82201697  0.06622861  0.23441926  1
  O2-  O187  1  0.82021131  0.07068889  0.56625781  1
  O2-  O188  1  0.82330018  0.06815108  0.90217857  1
  O2-  O189  1  0.81826066  0.57130785  0.23532507  1
  O2-  O190  1  0.81875634  0.57224591  0.56546932  1
  O2-  O191  1  0.82662764  0.57165481  0.90162115  1
  O2-  O192  1  0.03838813  0.08500438  0.26255255  1
  O2-  O193  1  0.05144907  0.08383988  0.60837443  1
  O2-  O194  1  0.04464853  0.08372937  0.93782535  1
  O2-  O195  1  0.04986478  0.58025962  0.26997066  1
  O2-  O196  1  0.05650317  0.57614500  0.60110085  1
  O2-  O197  1  0.04932693  0.58212751  0.94317148  1
  O2-  O198  1  0.54871402  0.07919557  0.26536613  1
  O2-  O199  1  0.54315000  0.08737082  0.60599908  1
  O2-  O200  1  0.54626592  0.08467557  0.93375061  1
  O2-  O201  1  0.54136048  0.58045113  0.26427966  1
  O2-  O202  1  0.53678933  0.58328699  0.59757485  1
  O2-  O203  1  0.53643516  0.58604911  0.92902554  1
  O2-  O204  1  0.16277425  0.21093120  0.26356243  1
  O2-  O205  1  0.16721005  0.20667375  0.60714698  1
  O2-  O206  1  0.16067931  0.20601315  0.93325796  1
  O2-  O207  1  0.16491715  0.70253044  0.26809125  1
  O2-  O208  1  0.17137114  0.71109270  0.60097039  1
  O2-  O209  1  0.16074995  0.70984741  0.93617651  1
  O2-  O210  1  0.67162709  0.20766198  0.26463188  1
  O2-  O211  1  0.66234315  0.20683583  0.60652426  1
  O2-  O212  1  0.67056557  0.20088293  0.94028858  1
  O2-  O213  1  0.66636362  0.71157421  0.26250564  1
  O2-  O214  1  0.66590692  0.70984438  0.59626018  1
  O2-  O215  1  0.66679709  0.71404868  0.92988656  1
  O2-  O216  1  0.08857779  0.45297202  0.06702084  1
  O2-  O217  1  0.08341154  0.44938204  0.39484420  1
  O2-  O218  1  0.08292639  0.45588280  0.73660459  1
  O2-  O219  1  0.09106334  0.95866483  0.06605310  1
  O2-  O220  1  0.08711832  0.96307049  0.39571968  1
  O2-  O221  1  0.08834679  0.96222870  0.74049514  1
  O2-  O222  1  0.57536700  0.45775592  0.06597416  1
  O2-  O223  1  0.58351463  0.45328294  0.39524084  1
  O2-  O224  1  0.57806900  0.45747974  0.73254246  1
  O2-  O225  1  0.57988953  0.95072605  0.06015456  1
  O2-  O226  1  0.58390869  0.94996314  0.39464642  1
  O2-  O227  1  0.58521226  0.95940819  0.73671304  1
  O2-  O228  1  0.20658563  0.33229822  0.06041821  1
  O2-  O229  1  0.20460603  0.33318373  0.39565264  1
  O2-  O230  1  0.21327226  0.33434699  0.73865977  1
  O2-  O231  1  0.20557262  0.83494261  0.06485736  1
  O2-  O232  1  0.19344824  0.83178300  0.39438562  1
  O2-  O233  1  0.21266742  0.83428172  0.73888381  1
  O2-  O234  1  0.70390417  0.33249310  0.07057875  1
  O2-  O235  1  0.70323945  0.33526435  0.39565264  1
  O2-  O236  1  0.70565170  0.33217013  0.73593952  1
  O2-  O237  1  0.70453130  0.83689561  0.06372882  1
  O2-  O238  1  0.70721759  0.83588140  0.39500770  1
  O2-  O239  1  0.69813266  0.83438392  0.72622016  1
  O2-  O240  1  0.45642148  0.41677702  0.26568556  1
  O2-  O241  1  0.45355404  0.41204820  0.60373268  1
  O2-  O242  1  0.45458106  0.41674817  0.92750819  1
  O2-  O243  1  0.45494156  0.91824372  0.26506922  1
  O2-  O244  1  0.45452548  0.91947281  0.60877975  1
  O2-  O245  1  0.44590456  0.91832082  0.93668857  1
  O2-  O246  1  0.95671056  0.41683104  0.26739410  1
  O2-  O247  1  0.96026499  0.41513089  0.59935719  1
  O2-  O248  1  0.96156616  0.41165233  0.94015167  1
  O2-  O249  1  0.96606916  0.91393917  0.26094113  1
  O2-  O250  1  0.96769755  0.91972256  0.60066334  1
  O2-  O251  1  0.96794287  0.91009864  0.93739568  1
  O2-  O252  1  0.33008859  0.29062231  0.26622100  1
  O2-  O253  1  0.33642891  0.29040071  0.60435641  1
  O2-  O254  1  0.33379207  0.28443851  0.92728225  1
  O2-  O255  1  0.32475688  0.79802655  0.27004269  1
  O2-  O256  1  0.33473218  0.80237085  0.60743508  1
  O2-  O257  1  0.33111024  0.79410450  0.93634308  1
  O2-  O258  1  0.83302239  0.30232009  0.26975025  1
  O2-  O259  1  0.83152738  0.28872785  0.59991453  1
  O2-  O260  1  0.83614284  0.29441352  0.94262964  1
  O2-  O261  1  0.83467329  0.79229395  0.26221524  1
  O2-  O262  1  0.82911277  0.80594270  0.59874271  1
  O2-  O263  1  0.83668174  0.80423319  0.93914489  1
  O2-  O264  1  0.41458562  0.05060681  0.05790028  1
  O2-  O265  1  0.42029671  0.04363158  0.39933250  1
  O2-  O266  1  0.41748691  0.04824438  0.73438211  1
  O2-  O267  1  0.41091234  0.54192430  0.05780263  1
  O2-  O268  1  0.41675852  0.53861010  0.40126307  1
  O2-  O269  1  0.41286902  0.53989625  0.73088423  1
  O2-  O270  1  0.91828166  0.03495927  0.06785130  1
  O2-  O271  1  0.91817501  0.03710307  0.39928991  1
  O2-  O272  1  0.91841988  0.04238500  0.73483219  1
  O2-  O273  1  0.91988026  0.54331160  0.07032678  1
  O2-  O274  1  0.91852708  0.54449083  0.39978286  1
  O2-  O275  1  0.92091409  0.54641485  0.72892235  1
  O2-  O276  1  0.28558909  0.16131343  0.06090849  1
  O2-  O277  1  0.28621965  0.16428869  0.40057412  1
  O2-  O278  1  0.29646359  0.16546561  0.73323249  1
  O2-  O279  1  0.28880284  0.66012723  0.06049867  1
  O2-  O280  1  0.29046675  0.66652181  0.40197874  1
  O2-  O281  1  0.30265463  0.66740495  0.72897755  1
  O2-  O282  1  0.79740403  0.16704527  0.07042045  1
  O2-  O283  1  0.79577856  0.17068285  0.39822494  1
  O2-  O284  1  0.78695990  0.16440306  0.73498632  1
  O2-  O285  1  0.79570568  0.67453061  0.06332366  1
  O2-  O286  1  0.79006776  0.67113922  0.39887781  1
  O2-  O287  1  0.79475177  0.67485109  0.72913746  1
