# generated using pymatgen
data_Ca2Al2SiO7
_symmetry_space_group_name_H-M   'P 1'
_cell_length_a   15.46214143
_cell_length_b   15.46355918
_cell_length_c   15.28779038
_cell_angle_alpha   90.00162395
_cell_angle_beta   90.00139141
_cell_angle_gamma   90.00518272
_symmetry_Int_Tables_number   1
_chemical_formula_structural   Ca2Al2SiO7
_chemical_formula_sum   'Ca48 Al48 Si24 O168'
_cell_volume   3655.30667132
_cell_formula_units_Z   24
loop_
 _symmetry_equiv_pos_site_id
 _symmetry_equiv_pos_as_xyz
  1  'x, y, z'
loop_
 _atom_type_symbol
 _atom_type_oxidation_number
  Ca2+  2.0
  Al0+  0.0
  Si0+  0.0
  O2-  -2.0
loop_
 _atom_site_type_symbol
 _atom_site_label
 _atom_site_symmetry_multiplicity
 _atom_site_fract_x
 _atom_site_fract_y
 _atom_site_fract_z
 _atom_site_occupancy
  Ca2+  Ca0  1  0.16604474  0.08740012  0.16593354  1
  Ca2+  Ca1  1  0.16178074  0.08722723  0.50327536  1
  Ca2+  Ca2  1  0.17142998  0.08289134  0.84492645  1
  Ca2+  Ca3  1  0.16782605  0.57211652  0.17210976  1
  Ca2+  Ca4  1  0.16129092  0.57440665  0.49780359  1
  Ca2+  Ca5  1  0.17723975  0.57469714  0.84599463  1
  Ca2+  Ca6  1  0.66670565  0.07395887  0.17802748  1
  Ca2+  Ca7  1  0.67916094  0.09508117  0.49685223  1
  Ca2+  Ca8  1  0.67183708  0.07909930  0.83951606  1
  Ca2+  Ca9  1  0.67109212  0.57904861  0.17536800  1
  Ca2+  Ca10  1  0.67747541  0.57791900  0.49966818  1
  Ca2+  Ca11  1  0.66948548  0.58702221  0.83630652  1
  Ca2+  Ca12  1  0.07638377  0.33064442  0.16322337  1
  Ca2+  Ca13  1  0.07784205  0.32203446  0.48753636  1
  Ca2+  Ca14  1  0.08617272  0.32392751  0.83490558  1
  Ca2+  Ca15  1  0.08478989  0.82877890  0.16335013  1
  Ca2+  Ca16  1  0.07836836  0.82288206  0.49074375  1
  Ca2+  Ca17  1  0.08713620  0.83493431  0.83192379  1
  Ca2+  Ca18  1  0.58525826  0.33056092  0.16681033  1
  Ca2+  Ca19  1  0.57417160  0.33467572  0.48884087  1
  Ca2+  Ca20  1  0.57275862  0.33274181  0.82770424  1
  Ca2+  Ca21  1  0.58532405  0.83027517  0.15524314  1
  Ca2+  Ca22  1  0.58118730  0.83738128  0.49655870  1
  Ca2+  Ca23  1  0.57459286  0.83510478  0.83616954  1
  Ca2+  Ca24  1  0.32241732  0.41420059  0.17169117  1
  Ca2+  Ca25  1  0.32872267  0.40474477  0.49987127  1
  Ca2+  Ca26  1  0.32855880  0.41826626  0.84453491  1
  Ca2+  Ca27  1  0.33311179  0.92079699  0.16319805  1
  Ca2+  Ca28  1  0.33270274  0.91854604  0.50415466  1
  Ca2+  Ca29  1  0.33171715  0.92019723  0.84566415  1
  Ca2+  Ca30  1  0.83197604  0.41549028  0.17746040  1
  Ca2+  Ca31  1  0.83640241  0.42096876  0.49826682  1
  Ca2+  Ca32  1  0.83774465  0.42127808  0.83683966  1
  Ca2+  Ca33  1  0.82126812  0.92196053  0.17522455  1
  Ca2+  Ca34  1  0.82820127  0.92942944  0.50027708  1
  Ca2+  Ca35  1  0.82896978  0.92451564  0.83905715  1
  Ca2+  Ca36  1  0.41836007  0.16823710  0.16838378  1
  Ca2+  Ca37  1  0.42392736  0.17781573  0.49166277  1
  Ca2+  Ca38  1  0.41402960  0.16875390  0.82955756  1
  Ca2+  Ca39  1  0.42390863  0.67158212  0.15403370  1
  Ca2+  Ca40  1  0.41572875  0.67562214  0.49605020  1
  Ca2+  Ca41  1  0.41668983  0.67480514  0.83339603  1
  Ca2+  Ca42  1  0.91972262  0.17573587  0.16169475  1
  Ca2+  Ca43  1  0.92240487  0.16470917  0.48971161  1
  Ca2+  Ca44  1  0.92744886  0.16690835  0.82970342  1
  Ca2+  Ca45  1  0.92232874  0.65821538  0.16665200  1
  Ca2+  Ca46  1  0.91650526  0.66154093  0.49214115  1
  Ca2+  Ca47  1  0.91680008  0.66844808  0.82916825  1
  Al0+  Al48  1  0.00078108  0.00031666  0.00039175  1
  Al0+  Al49  1  0.00011965  -0.00346873  0.33280432  1
  Al0+  Al50  1  -0.00121856  -0.00255253  0.66686241  1
  Al0+  Al51  1  0.00031124  0.50054257  -0.00273435  1
  Al0+  Al52  1  0.00325664  0.49905805  0.33389019  1
  Al0+  Al53  1  0.00055405  0.49851906  0.67332386  1
  Al0+  Al54  1  0.50051985  -0.00028773  0.00336351  1
  Al0+  Al55  1  0.49603102  0.00064342  0.33527411  1
  Al0+  Al56  1  0.49952764  -0.00003270  0.66220699  1
  Al0+  Al57  1  0.50362993  0.50072074  -0.00221321  1
  Al0+  Al58  1  0.49820312  0.50465480  0.33346088  1
  Al0+  Al59  1  0.49930037  0.50215861  0.66155248  1
  Al0+  Al60  1  0.24985703  0.24979291  0.00524276  1
  Al0+  Al61  1  0.25067132  0.24961101  0.33124083  1
  Al0+  Al62  1  0.24902349  0.24783079  0.66033830  1
  Al0+  Al63  1  0.25125975  0.75108610  0.00303449  1
  Al0+  Al64  1  0.24855872  0.74980042  0.32959784  1
  Al0+  Al65  1  0.25015679  0.74835386  0.66163275  1
  Al0+  Al66  1  0.75108833  0.25275617  -0.00735794  1
  Al0+  Al67  1  0.74803572  0.24917408  0.33416941  1
  Al0+  Al68  1  0.75103282  0.25123972  0.67466802  1
  Al0+  Al69  1  0.75132069  0.74988409  -0.00156258  1
  Al0+  Al70  1  0.74845436  0.75173583  0.34226826  1
  Al0+  Al71  1  0.74919944  0.74956244  0.67085835  1
  Al0+  Al72  1  0.06841319  0.17789666  0.65258116  1
  Al0+  Al73  1  0.57412177  0.67745729  0.98416419  1
  Al0+  Al74  1  0.42913023  0.32136861  0.65431276  1
  Al0+  Al75  1  0.06979318  0.67824761  0.31911299  1
  Al0+  Al76  1  0.82244040  0.07156402  0.68290677  1
  Al0+  Al77  1  0.67585157  0.42802548  0.34720572  1
  Al0+  Al78  1  0.42925965  0.32451811  0.31572664  1
  Al0+  Al79  1  0.32247708  0.07235752  0.01596108  1
  Al0+  Al80  1  0.82098596  0.57004504  0.68285605  1
  Al0+  Al81  1  0.57057380  0.17904150  0.31861962  1
  Al0+  Al82  1  0.07161959  0.17882216  0.98440775  1
  Al0+  Al83  1  0.42872755  0.82085523  0.65173343  1
  Al0+  Al84  1  0.92792984  0.32336881  0.98170347  1
  Al0+  Al85  1  0.82157947  0.07113761  0.34587287  1
  Al0+  Al86  1  0.92834235  0.32036943  0.32067036  1
  Al0+  Al87  1  0.68159981  0.93022656  0.01192969  1
  Al0+  Al88  1  0.18155162  0.42804373  0.34894392  1
  Al0+  Al89  1  0.17667355  0.92841204  0.01565246  1
  Al0+  Al90  1  0.67459503  0.92887512  0.35017448  1
  Al0+  Al91  1  0.07143934  0.17483429  0.31672116  1
  Al0+  Al92  1  0.32477941  0.57130920  0.01430072  1
  Al0+  Al93  1  0.82240219  0.56957599  0.34644299  1
  Al0+  Al94  1  0.17875785  0.42946045  0.01595126  1
  Al0+  Al95  1  0.42914951  0.82178098  0.98576931  1
  Si0+  Si96  1  0.92919334  0.82065329  0.98527925  1
  Si0+  Si97  1  0.67665864  0.92879791  0.68551283  1
  Si0+  Si98  1  0.07161035  0.67965265  0.98407610  1
  Si0+  Si99  1  0.31895175  0.07056013  0.35140645  1
  Si0+  Si100  1  0.92816970  0.32328672  0.65022491  1
  Si0+  Si101  1  0.32070665  0.57304722  0.68042467  1
  Si0+  Si102  1  0.82184997  0.07436286  0.01573157  1
  Si0+  Si103  1  0.82093098  0.57120791  0.01386107  1
  Si0+  Si104  1  0.32062019  0.57474213  0.35152868  1
  Si0+  Si105  1  0.17997811  0.92625356  0.67890795  1
  Si0+  Si106  1  0.57182115  0.17820158  0.98477543  1
  Si0+  Si107  1  0.57331141  0.67904554  0.64675082  1
  Si0+  Si108  1  0.92757548  0.81953916  0.65196570  1
  Si0+  Si109  1  0.31962430  0.06990253  0.67904195  1
  Si0+  Si110  1  0.43044381  0.32060392  0.98694970  1
  Si0+  Si111  1  0.17949522  0.92652111  0.34981451  1
  Si0+  Si112  1  0.92615819  0.82013553  0.31715740  1
  Si0+  Si113  1  0.57142242  0.68277448  0.32001963  1
  Si0+  Si114  1  0.07016713  0.67783435  0.65312564  1
  Si0+  Si115  1  0.67969362  0.42799280  0.01302061  1
  Si0+  Si116  1  0.42691529  0.82171847  0.31707902  1
  Si0+  Si117  1  0.57395112  0.17848311  0.65194085  1
  Si0+  Si118  1  0.18175938  0.42713217  0.68172596  1
  Si0+  Si119  1  0.67504278  0.42958261  0.68466838  1
  O2-  O120  1  0.24802377  0.00146254  0.06475806  1
  O2-  O121  1  0.24563991  0.00113036  0.39359109  1
  O2-  O122  1  0.25011185  -0.00238849  0.72127931  1
  O2-  O123  1  0.25247614  0.50059136  0.06488281  1
  O2-  O124  1  0.25768717  0.50144959  0.39745246  1
  O2-  O125  1  0.25456587  0.49744063  0.72269607  1
  O2-  O126  1  0.75279123  0.00674312  0.05984748  1
  O2-  O127  1  0.74569853  0.00305801  0.39772694  1
  O2-  O128  1  0.74450393  -0.00095354  0.72870922  1
  O2-  O129  1  0.75159447  0.49851701  0.05412967  1
  O2-  O130  1  0.75232814  0.49583907  0.39719579  1
  O2-  O131  1  0.74581798  0.49597408  0.72996752  1
  O2-  O132  1  -0.00251076  0.24611880  0.26986965  1
  O2-  O133  1  -0.00840433  0.25022504  0.60629298  1
  O2-  O134  1  -0.00051946  0.25004803  0.93309088  1
  O2-  O135  1  -0.00840843  0.74897434  0.27208329  1
  O2-  O136  1  -0.00328078  0.74611748  0.61032432  1
  O2-  O137  1  0.00357150  0.75337507  0.94106845  1
  O2-  O138  1  0.50382110  0.25489611  0.26624679  1
  O2-  O139  1  0.50823238  0.25066607  0.60938966  1
  O2-  O140  1  0.49895488  0.24783235  0.94283370  1
  O2-  O141  1  0.50251720  0.75520841  0.27711261  1
  O2-  O142  1  0.50467353  0.74842464  0.60329294  1
  O2-  O143  1  0.49931086  0.74773488  0.93549902  1
  O2-  O144  1  0.06807446  0.17899373  0.09709145  1
  O2-  O145  1  0.06993551  0.17615809  0.43117189  1
  O2-  O146  1  0.07272082  0.17910373  0.76513300  1
  O2-  O147  1  0.06810431  0.67787096  0.08876886  1
  O2-  O148  1  0.07100056  0.68142318  0.43309282  1
  O2-  O149  1  0.07205399  0.68068989  0.75825318  1
  O2-  O150  1  0.57470211  0.17977417  0.08915769  1
  O2-  O151  1  0.56657191  0.17854138  0.43265983  1
  O2-  O152  1  0.57053265  0.17670209  0.75810091  1
  O2-  O153  1  0.57723063  0.67921345  0.09782711  1
  O2-  O154  1  0.56937171  0.68344650  0.42537928  1
  O2-  O155  1  0.57276417  0.67836180  0.75207877  1
  O2-  O156  1  0.18073263  0.43073784  0.23658270  1
  O2-  O157  1  0.18063954  0.42854658  0.57684759  1
  O2-  O158  1  0.18192668  0.43043866  0.90100886  1
  O2-  O159  1  0.18268194  0.92261779  0.24546108  1
  O2-  O160  1  0.18107618  0.92460947  0.57372930  1
  O2-  O161  1  0.17794527  0.92835129  0.90093613  1
  O2-  O162  1  0.67501693  0.43304471  0.23328922  1
  O2-  O163  1  0.67398530  0.43084470  0.57968087  1
  O2-  O164  1  0.67810292  0.42797251  0.90770290  1
  O2-  O165  1  0.67695814  0.92640570  0.23649663  1
  O2-  O166  1  0.67775918  0.92732333  0.58040630  1
  O2-  O167  1  0.68318647  0.93230194  0.89835731  1
  O2-  O168  1  0.43398422  0.32228544  0.09121090  1
  O2-  O169  1  0.42900624  0.31954426  0.42989109  1
  O2-  O170  1  0.42797078  0.31900948  0.76808347  1
  O2-  O171  1  0.43276518  0.82172679  0.09930378  1
  O2-  O172  1  0.42424169  0.81889368  0.42278953  1
  O2-  O173  1  0.42639956  0.81990469  0.76397683  1
  O2-  O174  1  0.92387353  0.32377562  0.09454923  1
  O2-  O175  1  0.93213963  0.32141507  0.43480987  1
  O2-  O176  1  0.93251929  0.32539214  0.75559097  1
  O2-  O177  1  0.92677379  0.81685156  0.08986439  1
  O2-  O178  1  0.93022983  0.82052699  0.42330719  1
  O2-  O179  1  0.93024741  0.81982656  0.75739987  1
  O2-  O180  1  0.32171405  0.06799888  0.24683508  1
  O2-  O181  1  0.31839522  0.06902442  0.57404383  1
  O2-  O182  1  0.32298549  0.07224771  0.90112793  1
  O2-  O183  1  0.31787626  0.57778591  0.24659056  1
  O2-  O184  1  0.31687850  0.57737800  0.57570569  1
  O2-  O185  1  0.32198971  0.56821561  0.89940176  1
  O2-  O186  1  0.82194449  0.06652618  0.23251779  1
  O2-  O187  1  0.82359509  0.06963870  0.57032001  1
  O2-  O188  1  0.82020537  0.07107255  0.90949045  1
  O2-  O189  1  0.81919100  0.57178088  0.23269575  1
  O2-  O190  1  0.82230629  0.56948529  0.57046423  1
  O2-  O191  1  0.82042255  0.57206255  0.90840231  1
  O2-  O192  1  0.04901551  0.07361938  0.26755301  1
  O2-  O193  1  0.04118847  0.07888667  0.60089052  1
  O2-  O194  1  0.04475662  0.07896596  0.93155883  1
  O2-  O195  1  0.04219450  0.58224092  0.26426837  1
  O2-  O196  1  0.04339416  0.58447007  0.60846830  1
  O2-  O197  1  0.04099049  0.59009508  0.93364320  1
  O2-  O198  1  0.53512329  0.08155841  0.26671593  1
  O2-  O199  1  0.54645737  0.08657131  0.60446621  1
  O2-  O200  1  0.54419527  0.08671916  0.93708673  1
  O2-  O201  1  0.54340268  0.59195734  0.27159970  1
  O2-  O202  1  0.54699504  0.58635990  0.59954727  1
  O2-  O203  1  0.54846628  0.57890721  0.92869842  1
  O2-  O204  1  0.16995505  0.20410841  0.26709633  1
  O2-  O205  1  0.16399672  0.20918334  0.59696497  1
  O2-  O206  1  0.17160878  0.20815130  0.93314907  1
  O2-  O207  1  0.16408091  0.71388369  0.26416967  1
  O2-  O208  1  0.15984060  0.70732627  0.60279566  1
  O2-  O209  1  0.16441031  0.70514169  0.93756031  1
  O2-  O210  1  0.67035128  0.19929758  0.26626704  1
  O2-  O211  1  0.66963666  0.20225885  0.60992459  1
  O2-  O212  1  0.66164749  0.20784124  0.93374045  1
  O2-  O213  1  0.66442678  0.70900672  0.27454890  1
  O2-  O214  1  0.66752363  0.70575341  0.60254317  1
  O2-  O215  1  0.67111440  0.70974248  0.92920641  1
  O2-  O216  1  0.08054981  0.46213110  0.06592712  1
  O2-  O217  1  0.08700285  0.46241314  0.40465624  1
  O2-  O218  1  0.09125783  0.45619710  0.73053393  1
  O2-  O219  1  0.07724133  0.95276266  0.06859492  1
  O2-  O220  1  0.08596400  0.94802089  0.39686820  1
  O2-  O221  1  0.08712563  0.95023027  0.72540505  1
  O2-  O222  1  0.58893243  0.45546111  0.06117671  1
  O2-  O223  1  0.57916438  0.46320669  0.40133701  1
  O2-  O224  1  0.58143911  0.45869592  0.73053458  1
  O2-  O225  1  0.58518910  0.95738225  0.06586211  1
  O2-  O226  1  0.57451610  0.95364636  0.40147197  1
  O2-  O227  1  0.58187868  0.95537837  0.72948794  1
  O2-  O228  1  0.20548931  0.33196838  0.06866634  1
  O2-  O229  1  0.21254336  0.33106407  0.40312272  1
  O2-  O230  1  0.21090931  0.33490691  0.72747388  1
  O2-  O231  1  0.20410988  0.83020851  0.06888506  1
  O2-  O232  1  0.21204926  0.83632408  0.39905351  1
  O2-  O233  1  0.20832672  0.83425765  0.72619263  1
  O2-  O234  1  0.70678804  0.33562132  0.05940080  1
  O2-  O235  1  0.69644420  0.32807259  0.39934189  1
  O2-  O236  1  0.69622811  0.33529261  0.73171308  1
  O2-  O237  1  0.71539297  0.83404884  0.06483993  1
  O2-  O238  1  0.70522991  0.83319116  0.40764320  1
  O2-  O239  1  0.70343129  0.83560951  0.73166350  1
  O2-  O240  1  0.45070567  0.42624609  0.26732701  1
  O2-  O241  1  0.45354130  0.41954037  0.60011075  1
  O2-  O242  1  0.46098675  0.41064110  0.93678438  1
  O2-  O243  1  0.44829778  0.91564682  0.27308238  1
  O2-  O244  1  0.45693393  0.91793307  0.59640180  1
  O2-  O245  1  0.46060363  0.91977090  0.93216926  1
  O2-  O246  1  0.95942935  0.41792972  0.26804160  1
  O2-  O247  1  0.95839482  0.41639321  0.60546110  1
  O2-  O248  1  0.95811833  0.42184725  0.92819705  1
  O2-  O249  1  0.95565669  0.91099193  0.26905854  1
  O2-  O250  1  0.95803505  0.90923310  0.60272593  1
  O2-  O251  1  0.95351939  0.91329270  0.93745494  1
  O2-  O252  1  0.33279164  0.29015487  0.26411885  1
  O2-  O253  1  0.33561012  0.28559762  0.59802979  1
  O2-  O254  1  0.33763704  0.29487782  0.94084403  1
  O2-  O255  1  0.33734247  0.78976760  0.26904154  1
  O2-  O256  1  0.33328166  0.78716769  0.59528830  1
  O2-  O257  1  0.32933462  0.79592758  0.93323486  1
  O2-  O258  1  0.82811323  0.29784416  0.26978540  1
  O2-  O259  1  0.83047141  0.30431704  0.61088756  1
  O2-  O260  1  0.82963693  0.29710424  0.92522083  1
  O2-  O261  1  0.83040548  0.79781025  0.27491890  1
  O2-  O262  1  0.83476474  0.79336433  0.60677974  1
  O2-  O263  1  0.84062356  0.78853392  0.93369053  1
  O2-  O264  1  0.41942813  0.04202061  0.07030247  1
  O2-  O265  1  0.40845874  0.03982053  0.40187375  1
  O2-  O266  1  0.41296116  0.04467355  0.72509032  1
  O2-  O267  1  0.42466512  0.54526750  0.06433482  1
  O2-  O268  1  0.41610024  0.55697901  0.39663585  1
  O2-  O269  1  0.41541848  0.55137959  0.72420440  1
  O2-  O270  1  0.91519549  0.04842879  0.05953859  1
  O2-  O271  1  0.91836735  0.03610824  0.40055752  1
  O2-  O272  1  0.91717692  0.03371745  0.73745955  1
  O2-  O273  1  0.91385937  0.54593858  0.05905629  1
  O2-  O274  1  0.92141151  0.54443654  0.39975078  1
  O2-  O275  1  0.91796182  0.54084225  0.73881783  1
  O2-  O276  1  0.29684143  0.16995491  0.07036253  1
  O2-  O277  1  0.29328888  0.16278798  0.39841004  1
  O2-  O278  1  0.29027514  0.16134084  0.72648259  1
  O2-  O279  1  0.29921326  0.67022824  0.06528778  1
  O2-  O280  1  0.28808425  0.66656993  0.39917716  1
  O2-  O281  1  0.28714496  0.66263717  0.72946895  1
  O2-  O282  1  0.79611515  0.16951422  0.05672431  1
  O2-  O283  1  0.79569406  0.16913941  0.40119681  1
  O2-  O284  1  0.79626705  0.16895009  0.73833764  1
  O2-  O285  1  0.79346671  0.66239372  0.06132936  1
  O2-  O286  1  0.79245568  0.66672807  0.40228479  1
  O2-  O287  1  0.79109046  0.66744126  0.73720844  1
