# generated using pymatgen
data_Ca2Al2SiO7
_symmetry_space_group_name_H-M   'P 1'
_cell_length_a   15.46852176
_cell_length_b   15.46935865
_cell_length_c   15.29111936
_cell_angle_alpha   89.99376615
_cell_angle_beta   90.00715121
_cell_angle_gamma   90.05301110
_symmetry_Int_Tables_number   1
_chemical_formula_structural   Ca2Al2SiO7
_chemical_formula_sum   'Ca48 Al48 Si24 O168'
_cell_volume   3658.98144714
_cell_formula_units_Z   24
loop_
 _symmetry_equiv_pos_site_id
 _symmetry_equiv_pos_as_xyz
  1  'x, y, z'
loop_
 _atom_type_symbol
 _atom_type_oxidation_number
  Ca2+  2.0
  Al0+  0.0
  Si0+  0.0
  O2-  -2.0
loop_
 _atom_site_type_symbol
 _atom_site_label
 _atom_site_symmetry_multiplicity
 _atom_site_fract_x
 _atom_site_fract_y
 _atom_site_fract_z
 _atom_site_occupancy
  Ca2+  Ca0  1  0.17445811  0.09606865  0.16823860  1
  Ca2+  Ca1  1  0.17654125  0.09024571  0.49984175  1
  Ca2+  Ca2  1  0.17472822  0.08345103  0.84318474  1
  Ca2+  Ca3  1  0.17165126  0.56787755  0.17444854  1
  Ca2+  Ca4  1  0.17617239  0.58019207  0.50250658  1
  Ca2+  Ca5  1  0.17429448  0.57874313  0.83981370  1
  Ca2+  Ca6  1  0.67989628  0.07944146  0.17325221  1
  Ca2+  Ca7  1  0.66673776  0.07162551  0.50282066  1
  Ca2+  Ca8  1  0.66904254  0.07050590  0.84411278  1
  Ca2+  Ca9  1  0.66918342  0.57228598  0.17503296  1
  Ca2+  Ca10  1  0.66767409  0.57923600  0.50341885  1
  Ca2+  Ca11  1  0.66632342  0.57587104  0.83157063  1
  Ca2+  Ca12  1  0.08121112  0.32715126  0.15703103  1
  Ca2+  Ca13  1  0.08264050  0.32979250  0.49004286  1
  Ca2+  Ca14  1  0.08062299  0.33236760  0.83800516  1
  Ca2+  Ca15  1  0.08592140  0.83159888  0.15916866  1
  Ca2+  Ca16  1  0.07936256  0.83013775  0.49352251  1
  Ca2+  Ca17  1  0.08358691  0.83727767  0.83191486  1
  Ca2+  Ca18  1  0.57806480  0.33865197  0.15795122  1
  Ca2+  Ca19  1  0.58277304  0.33982585  0.49536873  1
  Ca2+  Ca20  1  0.58090879  0.33774392  0.83184186  1
  Ca2+  Ca21  1  0.59426207  0.82838377  0.16615775  1
  Ca2+  Ca22  1  0.59125428  0.82375433  0.49351654  1
  Ca2+  Ca23  1  0.58959592  0.82904709  0.82474893  1
  Ca2+  Ca24  1  0.32330653  0.41106325  0.17007462  1
  Ca2+  Ca25  1  0.33139023  0.42773431  0.49725930  1
  Ca2+  Ca26  1  0.33239456  0.42096993  0.83965704  1
  Ca2+  Ca27  1  0.32794700  0.92877029  0.16753159  1
  Ca2+  Ca28  1  0.33886125  0.92978939  0.50201984  1
  Ca2+  Ca29  1  0.33075079  0.92979949  0.84108747  1
  Ca2+  Ca30  1  0.82470848  0.41348636  0.17189744  1
  Ca2+  Ca31  1  0.82225381  0.42601924  0.50428426  1
  Ca2+  Ca32  1  0.82377716  0.41590096  0.83945079  1
  Ca2+  Ca33  1  0.82757193  0.92704477  0.16832912  1
  Ca2+  Ca34  1  0.82319294  0.91851221  0.49897362  1
  Ca2+  Ca35  1  0.82266944  0.92006121  0.83952510  1
  Ca2+  Ca36  1  0.41570573  0.16921632  0.15950959  1
  Ca2+  Ca37  1  0.41535738  0.16531131  0.49465779  1
  Ca2+  Ca38  1  0.40821215  0.17179279  0.83306653  1
  Ca2+  Ca39  1  0.42268999  0.66210756  0.16524225  1
  Ca2+  Ca40  1  0.42584121  0.66015592  0.49300619  1
  Ca2+  Ca41  1  0.42309989  0.66909866  0.82258933  1
  Ca2+  Ca42  1  0.92418886  0.16595232  0.15687747  1
  Ca2+  Ca43  1  0.92460198  0.16549018  0.48830737  1
  Ca2+  Ca44  1  0.91552920  0.16835720  0.83634100  1
  Ca2+  Ca45  1  0.91303617  0.66567528  0.16522128  1
  Ca2+  Ca46  1  0.90678330  0.66526212  0.49452480  1
  Ca2+  Ca47  1  0.91565894  0.66640486  0.82742948  1
  Al0+  Al48  1  -0.00009781  -0.00330810  -0.00135122  1
  Al0+  Al49  1  0.00126368  -0.00069236  0.33046471  1
  Al0+  Al50  1  -0.00019438  -0.00005469  0.66245172  1
  Al0+  Al51  1  0.00208994  0.50039546  -0.00199213  1
  Al0+  Al52  1  -0.00135046  0.49931084  0.33902470  1
  Al0+  Al53  1  0.00000626  0.49979369  0.66736181  1
  Al0+  Al54  1  0.49857724  -0.00344154  0.00760105  1
  Al0+  Al55  1  0.49839991  -0.00061174  0.33837862  1
  Al0+  Al56  1  0.49897749  0.00154137  0.67509708  1
  Al0+  Al57  1  0.50284428  0.50100396  -0.00323135  1
  Al0+  Al58  1  0.49862544  0.50042582  0.33250077  1
  Al0+  Al59  1  0.49837797  0.50018637  0.66876700  1
  Al0+  Al60  1  0.25075447  0.25265609  -0.00311927  1
  Al0+  Al61  1  0.24999471  0.25013642  0.33831687  1
  Al0+  Al62  1  0.24937303  0.25057924  0.66802303  1
  Al0+  Al63  1  0.25369716  0.75163600  0.00105535  1
  Al0+  Al64  1  0.25050937  0.75123586  0.33394514  1
  Al0+  Al65  1  0.24967994  0.75135770  0.66730468  1
  Al0+  Al66  1  0.74948603  0.24975718  0.00262277  1
  Al0+  Al67  1  0.75017754  0.24871901  0.34137379  1
  Al0+  Al68  1  0.74971931  0.25007189  0.66706238  1
  Al0+  Al69  1  0.75180808  0.74830860  0.00027047  1
  Al0+  Al70  1  0.74946157  0.74987577  0.33118521  1
  Al0+  Al71  1  0.75056448  0.74988003  0.66857521  1
  Al0+  Al72  1  0.17865432  0.92750368  0.01377492  1
  Al0+  Al73  1  0.82453333  0.07123559  0.34900458  1
  Al0+  Al74  1  0.32069764  0.57307596  0.34615776  1
  Al0+  Al75  1  0.31930883  0.07059465  0.34729306  1
  Al0+  Al76  1  0.31907561  0.07315766  0.01613554  1
  Al0+  Al77  1  0.17836820  0.42790867  0.34843505  1
  Al0+  Al78  1  0.67816013  0.92509458  0.01589446  1
  Al0+  Al79  1  0.82176446  0.57124750  0.68300285  1
  Al0+  Al80  1  0.56976359  0.67981452  0.31755629  1
  Al0+  Al81  1  0.67640881  0.42736432  0.34759723  1
  Al0+  Al82  1  0.32001627  0.57189082  0.68063796  1
  Al0+  Al83  1  0.07134144  0.18020912  0.31920449  1
  Al0+  Al84  1  0.43053709  0.32097719  0.98625876  1
  Al0+  Al85  1  0.67932490  0.92988922  0.34834152  1
  Al0+  Al86  1  0.56954487  0.68027165  0.65185790  1
  Al0+  Al87  1  0.82004833  0.57096612  0.34627347  1
  Al0+  Al88  1  0.07082238  0.17770730  0.98329297  1
  Al0+  Al89  1  0.68038152  0.93033586  0.68027231  1
  Al0+  Al90  1  0.17973807  0.43113603  0.01232935  1
  Al0+  Al91  1  0.67920710  0.42981597  0.01345481  1
  Al0+  Al92  1  0.31956052  0.07188099  0.68168618  1
  Al0+  Al93  1  0.67811267  0.42743930  0.68356232  1
  Al0+  Al94  1  0.92670584  0.32240665  0.98477470  1
  Al0+  Al95  1  0.82077104  0.07163086  0.01336477  1
  Si0+  Si96  1  0.57145394  0.17646890  0.32075182  1
  Si0+  Si97  1  0.42830651  0.82099149  0.98374790  1
  Si0+  Si98  1  0.93003382  0.82032481  0.65021792  1
  Si0+  Si99  1  0.07274289  0.67825295  0.65121094  1
  Si0+  Si100  1  0.06994047  0.18028225  0.65043991  1
  Si0+  Si101  1  0.92884895  0.81848227  0.98324028  1
  Si0+  Si102  1  0.17567531  0.92883642  0.68106975  1
  Si0+  Si103  1  0.17720902  0.92618320  0.35027231  1
  Si0+  Si104  1  0.42648035  0.82487917  0.31485224  1
  Si0+  Si105  1  0.17772178  0.42842140  0.68456047  1
  Si0+  Si106  1  0.57208018  0.68063496  0.98293845  1
  Si0+  Si107  1  0.07252671  0.67768416  0.31840289  1
  Si0+  Si108  1  0.07403625  0.67951553  0.98516958  1
  Si0+  Si109  1  0.82376825  0.57092627  0.01549415  1
  Si0+  Si110  1  0.92719533  0.32213219  0.64985085  1
  Si0+  Si111  1  0.42715995  0.82440444  0.65010684  1
  Si0+  Si112  1  0.57138720  0.17516266  0.98579230  1
  Si0+  Si113  1  0.92657997  0.32237711  0.31865311  1
  Si0+  Si114  1  0.32412158  0.57277167  0.01526874  1
  Si0+  Si115  1  0.92971688  0.81971351  0.31620835  1
  Si0+  Si116  1  0.82441707  0.07192668  0.68253965  1
  Si0+  Si117  1  0.42799490  0.32021604  0.65001472  1
  Si0+  Si118  1  0.43096001  0.31977804  0.31957553  1
  Si0+  Si119  1  0.57072204  0.17777133  0.65305037  1
  O2-  O120  1  0.24262215  0.00515166  0.06538631  1
  O2-  O121  1  0.24523702  -0.00482793  0.39442446  1
  O2-  O122  1  0.24511543  -0.00401658  0.72502992  1
  O2-  O123  1  0.25571090  0.50430850  0.05877272  1
  O2-  O124  1  0.24655997  0.50405782  0.39702263  1
  O2-  O125  1  0.24469252  0.49887700  0.72826714  1
  O2-  O126  1  0.74576799  0.00230574  0.06267090  1
  O2-  O127  1  0.74938954  0.00303531  0.39942958  1
  O2-  O128  1  0.75285238  0.00686231  0.72668591  1
  O2-  O129  1  0.75867294  0.49937188  0.05893573  1
  O2-  O130  1  0.74812571  0.49981511  0.39641304  1
  O2-  O131  1  0.75188191  0.49799177  0.73309860  1
  O2-  O132  1  -0.00586204  0.25286026  0.27428010  1
  O2-  O133  1  -0.00205054  0.25011822  0.60807847  1
  O2-  O134  1  -0.00319864  0.24832088  0.93327686  1
  O2-  O135  1  0.00133864  0.74807283  0.27505914  1
  O2-  O136  1  0.00020705  0.74774918  0.60837387  1
  O2-  O137  1  0.00285701  0.74984575  0.94132624  1
  O2-  O138  1  0.50483152  0.25136173  0.27813193  1
  O2-  O139  1  0.50106758  0.25014819  0.60926356  1
  O2-  O140  1  0.50309032  0.24355892  0.93932975  1
  O2-  O141  1  0.49455522  0.75500144  0.27080741  1
  O2-  O142  1  0.49438976  0.75532547  0.60478815  1
  O2-  O143  1  0.50253140  0.75336766  0.94125510  1
  O2-  O144  1  0.07140126  0.18181499  0.09674150  1
  O2-  O145  1  0.07170653  0.18183769  0.43331094  1
  O2-  O146  1  0.07021062  0.17890729  0.75496208  1
  O2-  O147  1  0.07342372  0.67983142  0.09024916  1
  O2-  O148  1  0.07368582  0.68111143  0.42367145  1
  O2-  O149  1  0.07390378  0.68054373  0.75641468  1
  O2-  O150  1  0.56982327  0.17706442  0.09156955  1
  O2-  O151  1  0.56740574  0.17477312  0.42621195  1
  O2-  O152  1  0.56981224  0.17698082  0.75790989  1
  O2-  O153  1  0.57157899  0.67950912  0.08793467  1
  O2-  O154  1  0.56926709  0.68018622  0.43066764  1
  O2-  O155  1  0.56847918  0.68228968  0.76549194  1
  O2-  O156  1  0.18022953  0.42757877  0.23493981  1
  O2-  O157  1  0.17823573  0.42815380  0.57907032  1
  O2-  O158  1  0.18028361  0.43534365  0.89898461  1
  O2-  O159  1  0.17825565  0.92297132  0.24522472  1
  O2-  O160  1  0.17282771  0.92948312  0.57555409  1
  O2-  O161  1  0.18396585  0.92464207  0.89991369  1
  O2-  O162  1  0.67627703  0.42850952  0.23392305  1
  O2-  O163  1  0.67850827  0.42785405  0.57038708  1
  O2-  O164  1  0.67654665  0.43403762  0.90067438  1
  O2-  O165  1  0.68258607  0.93098026  0.23523973  1
  O2-  O166  1  0.68199890  0.93033534  0.56759609  1
  O2-  O167  1  0.68172823  0.92366018  0.90189367  1
  O2-  O168  1  0.43147246  0.32244988  0.09950942  1
  O2-  O169  1  0.43043497  0.31881502  0.42516434  1
  O2-  O170  1  0.42576148  0.31957061  0.75502921  1
  O2-  O171  1  0.42374202  0.81758361  0.08826525  1
  O2-  O172  1  0.42654791  0.82610965  0.42056130  1
  O2-  O173  1  0.42735164  0.82285747  0.75585284  1
  O2-  O174  1  0.92875839  0.32470122  0.09812304  1
  O2-  O175  1  0.92923746  0.32156076  0.42467932  1
  O2-  O176  1  0.92747673  0.32187683  0.75465317  1
  O2-  O177  1  0.92649940  0.81517021  0.08814312  1
  O2-  O178  1  0.93116071  0.81942033  0.42179113  1
  O2-  O179  1  0.93259582  0.82248361  0.75527662  1
  O2-  O180  1  0.31945429  0.07235824  0.23506823  1
  O2-  O181  1  0.31859650  0.07227027  0.56848118  1
  O2-  O182  1  0.31928295  0.07041819  0.90237044  1
  O2-  O183  1  0.31954365  0.57098713  0.23258466  1
  O2-  O184  1  0.31845602  0.57032871  0.56794578  1
  O2-  O185  1  0.32201759  0.57354775  0.90926493  1
  O2-  O186  1  0.82473127  0.06936743  0.23587233  1
  O2-  O187  1  0.82666562  0.06875055  0.57720923  1
  O2-  O188  1  0.81885387  0.06811500  0.89910864  1
  O2-  O189  1  0.82052414  0.57012877  0.23254091  1
  O2-  O190  1  0.82093407  0.57055405  0.56993583  1
  O2-  O191  1  0.82195201  0.57396324  0.91008245  1
  O2-  O192  1  0.04636075  0.08135553  0.26690383  1
  O2-  O193  1  0.04396257  0.08776181  0.60223299  1
  O2-  O194  1  0.04604900  0.07691685  0.93170753  1
  O2-  O195  1  0.04437889  0.58509512  0.27272009  1
  O2-  O196  1  0.04850267  0.58509480  0.60487802  1
  O2-  O197  1  0.04710613  0.58884830  0.93534841  1
  O2-  O198  1  0.53975406  0.08629919  0.27285474  1
  O2-  O199  1  0.53949432  0.08642863  0.60575246  1
  O2-  O200  1  0.54610300  0.07976413  0.94218720  1
  O2-  O201  1  0.53696329  0.58334907  0.26291727  1
  O2-  O202  1  0.53723139  0.58282990  0.60017089  1
  O2-  O203  1  0.54231565  0.59035339  0.93385975  1
  O2-  O204  1  0.16822075  0.21419539  0.26789866  1
  O2-  O205  1  0.16182451  0.21045747  0.60352632  1
  O2-  O206  1  0.16802003  0.21052177  0.92973736  1
  O2-  O207  1  0.16400321  0.70568160  0.27011997  1
  O2-  O208  1  0.16336529  0.70845403  0.60188448  1
  O2-  O209  1  0.16607493  0.70823320  0.93762625  1
  O2-  O210  1  0.66610365  0.19945426  0.27700254  1
  O2-  O211  1  0.66397711  0.20121550  0.60557671  1
  O2-  O212  1  0.66505092  0.19925053  0.93971245  1
  O2-  O213  1  0.66626600  0.71104566  0.26254025  1
  O2-  O214  1  0.66736773  0.71180035  0.60043685  1
  O2-  O215  1  0.66476692  0.70748507  0.93622191  1
  O2-  O216  1  0.08419748  0.46331123  0.06688603  1
  O2-  O217  1  0.08030782  0.45368634  0.40220089  1
  O2-  O218  1  0.08377366  0.45246564  0.72958450  1
  O2-  O219  1  0.07627882  0.94189860  0.06151735  1
  O2-  O220  1  0.08349806  0.95059208  0.39573385  1
  O2-  O221  1  0.08239114  0.95547006  0.72756697  1
  O2-  O222  1  0.58432331  0.46612572  0.06732809  1
  O2-  O223  1  0.57836715  0.45654181  0.39950090  1
  O2-  O224  1  0.57963388  0.45689516  0.73485432  1
  O2-  O225  1  0.57784581  0.94335977  0.06679452  1
  O2-  O226  1  0.58081510  0.95541112  0.40168786  1
  O2-  O227  1  0.58403478  0.95832846  0.73566403  1
  O2-  O228  1  0.21095470  0.33533161  0.06503895  1
  O2-  O229  1  0.21249315  0.33371208  0.40536025  1
  O2-  O230  1  0.20620967  0.33597433  0.73027859  1
  O2-  O231  1  0.21285661  0.83134725  0.06883195  1
  O2-  O232  1  0.20161091  0.83313012  0.39826905  1
  O2-  O233  1  0.19793118  0.83452409  0.72652696  1
  O2-  O234  1  0.70214555  0.33151996  0.06612246  1
  O2-  O235  1  0.70113603  0.32938986  0.40262224  1
  O2-  O236  1  0.70478153  0.32760687  0.73508518  1
  O2-  O237  1  0.71437382  0.82898563  0.06828136  1
  O2-  O238  1  0.71237872  0.83257523  0.39962814  1
  O2-  O239  1  0.71456156  0.83553985  0.73437825  1
  O2-  O240  1  0.45451996  0.41164377  0.27082767  1
  O2-  O241  1  0.45502458  0.41237060  0.60329277  1
  O2-  O242  1  0.46325977  0.41725572  0.93053155  1
  O2-  O243  1  0.45296433  0.91853191  0.26918727  1
  O2-  O244  1  0.45367335  0.91933762  0.60697485  1
  O2-  O245  1  0.45239608  0.91474012  0.93796692  1
  O2-  O246  1  0.95127320  0.41683858  0.27378536  1
  O2-  O247  1  0.95678986  0.41385363  0.60281261  1
  O2-  O248  1  0.95894330  0.42030050  0.93033495  1
  O2-  O249  1  0.95862823  0.91049550  0.26798874  1
  O2-  O250  1  0.95917060  0.91111397  0.60012685  1
  O2-  O251  1  0.95331600  0.90972007  0.93329384  1
  O2-  O252  1  0.33962787  0.28804950  0.27400773  1
  O2-  O253  1  0.33653673  0.29017157  0.60234979  1
  O2-  O254  1  0.33465825  0.29347625  0.92915930  1
  O2-  O255  1  0.33187961  0.80065373  0.26944618  1
  O2-  O256  1  0.33188381  0.80227035  0.60504539  1
  O2-  O257  1  0.33853448  0.79069759  0.93236991  1
  O2-  O258  1  0.83113700  0.29820944  0.27556575  1
  O2-  O259  1  0.83471992  0.29605244  0.60261521  1
  O2-  O260  1  0.82736961  0.29447066  0.93175053  1
  O2-  O261  1  0.83925872  0.79087783  0.26747118  1
  O2-  O262  1  0.83876907  0.79206149  0.60277542  1
  O2-  O263  1  0.83896946  0.78620111  0.93326761  1
  O2-  O264  1  0.41577748  0.04136748  0.06986119  1
  O2-  O265  1  0.41450944  0.03975318  0.40413213  1
  O2-  O266  1  0.41489247  0.04362877  0.73808419  1
  O2-  O267  1  0.41799858  0.54712286  0.05881129  1
  O2-  O268  1  0.41619949  0.53910630  0.40024706  1
  O2-  O269  1  0.41476315  0.53979202  0.73590508  1
  O2-  O270  1  0.91824091  0.03912629  0.06423590  1
  O2-  O271  1  0.92198022  0.03814492  0.40158640  1
  O2-  O272  1  0.91702885  0.04227166  0.72833326  1
  O2-  O273  1  0.91941806  0.55195338  0.05904519  1
  O2-  O274  1  0.91838188  0.54720955  0.40148789  1
  O2-  O275  1  0.92258749  0.54701559  0.73363952  1
  O2-  O276  1  0.29456093  0.17313408  0.06605737  1
  O2-  O277  1  0.28786245  0.16515046  0.40444214  1
  O2-  O278  1  0.28678966  0.16796636  0.73475128  1
  O2-  O279  1  0.29954659  0.66595752  0.06095155  1
  O2-  O280  1  0.29627669  0.67225878  0.39926930  1
  O2-  O281  1  0.29103351  0.66975648  0.73382207  1
  O2-  O282  1  0.79668749  0.16983380  0.06746435  1
  O2-  O283  1  0.80023951  0.16922864  0.40369399  1
  O2-  O284  1  0.80238411  0.16692920  0.72564222  1
  O2-  O285  1  0.79476697  0.66282053  0.06251270  1
  O2-  O286  1  0.79248495  0.66962820  0.39792271  1
  O2-  O287  1  0.79443589  0.66967709  0.73578068  1
