# generated using pymatgen
data_Ca2Al2SiO7
_symmetry_space_group_name_H-M   'P 1'
_cell_length_a   15.45323978
_cell_length_b   15.45346111
_cell_length_c   15.28072044
_cell_angle_alpha   89.98861805
_cell_angle_beta   90.00768195
_cell_angle_gamma   89.99648299
_symmetry_Int_Tables_number   1
_chemical_formula_structural   Ca2Al2SiO7
_chemical_formula_sum   'Ca48 Al48 Si24 O168'
_cell_volume   3649.12822494
_cell_formula_units_Z   24
loop_
 _symmetry_equiv_pos_site_id
 _symmetry_equiv_pos_as_xyz
  1  'x, y, z'
loop_
 _atom_type_symbol
 _atom_type_oxidation_number
  Ca2+  2.0
  Al0+  0.0
  Si0+  0.0
  O2-  -2.0
loop_
 _atom_site_type_symbol
 _atom_site_label
 _atom_site_symmetry_multiplicity
 _atom_site_fract_x
 _atom_site_fract_y
 _atom_site_fract_z
 _atom_site_occupancy
  Ca2+  Ca0  1  0.16320401  0.08006417  0.16944657  1
  Ca2+  Ca1  1  0.16355582  0.08168207  0.50558773  1
  Ca2+  Ca2  1  0.17107928  0.08536702  0.84348437  1
  Ca2+  Ca3  1  0.16467973  0.57937065  0.16337267  1
  Ca2+  Ca4  1  0.16451493  0.58277839  0.50627701  1
  Ca2+  Ca5  1  0.16709013  0.57925364  0.84622935  1
  Ca2+  Ca6  1  0.67422523  0.08344252  0.17335391  1
  Ca2+  Ca7  1  0.66721596  0.08187463  0.50818715  1
  Ca2+  Ca8  1  0.67889455  0.09493045  0.83464844  1
  Ca2+  Ca9  1  0.67121828  0.57737367  0.17587815  1
  Ca2+  Ca10  1  0.67325849  0.58005021  0.50142975  1
  Ca2+  Ca11  1  0.66471675  0.58459389  0.83912643  1
  Ca2+  Ca12  1  0.08016832  0.32382504  0.15539831  1
  Ca2+  Ca13  1  0.07930846  0.31971787  0.49865337  1
  Ca2+  Ca14  1  0.07663016  0.32628276  0.83096896  1
  Ca2+  Ca15  1  0.08235795  0.83452376  0.16261280  1
  Ca2+  Ca16  1  0.07768983  0.83252717  0.49260014  1
  Ca2+  Ca17  1  0.09616083  0.82356028  0.83490049  1
  Ca2+  Ca18  1  0.58114525  0.33244232  0.16344367  1
  Ca2+  Ca19  1  0.58720978  0.32019628  0.49508263  1
  Ca2+  Ca20  1  0.57230785  0.32871796  0.83042273  1
  Ca2+  Ca21  1  0.58561869  0.82846965  0.16198537  1
  Ca2+  Ca22  1  0.58652904  0.83250861  0.49482798  1
  Ca2+  Ca23  1  0.58408219  0.82183634  0.83047189  1
  Ca2+  Ca24  1  0.33161286  0.41562936  0.16016503  1
  Ca2+  Ca25  1  0.33080033  0.41704578  0.50242943  1
  Ca2+  Ca26  1  0.32487732  0.41943325  0.84681833  1
  Ca2+  Ca27  1  0.31943853  0.91943326  0.16656833  1
  Ca2+  Ca28  1  0.32548610  0.92345626  0.50498174  1
  Ca2+  Ca29  1  0.32849447  0.93011592  0.84088585  1
  Ca2+  Ca30  1  0.83201488  0.42205827  0.17276105  1
  Ca2+  Ca31  1  0.83230935  0.41504981  0.50112815  1
  Ca2+  Ca32  1  0.83599342  0.41060733  0.83773206  1
  Ca2+  Ca33  1  0.83157490  0.92043606  0.17241246  1
  Ca2+  Ca34  1  0.83071158  0.91984768  0.50097304  1
  Ca2+  Ca35  1  0.83588026  0.93193557  0.83706651  1
  Ca2+  Ca36  1  0.42281158  0.16808196  0.16047832  1
  Ca2+  Ca37  1  0.42652131  0.15761071  0.49763726  1
  Ca2+  Ca38  1  0.41191887  0.16830586  0.82920368  1
  Ca2+  Ca39  1  0.42193586  0.66562923  0.15574748  1
  Ca2+  Ca40  1  0.42394715  0.66769284  0.49859660  1
  Ca2+  Ca41  1  0.42461519  0.66206420  0.83193132  1
  Ca2+  Ca42  1  0.92561073  0.16802845  0.15767733  1
  Ca2+  Ca43  1  0.92241833  0.16401499  0.49873048  1
  Ca2+  Ca44  1  0.92280536  0.17063348  0.82934065  1
  Ca2+  Ca45  1  0.91476525  0.67420301  0.16250678  1
  Ca2+  Ca46  1  0.91951981  0.67116150  0.49387719  1
  Ca2+  Ca47  1  0.93227511  0.66761094  0.82975374  1
  Al0+  Al48  1  -0.00202962  0.00057957  0.00394595  1
  Al0+  Al49  1  0.00044762  -0.00235107  0.32962464  1
  Al0+  Al50  1  -0.00141628  -0.00227155  0.66960692  1
  Al0+  Al51  1  -0.00135687  0.50154008  -0.00161698  1
  Al0+  Al52  1  0.00270955  0.50000743  0.33894873  1
  Al0+  Al53  1  -0.00140552  0.50087864  0.65860136  1
  Al0+  Al54  1  0.50103749  -0.00231392  0.00224710  1
  Al0+  Al55  1  0.50044746  -0.00071338  0.33034793  1
  Al0+  Al56  1  0.49749102  -0.00179002  0.66950423  1
  Al0+  Al57  1  0.50041754  0.49810589  -0.00473173  1
  Al0+  Al58  1  0.50013946  0.49902318  0.33898652  1
  Al0+  Al59  1  0.50067104  0.50063730  0.66106041  1
  Al0+  Al60  1  0.25166717  0.25118860  0.00174318  1
  Al0+  Al61  1  0.25196166  0.25119185  0.33048681  1
  Al0+  Al62  1  0.24770405  0.25175879  0.66627349  1
  Al0+  Al63  1  0.25215667  0.75184598  0.00369136  1
  Al0+  Al64  1  0.25090248  0.75095146  0.33862028  1
  Al0+  Al65  1  0.25195591  0.74927094  0.66195976  1
  Al0+  Al66  1  0.74993990  0.25051587  0.00366585  1
  Al0+  Al67  1  0.75057425  0.25083289  0.33264202  1
  Al0+  Al68  1  0.74730890  0.25130628  0.66410246  1
  Al0+  Al69  1  0.75033098  0.75035419  -0.00650102  1
  Al0+  Al70  1  0.75162535  0.75054737  0.33713801  1
  Al0+  Al71  1  0.75002727  0.74772167  0.66465974  1
  Al0+  Al72  1  0.07127356  0.17729784  0.98560713  1
  Al0+  Al73  1  0.17828431  0.92987328  0.34915887  1
  Al0+  Al74  1  0.56801724  0.17910451  0.65533638  1
  Al0+  Al75  1  0.07097435  0.17909072  0.31877313  1
  Al0+  Al76  1  0.17857144  0.92976379  0.01515627  1
  Al0+  Al77  1  0.32298902  0.57076015  0.01360691  1
  Al0+  Al78  1  0.92899842  0.81871249  0.31926288  1
  Al0+  Al79  1  0.57182845  0.67834507  0.64944750  1
  Al0+  Al80  1  0.07250665  0.68018423  0.65251452  1
  Al0+  Al81  1  0.31952979  0.07160485  0.67973425  1
  Al0+  Al82  1  0.92711356  0.32070473  0.64955664  1
  Al0+  Al83  1  0.67822278  0.93022341  0.34613804  1
  Al0+  Al84  1  0.07113953  0.68159235  0.98967951  1
  Al0+  Al85  1  0.43031674  0.31890747  0.98693668  1
  Al0+  Al86  1  0.57199455  0.17794252  0.31899836  1
  Al0+  Al87  1  0.81946238  0.07139661  0.67958659  1
  Al0+  Al88  1  0.67812934  0.42767685  0.35033006  1
  Al0+  Al89  1  0.07159403  0.17695743  0.65245428  1
  Al0+  Al90  1  0.57100931  0.67883296  0.98828599  1
  Al0+  Al91  1  0.81907286  0.07255347  0.01518674  1
  Al0+  Al92  1  0.92723392  0.32200653  0.98692050  1
  Al0+  Al93  1  0.32356990  0.07400749  0.01680254  1
  Al0+  Al94  1  0.17601345  0.42970223  0.01461604  1
  Al0+  Al95  1  0.82272292  0.57125349  0.34907431  1
  Si0+  Si96  1  0.67681248  0.92560840  0.68458883  1
  Si0+  Si97  1  0.92631296  0.82283223  0.98152391  1
  Si0+  Si98  1  0.42889689  0.32398226  0.31586688  1
  Si0+  Si99  1  0.92933893  0.32360444  0.31662176  1
  Si0+  Si100  1  0.18033666  0.42771902  0.34998023  1
  Si0+  Si101  1  0.42794809  0.82271584  0.98286615  1
  Si0+  Si102  1  0.67878748  0.43021293  0.01303853  1
  Si0+  Si103  1  0.92776779  0.82157094  0.65052204  1
  Si0+  Si104  1  0.82215709  0.07159823  0.34953935  1
  Si0+  Si105  1  0.82078651  0.57284814  0.01222069  1
  Si0+  Si106  1  0.17748217  0.92627625  0.68292747  1
  Si0+  Si107  1  0.67984720  0.92518022  0.01518068  1
  Si0+  Si108  1  0.42930271  0.82155202  0.64823473  1
  Si0+  Si109  1  0.42770223  0.82056036  0.31756231  1
  Si0+  Si110  1  0.32153993  0.57190510  0.35021537  1
  Si0+  Si111  1  0.42621481  0.32263250  0.64921881  1
  Si0+  Si112  1  0.17771988  0.43167539  0.68065385  1
  Si0+  Si113  1  0.57228548  0.17551676  0.98446646  1
  Si0+  Si114  1  0.67843218  0.43017784  0.68342120  1
  Si0+  Si115  1  0.82127629  0.57102549  0.68389818  1
  Si0+  Si116  1  0.32128343  0.07286106  0.34948837  1
  Si0+  Si117  1  0.32215316  0.57085381  0.68070219  1
  Si0+  Si118  1  0.07467764  0.67713937  0.31645194  1
  Si0+  Si119  1  0.56971313  0.67938188  0.31962830  1
  O2-  O120  1  0.24697694  0.00579316  0.06538132  1
  O2-  O121  1  0.24985126  0.00783813  0.39529825  1
  O2-  O122  1  0.24094586  0.00024841  0.72545531  1
  O2-  O123  1  0.24863849  0.50207999  0.06497314  1
  O2-  O124  1  0.24940970  0.50165643  0.39192985  1
  O2-  O125  1  0.24975545  0.50215070  0.72275052  1
  O2-  O126  1  0.74394542  -0.00291996  0.06008700  1
  O2-  O127  1  0.74900830  0.00755817  0.39423768  1
  O2-  O128  1  0.74359699  -0.00336512  0.72741881  1
  O2-  O129  1  0.75084713  0.50077552  0.05412682  1
  O2-  O130  1  0.75261375  0.49755719  0.40021910  1
  O2-  O131  1  0.75027590  0.50014352  0.72688347  1
  O2-  O132  1  -0.00396177  0.25389461  0.27250547  1
  O2-  O133  1  -0.00307642  0.24575676  0.60124397  1
  O2-  O134  1  -0.00063926  0.25036984  0.93698682  1
  O2-  O135  1  0.00375650  0.74326215  0.27312309  1
  O2-  O136  1  -0.00059963  0.75582884  0.60622443  1
  O2-  O137  1  -0.00007195  0.75804319  0.93943764  1
  O2-  O138  1  0.49876937  0.25521469  0.27422229  1
  O2-  O139  1  0.49099026  0.25023651  0.60576090  1
  O2-  O140  1  0.49867474  0.23855441  0.93988772  1
  O2-  O141  1  0.49900496  0.74924880  0.27556597  1
  O2-  O142  1  0.49987570  0.75512225  0.60244442  1
  O2-  O143  1  0.49647548  0.75276473  0.93979078  1
  O2-  O144  1  0.06809806  0.17846106  0.09947045  1
  O2-  O145  1  0.07092290  0.17994703  0.43209081  1
  O2-  O146  1  0.07387628  0.17994384  0.76530723  1
  O2-  O147  1  0.06683299  0.68069292  0.10257855  1
  O2-  O148  1  0.07512274  0.67917428  0.42246251  1
  O2-  O149  1  0.07359922  0.67925054  0.76561816  1
  O2-  O150  1  0.57342071  0.17870328  0.09017707  1
  O2-  O151  1  0.56872441  0.17638512  0.43244375  1
  O2-  O152  1  0.56868253  0.18403284  0.76822518  1
  O2-  O153  1  0.57232468  0.68010615  0.10174599  1
  O2-  O154  1  0.56686278  0.68074978  0.42483996  1
  O2-  O155  1  0.56958387  0.67734268  0.76259257  1
  O2-  O156  1  0.17982109  0.42818423  0.24545531  1
  O2-  O157  1  0.18109616  0.43246378  0.57490867  1
  O2-  O158  1  0.17634542  0.43267084  0.90050515  1
  O2-  O159  1  0.18090894  0.92668325  0.23685024  1
  O2-  O160  1  0.17954684  0.92464269  0.57706420  1
  O2-  O161  1  0.18361863  0.92661014  0.90130147  1
  O2-  O162  1  0.67538982  0.43229257  0.23629328  1
  O2-  O163  1  0.67795060  0.43186099  0.57861570  1
  O2-  O164  1  0.67782398  0.43095324  0.90765006  1
  O2-  O165  1  0.67956465  0.92841221  0.23310184  1
  O2-  O166  1  0.67778600  0.92525080  0.57876112  1
  O2-  O167  1  0.68225892  0.92162650  0.90967830  1
  O2-  O168  1  0.43717415  0.32348193  0.09981242  1
  O2-  O169  1  0.42653617  0.32476804  0.42167676  1
  O2-  O170  1  0.42813398  0.32613067  0.75453977  1
  O2-  O171  1  0.42977775  0.82193034  0.08874985  1
  O2-  O172  1  0.42783004  0.81874094  0.42288224  1
  O2-  O173  1  0.42838385  0.81898315  0.75347301  1
  O2-  O174  1  0.92604816  0.32240979  0.10062348  1
  O2-  O175  1  0.93128394  0.32289045  0.42220311  1
  O2-  O176  1  0.92926014  0.32234293  0.76287303  1
  O2-  O177  1  0.92040351  0.81824107  0.08695435  1
  O2-  O178  1  0.93038215  0.81851242  0.43265324  1
  O2-  O179  1  0.92594087  0.81917380  0.75596787  1
  O2-  O180  1  0.32150367  0.07111730  0.24435416  1
  O2-  O181  1  0.32221366  0.06718326  0.56640902  1
  O2-  O182  1  0.32466545  0.07039540  0.90286577  1
  O2-  O183  1  0.32458757  0.57336768  0.24581360  1
  O2-  O184  1  0.32202458  0.56921228  0.57503093  1
  O2-  O185  1  0.32358670  0.56825073  0.89953933  1
  O2-  O186  1  0.82049209  0.06932017  0.24390883  1
  O2-  O187  1  0.81802515  0.06846278  0.56639376  1
  O2-  O188  1  0.81721473  0.07318688  0.90173044  1
  O2-  O189  1  0.81957056  0.57179101  0.23478192  1
  O2-  O190  1  0.81969001  0.57196662  0.57903842  1
  O2-  O191  1  0.81942513  0.57411457  0.90691948  1
  O2-  O192  1  0.04096726  0.08243853  0.26589499  1
  O2-  O193  1  0.04547658  0.07615801  0.60271486  1
  O2-  O194  1  0.04247857  0.07835685  0.93429832  1
  O2-  O195  1  0.05279774  0.58098086  0.27444105  1
  O2-  O196  1  0.03967970  0.58605402  0.59543483  1
  O2-  O197  1  0.03768816  0.58713988  0.93297321  1
  O2-  O198  1  0.54061906  0.08210572  0.26349826  1
  O2-  O199  1  0.54076752  0.08008296  0.60350688  1
  O2-  O200  1  0.55518564  0.07901094  0.94120536  1
  O2-  O201  1  0.54118418  0.58647158  0.27495689  1
  O2-  O202  1  0.53766452  0.58368734  0.59337799  1
  O2-  O203  1  0.54065743  0.58381753  0.93122565  1
  O2-  O204  1  0.16848770  0.21058916  0.26707857  1
  O2-  O205  1  0.16833023  0.21006506  0.59701679  1
  O2-  O206  1  0.17113439  0.20439766  0.93653275  1
  O2-  O207  1  0.16887590  0.70441156  0.27304868  1
  O2-  O208  1  0.16996236  0.70656594  0.59701299  1
  O2-  O209  1  0.16949214  0.70954007  0.93652444  1
  O2-  O210  1  0.66937414  0.20764059  0.26560224  1
  O2-  O211  1  0.66204086  0.21253760  0.59877194  1
  O2-  O212  1  0.66332481  0.20936551  0.93876425  1
  O2-  O213  1  0.66205362  0.70693153  0.27462595  1
  O2-  O214  1  0.66930583  0.70654085  0.59649663  1
  O2-  O215  1  0.66574695  0.71041090  0.92982909  1
  O2-  O216  1  0.07859972  0.46095148  0.06880390  1
  O2-  O217  1  0.08936085  0.45337629  0.40019357  1
  O2-  O218  1  0.08555498  0.46170742  0.72477913  1
  O2-  O219  1  0.07815695  0.95091243  0.06664891  1
  O2-  O220  1  0.08045676  0.95785555  0.40191001  1
  O2-  O221  1  0.08174702  0.94200386  0.72746149  1
  O2-  O222  1  0.58875254  0.46067246  0.06138726  1
  O2-  O223  1  0.58066021  0.45742669  0.40547642  1
  O2-  O224  1  0.58580997  0.46082412  0.72886528  1
  O2-  O225  1  0.58438625  0.94389979  0.05994780  1
  O2-  O226  1  0.57992074  0.95657750  0.40010327  1
  O2-  O227  1  0.58202412  0.94675955  0.72952063  1
  O2-  O228  1  0.20716684  0.33309374  0.06854702  1
  O2-  O229  1  0.21318696  0.33770222  0.39879390  1
  O2-  O230  1  0.20421936  0.33991922  0.72792949  1
  O2-  O231  1  0.21156841  0.83358308  0.07118210  1
  O2-  O232  1  0.21226922  0.83420076  0.40493910  1
  O2-  O233  1  0.21110448  0.83373131  0.72783259  1
  O2-  O234  1  0.70453099  0.33928631  0.06279838  1
  O2-  O235  1  0.70586372  0.32841607  0.40243219  1
  O2-  O236  1  0.70369088  0.33822469  0.73093600  1
  O2-  O237  1  0.70958368  0.83261956  0.06246509  1
  O2-  O238  1  0.71068351  0.83509622  0.40220484  1
  O2-  O239  1  0.70497631  0.83156594  0.72950292  1
  O2-  O240  1  0.45510164  0.41828220  0.27115432  1
  O2-  O241  1  0.45567464  0.41435039  0.60061434  1
  O2-  O242  1  0.46612885  0.41218307  0.92847834  1
  O2-  O243  1  0.45515687  0.91130587  0.26916140  1
  O2-  O244  1  0.45334421  0.91505223  0.60167871  1
  O2-  O245  1  0.45588655  0.91522927  0.93506739  1
  O2-  O246  1  0.95671416  0.41824943  0.27312425  1
  O2-  O247  1  0.95745000  0.41784197  0.59472892  1
  O2-  O248  1  0.95250566  0.42103123  0.93349552  1
  O2-  O249  1  0.95917370  0.91405882  0.26346191  1
  O2-  O250  1  0.95009332  0.91547346  0.60418278  1
  O2-  O251  1  0.94828823  0.91791344  0.93874818  1
  O2-  O252  1  0.33617930  0.29861725  0.26836608  1
  O2-  O253  1  0.33145669  0.30199498  0.60388499  1
  O2-  O254  1  0.33222390  0.29637150  0.93273473  1
  O2-  O255  1  0.33635585  0.78994710  0.27113715  1
  O2-  O256  1  0.33766674  0.79282360  0.59893123  1
  O2-  O257  1  0.33532479  0.79749907  0.93600287  1
  O2-  O258  1  0.83384009  0.30294969  0.27264728  1
  O2-  O259  1  0.82774793  0.29545114  0.59766987  1
  O2-  O260  1  0.82809783  0.29342684  0.93449848  1
  O2-  O261  1  0.83227406  0.78721502  0.26475576  1
  O2-  O262  1  0.83545506  0.79252599  0.60345602  1
  O2-  O263  1  0.83625368  0.79256485  0.93072509  1
  O2-  O264  1  0.42192355  0.04143761  0.06937581  1
  O2-  O265  1  0.41381313  0.04119636  0.39463759  1
  O2-  O266  1  0.41469206  0.03801567  0.73596804  1
  O2-  O267  1  0.42063383  0.53760096  0.06653747  1
  O2-  O268  1  0.41181662  0.54224445  0.40070557  1
  O2-  O269  1  0.41477673  0.54232958  0.72608126  1
  O2-  O270  1  0.91424964  0.04118642  0.07027819  1
  O2-  O271  1  0.91375555  0.03967623  0.39509731  1
  O2-  O272  1  0.91525295  0.03926099  0.73538794  1
  O2-  O273  1  0.91153140  0.54743941  0.06157776  1
  O2-  O274  1  0.92239336  0.54666007  0.40258844  1
  O2-  O275  1  0.91443316  0.54311482  0.72856463  1
  O2-  O276  1  0.30372889  0.17429623  0.06820726  1
  O2-  O277  1  0.30152901  0.16872274  0.39390966  1
  O2-  O278  1  0.29366228  0.17098237  0.73092733  1
  O2-  O279  1  0.29990560  0.66984381  0.06656283  1
  O2-  O280  1  0.29506116  0.66296358  0.40046155  1
  O2-  O281  1  0.29813680  0.66463882  0.72543092  1
  O2-  O282  1  0.78711024  0.16766467  0.07196658  1
  O2-  O283  1  0.80229283  0.16736958  0.39275286  1
  O2-  O284  1  0.78597208  0.16810016  0.73234688  1
  O2-  O285  1  0.79045059  0.66435117  0.05922580  1
  O2-  O286  1  0.79077947  0.66750895  0.40420922  1
  O2-  O287  1  0.79290504  0.66288408  0.73133041  1
