# generated using pymatgen
data_Ca2Al2SiO7
_symmetry_space_group_name_H-M   'P 1'
_cell_length_a   15.45225594
_cell_length_b   15.45249075
_cell_length_c   15.28007469
_cell_angle_alpha   89.99383003
_cell_angle_beta   90.00309530
_cell_angle_gamma   89.99288390
_symmetry_Int_Tables_number   1
_chemical_formula_structural   Ca2Al2SiO7
_chemical_formula_sum   'Ca48 Al48 Si24 O168'
_cell_volume   3648.51264670
_cell_formula_units_Z   24
loop_
 _symmetry_equiv_pos_site_id
 _symmetry_equiv_pos_as_xyz
  1  'x, y, z'
loop_
 _atom_type_symbol
 _atom_type_oxidation_number
  Ca2+  2.0
  Al0+  0.0
  Si0+  0.0
  O2-  -2.0
loop_
 _atom_site_type_symbol
 _atom_site_label
 _atom_site_symmetry_multiplicity
 _atom_site_fract_x
 _atom_site_fract_y
 _atom_site_fract_z
 _atom_site_occupancy
  Ca2+  Ca0  1  0.16865019  0.07817394  0.16961101  1
  Ca2+  Ca1  1  0.16661318  0.07635943  0.50717643  1
  Ca2+  Ca2  1  0.17480182  0.09170119  0.83792767  1
  Ca2+  Ca3  1  0.16966214  0.59821879  0.16787315  1
  Ca2+  Ca4  1  0.16492143  0.57710248  0.50603910  1
  Ca2+  Ca5  1  0.16977969  0.57815342  0.84225665  1
  Ca2+  Ca6  1  0.67448395  0.07553511  0.18035523  1
  Ca2+  Ca7  1  0.66578399  0.07370800  0.49947813  1
  Ca2+  Ca8  1  0.66220578  0.07247789  0.83773206  1
  Ca2+  Ca9  1  0.66714559  0.58218445  0.17072040  1
  Ca2+  Ca10  1  0.67902323  0.59931749  0.50272896  1
  Ca2+  Ca11  1  0.66668220  0.58265783  0.83819536  1
  Ca2+  Ca12  1  0.07177470  0.32573625  0.15649712  1
  Ca2+  Ca13  1  0.08815498  0.32814260  0.50159067  1
  Ca2+  Ca14  1  0.08827004  0.32582308  0.82932977  1
  Ca2+  Ca15  1  0.07377220  0.83204884  0.16213546  1
  Ca2+  Ca16  1  0.07665782  0.82810329  0.48616985  1
  Ca2+  Ca17  1  0.07855500  0.82886534  0.83526093  1
  Ca2+  Ca18  1  0.59074007  0.32635629  0.16228672  1
  Ca2+  Ca19  1  0.57613625  0.32758137  0.49500365  1
  Ca2+  Ca20  1  0.57696458  0.33578458  0.82954050  1
  Ca2+  Ca21  1  0.58622704  0.82246748  0.16147157  1
  Ca2+  Ca22  1  0.59074256  0.82954416  0.49634365  1
  Ca2+  Ca23  1  0.58140961  0.82427166  0.82997005  1
  Ca2+  Ca24  1  0.33115105  0.42663382  0.16586640  1
  Ca2+  Ca25  1  0.32864486  0.41438848  0.50814961  1
  Ca2+  Ca26  1  0.33066505  0.41907473  0.83707622  1
  Ca2+  Ca27  1  0.32923760  0.91506352  0.16795097  1
  Ca2+  Ca28  1  0.32677759  0.92114685  0.50353667  1
  Ca2+  Ca29  1  0.33749904  0.92788896  0.84237972  1
  Ca2+  Ca30  1  0.83067614  0.41967385  0.16957366  1
  Ca2+  Ca31  1  0.83423220  0.43313432  0.50504641  1
  Ca2+  Ca32  1  0.82851631  0.42084484  0.84065095  1
  Ca2+  Ca33  1  0.83409998  0.91696933  0.17683370  1
  Ca2+  Ca34  1  0.82474896  0.91409294  0.49846266  1
  Ca2+  Ca35  1  0.82920833  0.91295980  0.83480052  1
  Ca2+  Ca36  1  0.42254335  0.16250704  0.16427194  1
  Ca2+  Ca37  1  0.41619751  0.16900981  0.50068548  1
  Ca2+  Ca38  1  0.40903154  0.17099928  0.82495496  1
  Ca2+  Ca39  1  0.42412214  0.67362616  0.15576981  1
  Ca2+  Ca40  1  0.43309374  0.66576074  0.49347366  1
  Ca2+  Ca41  1  0.42556797  0.66400031  0.83294679  1
  Ca2+  Ca42  1  0.91968438  0.16704706  0.15625775  1
  Ca2+  Ca43  1  0.91804820  0.16462374  0.49585681  1
  Ca2+  Ca44  1  0.92861961  0.17299943  0.83147123  1
  Ca2+  Ca45  1  0.92235681  0.67527319  0.16381099  1
  Ca2+  Ca46  1  0.91752427  0.66927053  0.48874111  1
  Ca2+  Ca47  1  0.91418551  0.66864338  0.83336669  1
  Al0+  Al48  1  0.00058774  0.00025203  -0.01044307  1
  Al0+  Al49  1  0.00147013  0.00042238  0.33854495  1
  Al0+  Al50  1  -0.00104203  -0.00070633  0.66278883  1
  Al0+  Al51  1  -0.00211965  0.49957244  -0.00522941  1
  Al0+  Al52  1  0.00120258  0.49835267  0.33306314  1
  Al0+  Al53  1  -0.00013920  0.49969443  0.67714397  1
  Al0+  Al54  1  0.50039708  -0.00107995  0.00379526  1
  Al0+  Al55  1  0.49911154  0.00212943  0.33389822  1
  Al0+  Al56  1  0.49942046  -0.00075613  0.67456366  1
  Al0+  Al57  1  0.49986201  0.49788804  0.00717382  1
  Al0+  Al58  1  0.49819308  0.49940586  0.32998616  1
  Al0+  Al59  1  0.50121084  0.50003482  0.65447218  1
  Al0+  Al60  1  0.25187321  0.25027708  0.00637477  1
  Al0+  Al61  1  0.25010500  0.25229432  0.33070962  1
  Al0+  Al62  1  0.24913996  0.25022043  0.66415680  1
  Al0+  Al63  1  0.25007621  0.75217242  -0.00472210  1
  Al0+  Al64  1  0.25246775  0.74974002  0.33903134  1
  Al0+  Al65  1  0.25011169  0.75045717  0.66650906  1
  Al0+  Al66  1  0.74968928  0.24936008  -0.00241470  1
  Al0+  Al67  1  0.74880118  0.25037610  0.33563731  1
  Al0+  Al68  1  0.75130656  0.25056087  0.66513415  1
  Al0+  Al69  1  0.75014926  0.74828080  -0.00626878  1
  Al0+  Al70  1  0.75035075  0.74973421  0.33079326  1
  Al0+  Al71  1  0.75040726  0.75120985  0.67304311  1
  Al0+  Al72  1  0.67924229  0.42840925  0.01349492  1
  Al0+  Al73  1  0.18130471  0.43022351  0.68085506  1
  Al0+  Al74  1  0.67801509  0.92810489  0.34641917  1
  Al0+  Al75  1  0.31905373  0.57204460  0.01280179  1
  Al0+  Al76  1  0.68059281  0.93104495  0.68278706  1
  Al0+  Al77  1  0.56952931  0.67586020  0.98481137  1
  Al0+  Al78  1  0.81977169  0.56826238  0.34389900  1
  Al0+  Al79  1  0.18026322  0.92865884  0.34638427  1
  Al0+  Al80  1  0.06992153  0.18061478  0.65067857  1
  Al0+  Al81  1  0.42984356  0.31990297  0.65390755  1
  Al0+  Al82  1  0.82282573  0.07357352  0.34791988  1
  Al0+  Al83  1  0.92564329  0.32096973  0.98438918  1
  Al0+  Al84  1  0.57054470  0.68143032  0.65168683  1
  Al0+  Al85  1  0.92997479  0.82179214  0.32015079  1
  Al0+  Al86  1  0.42916755  0.82300826  0.98493270  1
  Al0+  Al87  1  0.32205603  0.07245971  0.01660081  1
  Al0+  Al88  1  0.57201189  0.68029216  0.31821186  1
  Al0+  Al89  1  0.57011871  0.18003123  0.32026062  1
  Al0+  Al90  1  0.07234958  0.67876665  0.98354005  1
  Al0+  Al91  1  0.92791578  0.82185374  0.98284583  1
  Al0+  Al92  1  0.81973588  0.57097318  0.68235623  1
  Al0+  Al93  1  0.31718819  0.06847476  0.67920221  1
  Al0+  Al94  1  0.07318554  0.18018657  0.98570730  1
  Al0+  Al95  1  0.07298230  0.67601641  0.32083185  1
  Si0+  Si96  1  0.42585755  0.32205470  0.31244936  1
  Si0+  Si97  1  0.57128888  0.17795378  0.98563764  1
  Si0+  Si98  1  0.92957752  0.81899221  0.64981735  1
  Si0+  Si99  1  0.92941207  0.32114423  0.32086087  1
  Si0+  Si100  1  0.82235793  0.57289938  0.01852075  1
  Si0+  Si101  1  0.43041316  0.31966173  0.98753175  1
  Si0+  Si102  1  0.82402587  0.07425517  0.68517635  1
  Si0+  Si103  1  0.32500074  0.57249992  0.68081739  1
  Si0+  Si104  1  0.17991255  0.42839207  0.34800728  1
  Si0+  Si105  1  0.07169544  0.17895695  0.31930754  1
  Si0+  Si106  1  0.67536560  0.42715198  0.35185886  1
  Si0+  Si107  1  0.07154751  0.67721945  0.65266244  1
  Si0+  Si108  1  0.17629242  0.42845396  0.01832326  1
  Si0+  Si109  1  0.92739422  0.32405032  0.64850417  1
  Si0+  Si110  1  0.17660372  0.92935838  0.01505940  1
  Si0+  Si111  1  0.17479042  0.92553148  0.68479017  1
  Si0+  Si112  1  0.32105028  0.07445300  0.35085333  1
  Si0+  Si113  1  0.68020911  0.92752321  0.01563063  1
  Si0+  Si114  1  0.42709971  0.82479869  0.64949324  1
  Si0+  Si115  1  0.42721874  0.82286456  0.31851861  1
  Si0+  Si116  1  0.82078135  0.06918992  0.01115990  1
  Si0+  Si117  1  0.32214623  0.57116250  0.34998419  1
  Si0+  Si118  1  0.57367638  0.17498986  0.65172461  1
  Si0+  Si119  1  0.67651642  0.42641083  0.68032523  1
  O2-  O120  1  0.24593879  -0.00231139  0.06007385  1
  O2-  O121  1  0.25288383  0.00525471  0.39427850  1
  O2-  O122  1  0.24478677  -0.00701680  0.72853192  1
  O2-  O123  1  0.23880396  0.50321768  0.06234179  1
  O2-  O124  1  0.24961512  0.50073425  0.39057446  1
  O2-  O125  1  0.25424761  0.50700952  0.72633964  1
  O2-  O126  1  0.75404234  -0.00393571  0.05636863  1
  O2-  O127  1  0.75046664  0.00061684  0.39614435  1
  O2-  O128  1  0.75208845  0.00933865  0.72986132  1
  O2-  O129  1  0.75384533  0.50284625  0.06105589  1
  O2-  O130  1  0.74174645  0.49841795  0.39510349  1
  O2-  O131  1  0.74516746  0.49409662  0.72547532  1
  O2-  O132  1  -0.00449502  0.24506740  0.27875534  1
  O2-  O133  1  -0.00710748  0.25287208  0.60276394  1
  O2-  O134  1  0.00382423  0.25496675  0.93566418  1
  O2-  O135  1  0.00313165  0.75014268  0.27165316  1
  O2-  O136  1  0.00320657  0.74976054  0.60889263  1
  O2-  O137  1  -0.00210264  0.74762877  0.93259318  1
  O2-  O138  1  0.49700482  0.25498126  0.27020646  1
  O2-  O139  1  0.50650849  0.24606287  0.60871941  1
  O2-  O140  1  0.49835234  0.24673726  0.94344301  1
  O2-  O141  1  0.49864661  0.75727896  0.27408883  1
  O2-  O142  1  0.49386360  0.75463292  0.60459571  1
  O2-  O143  1  0.49844806  0.74870721  0.93461461  1
  O2-  O144  1  0.06989371  0.17902843  0.10005821  1
  O2-  O145  1  0.07513919  0.18220491  0.42437441  1
  O2-  O146  1  0.07144746  0.18392965  0.76331624  1
  O2-  O147  1  0.07162412  0.68304330  0.09715529  1
  O2-  O148  1  0.07032873  0.67426788  0.43515218  1
  O2-  O149  1  0.07171735  0.67877221  0.75730978  1
  O2-  O150  1  0.57256599  0.17939567  0.09075375  1
  O2-  O151  1  0.56672972  0.18140813  0.43353575  1
  O2-  O152  1  0.57307810  0.17548795  0.75760164  1
  O2-  O153  1  0.56927588  0.67788964  0.09851001  1
  O2-  O154  1  0.57127401  0.68152590  0.43157410  1
  O2-  O155  1  0.56817488  0.67922073  0.76437020  1
  O2-  O156  1  0.18141353  0.42400525  0.24343875  1
  O2-  O157  1  0.18165938  0.43125942  0.56695310  1
  O2-  O158  1  0.18220043  0.42513455  0.91285546  1
  O2-  O159  1  0.18058035  0.93071575  0.23331662  1
  O2-  O160  1  0.17578841  0.92587964  0.57890229  1
  O2-  O161  1  0.17684569  0.93103714  0.90940246  1
  O2-  O162  1  0.67803122  0.42497463  0.24620058  1
  O2-  O163  1  0.67820392  0.42444200  0.57485169  1
  O2-  O164  1  0.67769040  0.42784742  0.90012715  1
  O2-  O165  1  0.67911540  0.93002951  0.23258138  1
  O2-  O166  1  0.68199261  0.93055193  0.56984324  1
  O2-  O167  1  0.67883104  0.93071828  0.91035291  1
  O2-  O168  1  0.43154025  0.31892931  0.09264122  1
  O2-  O169  1  0.42304464  0.32137406  0.41816054  1
  O2-  O170  1  0.43038545  0.32017450  0.76738240  1
  O2-  O171  1  0.43158560  0.82300889  0.09897253  1
  O2-  O172  1  0.42501667  0.81971912  0.42435359  1
  O2-  O173  1  0.42822518  0.82522302  0.75470262  1
  O2-  O174  1  0.92546958  0.31619068  0.09895243  1
  O2-  O175  1  0.93346077  0.32392746  0.42592294  1
  O2-  O176  1  0.92706515  0.32245170  0.75363681  1
  O2-  O177  1  0.92837266  0.82475564  0.09614938  1
  O2-  O178  1  0.93029584  0.81887066  0.43426796  1
  O2-  O179  1  0.93025168  0.81888647  0.75484551  1
  O2-  O180  1  0.31967630  0.07540632  0.24532866  1
  O2-  O181  1  0.31588790  0.06742188  0.56581438  1
  O2-  O182  1  0.32167314  0.07454581  0.90343806  1
  O2-  O183  1  0.32259583  0.57093326  0.24495818  1
  O2-  O184  1  0.32299428  0.57067263  0.57484822  1
  O2-  O185  1  0.32149271  0.56523142  0.89964641  1
  O2-  O186  1  0.82238956  0.07515647  0.23369321  1
  O2-  O187  1  0.82430674  0.07283720  0.57972719  1
  O2-  O188  1  0.81671642  0.06975000  0.90609430  1
  O2-  O189  1  0.82093708  0.56406286  0.23140904  1
  O2-  O190  1  0.82101120  0.57183203  0.56870464  1
  O2-  O191  1  0.81963205  0.57244036  0.91270020  1
  O2-  O192  1  0.04853010  0.08582295  0.27380741  1
  O2-  O193  1  0.04130206  0.08227489  0.59783729  1
  O2-  O194  1  0.04478243  0.08454735  0.92861381  1
  O2-  O195  1  0.04608130  0.57778941  0.26681112  1
  O2-  O196  1  0.04225541  0.58425820  0.60847321  1
  O2-  O197  1  0.04841494  0.57852042  0.93236281  1
  O2-  O198  1  0.53926676  0.08380778  0.26474452  1
  O2-  O199  1  0.54381753  0.08231209  0.60662917  1
  O2-  O200  1  0.54469092  0.08543292  0.94008614  1
  O2-  O201  1  0.54036924  0.58245117  0.26716793  1
  O2-  O202  1  0.54366393  0.58569103  0.59334416  1
  O2-  O203  1  0.53874158  0.57668387  0.93478055  1
  O2-  O204  1  0.16168321  0.21114472  0.27054762  1
  O2-  O205  1  0.16419801  0.21511894  0.59469735  1
  O2-  O206  1  0.17303217  0.21006562  0.93618534  1
  O2-  O207  1  0.17366429  0.70368894  0.27322205  1
  O2-  O208  1  0.16552227  0.70043168  0.60583770  1
  O2-  O209  1  0.16957029  0.70736622  0.92842347  1
  O2-  O210  1  0.66748054  0.21036324  0.26610103  1
  O2-  O211  1  0.66816875  0.19798201  0.60580227  1
  O2-  O212  1  0.66113055  0.20648708  0.93563865  1
  O2-  O213  1  0.66779815  0.70856611  0.26280885  1
  O2-  O214  1  0.66760638  0.71752919  0.60152262  1
  O2-  O215  1  0.66747065  0.70323663  0.93172565  1
  O2-  O216  1  0.07896356  0.44638400  0.05936772  1
  O2-  O217  1  0.08842442  0.45400170  0.39692585  1
  O2-  O218  1  0.08565207  0.45719196  0.73769021  1
  O2-  O219  1  0.08260992  0.95764674  0.05964353  1
  O2-  O220  1  0.08534336  0.95882700  0.40390307  1
  O2-  O221  1  0.08068084  0.95199099  0.72851354  1
  O2-  O222  1  0.58394890  0.45562025  0.07203822  1
  O2-  O223  1  0.57900230  0.44893829  0.39392899  1
  O2-  O224  1  0.58189618  0.45373263  0.72337715  1
  O2-  O225  1  0.59004680  0.95758633  0.06410908  1
  O2-  O226  1  0.57948837  0.95760119  0.40011310  1
  O2-  O227  1  0.58410050  0.95913767  0.73900765  1
  O2-  O228  1  0.20866416  0.33831733  0.06818024  1
  O2-  O229  1  0.21096644  0.33758215  0.39736057  1
  O2-  O230  1  0.21580602  0.33499525  0.73393669  1
  O2-  O231  1  0.20181976  0.83586824  0.06074548  1
  O2-  O232  1  0.21214169  0.83363350  0.40457912  1
  O2-  O233  1  0.19827802  0.83070598  0.72954728  1
  O2-  O234  1  0.71135040  0.33088693  0.06733191  1
  O2-  O235  1  0.70189865  0.33473749  0.39930407  1
  O2-  O236  1  0.69901956  0.33176704  0.72695980  1
  O2-  O237  1  0.70608791  0.83373516  0.05922953  1
  O2-  O238  1  0.70791073  0.83049012  0.39996923  1
  O2-  O239  1  0.71560880  0.83739877  0.73916696  1
  O2-  O240  1  0.44910406  0.41642156  0.26743302  1
  O2-  O241  1  0.45786807  0.41423594  0.59327920  1
  O2-  O242  1  0.46047043  0.41013822  0.93996484  1
  O2-  O243  1  0.44604526  0.91876038  0.27517430  1
  O2-  O244  1  0.45465228  0.91836090  0.60429682  1
  O2-  O245  1  0.46146902  0.92098183  0.93230381  1
  O2-  O246  1  0.96307882  0.40891782  0.26956071  1
  O2-  O247  1  0.95813956  0.41773516  0.60511118  1
  O2-  O248  1  0.94575370  0.42112728  0.93320743  1
  O2-  O249  1  0.95859070  0.92148049  0.26937937  1
  O2-  O250  1  0.95373775  0.91181112  0.60269054  1
  O2-  O251  1  0.95673493  0.91815751  0.92526680  1
  O2-  O252  1  0.33333232  0.29456597  0.26455445  1
  O2-  O253  1  0.33563070  0.28585128  0.59705419  1
  O2-  O254  1  0.33753625  0.29423145  0.94156811  1
  O2-  O255  1  0.33547925  0.79251514  0.27159999  1
  O2-  O256  1  0.33161060  0.80218091  0.60446322  1
  O2-  O257  1  0.33009619  0.80137596  0.93176802  1
  O2-  O258  1  0.83513857  0.29969089  0.27609474  1
  O2-  O259  1  0.83253316  0.30252714  0.60199458  1
  O2-  O260  1  0.83027500  0.28718533  0.92813490  1
  O2-  O261  1  0.83284795  0.79347767  0.26611398  1
  O2-  O262  1  0.83806753  0.78789191  0.60491110  1
  O2-  O263  1  0.83040927  0.79303955  0.92800968  1
  O2-  O264  1  0.41848308  0.04021996  0.07121390  1
  O2-  O265  1  0.41456520  0.05040128  0.39708727  1
  O2-  O266  1  0.41441064  0.04349451  0.73511603  1
  O2-  O267  1  0.41187955  0.53497096  0.07082080  1
  O2-  O268  1  0.41321183  0.53961745  0.39774143  1
  O2-  O269  1  0.41850795  0.54244628  0.72385706  1
  O2-  O270  1  0.91526049  0.04535595  0.05511899  1
  O2-  O271  1  0.92082504  0.04764874  0.40272008  1
  O2-  O272  1  0.91666407  0.04355413  0.73052283  1
  O2-  O273  1  0.91717549  0.54819854  0.06236352  1
  O2-  O274  1  0.91577925  0.53440764  0.39951586  1
  O2-  O275  1  0.91488694  0.54119773  0.73910968  1
  O2-  O276  1  0.29336854  0.16844734  0.07363875  1
  O2-  O277  1  0.29412850  0.16887150  0.39520575  1
  O2-  O278  1  0.28465338  0.16506833  0.73184051  1
  O2-  O279  1  0.29292532  0.67099952  0.06519865  1
  O2-  O280  1  0.29843495  0.66209279  0.40063592  1
  O2-  O281  1  0.30353743  0.66787541  0.72503379  1
  O2-  O282  1  0.79081949  0.16000891  0.05915601  1
  O2-  O283  1  0.79341671  0.17132178  0.40292059  1
  O2-  O284  1  0.80353156  0.17038485  0.72846146  1
  O2-  O285  1  0.79536424  0.66701477  0.06265327  1
  O2-  O286  1  0.79119220  0.66551810  0.39787050  1
  O2-  O287  1  0.78718914  0.66543100  0.73807588  1
