# generated using pymatgen
data_Ca2Al2SiO7
_symmetry_space_group_name_H-M   'P 1'
_cell_length_a   15.45869231
_cell_length_b   15.45902916
_cell_length_c   15.28363242
_cell_angle_alpha   90.00028860
_cell_angle_beta   90.00847759
_cell_angle_gamma   89.98307725
_symmetry_Int_Tables_number   1
_chemical_formula_structural   Ca2Al2SiO7
_chemical_formula_sum   'Ca48 Al48 Si24 O168'
_cell_volume   3652.42687474
_cell_formula_units_Z   24
loop_
 _symmetry_equiv_pos_site_id
 _symmetry_equiv_pos_as_xyz
  1  'x, y, z'
loop_
 _atom_type_symbol
 _atom_type_oxidation_number
  Ca2+  2.0
  Al0+  0.0
  Si0+  0.0
  O2-  -2.0
loop_
 _atom_site_type_symbol
 _atom_site_label
 _atom_site_symmetry_multiplicity
 _atom_site_fract_x
 _atom_site_fract_y
 _atom_site_fract_z
 _atom_site_occupancy
  Ca2+  Ca0  1  0.16261107  0.07744268  0.16837509  1
  Ca2+  Ca1  1  0.16911762  0.08641383  0.51153377  1
  Ca2+  Ca2  1  0.16317435  0.07582670  0.83543524  1
  Ca2+  Ca3  1  0.16068588  0.57646837  0.17058600  1
  Ca2+  Ca4  1  0.16292266  0.57920962  0.50478684  1
  Ca2+  Ca5  1  0.16293208  0.56923154  0.83910574  1
  Ca2+  Ca6  1  0.66975241  0.08141796  0.16805231  1
  Ca2+  Ca7  1  0.66488104  0.08620306  0.50613111  1
  Ca2+  Ca8  1  0.67413760  0.07955374  0.84342285  1
  Ca2+  Ca9  1  0.67685631  0.59077460  0.17003452  1
  Ca2+  Ca10  1  0.66989441  0.58619460  0.50160051  1
  Ca2+  Ca11  1  0.67028347  0.58676763  0.84071116  1
  Ca2+  Ca12  1  0.07553574  0.33001821  0.16148217  1
  Ca2+  Ca13  1  0.08004077  0.32890890  0.49782085  1
  Ca2+  Ca14  1  0.07529313  0.33439952  0.82709118  1
  Ca2+  Ca15  1  0.08117378  0.82544971  0.15764644  1
  Ca2+  Ca16  1  0.07846740  0.83503711  0.49790964  1
  Ca2+  Ca17  1  0.07412233  0.84388177  0.83035164  1
  Ca2+  Ca18  1  0.57913122  0.32911634  0.16176642  1
  Ca2+  Ca19  1  0.58290853  0.32021133  0.49694223  1
  Ca2+  Ca20  1  0.57631435  0.32824021  0.82911498  1
  Ca2+  Ca21  1  0.58288910  0.82521346  0.15537624  1
  Ca2+  Ca22  1  0.58184065  0.82248484  0.49626171  1
  Ca2+  Ca23  1  0.59000398  0.82454430  0.83347277  1
  Ca2+  Ca24  1  0.32937092  0.41119566  0.16467452  1
  Ca2+  Ca25  1  0.32529881  0.41890209  0.50891224  1
  Ca2+  Ca26  1  0.32156277  0.40937667  0.83989284  1
  Ca2+  Ca27  1  0.32996378  0.90862620  0.16563367  1
  Ca2+  Ca28  1  0.32268577  0.92409220  0.51197056  1
  Ca2+  Ca29  1  0.32516139  0.91956418  0.83892819  1
  Ca2+  Ca30  1  0.84228869  0.42591688  0.17027198  1
  Ca2+  Ca31  1  0.84319424  0.42007472  0.50059999  1
  Ca2+  Ca32  1  0.83689905  0.42123720  0.84244295  1
  Ca2+  Ca33  1  0.83188968  0.91823619  0.16096066  1
  Ca2+  Ca34  1  0.83317600  0.91734200  0.50579981  1
  Ca2+  Ca35  1  0.83367238  0.92142034  0.84560362  1
  Ca2+  Ca36  1  0.42268040  0.16993184  0.16246677  1
  Ca2+  Ca37  1  0.42441785  0.15810373  0.49989435  1
  Ca2+  Ca38  1  0.41903181  0.16493941  0.83035694  1
  Ca2+  Ca39  1  0.43041765  0.66912340  0.15598337  1
  Ca2+  Ca40  1  0.42816228  0.66278292  0.49578613  1
  Ca2+  Ca41  1  0.42715156  0.67119895  0.83243602  1
  Ca2+  Ca42  1  0.91648414  0.17648431  0.16072113  1
  Ca2+  Ca43  1  0.93044298  0.17739328  0.49533720  1
  Ca2+  Ca44  1  0.91814108  0.17596926  0.82622177  1
  Ca2+  Ca45  1  0.91621050  0.66652291  0.16147753  1
  Ca2+  Ca46  1  0.92130493  0.67190396  0.49520514  1
  Ca2+  Ca47  1  0.91025782  0.67937197  0.83288469  1
  Al0+  Al48  1  0.00167736  -0.00080721  0.00752405  1
  Al0+  Al49  1  -0.00215443  0.00081756  0.33194666  1
  Al0+  Al50  1  -0.00203341  0.00226989  0.66099467  1
  Al0+  Al51  1  0.00058594  0.49785283  0.00471668  1
  Al0+  Al52  1  -0.00051729  0.50232533  0.33349132  1
  Al0+  Al53  1  -0.00113158  0.50395772  0.66913675  1
  Al0+  Al54  1  0.49918528  -0.00182517  0.00116991  1
  Al0+  Al55  1  0.49882434  -0.00016642  0.33064295  1
  Al0+  Al56  1  0.49941065  -0.00236610  0.66758753  1
  Al0+  Al57  1  0.49944185  0.49766976  -0.00873744  1
  Al0+  Al58  1  0.50076629  0.49981587  0.33070064  1
  Al0+  Al59  1  0.50218150  0.49971173  0.66246595  1
  Al0+  Al60  1  0.25035743  0.24837033  0.00273119  1
  Al0+  Al61  1  0.24927538  0.24824161  0.33219311  1
  Al0+  Al62  1  0.25070325  0.25131331  0.67283099  1
  Al0+  Al63  1  0.25283627  0.74741675  -0.00070381  1
  Al0+  Al64  1  0.24845951  0.74906021  0.33342540  1
  Al0+  Al65  1  0.25044714  0.74989745  0.67234392  1
  Al0+  Al66  1  0.75112394  0.25145409  0.00051149  1
  Al0+  Al67  1  0.74853787  0.25059573  0.32695354  1
  Al0+  Al68  1  0.74840305  0.25275173  0.65954683  1
  Al0+  Al69  1  0.75251240  0.75026989  0.00096883  1
  Al0+  Al70  1  0.74928813  0.75013500  0.33630773  1
  Al0+  Al71  1  0.75074067  0.75021198  0.65751101  1
  Al0+  Al72  1  0.56959684  0.17742628  0.65544568  1
  Al0+  Al73  1  0.17862384  0.43163306  0.68022947  1
  Al0+  Al74  1  0.17543234  0.92921150  0.68163669  1
  Al0+  Al75  1  0.81928994  0.56987595  0.01245434  1
  Al0+  Al76  1  0.07326475  0.17732968  0.31641746  1
  Al0+  Al77  1  0.67894661  0.92921260  0.01428781  1
  Al0+  Al78  1  0.82044943  0.57079679  0.35006930  1
  Al0+  Al79  1  0.07074687  0.68115808  0.32048226  1
  Al0+  Al80  1  0.92964640  0.32128129  0.98553142  1
  Al0+  Al81  1  0.92997005  0.82238781  0.65316217  1
  Al0+  Al82  1  0.57334057  0.67980896  0.98422382  1
  Al0+  Al83  1  0.17963930  0.42798761  0.01638529  1
  Al0+  Al84  1  0.93267697  0.82006412  0.98835808  1
  Al0+  Al85  1  0.93041410  0.32171302  0.31690838  1
  Al0+  Al86  1  0.57026847  0.17739365  0.31816626  1
  Al0+  Al87  1  0.42686921  0.82240637  0.98321323  1
  Al0+  Al88  1  0.17999843  0.92704900  0.01554520  1
  Al0+  Al89  1  0.92816241  0.32544454  0.65146596  1
  Al0+  Al90  1  0.42798813  0.31902421  0.98595407  1
  Al0+  Al91  1  0.32308468  0.07123778  0.68321308  1
  Al0+  Al92  1  0.07184972  0.18061192  0.65423436  1
  Al0+  Al93  1  0.82246217  0.07408045  0.01522265  1
  Al0+  Al94  1  0.57062046  0.67904272  0.65043527  1
  Al0+  Al95  1  0.57109941  0.67888414  0.31803809  1
  Si0+  Si96  1  0.68045457  0.92740650  0.67933235  1
  Si0+  Si97  1  0.32372783  0.56963913  0.01651251  1
  Si0+  Si98  1  0.92653620  0.82292641  0.31553245  1
  Si0+  Si99  1  0.32244621  0.07116942  0.01966323  1
  Si0+  Si100  1  0.67513498  0.42735679  0.01538997  1
  Si0+  Si101  1  0.07161316  0.17717323  0.98394008  1
  Si0+  Si102  1  0.07338082  0.67574835  0.98355963  1
  Si0+  Si103  1  0.18014242  0.42944105  0.34875425  1
  Si0+  Si104  1  0.42770794  0.32166590  0.65008029  1
  Si0+  Si105  1  0.81829075  0.07301753  0.67790387  1
  Si0+  Si106  1  0.42717778  0.32218866  0.31824445  1
  Si0+  Si107  1  0.07315738  0.67859512  0.65330008  1
  Si0+  Si108  1  0.42780184  0.82086651  0.31823531  1
  Si0+  Si109  1  0.67851243  0.42806129  0.68100138  1
  Si0+  Si110  1  0.57248242  0.17741334  0.98414831  1
  Si0+  Si111  1  0.81981352  0.07340654  0.35034022  1
  Si0+  Si112  1  0.17784664  0.92772121  0.34819100  1
  Si0+  Si113  1  0.67806018  0.93073950  0.35001172  1
  Si0+  Si114  1  0.42613930  0.82091948  0.64938080  1
  Si0+  Si115  1  0.67562483  0.42698616  0.35092462  1
  Si0+  Si116  1  0.32064947  0.07027234  0.34812575  1
  Si0+  Si117  1  0.32251226  0.57136117  0.34749533  1
  Si0+  Si118  1  0.81876570  0.57217676  0.68161362  1
  Si0+  Si119  1  0.32647658  0.57177246  0.68398589  1
  O2-  O120  1  0.25632063  -0.00025621  0.06389833  1
  O2-  O121  1  0.24656040  0.00162351  0.38962137  1
  O2-  O122  1  0.24818710  0.00096287  0.73123981  1
  O2-  O123  1  0.25379821  0.50356042  0.06344883  1
  O2-  O124  1  0.25244352  0.49977207  0.39079189  1
  O2-  O125  1  0.25518964  0.50521700  0.72697120  1
  O2-  O126  1  0.74798490  0.00376240  0.06534693  1
  O2-  O127  1  0.74862952  0.00201449  0.39344440  1
  O2-  O128  1  0.74787882  0.00175670  0.72066873  1
  O2-  O129  1  0.74340291  0.49624466  0.05965008  1
  O2-  O130  1  0.74587050  0.49443047  0.39582308  1
  O2-  O131  1  0.74997998  0.49876904  0.72302743  1
  O2-  O132  1  0.00045346  0.24803821  0.26677051  1
  O2-  O133  1  0.00255915  0.25500976  0.60357171  1
  O2-  O134  1  0.00221016  0.24479510  0.93935373  1
  O2-  O135  1  -0.00277658  0.75581819  0.27291134  1
  O2-  O136  1  0.00993267  0.75219207  0.60863537  1
  O2-  O137  1  0.00877544  0.74798631  0.93911725  1
  O2-  O138  1  0.49676627  0.25420966  0.27451745  1
  O2-  O139  1  0.49273522  0.24928681  0.60623146  1
  O2-  O140  1  0.50336565  0.24510524  0.93959236  1
  O2-  O141  1  0.49585631  0.75272308  0.27299563  1
  O2-  O142  1  0.49247340  0.75048353  0.60377859  1
  O2-  O143  1  0.50250373  0.75335941  0.93438019  1
  O2-  O144  1  0.07119418  0.17943666  0.08977258  1
  O2-  O145  1  0.07596608  0.17934714  0.42995760  1
  O2-  O146  1  0.06694949  0.17870743  0.76749416  1
  O2-  O147  1  0.07122130  0.67648671  0.08961291  1
  O2-  O148  1  0.07211396  0.68330968  0.43394133  1
  O2-  O149  1  0.06892158  0.67401299  0.75832605  1
  O2-  O150  1  0.57081392  0.17902217  0.09000369  1
  O2-  O151  1  0.56744296  0.17593103  0.43154887  1
  O2-  O152  1  0.57234598  0.18063959  0.76800505  1
  O2-  O153  1  0.57215029  0.67982628  0.09792287  1
  O2-  O154  1  0.56904628  0.68009461  0.43150429  1
  O2-  O155  1  0.57332239  0.68062639  0.76276608  1
  O2-  O156  1  0.18200810  0.42998926  0.24387850  1
  O2-  O157  1  0.18035849  0.43426158  0.56628656  1
  O2-  O158  1  0.17933253  0.42916160  0.90323380  1
  O2-  O159  1  0.18106410  0.92519011  0.24345942  1
  O2-  O160  1  0.17775161  0.92889896  0.56713848  1
  O2-  O161  1  0.17737454  0.93127601  0.90294864  1
  O2-  O162  1  0.67156113  0.42839778  0.24572042  1
  O2-  O163  1  0.67635029  0.42825628  0.57590645  1
  O2-  O164  1  0.67608413  0.42658716  0.90933548  1
  O2-  O165  1  0.67783202  0.93083381  0.24552538  1
  O2-  O166  1  0.68169927  0.92734010  0.57355615  1
  O2-  O167  1  0.68242813  0.93009394  0.90001884  1
  O2-  O168  1  0.42985896  0.31711703  0.09961197  1
  O2-  O169  1  0.42599176  0.32248273  0.42392741  1
  O2-  O170  1  0.43123231  0.32395514  0.75528903  1
  O2-  O171  1  0.42711962  0.81748975  0.09751637  1
  O2-  O172  1  0.42905844  0.82046437  0.42410433  1
  O2-  O173  1  0.42792531  0.82064912  0.75422509  1
  O2-  O174  1  0.93199235  0.32276646  0.09828475  1
  O2-  O175  1  0.93431239  0.32128778  0.43066200  1
  O2-  O176  1  0.92689370  0.32434055  0.76500119  1
  O2-  O177  1  0.93311513  0.81764061  0.10146988  1
  O2-  O178  1  0.92790409  0.82321167  0.42173523  1
  O2-  O179  1  0.92540385  0.82106256  0.76587898  1
  O2-  O180  1  0.32285268  0.06948106  0.24352857  1
  O2-  O181  1  0.32448328  0.06771673  0.56864885  1
  O2-  O182  1  0.32114607  0.07299913  0.91438597  1
  O2-  O183  1  0.32287800  0.57149240  0.24300176  1
  O2-  O184  1  0.32745905  0.56954895  0.57754679  1
  O2-  O185  1  0.32258821  0.56761096  0.91092199  1
  O2-  O186  1  0.81937261  0.07200482  0.24576277  1
  O2-  O187  1  0.81594208  0.07137428  0.57239211  1
  O2-  O188  1  0.82112076  0.07406960  0.90071769  1
  O2-  O189  1  0.81955754  0.57164096  0.23728504  1
  O2-  O190  1  0.81814749  0.57283495  0.57637921  1
  O2-  O191  1  0.81846020  0.56986619  0.89879930  1
  O2-  O192  1  0.04549267  0.07774354  0.26595620  1
  O2-  O193  1  0.04107472  0.08493653  0.59678704  1
  O2-  O194  1  0.04719551  0.08239531  0.94131652  1
  O2-  O195  1  0.04054015  0.58506601  0.26677594  1
  O2-  O196  1  0.04092657  0.58880855  0.60293821  1
  O2-  O197  1  0.04323743  0.58328437  0.93881431  1
  O2-  O198  1  0.53690727  0.08218899  0.26331318  1
  O2-  O199  1  0.54200416  0.07970672  0.60052391  1
  O2-  O200  1  0.54798882  0.08327981  0.93982479  1
  O2-  O201  1  0.54184764  0.58186917  0.26522291  1
  O2-  O202  1  0.54216989  0.58179163  0.59535802  1
  O2-  O203  1  0.54445113  0.58180182  0.93071014  1
  O2-  O204  1  0.17193355  0.20449659  0.26353940  1
  O2-  O205  1  0.17234976  0.20685540  0.60380545  1
  O2-  O206  1  0.16572061  0.20238527  0.94030705  1
  O2-  O207  1  0.16778936  0.70893120  0.26539619  1
  O2-  O208  1  0.16985348  0.69601060  0.60973897  1
  O2-  O209  1  0.16901782  0.69419528  0.94043570  1
  O2-  O210  1  0.66572966  0.20637845  0.26288953  1
  O2-  O211  1  0.66281366  0.21191762  0.59648444  1
  O2-  O212  1  0.66580891  0.20379568  0.93871462  1
  O2-  O213  1  0.66780431  0.71218993  0.26751891  1
  O2-  O214  1  0.66428136  0.71409120  0.59342612  1
  O2-  O215  1  0.67113885  0.70986155  0.93138193  1
  O2-  O216  1  0.08499078  0.46064882  0.07252959  1
  O2-  O217  1  0.08976033  0.46085663  0.39609399  1
  O2-  O218  1  0.08291301  0.46541198  0.73510811  1
  O2-  O219  1  0.08577498  0.95816186  0.07382012  1
  O2-  O220  1  0.08357473  0.95178236  0.39294206  1
  O2-  O221  1  0.07599288  0.95966835  0.73186868  1
  O2-  O222  1  0.58035634  0.45102838  0.05981982  1
  O2-  O223  1  0.58230836  0.45401592  0.39857883  1
  O2-  O224  1  0.58666303  0.45645059  0.72832307  1
  O2-  O225  1  0.57915906  0.95277817  0.06741393  1
  O2-  O226  1  0.58513893  0.95801786  0.39674442  1
  O2-  O227  1  0.58726042  0.94927609  0.72513957  1
  O2-  O228  1  0.21265935  0.33213115  0.07091117  1
  O2-  O229  1  0.20822855  0.33705492  0.39543585  1
  O2-  O230  1  0.20776438  0.33597326  0.73596135  1
  O2-  O231  1  0.21003276  0.82853140  0.06777965  1
  O2-  O232  1  0.20751246  0.83690986  0.39752688  1
  O2-  O233  1  0.20024638  0.82945223  0.73400300  1
  O2-  O234  1  0.69970214  0.33409063  0.06214675  1
  O2-  O235  1  0.69982776  0.33159666  0.39496249  1
  O2-  O236  1  0.70481334  0.33595382  0.72850175  1
  O2-  O237  1  0.71210692  0.83300021  0.06867401  1
  O2-  O238  1  0.70700303  0.83951633  0.39885362  1
  O2-  O239  1  0.71303120  0.83638668  0.72493307  1
  O2-  O240  1  0.45173200  0.41522151  0.27093722  1
  O2-  O241  1  0.45698432  0.41327665  0.60124337  1
  O2-  O242  1  0.45589077  0.41393494  0.92808155  1
  O2-  O243  1  0.45211477  0.91412486  0.27172267  1
  O2-  O244  1  0.45472112  0.91311235  0.60173764  1
  O2-  O245  1  0.44946057  0.92308531  0.93333725  1
  O2-  O246  1  0.96097429  0.42011582  0.26649578  1
  O2-  O247  1  0.95648702  0.42495063  0.60073711  1
  O2-  O248  1  0.96348029  0.41754671  0.93261354  1
  O2-  O249  1  0.94856522  0.91745048  0.27127707  1
  O2-  O250  1  0.95552649  0.91845598  0.59545728  1
  O2-  O251  1  0.96176885  0.91838400  0.93669452  1
  O2-  O252  1  0.33484143  0.29450857  0.27135881  1
  O2-  O253  1  0.33272340  0.30091058  0.60579377  1
  O2-  O254  1  0.33170257  0.28658095  0.93275959  1
  O2-  O255  1  0.33398447  0.79516085  0.27356900  1
  O2-  O256  1  0.33108853  0.79774559  0.60417643  1
  O2-  O257  1  0.33005311  0.79049130  0.92875163  1
  O2-  O258  1  0.83044032  0.29755775  0.26615615  1
  O2-  O259  1  0.83074416  0.29717468  0.59685630  1
  O2-  O260  1  0.83094847  0.29544426  0.93286811  1
  O2-  O261  1  0.83323057  0.79490266  0.27210804  1
  O2-  O262  1  0.83736468  0.78668999  0.59382938  1
  O2-  O263  1  0.83717351  0.78848068  0.93342742  1
  O2-  O264  1  0.41708178  0.04880387  0.06544411  1
  O2-  O265  1  0.41190110  0.03964055  0.39653726  1
  O2-  O266  1  0.42091508  0.04004313  0.73674662  1
  O2-  O267  1  0.41714130  0.54009906  0.06152768  1
  O2-  O268  1  0.41427613  0.54304022  0.39603730  1
  O2-  O269  1  0.41978469  0.54375330  0.72908901  1
  O2-  O270  1  0.91833621  0.04302987  0.07100590  1
  O2-  O271  1  0.91219716  0.04484694  0.39767459  1
  O2-  O272  1  0.91010764  0.04588351  0.72397222  1
  O2-  O273  1  0.91505198  0.53848070  0.06782741  1
  O2-  O274  1  0.91802032  0.54138928  0.40456102  1
  O2-  O275  1  0.91102571  0.54943104  0.72965319  1
  O2-  O276  1  0.29437043  0.16318596  0.06799315  1
  O2-  O277  1  0.29624660  0.16318401  0.39585983  1
  O2-  O278  1  0.30173601  0.17144390  0.73469104  1
  O2-  O279  1  0.30244224  0.66394372  0.06253403  1
  O2-  O280  1  0.29381412  0.66251375  0.39681657  1
  O2-  O281  1  0.30529268  0.66633240  0.72891583  1
  O2-  O282  1  0.79371915  0.17230474  0.06906127  1
  O2-  O283  1  0.79064526  0.16558537  0.39607872  1
  O2-  O284  1  0.78965092  0.16533008  0.72388864  1
  O2-  O285  1  0.79045365  0.66570929  0.06829796  1
  O2-  O286  1  0.78866711  0.66768080  0.40471010  1
  O2-  O287  1  0.78631946  0.66388153  0.72662738  1
