# generated using pymatgen
data_Ca2Al2SiO7
_symmetry_space_group_name_H-M   'P 1'
_cell_length_a   15.45479753
_cell_length_b   15.45548035
_cell_length_c   15.28114062
_cell_angle_alpha   89.99333082
_cell_angle_beta   90.00238597
_cell_angle_gamma   89.99010076
_symmetry_Int_Tables_number   1
_chemical_formula_structural   Ca2Al2SiO7
_chemical_formula_sum   'Ca48 Al48 Si24 O168'
_cell_volume   3650.07333015
_cell_formula_units_Z   24
loop_
 _symmetry_equiv_pos_site_id
 _symmetry_equiv_pos_as_xyz
  1  'x, y, z'
loop_
 _atom_type_symbol
 _atom_type_oxidation_number
  Ca2+  2.0
  Al0+  0.0
  Si0+  0.0
  O2-  -2.0
loop_
 _atom_site_type_symbol
 _atom_site_label
 _atom_site_symmetry_multiplicity
 _atom_site_fract_x
 _atom_site_fract_y
 _atom_site_fract_z
 _atom_site_occupancy
  Ca2+  Ca0  1  0.17389431  0.09501652  0.17003961  1
  Ca2+  Ca1  1  0.16721410  0.08513468  0.50829438  1
  Ca2+  Ca2  1  0.16500701  0.08221014  0.83464224  1
  Ca2+  Ca3  1  0.16746135  0.58869079  0.16933232  1
  Ca2+  Ca4  1  0.16243831  0.57696975  0.50798796  1
  Ca2+  Ca5  1  0.16856147  0.57734641  0.84023748  1
  Ca2+  Ca6  1  0.66553482  0.06925670  0.17280106  1
  Ca2+  Ca7  1  0.67227785  0.08026612  0.50795035  1
  Ca2+  Ca8  1  0.67074971  0.08243420  0.83568317  1
  Ca2+  Ca9  1  0.68092697  0.58013628  0.17834850  1
  Ca2+  Ca10  1  0.66499851  0.58370951  0.49963439  1
  Ca2+  Ca11  1  0.67201827  0.58488112  0.83844371  1
  Ca2+  Ca12  1  0.07790277  0.32512684  0.15945316  1
  Ca2+  Ca13  1  0.08313541  0.32561377  0.50046149  1
  Ca2+  Ca14  1  0.07614775  0.32540684  0.82728364  1
  Ca2+  Ca15  1  0.08254834  0.82118118  0.16341690  1
  Ca2+  Ca16  1  0.07721550  0.83578714  0.49817417  1
  Ca2+  Ca17  1  0.08310865  0.82886248  0.82543649  1
  Ca2+  Ca18  1  0.58493810  0.33602550  0.16652791  1
  Ca2+  Ca19  1  0.58220359  0.32995701  0.49992810  1
  Ca2+  Ca20  1  0.57485608  0.32719260  0.82077345  1
  Ca2+  Ca21  1  0.58996979  0.83183022  0.16540291  1
  Ca2+  Ca22  1  0.58452390  0.82515887  0.49670647  1
  Ca2+  Ca23  1  0.57804060  0.82977148  0.82473790  1
  Ca2+  Ca24  1  0.33214656  0.42450725  0.16858296  1
  Ca2+  Ca25  1  0.32750462  0.41643456  0.50970011  1
  Ca2+  Ca26  1  0.32913619  0.41689983  0.83408083  1
  Ca2+  Ca27  1  0.33058417  0.93042472  0.17164908  1
  Ca2+  Ca28  1  0.32658578  0.91921342  0.50644590  1
  Ca2+  Ca29  1  0.32959923  0.91878055  0.83609358  1
  Ca2+  Ca30  1  0.83565675  0.42381038  0.17075529  1
  Ca2+  Ca31  1  0.83463408  0.42135584  0.50360563  1
  Ca2+  Ca32  1  0.83781602  0.41791923  0.83804976  1
  Ca2+  Ca33  1  0.82132997  0.91222563  0.16998267  1
  Ca2+  Ca34  1  0.83193424  0.91908838  0.50815892  1
  Ca2+  Ca35  1  0.83217078  0.92166114  0.83270896  1
  Ca2+  Ca36  1  0.41304817  0.16374338  0.16295487  1
  Ca2+  Ca37  1  0.41548074  0.16966418  0.49947293  1
  Ca2+  Ca38  1  0.42126667  0.16719832  0.82661714  1
  Ca2+  Ca39  1  0.42312027  0.66586653  0.16222672  1
  Ca2+  Ca40  1  0.42622776  0.67198995  0.49865481  1
  Ca2+  Ca41  1  0.42182758  0.67045057  0.82409252  1
  Ca2+  Ca42  1  0.92764512  0.17205346  0.15730929  1
  Ca2+  Ca43  1  0.92630609  0.16397270  0.49951356  1
  Ca2+  Ca44  1  0.92049112  0.17549713  0.82216724  1
  Ca2+  Ca45  1  0.92371488  0.65692906  0.16307461  1
  Ca2+  Ca46  1  0.91941554  0.67096614  0.49486314  1
  Ca2+  Ca47  1  0.91821040  0.67137038  0.83154144  1
  Al0+  Al48  1  -0.00030575  -0.00227472  -0.00069005  1
  Al0+  Al49  1  0.00072971  -0.00058380  0.32360065  1
  Al0+  Al50  1  -0.00034087  -0.00092469  0.66907809  1
  Al0+  Al51  1  0.00042954  0.49933761  -0.00374914  1
  Al0+  Al52  1  0.00034560  0.50025824  0.33401274  1
  Al0+  Al53  1  0.00006662  0.49854793  0.67031008  1
  Al0+  Al54  1  0.49824688  -0.00107446  0.00777474  1
  Al0+  Al55  1  0.49846081  0.00144539  0.34289859  1
  Al0+  Al56  1  0.49941274  -0.00149834  0.65935259  1
  Al0+  Al57  1  0.49927889  0.49990334  0.00262678  1
  Al0+  Al58  1  0.50019405  0.50112337  0.33216846  1
  Al0+  Al59  1  0.50112067  0.49963184  0.66039057  1
  Al0+  Al60  1  0.25019069  0.25043240  -0.00022290  1
  Al0+  Al61  1  0.25120580  0.25202256  0.33293980  1
  Al0+  Al62  1  0.24994305  0.25104132  0.66680299  1
  Al0+  Al63  1  0.25097769  0.75018179  0.00087377  1
  Al0+  Al64  1  0.25073167  0.75287640  0.32940386  1
  Al0+  Al65  1  0.25169155  0.74999193  0.66693802  1
  Al0+  Al66  1  0.74895138  0.24869910  -0.00210374  1
  Al0+  Al67  1  0.74847813  0.25018000  0.33422642  1
  Al0+  Al68  1  0.75037182  0.25158965  0.66382915  1
  Al0+  Al69  1  0.75050649  0.74787001  0.00750900  1
  Al0+  Al70  1  0.74905620  0.74973707  0.33766680  1
  Al0+  Al71  1  0.75160259  0.74974040  0.66060335  1
  Al0+  Al72  1  0.31795130  0.07313871  0.34994758  1
  Al0+  Al73  1  0.07236130  0.68034772  0.98484323  1
  Al0+  Al74  1  0.42819038  0.32031727  0.65181739  1
  Al0+  Al75  1  0.31809268  0.07026931  0.01241759  1
  Al0+  Al76  1  0.82013483  0.07179681  0.67963910  1
  Al0+  Al77  1  0.57237428  0.17764870  0.65179949  1
  Al0+  Al78  1  0.17839328  0.42838914  0.68187727  1
  Al0+  Al79  1  0.07194319  0.17952040  0.31846642  1
  Al0+  Al80  1  0.06979425  0.17843164  0.65227503  1
  Al0+  Al81  1  0.07334944  0.17720863  0.98281024  1
  Al0+  Al82  1  0.93083304  0.82088160  0.65463303  1
  Al0+  Al83  1  0.57277105  0.67916042  0.65226075  1
  Al0+  Al84  1  0.92741747  0.31992203  0.98456275  1
  Al0+  Al85  1  0.67958270  0.92936217  0.35062927  1
  Al0+  Al86  1  0.92813545  0.32387597  0.64934698  1
  Al0+  Al87  1  0.32186780  0.57240495  0.01357347  1
  Al0+  Al88  1  0.67958724  0.93039235  0.01205445  1
  Al0+  Al89  1  0.82118011  0.56866193  0.01276468  1
  Al0+  Al90  1  0.82330216  0.56963515  0.35164838  1
  Al0+  Al91  1  0.07102675  0.67853328  0.32118383  1
  Al0+  Al92  1  0.42603934  0.82180092  0.65143550  1
  Al0+  Al93  1  0.17879379  0.92828065  0.67986969  1
  Al0+  Al94  1  0.57005406  0.68009195  0.31619785  1
  Al0+  Al95  1  0.67733947  0.42795176  0.35037681  1
  Si0+  Si96  1  0.92715559  0.32150687  0.31691089  1
  Si0+  Si97  1  0.67624734  0.42598172  0.01445359  1
  Si0+  Si98  1  0.17731194  0.92751994  0.34843702  1
  Si0+  Si99  1  0.57059735  0.17810041  0.31748232  1
  Si0+  Si100  1  0.82090992  0.57221612  0.68287303  1
  Si0+  Si101  1  0.32263759  0.07169518  0.68322472  1
  Si0+  Si102  1  0.42913905  0.32104052  0.31605529  1
  Si0+  Si103  1  0.57154252  0.67895167  0.98745788  1
  Si0+  Si104  1  0.43071740  0.82188799  0.98728319  1
  Si0+  Si105  1  0.67785738  0.92672894  0.68216139  1
  Si0+  Si106  1  0.82383348  0.07150460  0.34742405  1
  Si0+  Si107  1  0.92487550  0.82014742  0.98413286  1
  Si0+  Si108  1  0.67822414  0.42995297  0.68214268  1
  Si0+  Si109  1  0.56842979  0.17617035  0.98844877  1
  Si0+  Si110  1  0.07234453  0.67744355  0.65284365  1
  Si0+  Si111  1  0.43025819  0.32264608  0.98624853  1
  Si0+  Si112  1  0.17944177  0.42962675  0.01765860  1
  Si0+  Si113  1  0.32131941  0.57390336  0.34801846  1
  Si0+  Si114  1  0.82270074  0.07364423  0.01649849  1
  Si0+  Si115  1  0.42860133  0.82426555  0.31394302  1
  Si0+  Si116  1  0.17570930  0.92592205  0.01774816  1
  Si0+  Si117  1  0.32346443  0.57100150  0.68185312  1
  Si0+  Si118  1  0.18090491  0.43110502  0.34707829  1
  Si0+  Si119  1  0.92689697  0.82194154  0.31506817  1
  O2-  O120  1  0.23833435  0.00117124  0.06058292  1
  O2-  O121  1  0.24117413  -0.00020875  0.39361124  1
  O2-  O122  1  0.25467348  0.00211481  0.72708190  1
  O2-  O123  1  0.24590914  0.50031107  0.06307268  1
  O2-  O124  1  0.24713591  0.50662737  0.38971911  1
  O2-  O125  1  0.25380894  0.50389034  0.72700387  1
  O2-  O126  1  0.75517999  0.00376620  0.06070138  1
  O2-  O127  1  0.75646699  0.00298255  0.39384877  1
  O2-  O128  1  0.74235306  -0.00090264  0.72667694  1
  O2-  O129  1  0.74804771  0.49136259  0.05779882  1
  O2-  O130  1  0.75019454  0.49840310  0.40132847  1
  O2-  O131  1  0.74955011  0.50068615  0.72450828  1
  O2-  O132  1  -0.00647353  0.25065380  0.27254077  1
  O2-  O133  1  -0.00114892  0.25047206  0.60027543  1
  O2-  O134  1  -0.00389370  0.24453650  0.93513805  1
  O2-  O135  1  -0.00516193  0.75117377  0.27283320  1
  O2-  O136  1  0.00660861  0.74766531  0.60750022  1
  O2-  O137  1  -0.00140233  0.75666553  0.93987590  1
  O2-  O138  1  0.50124824  0.25061872  0.27373847  1
  O2-  O139  1  0.49856852  0.24750116  0.60081267  1
  O2-  O140  1  0.50204274  0.25148896  0.94620934  1
  O2-  O141  1  0.49730358  0.75636617  0.26773802  1
  O2-  O142  1  0.50085869  0.75199307  0.60310453  1
  O2-  O143  1  0.49967189  0.74862392  0.94504418  1
  O2-  O144  1  0.07401301  0.18311911  0.09694891  1
  O2-  O145  1  0.07262623  0.18026094  0.43101013  1
  O2-  O146  1  0.06850698  0.17902923  0.76553678  1
  O2-  O147  1  0.07158111  0.68123327  0.09826399  1
  O2-  O148  1  0.07149117  0.67976286  0.43417770  1
  O2-  O149  1  0.07080386  0.67825272  0.75863318  1
  O2-  O150  1  0.56658639  0.17581310  0.09384705  1
  O2-  O151  1  0.56995997  0.17896033  0.42197776  1
  O2-  O152  1  0.57041713  0.17912162  0.76665549  1
  O2-  O153  1  0.57064000  0.67955617  0.09244014  1
  O2-  O154  1  0.56637423  0.68009569  0.42873045  1
  O2-  O155  1  0.57269968  0.67959510  0.76703775  1
  O2-  O156  1  0.18372654  0.43024715  0.24168924  1
  O2-  O157  1  0.17917759  0.43134313  0.56795941  1
  O2-  O158  1  0.18266627  0.42970587  0.91233432  1
  O2-  O159  1  0.18081183  0.92469256  0.24281390  1
  O2-  O160  1  0.17889317  0.92870602  0.56658509  1
  O2-  O161  1  0.17960632  0.92215841  0.91236114  1
  O2-  O162  1  0.67808714  0.42888303  0.23599593  1
  O2-  O163  1  0.67692896  0.43107601  0.57751202  1
  O2-  O164  1  0.67153195  0.42833092  0.90900067  1
  O2-  O165  1  0.67964849  0.93109929  0.23673961  1
  O2-  O166  1  0.68173721  0.92609089  0.57678207  1
  O2-  O167  1  0.67741136  0.93186151  0.89919393  1
  O2-  O168  1  0.43096448  0.32424584  0.09173118  1
  O2-  O169  1  0.42653695  0.32024494  0.42052133  1
  O2-  O170  1  0.43089917  0.32100709  0.76620064  1
  O2-  O171  1  0.43261871  0.82277494  0.09235793  1
  O2-  O172  1  0.42660303  0.82072141  0.41905579  1
  O2-  O173  1  0.42766660  0.82047006  0.76614821  1
  O2-  O174  1  0.92876261  0.31956739  0.09878643  1
  O2-  O175  1  0.92913717  0.32208654  0.42202970  1
  O2-  O176  1  0.92903636  0.32406180  0.76284412  1
  O2-  O177  1  0.92316591  0.81783467  0.08973346  1
  O2-  O178  1  0.92979493  0.82548958  0.42057433  1
  O2-  O179  1  0.92854251  0.81763279  0.76790181  1
  O2-  O180  1  0.31809939  0.07288101  0.23625660  1
  O2-  O181  1  0.32010932  0.07231334  0.57765986  1
  O2-  O182  1  0.32449713  0.06644453  0.90006211  1
  O2-  O183  1  0.32162466  0.57114587  0.24247535  1
  O2-  O184  1  0.32171406  0.57037092  0.57594191  1
  O2-  O185  1  0.32509527  0.56953295  0.90087382  1
  O2-  O186  1  0.82090956  0.07057320  0.24148407  1
  O2-  O187  1  0.82071850  0.06811627  0.56627540  1
  O2-  O188  1  0.81964372  0.07440398  0.91111449  1
  O2-  O189  1  0.82487390  0.56611845  0.23760934  1
  O2-  O190  1  0.82222895  0.57226902  0.57821719  1
  O2-  O191  1  0.81652321  0.57285407  0.89958603  1
  O2-  O192  1  0.04713511  0.08218080  0.26194748  1
  O2-  O193  1  0.04074428  0.08032213  0.59996966  1
  O2-  O194  1  0.05286374  0.07411152  0.93693532  1
  O2-  O195  1  0.04309408  0.58116062  0.26600503  1
  O2-  O196  1  0.04364310  0.58496319  0.60740884  1
  O2-  O197  1  0.04266668  0.58362077  0.93177499  1
  O2-  O198  1  0.53903899  0.08630911  0.27174069  1
  O2-  O199  1  0.54896513  0.07896810  0.59830873  1
  O2-  O200  1  0.53532570  0.08643005  0.94086299  1
  O2-  O201  1  0.53722883  0.58354427  0.26235748  1
  O2-  O202  1  0.54400170  0.58229007  0.59754881  1
  O2-  O203  1  0.54427818  0.58648491  0.94081529  1
  O2-  O204  1  0.16721114  0.21709408  0.26509204  1
  O2-  O205  1  0.16860964  0.20722682  0.60121768  1
  O2-  O206  1  0.17133490  0.20899499  0.93097496  1
  O2-  O207  1  0.16742471  0.71048353  0.26538669  1
  O2-  O208  1  0.16735119  0.69795152  0.60856804  1
  O2-  O209  1  0.17019975  0.70951317  0.93192948  1
  O2-  O210  1  0.66303459  0.20318404  0.26884835  1
  O2-  O211  1  0.66850320  0.20904589  0.59747287  1
  O2-  O212  1  0.66185257  0.19780824  0.94180955  1
  O2-  O213  1  0.66873982  0.70988943  0.26545655  1
  O2-  O214  1  0.66949255  0.70702591  0.59677166  1
  O2-  O215  1  0.66326850  0.70767960  0.94118368  1
  O2-  O216  1  0.08531260  0.45387792  0.06234343  1
  O2-  O217  1  0.08832946  0.45449674  0.39394393  1
  O2-  O218  1  0.08314145  0.46029036  0.73812535  1
  O2-  O219  1  0.07908809  0.94189417  0.06180241  1
  O2-  O220  1  0.08055863  0.94882075  0.38920111  1
  O2-  O221  1  0.08341491  0.95754272  0.73651097  1
  O2-  O222  1  0.58437085  0.45366353  0.06344326  1
  O2-  O223  1  0.57816564  0.45779165  0.40121986  1
  O2-  O224  1  0.58598519  0.45832256  0.72978892  1
  O2-  O225  1  0.58536868  0.96254832  0.07084773  1
  O2-  O226  1  0.58389336  0.96072734  0.40455944  1
  O2-  O227  1  0.58138404  0.94769046  0.72451241  1
  O2-  O228  1  0.20917662  0.33744987  0.06466785  1
  O2-  O229  1  0.21473613  0.34210992  0.39545927  1
  O2-  O230  1  0.21123246  0.33298218  0.73701176  1
  O2-  O231  1  0.20895093  0.83570018  0.06650083  1
  O2-  O232  1  0.20676456  0.83544197  0.39610179  1
  O2-  O233  1  0.20960834  0.83111773  0.73470592  1
  O2-  O234  1  0.69693805  0.33045573  0.05966138  1
  O2-  O235  1  0.70122074  0.32733655  0.40097585  1
  O2-  O236  1  0.70430751  0.33797267  0.72995523  1
  O2-  O237  1  0.71024122  0.83463700  0.06872093  1
  O2-  O238  1  0.70814523  0.83268596  0.40386130  1
  O2-  O239  1  0.70787695  0.83396826  0.72812306  1
  O2-  O240  1  0.45650464  0.41305655  0.26806904  1
  O2-  O241  1  0.45652043  0.41754202  0.59714401  1
  O2-  O242  1  0.45817332  0.41385619  0.93748877  1
  O2-  O243  1  0.45522805  0.91963598  0.27191024  1
  O2-  O244  1  0.44897776  0.91989699  0.59680785  1
  O2-  O245  1  0.46166775  0.91250178  0.93960613  1
  O2-  O246  1  0.95710095  0.41393028  0.27066712  1
  O2-  O247  1  0.95929244  0.42215659  0.59773385  1
  O2-  O248  1  0.95741918  0.41735478  0.93146141  1
  O2-  O249  1  0.95251964  0.91345264  0.26377864  1
  O2-  O250  1  0.96119636  0.91600166  0.59903421  1
  O2-  O251  1  0.94378316  0.91627870  0.94072146  1
  O2-  O252  1  0.33870615  0.29205506  0.26619181  1
  O2-  O253  1  0.33022767  0.29381026  0.59819838  1
  O2-  O254  1  0.33875669  0.29501017  0.93955967  1
  O2-  O255  1  0.33540253  0.79903841  0.26611596  1
  O2-  O256  1  0.32945155  0.79065918  0.59576295  1
  O2-  O257  1  0.33847207  0.79626918  0.94049953  1
  O2-  O258  1  0.83207081  0.29918868  0.27165581  1
  O2-  O259  1  0.82892361  0.29971076  0.59802651  1
  O2-  O260  1  0.82654550  0.29624242  0.93250841  1
  O2-  O261  1  0.83245349  0.79674769  0.27160722  1
  O2-  O262  1  0.83655278  0.78968881  0.59742125  1
  O2-  O263  1  0.83317322  0.78832879  0.93748423  1
  O2-  O264  1  0.41157194  0.03547680  0.07164569  1
  O2-  O265  1  0.41349201  0.04309746  0.40485237  1
  O2-  O266  1  0.41775947  0.04611737  0.72711233  1
  O2-  O267  1  0.41699815  0.53831720  0.07038509  1
  O2-  O268  1  0.41131612  0.54200823  0.39510455  1
  O2-  O269  1  0.41735352  0.54383881  0.72718310  1
  O2-  O270  1  0.91732967  0.04947909  0.06156148  1
  O2-  O271  1  0.91904453  0.04569760  0.38995175  1
  O2-  O272  1  0.91388209  0.03710633  0.73615016  1
  O2-  O273  1  0.91877145  0.53891077  0.06577115  1
  O2-  O274  1  0.92205003  0.54144020  0.40463584  1
  O2-  O275  1  0.91228693  0.54484377  0.73140129  1
  O2-  O276  1  0.29319027  0.16902478  0.06692714  1
  O2-  O277  1  0.28926648  0.17093961  0.40221822  1
  O2-  O278  1  0.29800059  0.16534671  0.72946069  1
  O2-  O279  1  0.29438776  0.66941846  0.06870373  1
  O2-  O280  1  0.29753198  0.66780904  0.39226780  1
  O2-  O281  1  0.30059053  0.66503988  0.72811995  1
  O2-  O282  1  0.79578467  0.16660150  0.06377931  1
  O2-  O283  1  0.79855363  0.16522624  0.39246565  1
  O2-  O284  1  0.79000259  0.16927624  0.73321914  1
  O2-  O285  1  0.78897886  0.66249079  0.07115208  1
  O2-  O286  1  0.79600478  0.66892537  0.40172182  1
  O2-  O287  1  0.79126188  0.66405728  0.72979433  1
