# generated using pymatgen
data_Ca2Al2SiO7
_symmetry_space_group_name_H-M   'P 1'
_cell_length_a   15.45454626
_cell_length_b   15.45452882
_cell_length_c   15.28142129
_cell_angle_alpha   90.00446203
_cell_angle_beta   90.00657341
_cell_angle_gamma   89.99308443
_symmetry_Int_Tables_number   1
_chemical_formula_structural   Ca2Al2SiO7
_chemical_formula_sum   'Ca48 Al48 Si24 O168'
_cell_volume   3649.85632620
_cell_formula_units_Z   24
loop_
 _symmetry_equiv_pos_site_id
 _symmetry_equiv_pos_as_xyz
  1  'x, y, z'
loop_
 _atom_type_symbol
 _atom_type_oxidation_number
  Ca2+  2.0
  Al0+  0.0
  Si0+  0.0
  O2-  -2.0
loop_
 _atom_site_type_symbol
 _atom_site_label
 _atom_site_symmetry_multiplicity
 _atom_site_fract_x
 _atom_site_fract_y
 _atom_site_fract_z
 _atom_site_occupancy
  Ca2+  Ca0  1  0.16528910  0.07529963  0.17435217  1
  Ca2+  Ca1  1  0.16725156  0.08481566  0.49937419  1
  Ca2+  Ca2  1  0.16195620  0.07846244  0.84091953  1
  Ca2+  Ca3  1  0.16797215  0.58592566  0.17220633  1
  Ca2+  Ca4  1  0.16421810  0.57949275  0.49905054  1
  Ca2+  Ca5  1  0.17856694  0.59355035  0.84020650  1
  Ca2+  Ca6  1  0.66241886  0.08048256  0.16611167  1
  Ca2+  Ca7  1  0.67206851  0.07621149  0.50580271  1
  Ca2+  Ca8  1  0.66480176  0.07222686  0.84239080  1
  Ca2+  Ca9  1  0.67030341  0.57432604  0.17188337  1
  Ca2+  Ca10  1  0.67185702  0.58079206  0.49870904  1
  Ca2+  Ca11  1  0.66685890  0.57968278  0.84569081  1
  Ca2+  Ca12  1  0.07779739  0.32956738  0.16199153  1
  Ca2+  Ca13  1  0.08367758  0.32506664  0.48708198  1
  Ca2+  Ca14  1  0.08273798  0.32225522  0.83233654  1
  Ca2+  Ca15  1  0.09206897  0.82601245  0.16220615  1
  Ca2+  Ca16  1  0.08064689  0.82820764  0.49268840  1
  Ca2+  Ca17  1  0.08183848  0.83154590  0.83333036  1
  Ca2+  Ca18  1  0.58945047  0.33050701  0.15834075  1
  Ca2+  Ca19  1  0.58241474  0.33428037  0.49407966  1
  Ca2+  Ca20  1  0.58844041  0.32910508  0.83720211  1
  Ca2+  Ca21  1  0.57120976  0.82996758  0.15668164  1
  Ca2+  Ca22  1  0.57208760  0.83794785  0.49636322  1
  Ca2+  Ca23  1  0.57489079  0.83552576  0.82970404  1
  Ca2+  Ca24  1  0.32737962  0.42502858  0.17136448  1
  Ca2+  Ca25  1  0.32416693  0.42269649  0.50469301  1
  Ca2+  Ca26  1  0.33420698  0.43189996  0.83954994  1
  Ca2+  Ca27  1  0.32587880  0.91612527  0.17213172  1
  Ca2+  Ca28  1  0.33028044  0.91514112  0.49709509  1
  Ca2+  Ca29  1  0.32915675  0.91132796  0.84158965  1
  Ca2+  Ca30  1  0.82925191  0.41390074  0.17451743  1
  Ca2+  Ca31  1  0.83733688  0.41916676  0.49395534  1
  Ca2+  Ca32  1  0.83002035  0.41522456  0.84238794  1
  Ca2+  Ca33  1  0.82542703  0.91496725  0.16773221  1
  Ca2+  Ca34  1  0.82852702  0.91300787  0.51013214  1
  Ca2+  Ca35  1  0.82296928  0.91037308  0.83783077  1
  Ca2+  Ca36  1  0.41839568  0.16649245  0.16310015  1
  Ca2+  Ca37  1  0.41748567  0.16404501  0.49296610  1
  Ca2+  Ca38  1  0.42339240  0.16469830  0.83438844  1
  Ca2+  Ca39  1  0.41681811  0.67630175  0.15686561  1
  Ca2+  Ca40  1  0.41004070  0.67711117  0.49734643  1
  Ca2+  Ca41  1  0.41577784  0.67394631  0.83337891  1
  Ca2+  Ca42  1  0.92558271  0.17705242  0.16105954  1
  Ca2+  Ca43  1  0.93075059  0.17038708  0.49106964  1
  Ca2+  Ca44  1  0.92612476  0.16788428  0.83377985  1
  Ca2+  Ca45  1  0.92863942  0.65729713  0.16591328  1
  Ca2+  Ca46  1  0.91714262  0.67122449  0.49227846  1
  Ca2+  Ca47  1  0.92306267  0.67152292  0.83158353  1
  Al0+  Al48  1  -0.00115925  -0.00002009  0.00210652  1
  Al0+  Al49  1  -0.00128847  -0.00147772  0.33351653  1
  Al0+  Al50  1  -0.00003452  0.00073254  0.65865197  1
  Al0+  Al51  1  0.00138599  0.50053590  -0.01229150  1
  Al0+  Al52  1  -0.00076846  0.50115790  0.33558627  1
  Al0+  Al53  1  -0.00060483  0.49747336  0.66971571  1
  Al0+  Al54  1  0.49909078  0.00142042  -0.00339719  1
  Al0+  Al55  1  0.49842951  0.00023345  0.33258525  1
  Al0+  Al56  1  0.49981762  -0.00069145  0.66561061  1
  Al0+  Al57  1  0.50037753  0.50166711  0.00644871  1
  Al0+  Al58  1  0.50098131  0.50018602  0.33863268  1
  Al0+  Al59  1  0.50006591  0.49957258  0.67017993  1
  Al0+  Al60  1  0.25045395  0.25157622  -0.00534280  1
  Al0+  Al61  1  0.25290100  0.24977454  0.33597517  1
  Al0+  Al62  1  0.25141030  0.24973515  0.66519176  1
  Al0+  Al63  1  0.25010519  0.75140283  0.00053903  1
  Al0+  Al64  1  0.24932728  0.75295924  0.33089688  1
  Al0+  Al65  1  0.25082086  0.75039853  0.66555888  1
  Al0+  Al66  1  0.75014028  0.24961546  -0.00544943  1
  Al0+  Al67  1  0.74952520  0.24809647  0.33642706  1
  Al0+  Al68  1  0.75176836  0.24952234  0.66588585  1
  Al0+  Al69  1  0.74947099  0.74881745  0.00471954  1
  Al0+  Al70  1  0.74805541  0.74863514  0.33708751  1
  Al0+  Al71  1  0.74931299  0.74787962  0.66795669  1
  Al0+  Al72  1  0.07187882  0.18000247  0.65026728  1
  Al0+  Al73  1  0.82145264  0.57106907  0.34864200  1
  Al0+  Al74  1  0.57210097  0.67774741  0.98678253  1
  Al0+  Al75  1  0.31972183  0.57166615  0.01550267  1
  Al0+  Al76  1  0.67704913  0.92807102  0.01482706  1
  Al0+  Al77  1  0.31895683  0.57140090  0.68060929  1
  Al0+  Al78  1  0.06871595  0.68103924  0.32121831  1
  Al0+  Al79  1  0.07269519  0.17692248  0.98549329  1
  Al0+  Al80  1  0.67836168  0.42612787  0.35025723  1
  Al0+  Al81  1  0.57006297  0.17999760  0.98665946  1
  Al0+  Al82  1  0.42941363  0.82075075  0.65043658  1
  Al0+  Al83  1  0.07144179  0.68035892  0.98578552  1
  Al0+  Al84  1  0.07476404  0.17754963  0.31623257  1
  Al0+  Al85  1  0.92811142  0.81845668  0.65441694  1
  Al0+  Al86  1  0.92886630  0.32153499  0.98350473  1
  Al0+  Al87  1  0.42947084  0.82089440  0.98407809  1
  Al0+  Al88  1  0.68146882  0.42888004  0.01298883  1
  Al0+  Al89  1  0.32153427  0.07047600  0.34819315  1
  Al0+  Al90  1  0.17830317  0.93100488  0.01243866  1
  Al0+  Al91  1  0.67910878  0.92943665  0.68071190  1
  Al0+  Al92  1  0.17939143  0.42985020  0.34437800  1
  Al0+  Al93  1  0.43058147  0.82069216  0.31812970  1
  Al0+  Al94  1  0.92927026  0.32031343  0.31896608  1
  Al0+  Al95  1  0.17716073  0.92807032  0.35038483  1
  Si0+  Si96  1  0.82545467  0.57233119  0.01543687  1
  Si0+  Si97  1  0.17866181  0.93065715  0.68061697  1
  Si0+  Si98  1  0.57043107  0.17979944  0.32007567  1
  Si0+  Si99  1  0.82036178  0.07021141  0.34846392  1
  Si0+  Si100  1  0.92679197  0.32264345  0.64714288  1
  Si0+  Si101  1  0.42732761  0.32448033  0.98370721  1
  Si0+  Si102  1  0.92611514  0.82283678  0.98581029  1
  Si0+  Si103  1  0.82329618  0.07191491  0.68354074  1
  Si0+  Si104  1  0.57211069  0.67504076  0.64924127  1
  Si0+  Si105  1  0.67816883  0.92939696  0.34817247  1
  Si0+  Si106  1  0.57123718  0.17910890  0.65108040  1
  Si0+  Si107  1  0.42958646  0.32368502  0.31998673  1
  Si0+  Si108  1  0.32210065  0.57373261  0.34985467  1
  Si0+  Si109  1  0.17780898  0.42590133  0.68507735  1
  Si0+  Si110  1  0.07241784  0.67774795  0.65037611  1
  Si0+  Si111  1  0.92330096  0.82282510  0.31631050  1
  Si0+  Si112  1  0.82054440  0.07148525  0.01706736  1
  Si0+  Si113  1  0.57275515  0.67647009  0.31719405  1
  Si0+  Si114  1  0.17758102  0.42754367  0.01423299  1
  Si0+  Si115  1  0.43125247  0.32192097  0.65196256  1
  Si0+  Si116  1  0.67922936  0.42782346  0.68345837  1
  Si0+  Si117  1  0.82148745  0.57050349  0.68403143  1
  Si0+  Si118  1  0.32173582  0.07236140  0.68296102  1
  Si0+  Si119  1  0.32191534  0.07493429  0.01422662  1
  O2-  O120  1  0.25039881  0.00924715  0.05723290  1
  O2-  O121  1  0.24681918  0.00265492  0.40071261  1
  O2-  O122  1  0.24960742  0.00193963  0.72369500  1
  O2-  O123  1  0.24433521  0.49680246  0.06026781  1
  O2-  O124  1  0.25382774  0.50431175  0.39353409  1
  O2-  O125  1  0.24205223  0.49905294  0.72855718  1
  O2-  O126  1  0.75206698  0.00248295  0.06216922  1
  O2-  O127  1  0.75352946  -0.00491952  0.39136311  1
  O2-  O128  1  0.75522683  0.00279869  0.72809164  1
  O2-  O129  1  0.75719055  0.50263459  0.05850099  1
  O2-  O130  1  0.74976743  0.49866962  0.40016522  1
  O2-  O131  1  0.75116080  0.49799760  0.72489936  1
  O2-  O132  1  0.00349286  0.25128662  0.26849029  1
  O2-  O133  1  -0.00121025  0.25690812  0.60474965  1
  O2-  O134  1  0.00221271  0.25001580  0.93466771  1
  O2-  O135  1  -0.00592980  0.75592908  0.27354927  1
  O2-  O136  1  0.00137264  0.74353199  0.60604717  1
  O2-  O137  1  -0.00486574  0.75464934  0.94111858  1
  O2-  O138  1  0.50282429  0.25431908  0.27872550  1
  O2-  O139  1  0.50144342  0.25059579  0.60805889  1
  O2-  O140  1  0.49564696  0.25497416  0.93919807  1
  O2-  O141  1  0.50269375  0.74319169  0.27327714  1
  O2-  O142  1  0.50443967  0.74498907  0.60491708  1
  O2-  O143  1  0.50391037  0.75133685  0.93362970  1
  O2-  O144  1  0.07196638  0.17735270  0.09831757  1
  O2-  O145  1  0.07225227  0.17993291  0.43035102  1
  O2-  O146  1  0.07046931  0.17942519  0.76322595  1
  O2-  O147  1  0.07068225  0.67901923  0.09866556  1
  O2-  O148  1  0.06734124  0.68198799  0.43491281  1
  O2-  O149  1  0.07286884  0.68127047  0.75598109  1
  O2-  O150  1  0.56906071  0.18067542  0.10002623  1
  O2-  O151  1  0.56956158  0.17859385  0.42577961  1
  O2-  O152  1  0.57056015  0.17984745  0.75591884  1
  O2-  O153  1  0.57021597  0.67825495  0.10031663  1
  O2-  O154  1  0.57341851  0.67822484  0.42329057  1
  O2-  O155  1  0.57196582  0.67357012  0.75444177  1
  O2-  O156  1  0.18198192  0.43101547  0.23138775  1
  O2-  O157  1  0.17961597  0.42491744  0.57930239  1
  O2-  O158  1  0.18179177  0.42671350  0.90835428  1
  O2-  O159  1  0.18021151  0.92695154  0.23700672  1
  O2-  O160  1  0.17971811  0.93017292  0.57592076  1
  O2-  O161  1  0.17863871  0.93108762  0.89827040  1
  O2-  O162  1  0.67801466  0.42496466  0.23715993  1
  O2-  O163  1  0.67783417  0.42724114  0.57870040  1
  O2-  O164  1  0.68258675  0.42959180  0.89905408  1
  O2-  O165  1  0.67750662  0.93161764  0.24322688  1
  O2-  O166  1  0.67949930  0.93338881  0.56699314  1
  O2-  O167  1  0.67863400  0.92966652  0.90149420  1
  O2-  O168  1  0.42573549  0.32284817  0.08938435  1
  O2-  O169  1  0.43086245  0.32334243  0.42564196  1
  O2-  O170  1  0.43283440  0.32172101  0.75687901  1
  O2-  O171  1  0.42971516  0.82022635  0.09749129  1
  O2-  O172  1  0.43281337  0.82067515  0.43187983  1
  O2-  O173  1  0.42879531  0.82197051  0.76284174  1
  O2-  O174  1  0.92833018  0.32103172  0.09677613  1
  O2-  O175  1  0.92996423  0.31630068  0.43305798  1
  O2-  O176  1  0.92394243  0.32162484  0.75242271  1
  O2-  O177  1  0.92541924  0.82319716  0.09122350  1
  O2-  O178  1  0.92130997  0.82119358  0.42236632  1
  O2-  O179  1  0.92848381  0.81701509  0.76747276  1
  O2-  O180  1  0.32686620  0.06877715  0.23506871  1
  O2-  O181  1  0.32336944  0.07367876  0.57826080  1
  O2-  O182  1  0.32256634  0.07409832  0.90799106  1
  O2-  O183  1  0.32297317  0.57181757  0.24448997  1
  O2-  O184  1  0.31791869  0.56846350  0.56736789  1
  O2-  O185  1  0.31911846  0.57081358  0.90191485  1
  O2-  O186  1  0.81658188  0.07170134  0.24360291  1
  O2-  O187  1  0.81974865  0.07244743  0.57759981  1
  O2-  O188  1  0.81997226  0.06964046  0.91115695  1
  O2-  O189  1  0.81988933  0.57125377  0.23540622  1
  O2-  O190  1  0.82183429  0.57103595  0.57928515  1
  O2-  O191  1  0.82362700  0.57268110  0.90919810  1
  O2-  O192  1  0.04322148  0.07829995  0.26751559  1
  O2-  O193  1  0.04006091  0.08487315  0.59418380  1
  O2-  O194  1  0.03990088  0.07938920  0.93191960  1
  O2-  O195  1  0.03868339  0.58467620  0.26718541  1
  O2-  O196  1  0.04909210  0.58112723  0.60944502  1
  O2-  O197  1  0.04452701  0.58577057  0.92570688  1
  O2-  O198  1  0.53979352  0.08971816  0.27141447  1
  O2-  O199  1  0.54197156  0.08841007  0.60252757  1
  O2-  O200  1  0.53798564  0.08566200  0.92886592  1
  O2-  O201  1  0.54969889  0.58095859  0.27427630  1
  O2-  O202  1  0.54555332  0.58123268  0.60322776  1
  O2-  O203  1  0.54213252  0.57925448  0.93430583  1
  O2-  O204  1  0.17524339  0.20363371  0.26768746  1
  O2-  O205  1  0.17031707  0.20918375  0.59848193  1
  O2-  O206  1  0.17103810  0.20417923  0.93011105  1
  O2-  O207  1  0.16524939  0.71077067  0.26706817  1
  O2-  O208  1  0.16461628  0.70516564  0.60334557  1
  O2-  O209  1  0.16553435  0.71602312  0.93068841  1
  O2-  O210  1  0.66278836  0.20384128  0.27302783  1
  O2-  O211  1  0.66406688  0.20570736  0.60431944  1
  O2-  O212  1  0.66485159  0.20975736  0.92883260  1
  O2-  O213  1  0.66612217  0.70288141  0.27184358  1
  O2-  O214  1  0.66626130  0.69962268  0.60396866  1
  O2-  O215  1  0.67302538  0.70137629  0.93617381  1
  O2-  O216  1  0.08211933  0.45260308  0.05498615  1
  O2-  O217  1  0.08457678  0.46041936  0.40169665  1
  O2-  O218  1  0.08184895  0.44491492  0.72908761  1
  O2-  O219  1  0.08052530  0.95601091  0.06700984  1
  O2-  O220  1  0.07601711  0.95073217  0.40139013  1
  O2-  O221  1  0.08592381  0.95901762  0.72589148  1
  O2-  O222  1  0.58487274  0.45656546  0.06817444  1
  O2-  O223  1  0.58018803  0.45534692  0.40569635  1
  O2-  O224  1  0.58742331  0.45445858  0.73125370  1
  O2-  O225  1  0.58111897  0.96341190  0.06724737  1
  O2-  O226  1  0.58908471  0.96391773  0.39655708  1
  O2-  O227  1  0.58321490  0.96395548  0.73374752  1
  O2-  O228  1  0.20426052  0.33399572  0.06000659  1
  O2-  O229  1  0.21307206  0.33521709  0.40096819  1
  O2-  O230  1  0.20991283  0.33410623  0.73142930  1
  O2-  O231  1  0.21276178  0.83642485  0.06681142  1
  O2-  O232  1  0.21026476  0.83098767  0.40460273  1
  O2-  O233  1  0.20656458  0.83845237  0.72721521  1
  O2-  O234  1  0.71031641  0.33052467  0.06439164  1
  O2-  O235  1  0.70552145  0.32746615  0.40483587  1
  O2-  O236  1  0.70676052  0.33454341  0.72908786  1
  O2-  O237  1  0.70759760  0.83234534  0.07070917  1
  O2-  O238  1  0.70023140  0.83641885  0.39578621  1
  O2-  O239  1  0.70768931  0.83134154  0.73277584  1
  O2-  O240  1  0.45495427  0.41655870  0.27355558  1
  O2-  O241  1  0.46034783  0.41289790  0.60347216  1
  O2-  O242  1  0.45635223  0.41711071  0.93835289  1
  O2-  O243  1  0.46515050  0.91621344  0.26500421  1
  O2-  O244  1  0.46186547  0.91752469  0.59665085  1
  O2-  O245  1  0.45477236  0.92014581  0.93145647  1
  O2-  O246  1  0.95287718  0.42051309  0.26978250  1
  O2-  O247  1  0.94960505  0.41841176  0.60393194  1
  O2-  O248  1  0.95514961  0.41829312  0.92559055  1
  O2-  O249  1  0.94439933  0.91753188  0.27164640  1
  O2-  O250  1  0.95594677  0.91494343  0.59882472  1
  O2-  O251  1  0.95014697  0.91619405  0.93875820  1
  O2-  O252  1  0.33973983  0.29446845  0.27083515  1
  O2-  O253  1  0.33938606  0.29452790  0.60457217  1
  O2-  O254  1  0.33529697  0.30041154  0.93344665  1
  O2-  O255  1  0.33337410  0.79272683  0.26574740  1
  O2-  O256  1  0.33278022  0.78872220  0.59661732  1
  O2-  O257  1  0.33258084  0.78860291  0.93082549  1
  O2-  O258  1  0.83030232  0.28795500  0.26891854  1
  O2-  O259  1  0.83350536  0.29506165  0.60058181  1
  O2-  O260  1  0.83251830  0.28971362  0.92770154  1
  O2-  O261  1  0.82925461  0.79631797  0.27128882  1
  O2-  O262  1  0.83130697  0.78767254  0.59972836  1
  O2-  O263  1  0.83299627  0.79558046  0.93948736  1
  O2-  O264  1  0.41511838  0.04884139  0.06009316  1
  O2-  O265  1  0.41929621  0.03876083  0.40391961  1
  O2-  O266  1  0.41388965  0.04411216  0.72944506  1
  O2-  O267  1  0.41483151  0.54033020  0.07139384  1
  O2-  O268  1  0.41531308  0.54897171  0.39745465  1
  O2-  O269  1  0.41520135  0.53751695  0.73427316  1
  O2-  O270  1  0.91321088  0.04620050  0.06470348  1
  O2-  O271  1  0.91276282  0.04617271  0.39624660  1
  O2-  O272  1  0.91782265  0.04638827  0.72690393  1
  O2-  O273  1  0.92077186  0.54607962  0.05699883  1
  O2-  O274  1  0.91833278  0.54371269  0.40544806  1
  O2-  O275  1  0.91407996  0.54415886  0.73190263  1
  O2-  O276  1  0.30147097  0.17080226  0.05819572  1
  O2-  O277  1  0.30002192  0.17028744  0.40254413  1
  O2-  O278  1  0.29686001  0.16528984  0.73013063  1
  O2-  O279  1  0.28694630  0.66712900  0.06893940  1
  O2-  O280  1  0.29400964  0.66669114  0.39501367  1
  O2-  O281  1  0.28892620  0.66850098  0.73467012  1
  O2-  O282  1  0.79179734  0.16444880  0.06160165  1
  O2-  O283  1  0.78758931  0.15837156  0.40014600  1
  O2-  O284  1  0.79681729  0.16571865  0.72913776  1
  O2-  O285  1  0.80238029  0.66512403  0.06356223  1
  O2-  O286  1  0.79048261  0.66885167  0.40479536  1
  O2-  O287  1  0.79299370  0.66135373  0.73258708  1
