# generated using pymatgen
data_Ca2Al2SiO7
_symmetry_space_group_name_H-M   'P 1'
_cell_length_a   15.46338235
_cell_length_b   15.46235075
_cell_length_c   15.28624753
_cell_angle_alpha   90.01072738
_cell_angle_beta   90.00788648
_cell_angle_gamma   90.00392313
_symmetry_Int_Tables_number   1
_chemical_formula_structural   Ca2Al2SiO7
_chemical_formula_sum   'Ca48 Al48 Si24 O168'
_cell_volume   3654.94537083
_cell_formula_units_Z   24
loop_
 _symmetry_equiv_pos_site_id
 _symmetry_equiv_pos_as_xyz
  1  'x, y, z'
loop_
 _atom_type_symbol
 _atom_type_oxidation_number
  Ca2+  2.0
  Al0+  0.0
  Si0+  0.0
  O2-  -2.0
loop_
 _atom_site_type_symbol
 _atom_site_label
 _atom_site_symmetry_multiplicity
 _atom_site_fract_x
 _atom_site_fract_y
 _atom_site_fract_z
 _atom_site_occupancy
  Ca2+  Ca0  1  0.18151705  0.08598611  0.17087001  1
  Ca2+  Ca1  1  0.18037845  0.08335663  0.50371377  1
  Ca2+  Ca2  1  0.17944342  0.08467864  0.84003614  1
  Ca2+  Ca3  1  0.16680333  0.57573594  0.16719654  1
  Ca2+  Ca4  1  0.17270921  0.57982731  0.50577801  1
  Ca2+  Ca5  1  0.17014043  0.58664559  0.83903646  1
  Ca2+  Ca6  1  0.65356125  0.07378205  0.16614781  1
  Ca2+  Ca7  1  0.66083344  0.06923456  0.50260652  1
  Ca2+  Ca8  1  0.65870547  0.07371080  0.84134441  1
  Ca2+  Ca9  1  0.65700398  0.57589206  0.16921046  1
  Ca2+  Ca10  1  0.66526604  0.57263885  0.50553239  1
  Ca2+  Ca11  1  0.66768258  0.57382253  0.83976675  1
  Ca2+  Ca12  1  0.07393531  0.34492878  0.16132721  1
  Ca2+  Ca13  1  0.07720056  0.33684516  0.49059826  1
  Ca2+  Ca14  1  0.07941909  0.34053393  0.83621612  1
  Ca2+  Ca15  1  0.08097982  0.82647810  0.15813653  1
  Ca2+  Ca16  1  0.08335424  0.82552289  0.49833800  1
  Ca2+  Ca17  1  0.08545528  0.82054112  0.82877330  1
  Ca2+  Ca18  1  0.57291245  0.33305847  0.15628772  1
  Ca2+  Ca19  1  0.57849834  0.33653288  0.49013235  1
  Ca2+  Ca20  1  0.58663484  0.33021189  0.83288240  1
  Ca2+  Ca21  1  0.58103458  0.82822588  0.16100672  1
  Ca2+  Ca22  1  0.58323672  0.82729262  0.48960277  1
  Ca2+  Ca23  1  0.58415294  0.83394172  0.83562922  1
  Ca2+  Ca24  1  0.32448299  0.40612494  0.17169889  1
  Ca2+  Ca25  1  0.33143039  0.42126680  0.50242644  1
  Ca2+  Ca26  1  0.32833663  0.42276006  0.84201301  1
  Ca2+  Ca27  1  0.34930603  0.92591505  0.16806169  1
  Ca2+  Ca28  1  0.34421641  0.92755613  0.50154705  1
  Ca2+  Ca29  1  0.34129166  0.92699481  0.84099437  1
  Ca2+  Ca30  1  0.82190315  0.40963833  0.16925179  1
  Ca2+  Ca31  1  0.82218893  0.41799993  0.50288454  1
  Ca2+  Ca32  1  0.82517802  0.41909761  0.83822755  1
  Ca2+  Ca33  1  0.81985474  0.91593002  0.17065004  1
  Ca2+  Ca34  1  0.81994539  0.91302239  0.50394820  1
  Ca2+  Ca35  1  0.82117283  0.91540325  0.83879799  1
  Ca2+  Ca36  1  0.41665547  0.17315941  0.16058748  1
  Ca2+  Ca37  1  0.41355423  0.17069590  0.49393186  1
  Ca2+  Ca38  1  0.41562603  0.16888964  0.83753560  1
  Ca2+  Ca39  1  0.42892635  0.67667590  0.16098140  1
  Ca2+  Ca40  1  0.42263481  0.67151437  0.49052630  1
  Ca2+  Ca41  1  0.42013441  0.66845892  0.83178800  1
  Ca2+  Ca42  1  0.91673552  0.17962389  0.16049198  1
  Ca2+  Ca43  1  0.92051187  0.17342101  0.49123772  1
  Ca2+  Ca44  1  0.91213825  0.17592174  0.83190394  1
  Ca2+  Ca45  1  0.92362463  0.66376482  0.16065965  1
  Ca2+  Ca46  1  0.91981139  0.65695086  0.50199458  1
  Ca2+  Ca47  1  0.92701687  0.65726782  0.82873242  1
  Al0+  Al48  1  0.00045305  0.00097716  -0.00034042  1
  Al0+  Al49  1  0.00216794  -0.00109907  0.33300490  1
  Al0+  Al50  1  -0.00018503  -0.00020970  0.66376746  1
  Al0+  Al51  1  0.00053612  0.50054003  -0.00524080  1
  Al0+  Al52  1  0.00011003  0.49850801  0.33356388  1
  Al0+  Al53  1  -0.00096173  0.49854765  0.66245674  1
  Al0+  Al54  1  0.50066206  0.00118775  0.00145929  1
  Al0+  Al55  1  0.50054670  0.00071646  0.34081657  1
  Al0+  Al56  1  0.49992663  0.00133660  0.67381045  1
  Al0+  Al57  1  0.49860680  0.50254016  -0.00305421  1
  Al0+  Al58  1  0.49794105  0.49980149  0.32944066  1
  Al0+  Al59  1  0.49716556  0.49960343  0.67337611  1
  Al0+  Al60  1  0.24843336  0.25062965  0.00415178  1
  Al0+  Al61  1  0.24916977  0.24858965  0.34026988  1
  Al0+  Al62  1  0.25012615  0.24941079  0.66979879  1
  Al0+  Al63  1  0.24995086  0.75183282  -0.00628177  1
  Al0+  Al64  1  0.25011685  0.75142831  0.32837412  1
  Al0+  Al65  1  0.24966485  0.75043689  0.66278966  1
  Al0+  Al66  1  0.75021745  0.25089102  -0.00515282  1
  Al0+  Al67  1  0.75139725  0.24919735  0.33380997  1
  Al0+  Al68  1  0.74876784  0.24723270  0.66527915  1
  Al0+  Al69  1  0.75099962  0.75005153  0.00136367  1
  Al0+  Al70  1  0.75321820  0.74820030  0.33388848  1
  Al0+  Al71  1  0.75092286  0.74856098  0.67376096  1
  Al0+  Al72  1  0.57368421  0.67841150  0.98218908  1
  Al0+  Al73  1  0.07104496  0.67856686  0.64986695  1
  Al0+  Al74  1  0.56972823  0.18098724  0.98549582  1
  Al0+  Al75  1  0.57401575  0.67762174  0.32005776  1
  Al0+  Al76  1  0.06966952  0.68054378  0.98636229  1
  Al0+  Al77  1  0.67803230  0.42897923  0.01455487  1
  Al0+  Al78  1  0.67680608  0.42867748  0.34436083  1
  Al0+  Al79  1  0.92920270  0.32064658  0.98420697  1
  Al0+  Al80  1  0.92936868  0.32029764  0.31909156  1
  Al0+  Al81  1  0.17993773  0.43211253  0.01323941  1
  Al0+  Al82  1  0.31962205  0.57319950  0.67954982  1
  Al0+  Al83  1  0.17875816  0.43054522  0.34770168  1
  Al0+  Al84  1  0.42753742  0.32038292  0.32218086  1
  Al0+  Al85  1  0.68119518  0.92895801  0.34689707  1
  Al0+  Al86  1  0.42465800  0.32230580  0.98453040  1
  Al0+  Al87  1  0.67691028  0.42654211  0.68199411  1
  Al0+  Al88  1  0.31966398  0.07086360  0.68362305  1
  Al0+  Al89  1  0.82201765  0.56866144  0.68182103  1
  Al0+  Al90  1  0.67995437  0.92899367  0.68175920  1
  Al0+  Al91  1  0.43113658  0.82180743  0.98341784  1
  Al0+  Al92  1  0.43012808  0.82358896  0.31966077  1
  Al0+  Al93  1  0.68099764  0.92955607  0.01595258  1
  Al0+  Al94  1  0.31981953  0.06991605  0.01564408  1
  Al0+  Al95  1  0.32013808  0.06887605  0.34832507  1
  Si0+  Si96  1  0.42821241  0.32113216  0.65175714  1
  Si0+  Si97  1  0.07057720  0.67866975  0.31810106  1
  Si0+  Si98  1  0.82429961  0.07158017  0.68214759  1
  Si0+  Si99  1  0.82445611  0.07362564  0.01647176  1
  Si0+  Si100  1  0.32217761  0.57601773  0.01776939  1
  Si0+  Si101  1  0.32077216  0.57443241  0.34780610  1
  Si0+  Si102  1  0.17621343  0.92822383  0.68253606  1
  Si0+  Si103  1  0.56995395  0.17792090  0.65026695  1
  Si0+  Si104  1  0.17812828  0.42833701  0.68244618  1
  Si0+  Si105  1  0.57238599  0.17842951  0.32002907  1
  Si0+  Si106  1  0.17518174  0.92535988  0.35075268  1
  Si0+  Si107  1  0.57140779  0.67780848  0.65276507  1
  Si0+  Si108  1  0.07253239  0.17681025  0.31703852  1
  Si0+  Si109  1  0.92667433  0.82236167  0.64901376  1
  Si0+  Si110  1  0.82355065  0.57083587  0.34899371  1
  Si0+  Si111  1  0.92959758  0.82215797  0.31840455  1
  Si0+  Si112  1  0.07257304  0.17836750  0.65093967  1
  Si0+  Si113  1  0.17662726  0.92686812  0.01592957  1
  Si0+  Si114  1  0.07186781  0.17705025  0.98315555  1
  Si0+  Si115  1  0.43110761  0.82244908  0.65165411  1
  Si0+  Si116  1  0.82547016  0.07151990  0.34951621  1
  Si0+  Si117  1  0.82252391  0.57047316  0.01684853  1
  Si0+  Si118  1  0.92827742  0.31886739  0.64892918  1
  Si0+  Si119  1  0.92767522  0.82451712  0.98339026  1
  O2-  O120  1  0.24545913  -0.00602980  0.06155155  1
  O2-  O121  1  0.24667088  -0.00842607  0.39416294  1
  O2-  O122  1  0.24435812  -0.00412418  0.72823321  1
  O2-  O123  1  0.25779285  0.50270155  0.06157069  1
  O2-  O124  1  0.25369214  0.50469105  0.39386291  1
  O2-  O125  1  0.24359212  0.49968075  0.72594591  1
  O2-  O126  1  0.75628363  0.00509014  0.06131418  1
  O2-  O127  1  0.75644597  0.00349965  0.39427041  1
  O2-  O128  1  0.75695994  0.00254299  0.72658602  1
  O2-  O129  1  0.75065927  0.50610080  0.06181972  1
  O2-  O130  1  0.74981304  0.50588329  0.39054695  1
  O2-  O131  1  0.74852493  0.49896537  0.73174314  1
  O2-  O132  1  0.00363237  0.24474013  0.27266126  1
  O2-  O133  1  0.00060330  0.24804797  0.60782127  1
  O2-  O134  1  0.00214937  0.24372816  0.93734577  1
  O2-  O135  1  0.00104652  0.75149835  0.27658679  1
  O2-  O136  1  -0.00502270  0.75312433  0.60383378  1
  O2-  O137  1  -0.00328036  0.75675552  0.93899719  1
  O2-  O138  1  0.50731778  0.25061878  0.27702631  1
  O2-  O139  1  0.50208042  0.25254332  0.60910706  1
  O2-  O140  1  0.50057290  0.25494611  0.93317831  1
  O2-  O141  1  0.50352975  0.75226482  0.27179135  1
  O2-  O142  1  0.50144038  0.75023824  0.60988505  1
  O2-  O143  1  0.50092903  0.74924467  0.93105730  1
  O2-  O144  1  0.07009609  0.17565454  0.08863495  1
  O2-  O145  1  0.07045064  0.17681328  0.42323396  1
  O2-  O146  1  0.07235982  0.17847412  0.75574827  1
  O2-  O147  1  0.06720505  0.68112045  0.10010219  1
  O2-  O148  1  0.06958911  0.67900182  0.42335208  1
  O2-  O149  1  0.07032218  0.68016830  0.76255449  1
  O2-  O150  1  0.56804086  0.18017625  0.09937160  1
  O2-  O151  1  0.57078421  0.17770138  0.42632052  1
  O2-  O152  1  0.57002699  0.17633806  0.75484159  1
  O2-  O153  1  0.57364776  0.68032228  0.09577319  1
  O2-  O154  1  0.57284076  0.67798900  0.43478741  1
  O2-  O155  1  0.57001910  0.67837295  0.75729914  1
  O2-  O156  1  0.17642011  0.43347446  0.23498220  1
  O2-  O157  1  0.17989571  0.42728695  0.57653561  1
  O2-  O158  1  0.17868577  0.43472276  0.89979213  1
  O2-  O159  1  0.16805496  0.92643586  0.24582786  1
  O2-  O160  1  0.17546115  0.93014951  0.57670530  1
  O2-  O161  1  0.17462839  0.92893309  0.91031960  1
  O2-  O162  1  0.67860709  0.42702378  0.23174668  1
  O2-  O163  1  0.67692226  0.42688335  0.56773471  1
  O2-  O164  1  0.68252229  0.42789257  0.90159044  1
  O2-  O165  1  0.68213253  0.93074551  0.23429018  1
  O2-  O166  1  0.67987607  0.92987002  0.56826310  1
  O2-  O167  1  0.68307720  0.93142152  0.90271445  1
  O2-  O168  1  0.42361306  0.31740798  0.09836137  1
  O2-  O169  1  0.42763746  0.31936121  0.43616246  1
  O2-  O170  1  0.42536631  0.31936984  0.75624791  1
  O2-  O171  1  0.43316779  0.82131264  0.09689895  1
  O2-  O172  1  0.43141573  0.82204921  0.43423566  1
  O2-  O173  1  0.43132399  0.82321906  0.75629155  1
  O2-  O174  1  0.93061233  0.32043589  0.09730225  1
  O2-  O175  1  0.93094340  0.31848072  0.43276811  1
  O2-  O176  1  0.92874097  0.31781169  0.75389457  1
  O2-  O177  1  0.92963905  0.82437477  0.08946678  1
  O2-  O178  1  0.93003390  0.82314644  0.42353063  1
  O2-  O179  1  0.92956070  0.82624099  0.75403338  1
  O2-  O180  1  0.31883339  0.06955893  0.23578096  1
  O2-  O181  1  0.31933933  0.07072362  0.57039204  1
  O2-  O182  1  0.31683255  0.06938763  0.90235511  1
  O2-  O183  1  0.31725500  0.57708621  0.24278701  1
  O2-  O184  1  0.32033275  0.57127216  0.56599272  1
  O2-  O185  1  0.31767651  0.57699878  0.91177548  1
  O2-  O186  1  0.82903144  0.06972253  0.24436211  1
  O2-  O187  1  0.82455062  0.07198685  0.57639555  1
  O2-  O188  1  0.82668541  0.07070736  0.91068312  1
  O2-  O189  1  0.82927789  0.57047822  0.24389504  1
  O2-  O190  1  0.82116489  0.56576496  0.56776955  1
  O2-  O191  1  0.82434034  0.56745896  0.91135932  1
  O2-  O192  1  0.04958262  0.08241884  0.27120232  1
  O2-  O193  1  0.04664208  0.08620150  0.60215651  1
  O2-  O194  1  0.04950218  0.08266802  0.93595640  1
  O2-  O195  1  0.03936318  0.58819306  0.27091622  1
  O2-  O196  1  0.04027168  0.58152180  0.59530376  1
  O2-  O197  1  0.03739019  0.58632320  0.92953249  1
  O2-  O198  1  0.54173780  0.08615574  0.27523608  1
  O2-  O199  1  0.53711435  0.08697327  0.60319176  1
  O2-  O200  1  0.53813768  0.08383081  0.93205790  1
  O2-  O201  1  0.54187877  0.58168250  0.26535188  1
  O2-  O202  1  0.54108668  0.58556646  0.60683830  1
  O2-  O203  1  0.54554088  0.58044242  0.92881094  1
  O2-  O204  1  0.16603431  0.20345199  0.27337282  1
  O2-  O205  1  0.16404045  0.20810206  0.60319772  1
  O2-  O206  1  0.16381500  0.20647025  0.93694549  1
  O2-  O207  1  0.16196497  0.70436943  0.26977118  1
  O2-  O208  1  0.16646445  0.71169745  0.59362150  1
  O2-  O209  1  0.16497421  0.71082932  0.93001276  1
  O2-  O210  1  0.66796504  0.19605784  0.27582278  1
  O2-  O211  1  0.66368971  0.19922837  0.60268919  1
  O2-  O212  1  0.66904943  0.20384650  0.93098432  1
  O2-  O213  1  0.67417748  0.70192561  0.26901367  1
  O2-  O214  1  0.66487661  0.70449421  0.60794540  1
  O2-  O215  1  0.67327763  0.70703197  0.93154020  1
  O2-  O216  1  0.08364156  0.46736311  0.06597142  1
  O2-  O217  1  0.08301540  0.46305496  0.40312860  1
  O2-  O218  1  0.08271631  0.45055869  0.72482681  1
  O2-  O219  1  0.08243857  0.95170315  0.06260574  1
  O2-  O220  1  0.08306765  0.95289475  0.40050187  1
  O2-  O221  1  0.08193504  0.95272395  0.72773131  1
  O2-  O222  1  0.57905177  0.45765464  0.06496719  1
  O2-  O223  1  0.57934734  0.45774454  0.39863741  1
  O2-  O224  1  0.57877144  0.45273216  0.73472760  1
  O2-  O225  1  0.58536234  0.96278085  0.06901070  1
  O2-  O226  1  0.58683523  0.96097055  0.40452453  1
  O2-  O227  1  0.58569765  0.96338659  0.73657655  1
  O2-  O228  1  0.20390155  0.33417650  0.06767403  1
  O2-  O229  1  0.20606178  0.33374887  0.40291819  1
  O2-  O230  1  0.20497810  0.33583216  0.72936901  1
  O2-  O231  1  0.20022068  0.83237812  0.06071428  1
  O2-  O232  1  0.19880007  0.83048842  0.39538760  1
  O2-  O233  1  0.20157374  0.83403718  0.72600390  1
  O2-  O234  1  0.71238370  0.33208990  0.06593046  1
  O2-  O235  1  0.70960513  0.33228371  0.39936771  1
  O2-  O236  1  0.70649984  0.32687875  0.73137341  1
  O2-  O237  1  0.71360653  0.83337904  0.06991242  1
  O2-  O238  1  0.71449824  0.83240623  0.40074397  1
  O2-  O239  1  0.70929724  0.83318530  0.73661169  1
  O2-  O240  1  0.45007082  0.41775373  0.26748903  1
  O2-  O241  1  0.45321983  0.41451621  0.60554904  1
  O2-  O242  1  0.44502335  0.42361282  0.93578727  1
  O2-  O243  1  0.46033985  0.92256322  0.27005886  1
  O2-  O244  1  0.46145721  0.91478035  0.60602728  1
  O2-  O245  1  0.46221226  0.91955126  0.93134644  1
  O2-  O246  1  0.96224938  0.41618077  0.26562598  1
  O2-  O247  1  0.95613565  0.40984746  0.60050909  1
  O2-  O248  1  0.96391803  0.41476900  0.92849830  1
  O2-  O249  1  0.95683046  0.91370434  0.27008673  1
  O2-  O250  1  0.95223266  0.91581948  0.60053000  1
  O2-  O251  1  0.95136049  0.91868964  0.93707342  1
  O2-  O252  1  0.33121733  0.28506706  0.27080823  1
  O2-  O253  1  0.33659959  0.28996653  0.60439445  1
  O2-  O254  1  0.32708478  0.28955058  0.93164339  1
  O2-  O255  1  0.33039105  0.79986802  0.26688541  1
  O2-  O256  1  0.33840919  0.79769973  0.60440354  1
  O2-  O257  1  0.33119116  0.79835822  0.93078538  1
  O2-  O258  1  0.83314265  0.28841763  0.26496657  1
  O2-  O259  1  0.83665998  0.28908201  0.60144719  1
  O2-  O260  1  0.83479204  0.28915934  0.92702069  1
  O2-  O261  1  0.83928001  0.79339632  0.26944054  1
  O2-  O262  1  0.83268328  0.79502686  0.60397994  1
  O2-  O263  1  0.83488320  0.79826763  0.93777740  1
  O2-  O264  1  0.41617694  0.03967476  0.06895549  1
  O2-  O265  1  0.41570662  0.04051012  0.40642934  1
  O2-  O266  1  0.41512637  0.04002117  0.73776504  1
  O2-  O267  1  0.41782233  0.55700852  0.06055596  1
  O2-  O268  1  0.41425232  0.54881231  0.39381913  1
  O2-  O269  1  0.41370656  0.54230074  0.73668659  1
  O2-  O270  1  0.91862142  0.04959097  0.06328917  1
  O2-  O271  1  0.91906393  0.04551553  0.39693476  1
  O2-  O272  1  0.91890913  0.04898525  0.72784676  1
  O2-  O273  1  0.91531246  0.54126491  0.06253315  1
  O2-  O274  1  0.91430717  0.53951172  0.39830918  1
  O2-  O275  1  0.92058408  0.53741773  0.73324441  1
  O2-  O276  1  0.28596588  0.16512334  0.06997840  1
  O2-  O277  1  0.28574036  0.16278049  0.40637852  1
  O2-  O278  1  0.28667308  0.16677007  0.73723560  1
  O2-  O279  1  0.29016163  0.66820639  0.06297034  1
  O2-  O280  1  0.29339204  0.66779627  0.39489532  1
  O2-  O281  1  0.28905469  0.67023920  0.73232336  1
  O2-  O282  1  0.79908137  0.16768705  0.06026236  1
  O2-  O283  1  0.80070963  0.16491316  0.39643746  1
  O2-  O284  1  0.79756583  0.16462844  0.72797790  1
  O2-  O285  1  0.80386827  0.66638948  0.06114688  1
  O2-  O286  1  0.80514447  0.66585594  0.39552345  1
  O2-  O287  1  0.80173247  0.66851169  0.73421617  1
