# generated using pymatgen
data_Ca2Al2SiO7
_symmetry_space_group_name_H-M   'P 1'
_cell_length_a   15.45762962
_cell_length_b   15.45749104
_cell_length_c   15.28393825
_cell_angle_alpha   89.99646812
_cell_angle_beta   90.00125081
_cell_angle_gamma   90.01776085
_symmetry_Int_Tables_number   1
_chemical_formula_structural   Ca2Al2SiO7
_chemical_formula_sum   'Ca48 Al48 Si24 O168'
_cell_volume   3651.88550341
_cell_formula_units_Z   24
loop_
 _symmetry_equiv_pos_site_id
 _symmetry_equiv_pos_as_xyz
  1  'x, y, z'
loop_
 _atom_type_symbol
 _atom_type_oxidation_number
  Ca2+  2.0
  Al0+  0.0
  Si0+  0.0
  O2-  -2.0
loop_
 _atom_site_type_symbol
 _atom_site_label
 _atom_site_symmetry_multiplicity
 _atom_site_fract_x
 _atom_site_fract_y
 _atom_site_fract_z
 _atom_site_occupancy
  Ca2+  Ca0  1  0.17273160  0.09381639  0.16818830  1
  Ca2+  Ca1  1  0.16460046  0.08451459  0.50473206  1
  Ca2+  Ca2  1  0.16270639  0.07751046  0.83998751  1
  Ca2+  Ca3  1  0.16740896  0.57789371  0.17332637  1
  Ca2+  Ca4  1  0.16124421  0.56984096  0.50391565  1
  Ca2+  Ca5  1  0.17777355  0.57451526  0.83535234  1
  Ca2+  Ca6  1  0.66985166  0.07653954  0.17340722  1
  Ca2+  Ca7  1  0.68129347  0.09279027  0.50507568  1
  Ca2+  Ca8  1  0.67040571  0.08655742  0.83467968  1
  Ca2+  Ca9  1  0.67798208  0.57649631  0.16642022  1
  Ca2+  Ca10  1  0.67530100  0.57694059  0.50366723  1
  Ca2+  Ca11  1  0.66806585  0.56947011  0.84019442  1
  Ca2+  Ca12  1  0.08282664  0.32663008  0.16707318  1
  Ca2+  Ca13  1  0.08425905  0.32748945  0.49145040  1
  Ca2+  Ca14  1  0.08707319  0.31999106  0.82738655  1
  Ca2+  Ca15  1  0.08006781  0.83179145  0.16507163  1
  Ca2+  Ca16  1  0.08204651  0.82649727  0.49249698  1
  Ca2+  Ca17  1  0.08904604  0.83558670  0.82874067  1
  Ca2+  Ca18  1  0.57669623  0.33372537  0.15800283  1
  Ca2+  Ca19  1  0.58007673  0.33489043  0.50444505  1
  Ca2+  Ca20  1  0.57598890  0.33750542  0.82594066  1
  Ca2+  Ca21  1  0.58488846  0.83325985  0.15976842  1
  Ca2+  Ca22  1  0.57979332  0.83081497  0.49498519  1
  Ca2+  Ca23  1  0.58363010  0.83317697  0.83164770  1
  Ca2+  Ca24  1  0.32873116  0.41675813  0.16834634  1
  Ca2+  Ca25  1  0.32031716  0.41804075  0.50792702  1
  Ca2+  Ca26  1  0.33770001  0.41851104  0.83514609  1
  Ca2+  Ca27  1  0.32680334  0.93099037  0.16823756  1
  Ca2+  Ca28  1  0.32512610  0.92449721  0.50392217  1
  Ca2+  Ca29  1  0.32119741  0.92615371  0.84096086  1
  Ca2+  Ca30  1  0.83779950  0.42227725  0.17271314  1
  Ca2+  Ca31  1  0.83584067  0.41785887  0.50343773  1
  Ca2+  Ca32  1  0.81964287  0.41626145  0.83927492  1
  Ca2+  Ca33  1  0.83154606  0.91935532  0.17140780  1
  Ca2+  Ca34  1  0.84644548  0.92958587  0.49946432  1
  Ca2+  Ca35  1  0.82790864  0.92504635  0.83639466  1
  Ca2+  Ca36  1  0.41034031  0.17100501  0.15741669  1
  Ca2+  Ca37  1  0.41852818  0.17039838  0.49779373  1
  Ca2+  Ca38  1  0.41982083  0.17745859  0.82728863  1
  Ca2+  Ca39  1  0.41645558  0.66661190  0.15813526  1
  Ca2+  Ca40  1  0.41373361  0.66335904  0.50029677  1
  Ca2+  Ca41  1  0.41137684  0.66328503  0.82813389  1
  Ca2+  Ca42  1  0.92560463  0.16599407  0.16647296  1
  Ca2+  Ca43  1  0.92567391  0.16845007  0.49174651  1
  Ca2+  Ca44  1  0.92528518  0.16176106  0.82723555  1
  Ca2+  Ca45  1  0.91731541  0.66411469  0.16663906  1
  Ca2+  Ca46  1  0.92159333  0.67295690  0.48472621  1
  Ca2+  Ca47  1  0.91281055  0.66860315  0.83298476  1
  Al0+  Al48  1  -0.00162446  -0.00313415  -0.00123641  1
  Al0+  Al49  1  0.00042038  -0.00187842  0.32745375  1
  Al0+  Al50  1  -0.00096784  0.00008899  0.67101814  1
  Al0+  Al51  1  0.00032553  0.50083797  -0.00163636  1
  Al0+  Al52  1  0.00009144  0.49996472  0.33458282  1
  Al0+  Al53  1  0.00196204  0.50085810  0.67386660  1
  Al0+  Al54  1  0.49926144  -0.00046881  0.00512042  1
  Al0+  Al55  1  0.49866580  -0.00027107  0.33798817  1
  Al0+  Al56  1  0.50098492  -0.00130845  0.66055143  1
  Al0+  Al57  1  0.50101309  0.50046004  0.00405868  1
  Al0+  Al58  1  0.50042654  0.50024722  0.33233677  1
  Al0+  Al59  1  0.50178950  0.50154622  0.66592456  1
  Al0+  Al60  1  0.24975039  0.25062623  -0.00793351  1
  Al0+  Al61  1  0.25201528  0.25136886  0.33859453  1
  Al0+  Al62  1  0.25104824  0.24955018  0.66170603  1
  Al0+  Al63  1  0.24933661  0.75027537  0.00632583  1
  Al0+  Al64  1  0.25256139  0.75164008  0.32803456  1
  Al0+  Al65  1  0.24924512  0.75095458  0.67115992  1
  Al0+  Al66  1  0.74985310  0.24960901  0.00441745  1
  Al0+  Al67  1  0.74787784  0.24873090  0.33198429  1
  Al0+  Al68  1  0.75102119  0.25103003  0.67326033  1
  Al0+  Al69  1  0.75007714  0.75006874  0.00440457  1
  Al0+  Al70  1  0.74799185  0.74766669  0.33362794  1
  Al0+  Al71  1  0.74964332  0.75259224  0.66344329  1
  Al0+  Al72  1  0.68157627  0.43072101  0.67937874  1
  Al0+  Al73  1  0.92768567  0.82077074  0.31663034  1
  Al0+  Al74  1  0.07259419  0.67785139  0.31801514  1
  Al0+  Al75  1  0.82124296  0.06987235  0.34566685  1
  Al0+  Al76  1  0.32057346  0.07219851  0.34946388  1
  Al0+  Al77  1  0.07349845  0.17901359  0.31848203  1
  Al0+  Al78  1  0.92658257  0.32079633  0.31969003  1
  Al0+  Al79  1  0.82035292  0.56918787  0.34813493  1
  Al0+  Al80  1  0.31993620  0.56992615  0.67974905  1
  Al0+  Al81  1  0.82005946  0.07063660  0.68028861  1
  Al0+  Al82  1  0.17985001  0.43089534  0.34536537  1
  Al0+  Al83  1  0.31830364  0.07304279  0.01202908  1
  Al0+  Al84  1  0.82195348  0.57010689  0.01491448  1
  Al0+  Al85  1  0.17748574  0.42449337  0.68381244  1
  Al0+  Al86  1  0.17948875  0.93153509  0.67863370  1
  Al0+  Al87  1  0.06968659  0.17798400  0.65285282  1
  Al0+  Al88  1  0.06821065  0.17937888  0.98492049  1
  Al0+  Al89  1  0.32069453  0.56981142  0.01441607  1
  Al0+  Al90  1  0.43102437  0.32150492  0.98634722  1
  Al0+  Al91  1  0.42978187  0.32334908  0.64859885  1
  Al0+  Al92  1  0.57314372  0.17806937  0.65140459  1
  Al0+  Al93  1  0.67834361  0.42666791  0.01690972  1
  Al0+  Al94  1  0.67882355  0.93051710  0.01231717  1
  Al0+  Al95  1  0.17601013  0.92825879  0.01765582  1
  Si0+  Si96  1  0.32397842  0.57403081  0.34858490  1
  Si0+  Si97  1  0.92824447  0.82000683  0.65255964  1
  Si0+  Si98  1  0.17899033  0.92706008  0.34926437  1
  Si0+  Si99  1  0.43032358  0.82289469  0.31608216  1
  Si0+  Si100  1  0.57338508  0.17514363  0.98564703  1
  Si0+  Si101  1  0.82307264  0.57616000  0.68232451  1
  Si0+  Si102  1  0.42704037  0.82018311  0.65181736  1
  Si0+  Si103  1  0.82277204  0.07178083  0.01754942  1
  Si0+  Si104  1  0.07318828  0.67855087  0.98246894  1
  Si0+  Si105  1  0.57024575  0.17759455  0.31784831  1
  Si0+  Si106  1  0.67548605  0.42712944  0.35113828  1
  Si0+  Si107  1  0.67605895  0.92607714  0.68152350  1
  Si0+  Si108  1  0.07164416  0.67975213  0.65436842  1
  Si0+  Si109  1  0.17812058  0.42714344  0.01581503  1
  Si0+  Si110  1  0.92751796  0.81861170  0.98240532  1
  Si0+  Si111  1  0.43037384  0.32072499  0.31829166  1
  Si0+  Si112  1  0.57213174  0.68001975  0.65109874  1
  Si0+  Si113  1  0.92867605  0.32356395  0.65364670  1
  Si0+  Si114  1  0.42790179  0.82159927  0.98498550  1
  Si0+  Si115  1  0.67734318  0.92707098  0.35190003  1
  Si0+  Si116  1  0.92625687  0.32394877  0.98240713  1
  Si0+  Si117  1  0.56965718  0.67829023  0.31636861  1
  Si0+  Si118  1  0.57064986  0.68134686  0.98487196  1
  Si0+  Si119  1  0.32534046  0.07186098  0.68209185  1
  O2-  O120  1  0.24427333  0.00472205  0.06527922  1
  O2-  O121  1  0.24283715  -0.00040777  0.39450220  1
  O2-  O122  1  0.25208595  0.00801055  0.72561523  1
  O2-  O123  1  0.24556038  0.49669728  0.06115151  1
  O2-  O124  1  0.25188765  0.50965382  0.39126431  1
  O2-  O125  1  0.25338282  0.49429498  0.73132932  1
  O2-  O126  1  0.74910357  0.00766503  0.06037049  1
  O2-  O127  1  0.74840740  -0.00681103  0.39486769  1
  O2-  O128  1  0.74064888  -0.00143434  0.72446871  1
  O2-  O129  1  0.75624562  0.49279584  0.06554426  1
  O2-  O130  1  0.74879381  0.49138372  0.39477708  1
  O2-  O131  1  0.75700145  0.50534639  0.72558778  1
  O2-  O132  1  -0.00141596  0.24881200  0.26932869  1
  O2-  O133  1  -0.00035325  0.25819716  0.60830476  1
  O2-  O134  1  -0.00756276  0.25337267  0.93768950  1
  O2-  O135  1  -0.00039155  0.74850990  0.26651858  1
  O2-  O136  1  -0.00421639  0.74536477  0.61191690  1
  O2-  O137  1  0.00104949  0.74950811  0.94030253  1
  O2-  O138  1  0.49994986  0.24871312  0.27529903  1
  O2-  O139  1  0.49977904  0.24793192  0.59947114  1
  O2-  O140  1  0.50741341  0.24650217  0.94218158  1
  O2-  O141  1  0.49953682  0.75004623  0.27376455  1
  O2-  O142  1  0.49976217  0.75029549  0.60937518  1
  O2-  O143  1  0.49780453  0.74993780  0.94098094  1
  O2-  O144  1  0.06848432  0.18166036  0.09776685  1
  O2-  O145  1  0.07209410  0.17979020  0.43216476  1
  O2-  O146  1  0.06572476  0.17471951  0.76609607  1
  O2-  O147  1  0.07323338  0.67786282  0.08718994  1
  O2-  O148  1  0.07194334  0.68035437  0.43250424  1
  O2-  O149  1  0.07235606  0.68254896  0.75960202  1
  O2-  O150  1  0.57140513  0.17355194  0.09154286  1
  O2-  O151  1  0.57057578  0.17790881  0.42267661  1
  O2-  O152  1  0.57084758  0.17691542  0.76511793  1
  O2-  O153  1  0.56977256  0.68389664  0.09016238  1
  O2-  O154  1  0.56833306  0.67854707  0.42182216  1
  O2-  O155  1  0.57513172  0.68236393  0.75608298  1
  O2-  O156  1  0.18451468  0.42958789  0.23206109  1
  O2-  O157  1  0.17365704  0.42921941  0.57024840  1
  O2-  O158  1  0.17901963  0.42884792  0.91037656  1
  O2-  O159  1  0.18353038  0.92413702  0.24427748  1
  O2-  O160  1  0.18094201  0.92813254  0.56560849  1
  O2-  O161  1  0.17922215  0.92776220  0.90365273  1
  O2-  O162  1  0.67056103  0.43094451  0.24605583  1
  O2-  O163  1  0.68278320  0.43385634  0.56614985  1
  O2-  O164  1  0.67681954  0.43047833  0.90320499  1
  O2-  O165  1  0.67415042  0.92903028  0.24614580  1
  O2-  O166  1  0.67718930  0.91957758  0.57655024  1
  O2-  O167  1  0.68099034  0.92855210  0.89903898  1
  O2-  O168  1  0.43079324  0.32044830  0.10016381  1
  O2-  O169  1  0.43276507  0.32262244  0.42289703  1
  O2-  O170  1  0.43350505  0.32472717  0.76222652  1
  O2-  O171  1  0.43106487  0.82042160  0.09020399  1
  O2-  O172  1  0.43091256  0.82211844  0.42155683  1
  O2-  O173  1  0.42806029  0.82026012  0.75683924  1
  O2-  O174  1  0.92818131  0.32492367  0.08775904  1
  O2-  O175  1  0.92638738  0.31940089  0.43364407  1
  O2-  O176  1  0.92799344  0.32136897  0.75928920  1
  O2-  O177  1  0.92523274  0.81780984  0.08694368  1
  O2-  O178  1  0.93006362  0.82025320  0.43106271  1
  O2-  O179  1  0.92500333  0.81843733  0.75781364  1
  O2-  O180  1  0.32366407  0.07152221  0.23661157  1
  O2-  O181  1  0.32653835  0.06672890  0.57633801  1
  O2-  O182  1  0.32073470  0.07012105  0.89860576  1
  O2-  O183  1  0.32769242  0.57141746  0.24315060  1
  O2-  O184  1  0.31613975  0.57321186  0.56603126  1
  O2-  O185  1  0.32031345  0.57116524  0.90163263  1
  O2-  O186  1  0.81614868  0.06854450  0.23270685  1
  O2-  O187  1  0.82256537  0.06822140  0.56729216  1
  O2-  O188  1  0.82293658  0.06913697  0.91161865  1
  O2-  O189  1  0.81676352  0.57058314  0.23554363  1
  O2-  O190  1  0.82159560  0.57860310  0.57682881  1
  O2-  O191  1  0.81692868  0.57291696  0.90087449  1
  O2-  O192  1  0.04914927  0.07976372  0.26602431  1
  O2-  O193  1  0.03397314  0.08190439  0.59986213  1
  O2-  O194  1  0.03689646  0.08102150  0.93295316  1
  O2-  O195  1  0.04458490  0.57982937  0.26545672  1
  O2-  O196  1  0.04813080  0.58560383  0.60956169  1
  O2-  O197  1  0.04639728  0.58669801  0.93378638  1
  O2-  O198  1  0.54233794  0.08431578  0.27282970  1
  O2-  O199  1  0.55018568  0.07787142  0.59742191  1
  O2-  O200  1  0.54711102  0.08146486  0.93937931  1
  O2-  O201  1  0.54095506  0.58704051  0.26806536  1
  O2-  O202  1  0.54536489  0.58987792  0.60091525  1
  O2-  O203  1  0.54364314  0.58897059  0.93897220  1
  O2-  O204  1  0.17194988  0.21253618  0.26773184  1
  O2-  O205  1  0.16870632  0.20059849  0.60059458  1
  O2-  O206  1  0.16395574  0.20960946  0.92893201  1
  O2-  O207  1  0.17189127  0.70546191  0.26511975  1
  O2-  O208  1  0.16113562  0.71277529  0.60596283  1
  O2-  O209  1  0.16497781  0.70920994  0.93624219  1
  O2-  O210  1  0.66112814  0.20352413  0.26824508  1
  O2-  O211  1  0.67208650  0.21066888  0.60100671  1
  O2-  O212  1  0.66928281  0.19670324  0.94181266  1
  O2-  O213  1  0.66078317  0.70587111  0.26840703  1
  O2-  O214  1  0.66253468  0.71030434  0.60059546  1
  O2-  O215  1  0.66141400  0.71266867  0.93729015  1
  O2-  O216  1  0.08402947  0.45276935  0.06011988  1
  O2-  O217  1  0.08378393  0.45908336  0.40122749  1
  O2-  O218  1  0.08122728  0.45636967  0.74019540  1
  O2-  O219  1  0.07475980  0.94921013  0.06615973  1
  O2-  O220  1  0.08277138  0.94593433  0.39150238  1
  O2-  O221  1  0.08333987  0.95851310  0.73500395  1
  O2-  O222  1  0.58394585  0.46312554  0.07207770  1
  O2-  O223  1  0.58439778  0.46059265  0.39902133  1
  O2-  O224  1  0.58658078  0.46593576  0.73311508  1
  O2-  O225  1  0.58215733  0.95538755  0.06937654  1
  O2-  O226  1  0.58449263  0.95391697  0.39912577  1
  O2-  O227  1  0.58033157  0.94603428  0.72570084  1
  O2-  O228  1  0.20606283  0.33422603  0.06020585  1
  O2-  O229  1  0.21495227  0.33767974  0.40234482  1
  O2-  O230  1  0.20456270  0.32462318  0.73340883  1
  O2-  O231  1  0.20837676  0.83217965  0.07161237  1
  O2-  O232  1  0.21124321  0.83483558  0.39626492  1
  O2-  O233  1  0.21286403  0.83691085  0.73512941  1
  O2-  O234  1  0.69812364  0.32593274  0.06865225  1
  O2-  O235  1  0.69478707  0.33127284  0.39376409  1
  O2-  O236  1  0.70973182  0.33591193  0.73731311  1
  O2-  O237  1  0.71149499  0.83563314  0.06830456  1
  O2-  O238  1  0.69773723  0.83142114  0.39550733  1
  O2-  O239  1  0.70612876  0.83441080  0.73056193  1
  O2-  O240  1  0.45872210  0.41296006  0.27059867  1
  O2-  O241  1  0.46230030  0.42128254  0.59550740  1
  O2-  O242  1  0.46342490  0.41892858  0.93405568  1
  O2-  O243  1  0.46144966  0.91397388  0.26911602  1
  O2-  O244  1  0.45410414  0.91041067  0.60059393  1
  O2-  O245  1  0.45782578  0.91290653  0.93753387  1
  O2-  O246  1  0.95588621  0.41902452  0.26774307  1
  O2-  O247  1  0.95023100  0.42030078  0.61068877  1
  O2-  O248  1  0.95073251  0.41778725  0.93550552  1
  O2-  O249  1  0.95477675  0.91775174  0.26088647  1
  O2-  O250  1  0.96080677  0.91031824  0.60632198  1
  O2-  O251  1  0.95236469  0.91071474  0.93386809  1
  O2-  O252  1  0.33884351  0.29301841  0.27171818  1
  O2-  O253  1  0.33092078  0.29701223  0.59583271  1
  O2-  O254  1  0.33558321  0.29234617  0.92967209  1
  O2-  O255  1  0.33913351  0.79796149  0.26675404  1
  O2-  O256  1  0.33664655  0.78921742  0.60306437  1
  O2-  O257  1  0.33542260  0.79357227  0.93925878  1
  O2-  O258  1  0.82720663  0.29464902  0.26619197  1
  O2-  O259  1  0.83523522  0.29746401  0.60839331  1
  O2-  O260  1  0.83047851  0.29934475  0.93911435  1
  O2-  O261  1  0.82720658  0.79277675  0.26713033  1
  O2-  O262  1  0.83593319  0.79717396  0.60283412  1
  O2-  O263  1  0.83640215  0.78718947  0.93418362  1
  O2-  O264  1  0.41539130  0.04211364  0.06705968  1
  O2-  O265  1  0.41546467  0.03619505  0.40469472  1
  O2-  O266  1  0.41767363  0.04039604  0.72744303  1
  O2-  O267  1  0.41727338  0.54186163  0.06927679  1
  O2-  O268  1  0.41678946  0.54558631  0.39574607  1
  O2-  O269  1  0.42132033  0.54943515  0.72968822  1
  O2-  O270  1  0.91307469  0.03858849  0.06387688  1
  O2-  O271  1  0.91909182  0.03887694  0.39793002  1
  O2-  O272  1  0.91207501  0.03240040  0.73791764  1
  O2-  O273  1  0.92313137  0.54852017  0.06492322  1
  O2-  O274  1  0.91758289  0.54375278  0.40250868  1
  O2-  O275  1  0.91730566  0.55601382  0.72877346  1
  O2-  O276  1  0.29099624  0.17231654  0.06399824  1
  O2-  O277  1  0.29456371  0.16865653  0.40456937  1
  O2-  O278  1  0.30635277  0.16809436  0.72271997  1
  O2-  O279  1  0.29223329  0.66644186  0.06911786  1
  O2-  O280  1  0.30493213  0.67077523  0.39101163  1
  O2-  O281  1  0.28892150  0.66689418  0.73495697  1
  O2-  O282  1  0.80419762  0.16702542  0.06202199  1
  O2-  O283  1  0.78724212  0.16576709  0.39965935  1
  O2-  O284  1  0.79269284  0.16602698  0.73760180  1
  O2-  O285  1  0.78727959  0.66577391  0.06897704  1
  O2-  O286  1  0.78449599  0.66476866  0.40276394  1
  O2-  O287  1  0.79354625  0.66934210  0.72785831  1
