# generated using pymatgen
data_Ca2Al2SiO7
_symmetry_space_group_name_H-M   'P 1'
_cell_length_a   15.45564956
_cell_length_b   15.45684806
_cell_length_c   15.28175759
_cell_angle_alpha   90.01583121
_cell_angle_beta   89.99473458
_cell_angle_gamma   89.99302908
_symmetry_Int_Tables_number   1
_chemical_formula_structural   Ca2Al2SiO7
_chemical_formula_sum   'Ca48 Al48 Si24 O168'
_cell_volume   3650.74487818
_cell_formula_units_Z   24
loop_
 _symmetry_equiv_pos_site_id
 _symmetry_equiv_pos_as_xyz
  1  'x, y, z'
loop_
 _atom_type_symbol
 _atom_type_oxidation_number
  Ca2+  2.0
  Al0+  0.0
  Si0+  0.0
  O2-  -2.0
loop_
 _atom_site_type_symbol
 _atom_site_label
 _atom_site_symmetry_multiplicity
 _atom_site_fract_x
 _atom_site_fract_y
 _atom_site_fract_z
 _atom_site_occupancy
  Ca2+  Ca0  1  0.16641442  0.07767166  0.17557300  1
  Ca2+  Ca1  1  0.16603870  0.08410462  0.50449289  1
  Ca2+  Ca2  1  0.16930406  0.08987086  0.83106439  1
  Ca2+  Ca3  1  0.16621392  0.57452355  0.16540917  1
  Ca2+  Ca4  1  0.16431642  0.57720951  0.50309021  1
  Ca2+  Ca5  1  0.16675096  0.58109371  0.84256360  1
  Ca2+  Ca6  1  0.67059618  0.07834059  0.17273049  1
  Ca2+  Ca7  1  0.66974941  0.07139483  0.50890587  1
  Ca2+  Ca8  1  0.67297435  0.08055668  0.83143595  1
  Ca2+  Ca9  1  0.66633033  0.57270142  0.16858509  1
  Ca2+  Ca10  1  0.67253356  0.57834396  0.50501165  1
  Ca2+  Ca11  1  0.67636126  0.57816643  0.83674409  1
  Ca2+  Ca12  1  0.08470023  0.33293987  0.16324926  1
  Ca2+  Ca13  1  0.08003682  0.32210085  0.49672630  1
  Ca2+  Ca14  1  0.07464482  0.33528029  0.82605898  1
  Ca2+  Ca15  1  0.08153426  0.82862685  0.15680731  1
  Ca2+  Ca16  1  0.08067889  0.83206374  0.49772141  1
  Ca2+  Ca17  1  0.07464026  0.81965527  0.82855330  1
  Ca2+  Ca18  1  0.57583775  0.34305042  0.16167421  1
  Ca2+  Ca19  1  0.57246130  0.33719515  0.49337913  1
  Ca2+  Ca20  1  0.57155457  0.34345613  0.83190751  1
  Ca2+  Ca21  1  0.57261128  0.83759774  0.16390579  1
  Ca2+  Ca22  1  0.58259771  0.83832637  0.49338791  1
  Ca2+  Ca23  1  0.58020536  0.83568189  0.83019844  1
  Ca2+  Ca24  1  0.32727751  0.41717389  0.16933075  1
  Ca2+  Ca25  1  0.32830001  0.40642135  0.50212624  1
  Ca2+  Ca26  1  0.32736283  0.42020284  0.84487037  1
  Ca2+  Ca27  1  0.32964340  0.91406029  0.17479253  1
  Ca2+  Ca28  1  0.32872121  0.92218230  0.50498505  1
  Ca2+  Ca29  1  0.33478340  0.92388047  0.83774589  1
  Ca2+  Ca30  1  0.82332779  0.40986050  0.16863762  1
  Ca2+  Ca31  1  0.83035530  0.41836425  0.50731632  1
  Ca2+  Ca32  1  0.83676500  0.41684129  0.83985379  1
  Ca2+  Ca33  1  0.83066425  0.91560133  0.17306971  1
  Ca2+  Ca34  1  0.82409209  0.91801879  0.51296919  1
  Ca2+  Ca35  1  0.83905823  0.91548919  0.83192814  1
  Ca2+  Ca36  1  0.41836429  0.17976991  0.16421131  1
  Ca2+  Ca37  1  0.41200142  0.17412599  0.49893657  1
  Ca2+  Ca38  1  0.41343406  0.17888830  0.82605165  1
  Ca2+  Ca39  1  0.41026701  0.67646361  0.16067209  1
  Ca2+  Ca40  1  0.42021847  0.67510887  0.49305320  1
  Ca2+  Ca41  1  0.41344324  0.66954911  0.83389606  1
  Ca2+  Ca42  1  0.92503699  0.17003663  0.16200928  1
  Ca2+  Ca43  1  0.92385380  0.16053804  0.50048529  1
  Ca2+  Ca44  1  0.92012602  0.17726333  0.82428076  1
  Ca2+  Ca45  1  0.92461017  0.67387937  0.15639898  1
  Ca2+  Ca46  1  0.91708211  0.66599163  0.50523735  1
  Ca2+  Ca47  1  0.92546294  0.66686927  0.82418020  1
  Al0+  Al48  1  0.00071174  0.00056479  -0.00326278  1
  Al0+  Al49  1  0.00181467  -0.00020309  0.33229095  1
  Al0+  Al50  1  -0.00097624  -0.00191750  0.66545418  1
  Al0+  Al51  1  0.00078066  0.49943477  -0.00024180  1
  Al0+  Al52  1  0.00134253  0.49978597  0.33661398  1
  Al0+  Al53  1  -0.00077834  0.49936079  0.66154454  1
  Al0+  Al54  1  0.50126868  0.00106091  -0.00264022  1
  Al0+  Al55  1  0.50060803  0.00195961  0.33247577  1
  Al0+  Al56  1  0.49778859  0.00179246  0.67550924  1
  Al0+  Al57  1  0.50033128  0.50271490  0.00349177  1
  Al0+  Al58  1  0.50097472  0.50240631  0.33338344  1
  Al0+  Al59  1  0.49787234  0.50215612  0.66118866  1
  Al0+  Al60  1  0.25259112  0.24902787  0.00165038  1
  Al0+  Al61  1  0.24963508  0.25039007  0.32778244  1
  Al0+  Al62  1  0.24890071  0.24995463  0.66465242  1
  Al0+  Al63  1  0.25050663  0.75161421  -0.00550840  1
  Al0+  Al64  1  0.24957422  0.74990808  0.33447144  1
  Al0+  Al65  1  0.25039042  0.74917603  0.66264705  1
  Al0+  Al66  1  0.75151372  0.24735030  0.00201453  1
  Al0+  Al67  1  0.74997342  0.25078714  0.33959163  1
  Al0+  Al68  1  0.74533113  0.24748696  0.66714723  1
  Al0+  Al69  1  0.74772691  0.75162510  -0.00046220  1
  Al0+  Al70  1  0.75061515  0.74938472  0.33566857  1
  Al0+  Al71  1  0.74882931  0.74580151  0.67243116  1
  Al0+  Al72  1  0.92653091  0.82285784  0.98555053  1
  Al0+  Al73  1  0.07321507  0.67781881  0.64805335  1
  Al0+  Al74  1  0.92741799  0.81872983  0.65048529  1
  Al0+  Al75  1  0.67788898  0.42925551  0.34851972  1
  Al0+  Al76  1  0.42931598  0.82224697  0.98503304  1
  Al0+  Al77  1  0.42996067  0.32205976  0.65290027  1
  Al0+  Al78  1  0.07044297  0.67846945  0.98601547  1
  Al0+  Al79  1  0.43024611  0.32195597  0.31774306  1
  Al0+  Al80  1  0.17891561  0.92749751  0.34644033  1
  Al0+  Al81  1  0.06967045  0.17856014  0.31785368  1
  Al0+  Al82  1  0.18033520  0.42801259  0.34919365  1
  Al0+  Al83  1  0.68084547  0.42855598  0.01229041  1
  Al0+  Al84  1  0.82293859  0.07142277  0.68328014  1
  Al0+  Al85  1  0.31755418  0.07139883  0.68088663  1
  Al0+  Al86  1  0.17770064  0.42711763  0.01456646  1
  Al0+  Al87  1  0.67917287  0.92980742  0.34521930  1
  Al0+  Al88  1  0.32094699  0.57348414  0.01498014  1
  Al0+  Al89  1  0.07038076  0.17930707  0.65219015  1
  Al0+  Al90  1  0.92912517  0.31898744  0.98921173  1
  Al0+  Al91  1  0.67844392  0.92689471  0.68481084  1
  Al0+  Al92  1  0.42978118  0.82180607  0.32151530  1
  Al0+  Al93  1  0.92451688  0.32136374  0.65093882  1
  Al0+  Al94  1  0.82092477  0.56604813  0.68119186  1
  Al0+  Al95  1  0.43080289  0.32178809  0.98676282  1
  Si0+  Si96  1  0.32396491  0.07149015  0.01719520  1
  Si0+  Si97  1  0.57196078  0.67814611  0.98247655  1
  Si0+  Si98  1  0.57315904  0.17746802  0.98261444  1
  Si0+  Si99  1  0.07371964  0.17729544  0.98380507  1
  Si0+  Si100  1  0.32152778  0.57270323  0.35116639  1
  Si0+  Si101  1  0.92901473  0.82006227  0.31955355  1
  Si0+  Si102  1  0.18064136  0.93195326  0.01267740  1
  Si0+  Si103  1  0.82230493  0.06951633  0.01644567  1
  Si0+  Si104  1  0.32242109  0.57281625  0.68010181  1
  Si0+  Si105  1  0.92741784  0.32327492  0.31697572  1
  Si0+  Si106  1  0.57432769  0.67925089  0.31574735  1
  Si0+  Si107  1  0.42992120  0.82337019  0.65198124  1
  Si0+  Si108  1  0.56981081  0.67944835  0.65148761  1
  Si0+  Si109  1  0.56936223  0.17568675  0.64998218  1
  Si0+  Si110  1  0.82343241  0.07137910  0.34948993  1
  Si0+  Si111  1  0.17784709  0.92464055  0.68465504  1
  Si0+  Si112  1  0.07136182  0.67759088  0.31731214  1
  Si0+  Si113  1  0.18100677  0.43030798  0.67969240  1
  Si0+  Si114  1  0.82272928  0.57343950  0.01659282  1
  Si0+  Si115  1  0.32137271  0.07207038  0.34829973  1
  Si0+  Si116  1  0.67406545  0.42744568  0.68203136  1
  Si0+  Si117  1  0.67753392  0.92909696  0.01698350  1
  Si0+  Si118  1  0.82300057  0.57196749  0.34996015  1
  Si0+  Si119  1  0.57425614  0.17886341  0.31741875  1
  O2-  O120  1  0.25187091  0.00123974  0.05836711  1
  O2-  O121  1  0.25429803  0.00176955  0.39234179  1
  O2-  O122  1  0.24351522  -0.00352870  0.72917131  1
  O2-  O123  1  0.25067942  0.49926321  0.06423184  1
  O2-  O124  1  0.25700657  0.50085138  0.39676798  1
  O2-  O125  1  0.24983460  0.50366122  0.72148344  1
  O2-  O126  1  0.75324780  -0.00425369  0.05841983  1
  O2-  O127  1  0.75356560  0.00348173  0.39252868  1
  O2-  O128  1  0.75349736  -0.00352485  0.73415011  1
  O2-  O129  1  0.75672293  0.50200317  0.06086199  1
  O2-  O130  1  0.75478266  0.50205728  0.39329725  1
  O2-  O131  1  0.75022727  0.48676347  0.72719350  1
  O2-  O132  1  -0.00483404  0.25393560  0.27211551  1
  O2-  O133  1  -0.00635815  0.24612276  0.60145794  1
  O2-  O134  1  0.00890697  0.25032574  0.94212118  1
  O2-  O135  1  0.00066955  0.75005395  0.27666943  1
  O2-  O136  1  0.00223831  0.75109669  0.59782113  1
  O2-  O137  1  -0.00678817  0.74554788  0.93724872  1
  O2-  O138  1  0.50950438  0.25076823  0.27213104  1
  O2-  O139  1  0.50575528  0.24887336  0.60549623  1
  O2-  O140  1  0.50652492  0.24856941  0.93906662  1
  O2-  O141  1  0.50525420  0.74848856  0.27294137  1
  O2-  O142  1  0.50238582  0.75426597  0.60947538  1
  O2-  O143  1  0.50334191  0.74714335  0.93812913  1
  O2-  O144  1  0.07064815  0.17253265  0.08955559  1
  O2-  O145  1  0.06837923  0.17739373  0.43037564  1
  O2-  O146  1  0.07409992  0.18626620  0.76587966  1
  O2-  O147  1  0.07033708  0.68227593  0.10048312  1
  O2-  O148  1  0.07093779  0.67723233  0.42204831  1
  O2-  O149  1  0.07476934  0.67741998  0.76133266  1
  O2-  O150  1  0.57129685  0.17438254  0.08850941  1
  O2-  O151  1  0.57238161  0.17664567  0.42264620  1
  O2-  O152  1  0.56675073  0.17453404  0.75561418  1
  O2-  O153  1  0.57413565  0.68045616  0.08811631  1
  O2-  O154  1  0.57421823  0.67995544  0.42168065  1
  O2-  O155  1  0.56584887  0.67579376  0.75632781  1
  O2-  O156  1  0.17923365  0.43023473  0.23640150  1
  O2-  O157  1  0.18408814  0.42957491  0.57436693  1
  O2-  O158  1  0.17917043  0.42626265  0.90057877  1
  O2-  O159  1  0.17925085  0.92782006  0.23264267  1
  O2-  O160  1  0.18252891  0.92290842  0.57882085  1
  O2-  O161  1  0.18190483  0.93486248  0.90791550  1
  O2-  O162  1  0.67902424  0.43054294  0.23511660  1
  O2-  O163  1  0.67101018  0.43394293  0.57646870  1
  O2-  O164  1  0.68057653  0.43072629  0.89929866  1
  O2-  O165  1  0.68087129  0.93129325  0.23164997  1
  O2-  O166  1  0.67598427  0.92920614  0.57073174  1
  O2-  O167  1  0.67400074  0.93126290  0.91263539  1
  O2-  O168  1  0.43156349  0.31950558  0.09984040  1
  O2-  O169  1  0.42994121  0.31808175  0.43091800  1
  O2-  O170  1  0.43022348  0.32376216  0.76606897  1
  O2-  O171  1  0.43063260  0.82387138  0.09837215  1
  O2-  O172  1  0.43139538  0.82087702  0.43488968  1
  O2-  O173  1  0.42933727  0.82111661  0.75708532  1
  O2-  O174  1  0.92569592  0.31372165  0.10244732  1
  O2-  O175  1  0.92767163  0.32317893  0.42216107  1
  O2-  O176  1  0.92920987  0.32291067  0.76486115  1
  O2-  O177  1  0.92925051  0.82370725  0.10029546  1
  O2-  O178  1  0.92770492  0.81932189  0.42399844  1
  O2-  O179  1  0.92923587  0.81447812  0.76385402  1
  O2-  O180  1  0.32105922  0.07035878  0.24227844  1
  O2-  O181  1  0.31878739  0.06912715  0.56761709  1
  O2-  O182  1  0.32379117  0.07222239  0.91215918  1
  O2-  O183  1  0.31892073  0.57511903  0.24588765  1
  O2-  O184  1  0.32477443  0.57355573  0.57505554  1
  O2-  O185  1  0.32046217  0.57185287  0.90075156  1
  O2-  O186  1  0.82301664  0.06987786  0.24318414  1
  O2-  O187  1  0.81908149  0.06928289  0.56927096  1
  O2-  O188  1  0.82155441  0.07135873  0.91214524  1
  O2-  O189  1  0.82271086  0.57400727  0.24427413  1
  O2-  O190  1  0.81618410  0.56768733  0.56780900  1
  O2-  O191  1  0.82052189  0.57319103  0.91122299  1
  O2-  O192  1  0.03871773  0.08185058  0.26209777  1
  O2-  O193  1  0.04943673  0.07790122  0.60202675  1
  O2-  O194  1  0.04430650  0.08638914  0.93504355  1
  O2-  O195  1  0.04188239  0.58607391  0.27010011  1
  O2-  O196  1  0.04196871  0.58088492  0.59433213  1
  O2-  O197  1  0.04730315  0.57885314  0.93410496  1
  O2-  O198  1  0.54545420  0.08716339  0.26804664  1
  O2-  O199  1  0.53725934  0.08364220  0.60378989  1
  O2-  O200  1  0.54536920  0.08564224  0.93463472  1
  O2-  O201  1  0.54824232  0.58618094  0.26940311  1
  O2-  O202  1  0.53758568  0.59117257  0.59907621  1
  O2-  O203  1  0.54629087  0.58541491  0.93549779  1
  O2-  O204  1  0.16583937  0.20797767  0.26274969  1
  O2-  O205  1  0.16641806  0.21228730  0.59669376  1
  O2-  O206  1  0.16970233  0.19735104  0.94136134  1
  O2-  O207  1  0.16321147  0.70560960  0.27097181  1
  O2-  O208  1  0.17239907  0.70500221  0.59446555  1
  O2-  O209  1  0.16609907  0.71141222  0.93111189  1
  O2-  O210  1  0.67001334  0.20032094  0.27308704  1
  O2-  O211  1  0.66424477  0.19397932  0.60433962  1
  O2-  O212  1  0.66780344  0.20018829  0.93860981  1
  O2-  O213  1  0.66814981  0.70388505  0.26935350  1
  O2-  O214  1  0.66242099  0.70305103  0.60479466  1
  O2-  O215  1  0.66488788  0.70470348  0.93530812  1
  O2-  O216  1  0.07938153  0.45525562  0.06939996  1
  O2-  O217  1  0.08392286  0.45980636  0.40310769  1
  O2-  O218  1  0.08787129  0.45640662  0.72419940  1
  O2-  O219  1  0.08857069  0.95990499  0.06078596  1
  O2-  O220  1  0.08271099  0.95879543  0.40038191  1
  O2-  O221  1  0.08261799  0.94534951  0.72769193  1
  O2-  O222  1  0.58612016  0.46305055  0.06795199  1
  O2-  O223  1  0.58223342  0.46318833  0.40283321  1
  O2-  O224  1  0.58343386  0.46441762  0.72837323  1
  O2-  O225  1  0.58734883  0.96274385  0.06534423  1
  O2-  O226  1  0.58267640  0.96100823  0.39950636  1
  O2-  O227  1  0.58139560  0.95946863  0.73877631  1
  O2-  O228  1  0.20709461  0.32833477  0.06759864  1
  O2-  O229  1  0.21192001  0.33047704  0.40069531  1
  O2-  O230  1  0.21099652  0.34004462  0.72760738  1
  O2-  O231  1  0.20805711  0.83976357  0.05895157  1
  O2-  O232  1  0.20888387  0.83161377  0.40187879  1
  O2-  O233  1  0.20919897  0.83236174  0.73069410  1
  O2-  O234  1  0.70948567  0.33104294  0.06706237  1
  O2-  O235  1  0.70391609  0.33192151  0.40359594  1
  O2-  O236  1  0.68552426  0.32987294  0.72309077  1
  O2-  O237  1  0.69932735  0.83561233  0.06427293  1
  O2-  O238  1  0.70740799  0.83238021  0.39878373  1
  O2-  O239  1  0.70139138  0.82709120  0.73651896  1
  O2-  O240  1  0.45883028  0.42070040  0.26697766  1
  O2-  O241  1  0.45834216  0.41842891  0.59646151  1
  O2-  O242  1  0.46061778  0.41974200  0.93512414  1
  O2-  O243  1  0.45888300  0.91886086  0.26667634  1
  O2-  O244  1  0.45615122  0.91650037  0.60734296  1
  O2-  O245  1  0.46238092  0.91828179  0.93093552  1
  O2-  O246  1  0.95372545  0.41713822  0.27163195  1
  O2-  O247  1  0.95560906  0.41756336  0.59611805  1
  O2-  O248  1  0.95327623  0.41754884  0.93715661  1
  O2-  O249  1  0.95551075  0.91197341  0.27175322  1
  O2-  O250  1  0.95060439  0.91886411  0.59928606  1
  O2-  O251  1  0.95959908  0.91922874  0.93189166  1
  O2-  O252  1  0.33570842  0.28778814  0.26256037  1
  O2-  O253  1  0.33504123  0.28682888  0.59918128  1
  O2-  O254  1  0.33460043  0.28836074  0.93339797  1
  O2-  O255  1  0.33311065  0.78937764  0.26765869  1
  O2-  O256  1  0.33932577  0.79397918  0.60339806  1
  O2-  O257  1  0.33391774  0.79410323  0.92861748  1
  O2-  O258  1  0.83223751  0.29744054  0.27342502  1
  O2-  O259  1  0.82253166  0.29879808  0.60236203  1
  O2-  O260  1  0.83431508  0.28439851  0.93418145  1
  O2-  O261  1  0.83722185  0.79150930  0.27123486  1
  O2-  O262  1  0.82817211  0.78598405  0.60062842  1
  O2-  O263  1  0.82477778  0.80308478  0.93710855  1
  O2-  O264  1  0.41584737  0.04235353  0.06374454  1
  O2-  O265  1  0.41546503  0.04871051  0.39417652  1
  O2-  O266  1  0.41223610  0.04143758  0.73884786  1
  O2-  O267  1  0.42010554  0.54981235  0.06845160  1
  O2-  O268  1  0.41754117  0.55299853  0.39460202  1
  O2-  O269  1  0.41364937  0.54384926  0.72803517  1
  O2-  O270  1  0.91500451  0.04259413  0.06386367  1
  O2-  O271  1  0.91625174  0.04370370  0.39453524  1
  O2-  O272  1  0.92291122  0.04686677  0.73536900  1
  O2-  O273  1  0.91704255  0.55159422  0.06202296  1
  O2-  O274  1  0.91612062  0.54728117  0.39692235  1
  O2-  O275  1  0.91957910  0.53968511  0.73332205  1
  O2-  O276  1  0.29737622  0.16273948  0.06607751  1
  O2-  O277  1  0.29295119  0.16482914  0.39329409  1
  O2-  O278  1  0.28541171  0.16775574  0.73595423  1
  O2-  O279  1  0.29118522  0.67300183  0.06624308  1
  O2-  O280  1  0.29253296  0.66460191  0.39939667  1
  O2-  O281  1  0.29744484  0.66575630  0.72702539  1
  O2-  O282  1  0.79142770  0.15862377  0.06779074  1
  O2-  O283  1  0.80107808  0.16525636  0.39557376  1
  O2-  O284  1  0.78975388  0.16924773  0.73698468  1
  O2-  O285  1  0.79337417  0.66651984  0.06333646  1
  O2-  O286  1  0.79530425  0.66438475  0.39787545  1
  O2-  O287  1  0.78549817  0.65950119  0.73782158  1
