# generated using pymatgen
data_Ca2Al2SiO7
_symmetry_space_group_name_H-M   'P 1'
_cell_length_a   15.45261899
_cell_length_b   15.45244827
_cell_length_c   15.27985687
_cell_angle_alpha   89.99428375
_cell_angle_beta   89.99168768
_cell_angle_gamma   89.99788473
_symmetry_Int_Tables_number   1
_chemical_formula_structural   Ca2Al2SiO7
_chemical_formula_sum   'Ca48 Al48 Si24 O168'
_cell_volume   3648.53632035
_cell_formula_units_Z   24
loop_
 _symmetry_equiv_pos_site_id
 _symmetry_equiv_pos_as_xyz
  1  'x, y, z'
loop_
 _atom_type_symbol
 _atom_type_oxidation_number
  Ca2+  2.0
  Al0+  0.0
  Si0+  0.0
  O2-  -2.0
loop_
 _atom_site_type_symbol
 _atom_site_label
 _atom_site_symmetry_multiplicity
 _atom_site_fract_x
 _atom_site_fract_y
 _atom_site_fract_z
 _atom_site_occupancy
  Ca2+  Ca0  1  0.17644538  0.09058200  0.16921313  1
  Ca2+  Ca1  1  0.17220049  0.07358211  0.50408314  1
  Ca2+  Ca2  1  0.17165326  0.07723346  0.83948764  1
  Ca2+  Ca3  1  0.16769007  0.57895428  0.16727777  1
  Ca2+  Ca4  1  0.17907250  0.58222900  0.51100738  1
  Ca2+  Ca5  1  0.16540996  0.57730314  0.83630572  1
  Ca2+  Ca6  1  0.67040560  0.07945237  0.17667436  1
  Ca2+  Ca7  1  0.67614581  0.07733060  0.50201058  1
  Ca2+  Ca8  1  0.66792048  0.08651396  0.83687875  1
  Ca2+  Ca9  1  0.67037217  0.58636564  0.17084113  1
  Ca2+  Ca10  1  0.66812810  0.59264856  0.50570547  1
  Ca2+  Ca11  1  0.67745772  0.59038821  0.83470017  1
  Ca2+  Ca12  1  0.07934212  0.32921263  0.15467674  1
  Ca2+  Ca13  1  0.08503481  0.33485591  0.50045665  1
  Ca2+  Ca14  1  0.08707046  0.33459155  0.83424338  1
  Ca2+  Ca15  1  0.07720131  0.82835072  0.16369048  1
  Ca2+  Ca16  1  0.08304294  0.83002039  0.49910184  1
  Ca2+  Ca17  1  0.08767408  0.82065006  0.82520720  1
  Ca2+  Ca18  1  0.57472473  0.32607688  0.16299752  1
  Ca2+  Ca19  1  0.56796312  0.33782720  0.49621888  1
  Ca2+  Ca20  1  0.57760582  0.32673716  0.82829353  1
  Ca2+  Ca21  1  0.58186286  0.83513035  0.17047426  1
  Ca2+  Ca22  1  0.57704675  0.82393677  0.49397879  1
  Ca2+  Ca23  1  0.57334648  0.82797048  0.82375146  1
  Ca2+  Ca24  1  0.32702387  0.41795091  0.17439651  1
  Ca2+  Ca25  1  0.33576184  0.42570926  0.50748905  1
  Ca2+  Ca26  1  0.32572116  0.41740502  0.83234306  1
  Ca2+  Ca27  1  0.33689011  0.92858553  0.17382805  1
  Ca2+  Ca28  1  0.33693611  0.91667819  0.50448359  1
  Ca2+  Ca29  1  0.32793427  0.91316032  0.83500323  1
  Ca2+  Ca30  1  0.83718124  0.42008543  0.16420385  1
  Ca2+  Ca31  1  0.82605043  0.42443429  0.50917559  1
  Ca2+  Ca32  1  0.83979361  0.42805255  0.83868863  1
  Ca2+  Ca33  1  0.82762377  0.92096409  0.18052664  1
  Ca2+  Ca34  1  0.83257190  0.92017507  0.50052200  1
  Ca2+  Ca35  1  0.83246244  0.92225058  0.83377168  1
  Ca2+  Ca36  1  0.41569812  0.16615093  0.16049466  1
  Ca2+  Ca37  1  0.40782636  0.17921257  0.49405951  1
  Ca2+  Ca38  1  0.41725353  0.16854908  0.83137274  1
  Ca2+  Ca39  1  0.41719307  0.66861682  0.17110536  1
  Ca2+  Ca40  1  0.41800163  0.67265633  0.49243879  1
  Ca2+  Ca41  1  0.42082638  0.66991666  0.81784626  1
  Ca2+  Ca42  1  0.92136152  0.17157958  0.15693180  1
  Ca2+  Ca43  1  0.91618391  0.15988332  0.49618063  1
  Ca2+  Ca44  1  0.91952804  0.17221361  0.82999213  1
  Ca2+  Ca45  1  0.91884057  0.67203009  0.15957477  1
  Ca2+  Ca46  1  0.92232642  0.66887771  0.49711869  1
  Ca2+  Ca47  1  0.92650932  0.65676008  0.82938437  1
  Al0+  Al48  1  -0.00069677  -0.00044156  -0.00286550  1
  Al0+  Al49  1  0.00159087  -0.00035666  0.33060587  1
  Al0+  Al50  1  0.00134039  0.00041230  0.67639211  1
  Al0+  Al51  1  -0.00001307  0.50168384  0.00388810  1
  Al0+  Al52  1  -0.00059587  0.49804658  0.33322726  1
  Al0+  Al53  1  -0.00072347  0.49855433  0.66620021  1
  Al0+  Al54  1  0.49942348  0.00000037  -0.00184644  1
  Al0+  Al55  1  0.50116747  0.00001666  0.34187701  1
  Al0+  Al56  1  0.50253213  0.00079434  0.66221206  1
  Al0+  Al57  1  0.50139357  0.50097348  -0.00057067  1
  Al0+  Al58  1  0.49914211  0.49905926  0.32559470  1
  Al0+  Al59  1  0.50137713  0.49762837  0.66496812  1
  Al0+  Al60  1  0.24911349  0.25043043  0.00379329  1
  Al0+  Al61  1  0.24792957  0.24978571  0.33361922  1
  Al0+  Al62  1  0.24915428  0.24888524  0.66535591  1
  Al0+  Al63  1  0.24904095  0.75027387  -0.00139806  1
  Al0+  Al64  1  0.25086522  0.74859994  0.33027722  1
  Al0+  Al65  1  0.24964370  0.75022785  0.66598884  1
  Al0+  Al66  1  0.74826010  0.25161776  -0.00761817  1
  Al0+  Al67  1  0.75031997  0.25223788  0.33764757  1
  Al0+  Al68  1  0.75135718  0.24975293  0.66969365  1
  Al0+  Al69  1  0.74912199  0.75125225  0.00421449  1
  Al0+  Al70  1  0.75122782  0.75037385  0.32958735  1
  Al0+  Al71  1  0.75045270  0.75249343  0.66950351  1
  Al0+  Al72  1  0.92934233  0.32140841  0.98372262  1
  Al0+  Al73  1  0.57310594  0.67854914  0.65354420  1
  Al0+  Al74  1  0.07321223  0.17791316  0.98341149  1
  Al0+  Al75  1  0.06969196  0.68111818  0.98660360  1
  Al0+  Al76  1  0.31964713  0.06819515  0.01223012  1
  Al0+  Al77  1  0.93093616  0.82080974  0.32094757  1
  Al0+  Al78  1  0.56908548  0.17791252  0.98758045  1
  Al0+  Al79  1  0.81974888  0.57021769  0.01580762  1
  Al0+  Al80  1  0.06946890  0.67662548  0.65231588  1
  Al0+  Al81  1  0.32114307  0.07165796  0.34810292  1
  Al0+  Al82  1  0.67908131  0.92671628  0.35051502  1
  Al0+  Al83  1  0.17868421  0.42778905  0.68166545  1
  Al0+  Al84  1  0.81912823  0.57192339  0.67865124  1
  Al0+  Al85  1  0.82118008  0.07134274  0.68352495  1
  Al0+  Al86  1  0.18056495  0.92852395  0.68008005  1
  Al0+  Al87  1  0.42733762  0.82132359  0.65133739  1
  Al0+  Al88  1  0.82313683  0.07270232  0.34630124  1
  Al0+  Al89  1  0.42732306  0.31972764  0.31787609  1
  Al0+  Al90  1  0.32058270  0.56962738  0.34581516  1
  Al0+  Al91  1  0.57154813  0.67873150  0.31573077  1
  Al0+  Al92  1  0.42850286  0.31755614  0.65370569  1
  Al0+  Al93  1  0.42768888  0.82366202  0.31641356  1
  Al0+  Al94  1  0.32309631  0.57108809  0.68102664  1
  Al0+  Al95  1  0.18095006  0.43107760  0.01482633  1
  Si0+  Si96  1  0.92956507  0.82442099  0.65202920  1
  Si0+  Si97  1  0.82163711  0.57065185  0.34773316  1
  Si0+  Si98  1  0.07198489  0.67542797  0.31636188  1
  Si0+  Si99  1  0.32314238  0.07239046  0.68204139  1
  Si0+  Si100  1  0.32508960  0.57455068  0.01700171  1
  Si0+  Si101  1  0.82035675  0.07275514  0.01393086  1
  Si0+  Si102  1  0.67611564  0.42667876  0.01756929  1
  Si0+  Si103  1  0.67895768  0.93065069  0.01491363  1
  Si0+  Si104  1  0.67892628  0.42940546  0.34712476  1
  Si0+  Si105  1  0.67724211  0.42669119  0.68405222  1
  Si0+  Si106  1  0.06929760  0.17942115  0.31939625  1
  Si0+  Si107  1  0.17833681  0.92719182  0.34780641  1
  Si0+  Si108  1  0.42698218  0.32351949  0.98377704  1
  Si0+  Si109  1  0.92868122  0.32014831  0.65000480  1
  Si0+  Si110  1  0.57231567  0.67894255  0.98467514  1
  Si0+  Si111  1  0.17631458  0.92549522  0.01817549  1
  Si0+  Si112  1  0.57317536  0.17982223  0.32023840  1
  Si0+  Si113  1  0.67776432  0.92954155  0.68566960  1
  Si0+  Si114  1  0.43053600  0.82065845  0.98575462  1
  Si0+  Si115  1  0.06975070  0.17732064  0.65105530  1
  Si0+  Si116  1  0.92479505  0.82244249  0.98215123  1
  Si0+  Si117  1  0.92694988  0.32206637  0.31928268  1
  Si0+  Si118  1  0.17621439  0.42786101  0.35059314  1
  Si0+  Si119  1  0.57555578  0.17795223  0.64697262  1
  O2-  O120  1  0.24190077  -0.00253877  0.06161519  1
  O2-  O121  1  0.25117716  -0.00855810  0.39256708  1
  O2-  O122  1  0.25994657  -0.00103176  0.72618007  1
  O2-  O123  1  0.25833808  0.50352864  0.06080947  1
  O2-  O124  1  0.24438730  0.49694706  0.39332031  1
  O2-  O125  1  0.24952510  0.50095758  0.73156279  1
  O2-  O126  1  0.75137429  0.00068519  0.05697728  1
  O2-  O127  1  0.75247223  -0.00006327  0.39699211  1
  O2-  O128  1  0.74444025  -0.00044514  0.73148943  1
  O2-  O129  1  0.74431326  0.49581563  0.06249648  1
  O2-  O130  1  0.74790419  0.50258283  0.38954521  1
  O2-  O131  1  0.74271905  0.49933550  0.72668894  1
  O2-  O132  1  -0.00359629  0.24928476  0.27862900  1
  O2-  O133  1  -0.00085134  0.24857351  0.60746856  1
  O2-  O134  1  0.00051299  0.24894933  0.93261233  1
  O2-  O135  1  0.00355828  0.74482462  0.27287189  1
  O2-  O136  1  -0.00477235  0.75309617  0.60726858  1
  O2-  O137  1  -0.00447809  0.75606580  0.93843616  1
  O2-  O138  1  0.49956158  0.24146400  0.27307026  1
  O2-  O139  1  0.50331402  0.24347959  0.60434383  1
  O2-  O140  1  0.49571266  0.25403651  0.94089072  1
  O2-  O141  1  0.50037049  0.75221732  0.26557156  1
  O2-  O142  1  0.49700434  0.74580378  0.60344281  1
  O2-  O143  1  0.49603931  0.74437161  0.94370190  1
  O2-  O144  1  0.07054204  0.17942668  0.09772098  1
  O2-  O145  1  0.06933539  0.17941596  0.42479058  1
  O2-  O146  1  0.06924689  0.17752616  0.75570946  1
  O2-  O147  1  0.06807217  0.68343094  0.10013288  1
  O2-  O148  1  0.06976606  0.67360604  0.42184004  1
  O2-  O149  1  0.06734546  0.67662291  0.76553375  1
  O2-  O150  1  0.56908361  0.17732220  0.10085130  1
  O2-  O151  1  0.57623748  0.18672251  0.42539031  1
  O2-  O152  1  0.57547591  0.17908938  0.75306173  1
  O2-  O153  1  0.57429198  0.68039321  0.08938585  1
  O2-  O154  1  0.57181127  0.67797827  0.42881709  1
  O2-  O155  1  0.57417733  0.68344322  0.76795857  1
  O2-  O156  1  0.17419959  0.42796801  0.24488772  1
  O2-  O157  1  0.17913497  0.42787419  0.56780193  1
  O2-  O158  1  0.18211019  0.43174348  0.90215800  1
  O2-  O159  1  0.17582504  0.93096719  0.24215660  1
  O2-  O160  1  0.17555713  0.93303533  0.56695575  1
  O2-  O161  1  0.17974725  0.92318112  0.91269230  1
  O2-  O162  1  0.68252813  0.42592484  0.24207027  1
  O2-  O163  1  0.68071304  0.42322705  0.57810170  1
  O2-  O164  1  0.67347225  0.42815530  0.91229061  1
  O2-  O165  1  0.68111743  0.93047781  0.23583827  1
  O2-  O166  1  0.67993590  0.92913869  0.58070304  1
  O2-  O167  1  0.67919548  0.93021061  0.90979221  1
  O2-  O168  1  0.42867636  0.32299466  0.08955701  1
  O2-  O169  1  0.42854170  0.32060708  0.43093727  1
  O2-  O170  1  0.42949014  0.31439137  0.76711550  1
  O2-  O171  1  0.43313378  0.82371547  0.09047441  1
  O2-  O172  1  0.42679000  0.82075171  0.42928408  1
  O2-  O173  1  0.43055301  0.82262493  0.76604390  1
  O2-  O174  1  0.92898872  0.31825159  0.09825198  1
  O2-  O175  1  0.92729445  0.32550117  0.42433921  1
  O2-  O176  1  0.92789811  0.32007642  0.75461537  1
  O2-  O177  1  0.92417087  0.82185035  0.08800369  1
  O2-  O178  1  0.93303443  0.81998589  0.43412579  1
  O2-  O179  1  0.93067428  0.82508363  0.75776375  1
  O2-  O180  1  0.31801153  0.07372979  0.23469943  1
  O2-  O181  1  0.31771297  0.07479092  0.57646946  1
  O2-  O182  1  0.32169045  0.06377448  0.89917794  1
  O2-  O183  1  0.31773900  0.56716379  0.23221406  1
  O2-  O184  1  0.32249959  0.56919311  0.56727126  1
  O2-  O185  1  0.32645297  0.57550132  0.91177868  1
  O2-  O186  1  0.82162415  0.07455080  0.23222662  1
  O2-  O187  1  0.82162051  0.06976706  0.57058407  1
  O2-  O188  1  0.81854592  0.07095959  0.90887162  1
  O2-  O189  1  0.82364491  0.56758698  0.24263203  1
  O2-  O190  1  0.81962996  0.56892506  0.56499455  1
  O2-  O191  1  0.81783299  0.57070883  0.90275237  1
  O2-  O192  1  0.04516671  0.08808839  0.26974097  1
  O2-  O193  1  0.03903537  0.08576256  0.60469946  1
  O2-  O194  1  0.04679415  0.07798798  0.93207641  1
  O2-  O195  1  0.04359532  0.58200672  0.27014456  1
  O2-  O196  1  0.03669593  0.58133651  0.59667333  1
  O2-  O197  1  0.03664312  0.58510722  0.93459608  1
  O2-  O198  1  0.55441087  0.08310022  0.27949223  1
  O2-  O199  1  0.55556032  0.08303480  0.60235424  1
  O2-  O200  1  0.53736664  0.08296698  0.93002599  1
  O2-  O201  1  0.54286479  0.58124489  0.25993951  1
  O2-  O202  1  0.55522149  0.57663461  0.60452210  1
  O2-  O203  1  0.55185713  0.58473714  0.93868768  1
  O2-  O204  1  0.15933091  0.21029417  0.27039327  1
  O2-  O205  1  0.16105110  0.20446425  0.60230011  1
  O2-  O206  1  0.17201477  0.20682121  0.93207240  1
  O2-  O207  1  0.16486326  0.70000477  0.26925893  1
  O2-  O208  1  0.16544748  0.70878213  0.59914768  1
  O2-  O209  1  0.16715465  0.70964152  0.93223278  1
  O2-  O210  1  0.66502649  0.21130012  0.27205509  1
  O2-  O211  1  0.66886926  0.20682961  0.60226490  1
  O2-  O212  1  0.66396812  0.20821190  0.92994145  1
  O2-  O213  1  0.67061021  0.70627214  0.26259682  1
  O2-  O214  1  0.67078721  0.71168249  0.60064936  1
  O2-  O215  1  0.66270840  0.71260678  0.93777208  1
  O2-  O216  1  0.08555472  0.46368361  0.07064087  1
  O2-  O217  1  0.08164692  0.45171956  0.39662974  1
  O2-  O218  1  0.07919676  0.45383010  0.73276207  1
  O2-  O219  1  0.08001664  0.94743094  0.06087129  1
  O2-  O220  1  0.08730254  0.95851670  0.39586119  1
  O2-  O221  1  0.08752083  0.96213927  0.73915967  1
  O2-  O222  1  0.58256760  0.45239327  0.06489359  1
  O2-  O223  1  0.58582654  0.45547697  0.39164466  1
  O2-  O224  1  0.58295802  0.44638238  0.73014296  1
  O2-  O225  1  0.58794013  0.96048623  0.06211066  1
  O2-  O226  1  0.58235666  0.95367629  0.40615860  1
  O2-  O227  1  0.58361531  0.95567560  0.73156040  1
  O2-  O228  1  0.20828616  0.33395384  0.07043043  1
  O2-  O229  1  0.20076896  0.33405690  0.39588670  1
  O2-  O230  1  0.20831206  0.32889988  0.73373085  1
  O2-  O231  1  0.20451453  0.83316600  0.06562406  1
  O2-  O232  1  0.19765066  0.83126536  0.39092519  1
  O2-  O233  1  0.20848473  0.83215992  0.73573058  1
  O2-  O234  1  0.70324876  0.33272817  0.06273935  1
  O2-  O235  1  0.70903351  0.34069349  0.39926447  1
  O2-  O236  1  0.70678893  0.33491190  0.73179262  1
  O2-  O237  1  0.70547943  0.83938151  0.06410561  1
  O2-  O238  1  0.71097445  0.82850512  0.40131648  1
  O2-  O239  1  0.70534720  0.83759155  0.73448924  1
  O2-  O240  1  0.46139296  0.41278064  0.26015716  1
  O2-  O241  1  0.46049800  0.41353422  0.59879822  1
  O2-  O242  1  0.45347147  0.41713403  0.93782570  1
  O2-  O243  1  0.45750125  0.92435852  0.26733129  1
  O2-  O244  1  0.45719230  0.92018174  0.59932011  1
  O2-  O245  1  0.46358545  0.90919132  0.93552275  1
  O2-  O246  1  0.95650824  0.41264286  0.26936748  1
  O2-  O247  1  0.95662426  0.41071285  0.60025698  1
  O2-  O248  1  0.95915906  0.42045215  0.93457384  1
  O2-  O249  1  0.96209619  0.91653737  0.26366347  1
  O2-  O250  1  0.95929414  0.91747069  0.60715891  1
  O2-  O251  1  0.94677887  0.91717125  0.93717860  1
  O2-  O252  1  0.32926326  0.29051857  0.26562898  1
  O2-  O253  1  0.33246043  0.28648379  0.59772915  1
  O2-  O254  1  0.33378455  0.29675162  0.93941858  1
  O2-  O255  1  0.32921193  0.79496586  0.26197913  1
  O2-  O256  1  0.32802511  0.79842614  0.59921575  1
  O2-  O257  1  0.33650936  0.79789526  0.94063210  1
  O2-  O258  1  0.83472891  0.29654778  0.27163585  1
  O2-  O259  1  0.83643431  0.29212535  0.60291933  1
  O2-  O260  1  0.83074479  0.29629251  0.92966575  1
  O2-  O261  1  0.83562187  0.79134161  0.26428390  1
  O2-  O262  1  0.83479106  0.80166605  0.60804335  1
  O2-  O263  1  0.83100974  0.79568407  0.93696522  1
  O2-  O264  1  0.41567751  0.03465174  0.06681623  1
  O2-  O265  1  0.41870362  0.05005160  0.40307179  1
  O2-  O266  1  0.42048791  0.05411250  0.72310215  1
  O2-  O267  1  0.42018749  0.55153755  0.06210483  1
  O2-  O268  1  0.41810114  0.53699295  0.39605867  1
  O2-  O269  1  0.42184935  0.54144719  0.73349681  1
  O2-  O270  1  0.91388024  0.04745897  0.05951716  1
  O2-  O271  1  0.92193096  0.04325550  0.39823958  1
  O2-  O272  1  0.91577396  0.03970703  0.74037056  1
  O2-  O273  1  0.91466820  0.53913030  0.07226104  1
  O2-  O274  1  0.91250514  0.53954947  0.39575565  1
  O2-  O275  1  0.91380897  0.53550770  0.73251360  1
  O2-  O276  1  0.29266194  0.16571806  0.06686243  1
  O2-  O277  1  0.28269341  0.16610043  0.40227405  1
  O2-  O278  1  0.29137092  0.16286408  0.73018774  1
  O2-  O279  1  0.29598184  0.66750031  0.06318526  1
  O2-  O280  1  0.29184015  0.66751677  0.39816350  1
  O2-  O281  1  0.29656165  0.67020126  0.73232741  1
  O2-  O282  1  0.79161203  0.16548478  0.05853243  1
  O2-  O283  1  0.79543319  0.17100500  0.40118766  1
  O2-  O284  1  0.79166942  0.16861240  0.73733209  1
  O2-  O285  1  0.78828908  0.66741186  0.06965366  1
  O2-  O286  1  0.79747003  0.66349258  0.39314022  1
  O2-  O287  1  0.79305609  0.66908094  0.73448605  1
