# generated using pymatgen
data_Ca2Al2SiO7
_symmetry_space_group_name_H-M   'P 1'
_cell_length_a   15.46074541
_cell_length_b   15.46204788
_cell_length_c   15.28607049
_cell_angle_alpha   89.99633824
_cell_angle_beta   89.98833935
_cell_angle_gamma   90.00714773
_symmetry_Int_Tables_number   1
_chemical_formula_structural   Ca2Al2SiO7
_chemical_formula_sum   'Ca48 Al48 Si24 O168'
_cell_volume   3654.20819434
_cell_formula_units_Z   24
loop_
 _symmetry_equiv_pos_site_id
 _symmetry_equiv_pos_as_xyz
  1  'x, y, z'
loop_
 _atom_type_symbol
 _atom_type_oxidation_number
  Ca2+  2.0
  Al0+  0.0
  Si0+  0.0
  O2-  -2.0
loop_
 _atom_site_type_symbol
 _atom_site_label
 _atom_site_symmetry_multiplicity
 _atom_site_fract_x
 _atom_site_fract_y
 _atom_site_fract_z
 _atom_site_occupancy
  Ca2+  Ca0  1  0.17492928  0.08014799  0.16986797  1
  Ca2+  Ca1  1  0.17449641  0.09368078  0.50443647  1
  Ca2+  Ca2  1  0.17819327  0.08193687  0.83862146  1
  Ca2+  Ca3  1  0.17447199  0.57629673  0.17219269  1
  Ca2+  Ca4  1  0.16080904  0.56972228  0.50165825  1
  Ca2+  Ca5  1  0.16823210  0.57140774  0.84208863  1
  Ca2+  Ca6  1  0.67255142  0.08268159  0.17197215  1
  Ca2+  Ca7  1  0.68093920  0.08133607  0.51050769  1
  Ca2+  Ca8  1  0.66610608  0.08094199  0.83231505  1
  Ca2+  Ca9  1  0.67008582  0.58687544  0.17212554  1
  Ca2+  Ca10  1  0.67326094  0.58260377  0.50031641  1
  Ca2+  Ca11  1  0.66562646  0.58748179  0.83727452  1
  Ca2+  Ca12  1  0.08669178  0.33564005  0.16999388  1
  Ca2+  Ca13  1  0.08649620  0.32485716  0.49318246  1
  Ca2+  Ca14  1  0.09011347  0.33005814  0.82686823  1
  Ca2+  Ca15  1  0.07226197  0.84168628  0.16090722  1
  Ca2+  Ca16  1  0.06958889  0.83835409  0.49466003  1
  Ca2+  Ca17  1  0.07436353  0.84457790  0.83126716  1
  Ca2+  Ca18  1  0.58049090  0.32472913  0.15846872  1
  Ca2+  Ca19  1  0.58269369  0.32577705  0.49836712  1
  Ca2+  Ca20  1  0.57886927  0.31957430  0.82924110  1
  Ca2+  Ca21  1  0.57447891  0.82514798  0.15604358  1
  Ca2+  Ca22  1  0.57969804  0.84142183  0.50327674  1
  Ca2+  Ca23  1  0.57129490  0.83373293  0.82974286  1
  Ca2+  Ca24  1  0.32560088  0.42578910  0.17219926  1
  Ca2+  Ca25  1  0.32166417  0.41931437  0.50261209  1
  Ca2+  Ca26  1  0.32177299  0.41941084  0.84142283  1
  Ca2+  Ca27  1  0.33547404  0.92361942  0.16792347  1
  Ca2+  Ca28  1  0.33362399  0.92670615  0.50729863  1
  Ca2+  Ca29  1  0.33479192  0.92152847  0.84018322  1
  Ca2+  Ca30  1  0.83297943  0.42204009  0.17700146  1
  Ca2+  Ca31  1  0.84608551  0.42280609  0.49836375  1
  Ca2+  Ca32  1  0.83063450  0.41798597  0.83738353  1
  Ca2+  Ca33  1  0.83415549  0.91851458  0.17362043  1
  Ca2+  Ca34  1  0.83375156  0.92395910  0.50763931  1
  Ca2+  Ca35  1  0.83266474  0.91695336  0.83271695  1
  Ca2+  Ca36  1  0.41846431  0.16159836  0.16053419  1
  Ca2+  Ca37  1  0.42071985  0.15707195  0.49850727  1
  Ca2+  Ca38  1  0.42462727  0.15332918  0.82833658  1
  Ca2+  Ca39  1  0.41741982  0.66568869  0.15505531  1
  Ca2+  Ca40  1  0.41225633  0.67266971  0.49600548  1
  Ca2+  Ca41  1  0.40950357  0.67651224  0.83243062  1
  Ca2+  Ca42  1  0.92398316  0.16690277  0.16906599  1
  Ca2+  Ca43  1  0.92821734  0.16390745  0.49081941  1
  Ca2+  Ca44  1  0.92679841  0.16629955  0.82280102  1
  Ca2+  Ca45  1  0.91373149  0.67687558  0.16246210  1
  Ca2+  Ca46  1  0.91283691  0.67782910  0.49366128  1
  Ca2+  Ca47  1  0.91877749  0.68059460  0.82929943  1
  Al0+  Al48  1  -0.00015243  0.00372185  -0.00173328  1
  Al0+  Al49  1  -0.00018201  0.00114259  0.32663509  1
  Al0+  Al50  1  0.00085326  0.00222354  0.66053065  1
  Al0+  Al51  1  -0.00337456  0.50107820  0.00350162  1
  Al0+  Al52  1  -0.00100307  0.50054109  0.33782040  1
  Al0+  Al53  1  0.00021528  0.50118360  0.67375950  1
  Al0+  Al54  1  0.50331783  -0.00235731  -0.00239323  1
  Al0+  Al55  1  0.49949750  -0.00204310  0.33457281  1
  Al0+  Al56  1  0.50264247  -0.00140621  0.66409461  1
  Al0+  Al57  1  0.50145807  0.49606314  -0.00201815  1
  Al0+  Al58  1  0.49986040  0.49933604  0.33769880  1
  Al0+  Al59  1  0.50081222  0.50082841  0.66629222  1
  Al0+  Al60  1  0.24956776  0.24958665  0.00833959  1
  Al0+  Al61  1  0.25280338  0.24936494  0.33544795  1
  Al0+  Al62  1  0.25144017  0.25164875  0.67229382  1
  Al0+  Al63  1  0.24602344  0.74925327  0.00304884  1
  Al0+  Al64  1  0.24868530  0.75179850  0.33566318  1
  Al0+  Al65  1  0.24918479  0.74926995  0.65953595  1
  Al0+  Al66  1  0.75068467  0.25043030  -0.00410705  1
  Al0+  Al67  1  0.75064128  0.24855748  0.33353213  1
  Al0+  Al68  1  0.75041376  0.25235517  0.66636691  1
  Al0+  Al69  1  0.74977553  0.75148745  -0.00789574  1
  Al0+  Al70  1  0.74711396  0.74863440  0.33379085  1
  Al0+  Al71  1  0.74922531  0.75034130  0.66629666  1
  Al0+  Al72  1  0.07487451  0.17953485  0.31515735  1
  Al0+  Al73  1  0.32161761  0.06895876  0.34843771  1
  Al0+  Al74  1  0.18009194  0.43042926  0.68214738  1
  Al0+  Al75  1  0.57196862  0.17813616  0.98639014  1
  Al0+  Al76  1  0.07255902  0.18147983  0.65456716  1
  Al0+  Al77  1  0.42553177  0.81905257  0.98640356  1
  Al0+  Al78  1  0.17955575  0.42989651  0.35024631  1
  Al0+  Al79  1  0.82388462  0.07301263  0.68232279  1
  Al0+  Al80  1  0.32206182  0.57081223  0.01288573  1
  Al0+  Al81  1  0.92965914  0.82071450  0.65144087  1
  Al0+  Al82  1  0.32432750  0.06771113  0.01528969  1
  Al0+  Al83  1  0.17564602  0.42799610  0.01804359  1
  Al0+  Al84  1  0.92752535  0.81998162  0.31888969  1
  Al0+  Al85  1  0.68064914  0.92875906  0.68364486  1
  Al0+  Al86  1  0.57087073  0.67564222  0.98500653  1
  Al0+  Al87  1  0.93028198  0.82342002  0.98479389  1
  Al0+  Al88  1  0.17520255  0.92920179  0.01408084  1
  Al0+  Al89  1  0.81959774  0.57131654  0.34648764  1
  Al0+  Al90  1  0.92889479  0.32191083  0.31858409  1
  Al0+  Al91  1  0.32090424  0.06924828  0.67987841  1
  Al0+  Al92  1  0.42834963  0.82020605  0.65093704  1
  Al0+  Al93  1  0.57118877  0.17920083  0.65099991  1
  Al0+  Al94  1  0.82129736  0.07052116  0.34550068  1
  Al0+  Al95  1  0.32327783  0.57397718  0.35014309  1
  Si0+  Si96  1  0.06936424  0.67574285  0.98430087  1
  Si0+  Si97  1  0.17617168  0.92897595  0.35015922  1
  Si0+  Si98  1  0.82077858  0.07319102  0.01479720  1
  Si0+  Si99  1  0.92861119  0.32276550  0.98491739  1
  Si0+  Si100  1  0.67676957  0.42924971  0.68317050  1
  Si0+  Si101  1  0.92788853  0.32461103  0.65201004  1
  Si0+  Si102  1  0.42677776  0.31956282  0.98431214  1
  Si0+  Si103  1  0.68056085  0.42632297  0.01394130  1
  Si0+  Si104  1  0.17752321  0.92596916  0.67984248  1
  Si0+  Si105  1  0.43108769  0.32149941  0.31882427  1
  Si0+  Si106  1  0.67765184  0.42601931  0.35013881  1
  Si0+  Si107  1  0.56860005  0.67755398  0.31978785  1
  Si0+  Si108  1  0.32309221  0.57374566  0.68315121  1
  Si0+  Si109  1  0.07137324  0.18179553  0.98482266  1
  Si0+  Si110  1  0.81717366  0.57252241  0.01402187  1
  Si0+  Si111  1  0.68166580  0.92821767  0.01503449  1
  Si0+  Si112  1  0.57210318  0.67653532  0.64707450  1
  Si0+  Si113  1  0.07170610  0.67814641  0.31682440  1
  Si0+  Si114  1  0.81973772  0.57092013  0.68364295  1
  Si0+  Si115  1  0.07047615  0.67556427  0.64963890  1
  Si0+  Si116  1  0.42819695  0.82129255  0.31836351  1
  Si0+  Si117  1  0.42900449  0.32356795  0.64982791  1
  Si0+  Si118  1  0.57079375  0.17761358  0.31883320  1
  Si0+  Si119  1  0.67798539  0.92747058  0.34871718  1
  O2-  O120  1  0.25287815  -0.00519322  0.06504715  1
  O2-  O121  1  0.24458500  -0.00281036  0.39520909  1
  O2-  O122  1  0.24750740  -0.00737249  0.72488334  1
  O2-  O123  1  0.24936126  0.50029946  0.06414376  1
  O2-  O124  1  0.24953950  0.50430321  0.40029574  1
  O2-  O125  1  0.25441589  0.50594149  0.72763589  1
  O2-  O126  1  0.75173400  0.00007458  0.05730052  1
  O2-  O127  1  0.74837307  -0.00560480  0.39182916  1
  O2-  O128  1  0.75262067  0.00112508  0.73418485  1
  O2-  O129  1  0.74513512  0.50270701  0.05653695  1
  O2-  O130  1  0.74926283  0.49221542  0.39397741  1
  O2-  O131  1  0.74855191  0.49974748  0.72544108  1
  O2-  O132  1  0.00192252  0.25252256  0.26626219  1
  O2-  O133  1  -0.00604693  0.25354937  0.60943818  1
  O2-  O134  1  0.00408798  0.25713126  0.94320375  1
  O2-  O135  1  0.00326444  0.74665317  0.27136327  1
  O2-  O136  1  0.00564061  0.74733658  0.60478850  1
  O2-  O137  1  0.00780686  0.75077862  0.93909575  1
  O2-  O138  1  0.50106522  0.24924389  0.27599929  1
  O2-  O139  1  0.49555948  0.25313896  0.60411717  1
  O2-  O140  1  0.49106443  0.24660614  0.94009806  1
  O2-  O141  1  0.49369235  0.74418330  0.27793541  1
  O2-  O142  1  0.50196602  0.74364634  0.60342595  1
  O2-  O143  1  0.49376133  0.74258058  0.93653548  1
  O2-  O144  1  0.06856048  0.17970322  0.08943607  1
  O2-  O145  1  0.07453242  0.18069454  0.42889055  1
  O2-  O146  1  0.07294159  0.18350128  0.76824203  1
  O2-  O147  1  0.06225428  0.67111817  0.08942556  1
  O2-  O148  1  0.06942777  0.67998590  0.42265825  1
  O2-  O149  1  0.06742358  0.67259991  0.75515411  1
  O2-  O150  1  0.57586429  0.18215484  0.09999304  1
  O2-  O151  1  0.57046251  0.17820011  0.42376776  1
  O2-  O152  1  0.57034266  0.18149154  0.76418024  1
  O2-  O153  1  0.57507512  0.67941369  0.09912151  1
  O2-  O154  1  0.57116948  0.67808341  0.42472428  1
  O2-  O155  1  0.57210784  0.67450635  0.75225059  1
  O2-  O156  1  0.18221624  0.43240894  0.23700948  1
  O2-  O157  1  0.17876534  0.43084813  0.56959961  1
  O2-  O158  1  0.17568268  0.42880512  0.90408509  1
  O2-  O159  1  0.17835931  0.92845190  0.24465288  1
  O2-  O160  1  0.17863022  0.92596646  0.57417639  1
  O2-  O161  1  0.17125554  0.93665108  0.90052873  1
  O2-  O162  1  0.67560416  0.42783722  0.24432231  1
  O2-  O163  1  0.67494117  0.43034983  0.57814698  1
  O2-  O164  1  0.68549177  0.42348118  0.90888850  1
  O2-  O165  1  0.67638569  0.92845209  0.24271789  1
  O2-  O166  1  0.68259747  0.92990899  0.56954089  1
  O2-  O167  1  0.68238751  0.92796828  0.91048445  1
  O2-  O168  1  0.43190531  0.32165692  0.09011558  1
  O2-  O169  1  0.43422791  0.32252892  0.42390950  1
  O2-  O170  1  0.43263595  0.32625919  0.75523558  1
  O2-  O171  1  0.43204223  0.82083423  0.10047062  1
  O2-  O172  1  0.43202336  0.82380069  0.42334042  1
  O2-  O173  1  0.42738349  0.81842140  0.76363651  1
  O2-  O174  1  0.92346635  0.32190808  0.08935338  1
  O2-  O175  1  0.92904086  0.32035156  0.43216805  1
  O2-  O176  1  0.92851100  0.32642978  0.75817240  1
  O2-  O177  1  0.92665480  0.82075722  0.09789405  1
  O2-  O178  1  0.92689566  0.81865402  0.43190365  1
  O2-  O179  1  0.93068844  0.81867390  0.76469752  1
  O2-  O180  1  0.32741964  0.06530903  0.23582527  1
  O2-  O181  1  0.31945619  0.06937364  0.56662613  1
  O2-  O182  1  0.32334190  0.06804828  0.90171975  1
  O2-  O183  1  0.32655652  0.57078170  0.23680913  1
  O2-  O184  1  0.32348544  0.57127737  0.57771110  1
  O2-  O185  1  0.32016155  0.56759058  0.89898467  1
  O2-  O186  1  0.81728664  0.07031023  0.23166766  1
  O2-  O187  1  0.82339560  0.07163914  0.56868914  1
  O2-  O188  1  0.82079392  0.07474929  0.91004482  1
  O2-  O189  1  0.81423413  0.57377782  0.23320091  1
  O2-  O190  1  0.81966055  0.57004779  0.57853994  1
  O2-  O191  1  0.81766096  0.57009748  0.90867224  1
  O2-  O192  1  0.04356362  0.08260201  0.26059689  1
  O2-  O193  1  0.04613381  0.08543646  0.59781031  1
  O2-  O194  1  0.03869122  0.09296595  0.93522005  1
  O2-  O195  1  0.04577234  0.58437075  0.27265012  1
  O2-  O196  1  0.03805230  0.58365162  0.60330689  1
  O2-  O197  1  0.03529082  0.58520857  0.93492735  1
  O2-  O198  1  0.54196691  0.08564721  0.27189095  1
  O2-  O199  1  0.54280282  0.08294837  0.59644878  1
  O2-  O200  1  0.54787331  0.08027636  0.93301722  1
  O2-  O201  1  0.54670978  0.58350912  0.27342622  1
  O2-  O202  1  0.54950734  0.58176202  0.60082903  1
  O2-  O203  1  0.55312868  0.57370957  0.93422009  1
  O2-  O204  1  0.17451984  0.20718777  0.26409352  1
  O2-  O205  1  0.16880631  0.21605943  0.60197985  1
  O2-  O206  1  0.16534960  0.20645023  0.94011786  1
  O2-  O207  1  0.16627236  0.70280051  0.27183465  1
  O2-  O208  1  0.16511049  0.69437114  0.60347979  1
  O2-  O209  1  0.16536723  0.69216241  0.94089076  1
  O2-  O210  1  0.66238148  0.20477259  0.27085093  1
  O2-  O211  1  0.66754778  0.21425615  0.59779423  1
  O2-  O212  1  0.66555851  0.21615042  0.93033357  1
  O2-  O213  1  0.65842345  0.70866654  0.27015486  1
  O2-  O214  1  0.66538155  0.70379644  0.60102529  1
  O2-  O215  1  0.66651677  0.70907282  0.92916545  1
  O2-  O216  1  0.07631362  0.45724114  0.06899190  1
  O2-  O217  1  0.08056036  0.45624417  0.40322180  1
  O2-  O218  1  0.08354857  0.46076653  0.73804207  1
  O2-  O219  1  0.07909338  0.96522102  0.06889153  1
  O2-  O220  1  0.08182831  0.95463767  0.39365404  1
  O2-  O221  1  0.08433796  0.95391444  0.72429268  1
  O2-  O222  1  0.58679686  0.44607403  0.06034811  1
  O2-  O223  1  0.58660250  0.45505687  0.39940599  1
  O2-  O224  1  0.58570523  0.45771656  0.73205211  1
  O2-  O225  1  0.59042025  0.95492481  0.06372668  1
  O2-  O226  1  0.58581721  0.95544622  0.39585227  1
  O2-  O227  1  0.58247868  0.95841054  0.73533076  1
  O2-  O228  1  0.20298480  0.33032052  0.07146575  1
  O2-  O229  1  0.21271627  0.33255329  0.40183973  1
  O2-  O230  1  0.21354815  0.33635208  0.73892924  1
  O2-  O231  1  0.19017777  0.82706220  0.06391723  1
  O2-  O232  1  0.19888444  0.83501829  0.39670066  1
  O2-  O233  1  0.19895259  0.83022146  0.72389961  1
  O2-  O234  1  0.71428188  0.33733014  0.06378521  1
  O2-  O235  1  0.69986510  0.33178422  0.39554710  1
  O2-  O236  1  0.70506367  0.33839049  0.73172411  1
  O2-  O237  1  0.71115709  0.83637768  0.06204903  1
  O2-  O238  1  0.70002909  0.83341670  0.39471883  1
  O2-  O239  1  0.70733691  0.82914012  0.73523561  1
  O2-  O240  1  0.46133650  0.41281821  0.27090620  1
  O2-  O241  1  0.45749539  0.41631804  0.60222198  1
  O2-  O242  1  0.45723838  0.41008793  0.93473967  1
  O2-  O243  1  0.46305874  0.91009018  0.26892934  1
  O2-  O244  1  0.46379535  0.91460383  0.59549282  1
  O2-  O245  1  0.46183241  0.91469489  0.93260069  1
  O2-  O246  1  0.95290358  0.42304403  0.26786625  1
  O2-  O247  1  0.95618639  0.41858552  0.60774093  1
  O2-  O248  1  0.95012276  0.41690527  0.93829839  1
  O2-  O249  1  0.95691100  0.91596469  0.26340258  1
  O2-  O250  1  0.95929268  0.91691636  0.59666435  1
  O2-  O251  1  0.95872225  0.92113803  0.93140129  1
  O2-  O252  1  0.34010696  0.29425364  0.27132584  1
  O2-  O253  1  0.33478723  0.29906916  0.60627511  1
  O2-  O254  1  0.33063209  0.29900879  0.94203649  1
  O2-  O255  1  0.33349372  0.80148056  0.27396383  1
  O2-  O256  1  0.33178124  0.79203707  0.59413057  1
  O2-  O257  1  0.32440370  0.79744149  0.93513988  1
  O2-  O258  1  0.82907022  0.29416337  0.26579940  1
  O2-  O259  1  0.83251270  0.30684803  0.60711048  1
  O2-  O260  1  0.83937397  0.29110914  0.93400011  1
  O2-  O261  1  0.82999654  0.78743026  0.26641648  1
  O2-  O262  1  0.83343044  0.78614250  0.59903766  1
  O2-  O263  1  0.83621122  0.78849844  0.92891335  1
  O2-  O264  1  0.42432381  0.04073291  0.06714628  1
  O2-  O265  1  0.41754304  0.03436260  0.40281416  1
  O2-  O266  1  0.41833577  0.03795855  0.73040992  1
  O2-  O267  1  0.42191699  0.54098933  0.06407130  1
  O2-  O268  1  0.42109848  0.54384033  0.40426492  1
  O2-  O269  1  0.41790753  0.54945250  0.72750170  1
  O2-  O270  1  0.91257112  0.04692832  0.06166619  1
  O2-  O271  1  0.91930975  0.04161453  0.39621647  1
  O2-  O272  1  0.92323642  0.04396865  0.73326439  1
  O2-  O273  1  0.90744353  0.54409832  0.06297469  1
  O2-  O274  1  0.91562240  0.54524879  0.40332341  1
  O2-  O275  1  0.91011776  0.54325461  0.73379361  1
  O2-  O276  1  0.29642423  0.16624516  0.06815436  1
  O2-  O277  1  0.29731307  0.16722881  0.40114377  1
  O2-  O278  1  0.29299174  0.16595044  0.73476130  1
  O2-  O279  1  0.29702134  0.66965890  0.06617727  1
  O2-  O280  1  0.29777360  0.67422639  0.40066989  1
  O2-  O281  1  0.29686096  0.66833217  0.72623624  1
  O2-  O282  1  0.78938182  0.16425351  0.06188523  1
  O2-  O283  1  0.78976745  0.16626858  0.40022623  1
  O2-  O284  1  0.79655019  0.17331873  0.73289300  1
  O2-  O285  1  0.78939076  0.66501337  0.05987331  1
  O2-  O286  1  0.78214782  0.66490080  0.40299947  1
  O2-  O287  1  0.79017412  0.66179212  0.73105179  1
