# generated using pymatgen
data_Ca2Al2SiO7
_symmetry_space_group_name_H-M   'P 1'
_cell_length_a   15.46135782
_cell_length_b   15.46166634
_cell_length_c   15.28630556
_cell_angle_alpha   90.01201506
_cell_angle_beta   89.99076825
_cell_angle_gamma   90.01015663
_symmetry_Int_Tables_number   1
_chemical_formula_structural   Ca2Al2SiO7
_chemical_formula_sum   'Ca48 Al48 Si24 O168'
_cell_volume   3654.31888758
_cell_formula_units_Z   24
loop_
 _symmetry_equiv_pos_site_id
 _symmetry_equiv_pos_as_xyz
  1  'x, y, z'
loop_
 _atom_type_symbol
 _atom_type_oxidation_number
  Ca2+  2.0
  Al0+  0.0
  Si0+  0.0
  O2-  -2.0
loop_
 _atom_site_type_symbol
 _atom_site_label
 _atom_site_symmetry_multiplicity
 _atom_site_fract_x
 _atom_site_fract_y
 _atom_site_fract_z
 _atom_site_occupancy
  Ca2+  Ca0  1  0.16838146  0.07212715  0.17540015  1
  Ca2+  Ca1  1  0.17938682  0.07410885  0.50088332  1
  Ca2+  Ca2  1  0.17255522  0.07245467  0.83417851  1
  Ca2+  Ca3  1  0.17713699  0.58467448  0.17111002  1
  Ca2+  Ca4  1  0.17214189  0.57399938  0.49815086  1
  Ca2+  Ca5  1  0.17318588  0.58069494  0.84068900  1
  Ca2+  Ca6  1  0.67420008  0.07496239  0.17861879  1
  Ca2+  Ca7  1  0.66883627  0.08569369  0.49825050  1
  Ca2+  Ca8  1  0.66141414  0.08369965  0.83393238  1
  Ca2+  Ca9  1  0.66926120  0.58583853  0.17449289  1
  Ca2+  Ca10  1  0.65924314  0.57953299  0.49431906  1
  Ca2+  Ca11  1  0.67189339  0.58405459  0.84322380  1
  Ca2+  Ca12  1  0.07247198  0.34204872  0.16595801  1
  Ca2+  Ca13  1  0.08206691  0.33728546  0.48948308  1
  Ca2+  Ca14  1  0.07772744  0.34024167  0.82901084  1
  Ca2+  Ca15  1  0.08362527  0.83452480  0.16262267  1
  Ca2+  Ca16  1  0.08083412  0.84175745  0.49206153  1
  Ca2+  Ca17  1  0.09510627  0.82908590  0.83341703  1
  Ca2+  Ca18  1  0.57829846  0.33914390  0.17042227  1
  Ca2+  Ca19  1  0.57162717  0.32968350  0.49363655  1
  Ca2+  Ca20  1  0.57370366  0.32681954  0.82334489  1
  Ca2+  Ca21  1  0.58133935  0.82458832  0.16842662  1
  Ca2+  Ca22  1  0.57224205  0.83076598  0.48919952  1
  Ca2+  Ca23  1  0.57648208  0.82466211  0.82700072  1
  Ca2+  Ca24  1  0.33138855  0.42794294  0.17935478  1
  Ca2+  Ca25  1  0.33037523  0.41543982  0.50157897  1
  Ca2+  Ca26  1  0.32977291  0.41736963  0.83605176  1
  Ca2+  Ca27  1  0.32378268  0.91808565  0.17813426  1
  Ca2+  Ca28  1  0.33309355  0.91879702  0.50676260  1
  Ca2+  Ca29  1  0.33030101  0.91563937  0.83382498  1
  Ca2+  Ca30  1  0.83067563  0.41879431  0.17315280  1
  Ca2+  Ca31  1  0.82601991  0.41109204  0.49709148  1
  Ca2+  Ca32  1  0.83139469  0.42241294  0.84276965  1
  Ca2+  Ca33  1  0.82915123  0.91877983  0.18075804  1
  Ca2+  Ca34  1  0.82797014  0.91526734  0.49441756  1
  Ca2+  Ca35  1  0.82993936  0.91944558  0.83764718  1
  Ca2+  Ca36  1  0.40651769  0.17281585  0.17081784  1
  Ca2+  Ca37  1  0.40867910  0.17203824  0.49537093  1
  Ca2+  Ca38  1  0.42049606  0.16956838  0.81971285  1
  Ca2+  Ca39  1  0.42206193  0.66304072  0.16603392  1
  Ca2+  Ca40  1  0.41613121  0.67690796  0.48924090  1
  Ca2+  Ca41  1  0.41629815  0.66848860  0.83241463  1
  Ca2+  Ca42  1  0.91179743  0.17631901  0.16717788  1
  Ca2+  Ca43  1  0.92107181  0.16949627  0.48816862  1
  Ca2+  Ca44  1  0.91879458  0.17381397  0.83143209  1
  Ca2+  Ca45  1  0.92356503  0.66968841  0.16131638  1
  Ca2+  Ca46  1  0.92291857  0.67436125  0.49053107  1
  Ca2+  Ca47  1  0.92385148  0.66300525  0.83497921  1
  Al0+  Al48  1  -0.00092737  0.00238391  0.00168957  1
  Al0+  Al49  1  -0.00025740  0.00159292  0.33508476  1
  Al0+  Al50  1  -0.00131076  0.00048002  0.67197872  1
  Al0+  Al51  1  -0.00220492  0.50200454  -0.00503018  1
  Al0+  Al52  1  -0.00056593  0.50112804  0.33198503  1
  Al0+  Al53  1  0.00008718  0.50190928  0.66876280  1
  Al0+  Al54  1  0.49938679  0.00099544  0.00098547  1
  Al0+  Al55  1  0.50101031  0.00004336  0.33421510  1
  Al0+  Al56  1  0.50328686  -0.00176075  0.66450420  1
  Al0+  Al57  1  0.50010283  0.49934810  -0.00298244  1
  Al0+  Al58  1  0.50156299  0.49952698  0.33461181  1
  Al0+  Al59  1  0.50185528  0.49825819  0.66552978  1
  Al0+  Al60  1  0.24754318  0.24868293  -0.00188562  1
  Al0+  Al61  1  0.24793718  0.24796228  0.33260828  1
  Al0+  Al62  1  0.24714985  0.24936215  0.67294370  1
  Al0+  Al63  1  0.24945336  0.74990063  0.00367922  1
  Al0+  Al64  1  0.24948037  0.74839084  0.33748394  1
  Al0+  Al65  1  0.24985204  0.74669576  0.66504270  1
  Al0+  Al66  1  0.74919220  0.25013185  -0.00595148  1
  Al0+  Al67  1  0.75057795  0.25152292  0.33635504  1
  Al0+  Al68  1  0.75005334  0.25102633  0.66558196  1
  Al0+  Al69  1  0.74986355  0.74969034  -0.00096363  1
  Al0+  Al70  1  0.75227213  0.75096740  0.33136354  1
  Al0+  Al71  1  0.75281118  0.75046102  0.66793125  1
  Al0+  Al72  1  0.17791377  0.92716311  0.68319908  1
  Al0+  Al73  1  0.32243475  0.07101856  0.34717021  1
  Al0+  Al74  1  0.42622692  0.82335977  0.31737690  1
  Al0+  Al75  1  0.93171829  0.82234628  0.32020256  1
  Al0+  Al76  1  0.67904879  0.92655956  0.34858748  1
  Al0+  Al77  1  0.17774810  0.42940042  0.68140207  1
  Al0+  Al78  1  0.18010752  0.93014758  0.01453826  1
  Al0+  Al79  1  0.57041985  0.67874159  0.31885558  1
  Al0+  Al80  1  0.82083942  0.57146966  0.01450567  1
  Al0+  Al81  1  0.32351975  0.57077723  0.34963008  1
  Al0+  Al82  1  0.17777001  0.42948319  0.34487411  1
  Al0+  Al83  1  0.92942510  0.32048014  0.98465860  1
  Al0+  Al84  1  0.57162436  0.67865283  0.98546400  1
  Al0+  Al85  1  0.42587854  0.32008312  0.65127510  1
  Al0+  Al86  1  0.57284001  0.17800487  0.64982137  1
  Al0+  Al87  1  0.17936472  0.92725678  0.34776408  1
  Al0+  Al88  1  0.32187546  0.56871969  0.01325819  1
  Al0+  Al89  1  0.42718237  0.31931479  0.31915126  1
  Al0+  Al90  1  0.92824262  0.32188800  0.32021156  1
  Al0+  Al91  1  0.42930826  0.81729840  0.65432129  1
  Al0+  Al92  1  0.07158074  0.68165711  0.98615759  1
  Al0+  Al93  1  0.67935138  0.42940780  0.34677201  1
  Al0+  Al94  1  0.82064077  0.07218527  0.34824604  1
  Al0+  Al95  1  0.32371392  0.06961967  0.68250091  1
  Si0+  Si96  1  0.68006514  0.42893077  0.68308807  1
  Si0+  Si97  1  0.07168647  0.17620875  0.98063838  1
  Si0+  Si98  1  0.82086956  0.57190534  0.68220176  1
  Si0+  Si99  1  0.68094079  0.92729246  0.68329313  1
  Si0+  Si100  1  0.82259585  0.57259909  0.35029858  1
  Si0+  Si101  1  0.32335780  0.57027487  0.68353539  1
  Si0+  Si102  1  0.32369525  0.07366447  0.01696338  1
  Si0+  Si103  1  0.57633002  0.67752402  0.65053086  1
  Si0+  Si104  1  0.07183558  0.67710938  0.31665634  1
  Si0+  Si105  1  0.67856328  0.92923724  0.01362660  1
  Si0+  Si106  1  0.92768508  0.82442541  0.98255848  1
  Si0+  Si107  1  0.07107920  0.17847134  0.31568381  1
  Si0+  Si108  1  0.17686388  0.42682943  0.01562195  1
  Si0+  Si109  1  0.67882706  0.42699921  0.01531688  1
  Si0+  Si110  1  0.06839290  0.17760830  0.65252606  1
  Si0+  Si111  1  0.42736573  0.32094723  0.98564359  1
  Si0+  Si112  1  0.81932156  0.07258134  0.01352566  1
  Si0+  Si113  1  0.93061306  0.32280836  0.65095631  1
  Si0+  Si114  1  0.82038226  0.07275216  0.68397055  1
  Si0+  Si115  1  0.42883471  0.82254878  0.98399379  1
  Si0+  Si116  1  0.07000583  0.67847083  0.65114868  1
  Si0+  Si117  1  0.92885028  0.82227179  0.65253521  1
  Si0+  Si118  1  0.56987370  0.17848818  0.98592558  1
  Si0+  Si119  1  0.57322931  0.17896370  0.31570008  1
  O2-  O120  1  0.25471835  0.00514941  0.05948044  1
  O2-  O121  1  0.25812353  -0.00798395  0.39704957  1
  O2-  O122  1  0.25348334  -0.00430054  0.73320805  1
  O2-  O123  1  0.24847899  0.49202361  0.05899013  1
  O2-  O124  1  0.25296965  0.49593565  0.39753441  1
  O2-  O125  1  0.25683673  0.49937843  0.72813581  1
  O2-  O126  1  0.75147895  -0.00120418  0.05481560  1
  O2-  O127  1  0.74851575  0.00107917  0.39942137  1
  O2-  O128  1  0.74830161  0.00239388  0.72612358  1
  O2-  O129  1  0.74498000  0.49770968  0.05961339  1
  O2-  O130  1  0.75332412  0.50481517  0.39487887  1
  O2-  O131  1  0.74853766  0.50238527  0.72507113  1
  O2-  O132  1  0.00396609  0.24950249  0.27202324  1
  O2-  O133  1  0.00161659  0.25249313  0.60913127  1
  O2-  O134  1  0.00655031  0.24895004  0.93630149  1
  O2-  O135  1  0.00775604  0.75040809  0.27279447  1
  O2-  O136  1  0.00411299  0.75547928  0.61122394  1
  O2-  O137  1  -0.00194778  0.75795018  0.93733877  1
  O2-  O138  1  0.50099699  0.24372418  0.27048439  1
  O2-  O139  1  0.49525755  0.24481379  0.60188197  1
  O2-  O140  1  0.49604394  0.24685907  0.94440501  1
  O2-  O141  1  0.49735175  0.74943809  0.26815006  1
  O2-  O142  1  0.50395080  0.74217608  0.60853626  1
  O2-  O143  1  0.49705713  0.75333267  0.93879246  1
  O2-  O144  1  0.07029107  0.17404066  0.08555140  1
  O2-  O145  1  0.06925399  0.17833524  0.42159464  1
  O2-  O146  1  0.06286567  0.17701137  0.75788152  1
  O2-  O147  1  0.07000954  0.68209305  0.09860612  1
  O2-  O148  1  0.06664518  0.67332878  0.42257536  1
  O2-  O149  1  0.06753737  0.67654639  0.75644064  1
  O2-  O150  1  0.57367730  0.17746590  0.09020045  1
  O2-  O151  1  0.57601228  0.18344044  0.42090062  1
  O2-  O152  1  0.57496074  0.18289882  0.76464807  1
  O2-  O153  1  0.57364024  0.67961339  0.09743333  1
  O2-  O154  1  0.57040029  0.68059985  0.43290651  1
  O2-  O155  1  0.57968311  0.67988933  0.75659532  1
  O2-  O156  1  0.17585607  0.43357881  0.23105721  1
  O2-  O157  1  0.17108123  0.43340391  0.56930344  1
  O2-  O158  1  0.17873984  0.42790015  0.90956505  1
  O2-  O159  1  0.17691697  0.93124780  0.23394189  1
  O2-  O160  1  0.17335567  0.93107942  0.57081143  1
  O2-  O161  1  0.18269007  0.93089653  0.90138342  1
  O2-  O162  1  0.68184098  0.42892659  0.23343841  1
  O2-  O163  1  0.68141889  0.42801273  0.57850669  1
  O2-  O164  1  0.68095372  0.42644698  0.90907377  1
  O2-  O165  1  0.68254674  0.92758209  0.23411466  1
  O2-  O166  1  0.68533427  0.92193082  0.57939656  1
  O2-  O167  1  0.67864419  0.93148714  0.90789299  1
  O2-  O168  1  0.42800864  0.32152925  0.09041031  1
  O2-  O169  1  0.42748631  0.31873799  0.43175674  1
  O2-  O170  1  0.43081687  0.32169863  0.76601782  1
  O2-  O171  1  0.43170608  0.82520046  0.08874394  1
  O2-  O172  1  0.42791571  0.82146922  0.43125449  1
  O2-  O173  1  0.43147691  0.81473325  0.76830322  1
  O2-  O174  1  0.92666894  0.31837707  0.09717245  1
  O2-  O175  1  0.92986411  0.32068120  0.43381875  1
  O2-  O176  1  0.92983010  0.32200923  0.75644174  1
  O2-  O177  1  0.92686712  0.82465775  0.08764539  1
  O2-  O178  1  0.93173755  0.81957010  0.43408319  1
  O2-  O179  1  0.92351833  0.82023281  0.75761775  1
  O2-  O180  1  0.31608441  0.07300568  0.23307249  1
  O2-  O181  1  0.32074798  0.06936983  0.56982987  1
  O2-  O182  1  0.32643913  0.07397373  0.91153528  1
  O2-  O183  1  0.32222480  0.56937625  0.23558943  1
  O2-  O184  1  0.32146327  0.57115343  0.57868358  1
  O2-  O185  1  0.32091380  0.56671805  0.89958933  1
  O2-  O186  1  0.81801736  0.07231383  0.23388995  1
  O2-  O187  1  0.82267422  0.07339397  0.57978568  1
  O2-  O188  1  0.81738906  0.07258254  0.90781481  1
  O2-  O189  1  0.82364131  0.57138729  0.24473490  1
  O2-  O190  1  0.82248902  0.57250716  0.57761642  1
  O2-  O191  1  0.81936948  0.56932703  0.90042662  1
  O2-  O192  1  0.04073720  0.08702176  0.26805971  1
  O2-  O193  1  0.03483016  0.08753833  0.60547849  1
  O2-  O194  1  0.03979040  0.08516647  0.93194053  1
  O2-  O195  1  0.04017185  0.58695151  0.26729318  1
  O2-  O196  1  0.03366728  0.59005223  0.60253869  1
  O2-  O197  1  0.03826462  0.58663768  0.92926811  1
  O2-  O198  1  0.55428043  0.08340978  0.27138135  1
  O2-  O199  1  0.55729272  0.07573146  0.60234156  1
  O2-  O200  1  0.54420296  0.08610750  0.93679955  1
  O2-  O201  1  0.54633247  0.57929835  0.26614190  1
  O2-  O202  1  0.55573445  0.58151458  0.60856869  1
  O2-  O203  1  0.54267406  0.58136154  0.93004759  1
  O2-  O204  1  0.16382072  0.20109339  0.26751881  1
  O2-  O205  1  0.16198218  0.20104175  0.60899799  1
  O2-  O206  1  0.16669600  0.19770708  0.93457144  1
  O2-  O207  1  0.16709319  0.69735649  0.27359900  1
  O2-  O208  1  0.16332447  0.69822125  0.60476060  1
  O2-  O209  1  0.16840431  0.71171853  0.93074256  1
  O2-  O210  1  0.66514364  0.21005067  0.26868284  1
  O2-  O211  1  0.67027548  0.21199270  0.59782747  1
  O2-  O212  1  0.65991510  0.20751596  0.93459591  1
  O2-  O213  1  0.66946689  0.70806600  0.26710787  1
  O2-  O214  1  0.66926231  0.70614723  0.60495480  1
  O2-  O215  1  0.66795513  0.71078031  0.92976332  1
  O2-  O216  1  0.08281200  0.45517229  0.05740997  1
  O2-  O217  1  0.08047745  0.46115643  0.39955579  1
  O2-  O218  1  0.08245475  0.46587406  0.73733834  1
  O2-  O219  1  0.08158586  0.96061540  0.06552595  1
  O2-  O220  1  0.08322556  0.96272730  0.40081503  1
  O2-  O221  1  0.07978181  0.95819824  0.73798437  1
  O2-  O222  1  0.58382230  0.44938886  0.05831327  1
  O2-  O223  1  0.58463029  0.45930646  0.40377654  1
  O2-  O224  1  0.58763546  0.45378728  0.73147373  1
  O2-  O225  1  0.58763973  0.95884451  0.06091355  1
  O2-  O226  1  0.58055211  0.95254544  0.40037552  1
  O2-  O227  1  0.58929755  0.95178341  0.73229091  1
  O2-  O228  1  0.19633982  0.33061700  0.05854442  1
  O2-  O229  1  0.20003628  0.32933355  0.39531490  1
  O2-  O230  1  0.20048072  0.33186461  0.73766634  1
  O2-  O231  1  0.20817167  0.83369432  0.06829429  1
  O2-  O232  1  0.19553928  0.82638312  0.39907442  1
  O2-  O233  1  0.20473588  0.82610145  0.73236330  1
  O2-  O234  1  0.70709616  0.33362329  0.05993311  1
  O2-  O235  1  0.71345488  0.33582389  0.40373949  1
  O2-  O236  1  0.71128490  0.33828727  0.73184016  1
  O2-  O237  1  0.70552060  0.83743308  0.05950891  1
  O2-  O238  1  0.71360385  0.83069217  0.40307763  1
  O2-  O239  1  0.71442676  0.83764809  0.73382757  1
  O2-  O240  1  0.46226630  0.41487361  0.26595994  1
  O2-  O241  1  0.45877671  0.41813401  0.59999860  1
  O2-  O242  1  0.45771058  0.41033179  0.93509482  1
  O2-  O243  1  0.45466244  0.92216641  0.26462548  1
  O2-  O244  1  0.46136777  0.91350104  0.60230636  1
  O2-  O245  1  0.45599539  0.91635267  0.93704316  1
  O2-  O246  1  0.95748982  0.41878161  0.26547344  1
  O2-  O247  1  0.95680335  0.41564505  0.60564903  1
  O2-  O248  1  0.95740172  0.41709932  0.92883963  1
  O2-  O249  1  0.95787561  0.92019492  0.26644457  1
  O2-  O250  1  0.95225749  0.91620591  0.60797053  1
  O2-  O251  1  0.94970131  0.91980536  0.93746481  1
  O2-  O252  1  0.33072964  0.28917313  0.26345410  1
  O2-  O253  1  0.32419221  0.29650742  0.60388020  1
  O2-  O254  1  0.33391322  0.29652460  0.93885843  1
  O2-  O255  1  0.32633703  0.79488987  0.26746108  1
  O2-  O256  1  0.33247778  0.78801804  0.60037469  1
  O2-  O257  1  0.33545027  0.79522793  0.93916520  1
  O2-  O258  1  0.83255108  0.28925012  0.26559008  1
  O2-  O259  1  0.83837383  0.29433475  0.60583650  1
  O2-  O260  1  0.83403331  0.28635214  0.92761453  1
  O2-  O261  1  0.83649274  0.79048452  0.26487557  1
  O2-  O262  1  0.83932479  0.78939826  0.60339916  1
  O2-  O263  1  0.83492378  0.79657392  0.93501979  1
  O2-  O264  1  0.41770214  0.05023437  0.06331092  1
  O2-  O265  1  0.42436977  0.05558604  0.39579570  1
  O2-  O266  1  0.42453082  0.04355379  0.73382108  1
  O2-  O267  1  0.41925342  0.53838518  0.06551588  1
  O2-  O268  1  0.42176139  0.54457311  0.40199660  1
  O2-  O269  1  0.41903803  0.54803387  0.72834931  1
  O2-  O270  1  0.91218826  0.05041993  0.05997278  1
  O2-  O271  1  0.91799293  0.04391481  0.40202522  1
  O2-  O272  1  0.90982974  0.04257851  0.73510297  1
  O2-  O273  1  0.91761996  0.54020394  0.06658181  1
  O2-  O274  1  0.91487308  0.54521514  0.39779491  1
  O2-  O275  1  0.91113845  0.54137662  0.73133198  1
  O2-  O276  1  0.29691998  0.16797886  0.06141999  1
  O2-  O277  1  0.28637316  0.16642309  0.40137997  1
  O2-  O278  1  0.29241108  0.16691027  0.73740919  1
  O2-  O279  1  0.29081554  0.66480259  0.06641439  1
  O2-  O280  1  0.29167811  0.66679068  0.40430646  1
  O2-  O281  1  0.29356509  0.66204297  0.73124105  1
  O2-  O282  1  0.78762467  0.16357826  0.05967341  1
  O2-  O283  1  0.79287111  0.16966742  0.40287023  1
  O2-  O284  1  0.79279927  0.16521057  0.73184827  1
  O2-  O285  1  0.79284302  0.66948063  0.06644847  1
  O2-  O286  1  0.79793162  0.66585296  0.39686131  1
  O2-  O287  1  0.79520929  0.66399394  0.73116941  1
