# generated using pymatgen
data_Ca2Al2SiO7
_symmetry_space_group_name_H-M   'P 1'
_cell_length_a   15.45442659
_cell_length_b   15.45454412
_cell_length_c   15.28124448
_cell_angle_alpha   90.00100894
_cell_angle_beta   90.00313074
_cell_angle_gamma   90.00572920
_symmetry_Int_Tables_number   1
_chemical_formula_structural   Ca2Al2SiO7
_chemical_formula_sum   'Ca48 Al48 Si24 O168'
_cell_volume   3649.78948664
_cell_formula_units_Z   24
loop_
 _symmetry_equiv_pos_site_id
 _symmetry_equiv_pos_as_xyz
  1  'x, y, z'
loop_
 _atom_type_symbol
 _atom_type_oxidation_number
  Ca2+  2.0
  Al0+  0.0
  Si0+  0.0
  O2-  -2.0
loop_
 _atom_site_type_symbol
 _atom_site_label
 _atom_site_symmetry_multiplicity
 _atom_site_fract_x
 _atom_site_fract_y
 _atom_site_fract_z
 _atom_site_occupancy
  Ca2+  Ca0  1  0.17232616  0.07545062  0.17196913  1
  Ca2+  Ca1  1  0.17738622  0.08557589  0.51171511  1
  Ca2+  Ca2  1  0.16296461  0.07668784  0.83151177  1
  Ca2+  Ca3  1  0.17191492  0.58568540  0.16960333  1
  Ca2+  Ca4  1  0.17214649  0.57981956  0.50824679  1
  Ca2+  Ca5  1  0.17782140  0.58365317  0.83433849  1
  Ca2+  Ca6  1  0.66228114  0.07749839  0.17559516  1
  Ca2+  Ca7  1  0.65713536  0.07477497  0.50629001  1
  Ca2+  Ca8  1  0.66117891  0.07800153  0.82957216  1
  Ca2+  Ca9  1  0.67791035  0.58408896  0.17337039  1
  Ca2+  Ca10  1  0.66498506  0.57046822  0.50708539  1
  Ca2+  Ca11  1  0.66760913  0.58208886  0.83626794  1
  Ca2+  Ca12  1  0.07517720  0.33185878  0.15948000  1
  Ca2+  Ca13  1  0.08396800  0.33443455  0.50159755  1
  Ca2+  Ca14  1  0.07289758  0.33517785  0.82280159  1
  Ca2+  Ca15  1  0.08621829  0.82746005  0.16301235  1
  Ca2+  Ca16  1  0.08070759  0.83170398  0.49880190  1
  Ca2+  Ca17  1  0.08044337  0.83895856  0.82481680  1
  Ca2+  Ca18  1  0.58351979  0.33341068  0.17075197  1
  Ca2+  Ca19  1  0.58236604  0.32554902  0.49412831  1
  Ca2+  Ca20  1  0.58458337  0.32793993  0.82178621  1
  Ca2+  Ca21  1  0.57813951  0.83018979  0.15868301  1
  Ca2+  Ca22  1  0.58902373  0.83026903  0.49920997  1
  Ca2+  Ca23  1  0.58068003  0.82084748  0.82652939  1
  Ca2+  Ca24  1  0.33910554  0.42197648  0.17053559  1
  Ca2+  Ca25  1  0.32997592  0.41853346  0.50978243  1
  Ca2+  Ca26  1  0.33161342  0.42733493  0.83176351  1
  Ca2+  Ca27  1  0.33254692  0.91766154  0.16935258  1
  Ca2+  Ca28  1  0.33010852  0.93019566  0.50910488  1
  Ca2+  Ca29  1  0.32525976  0.91774053  0.83518200  1
  Ca2+  Ca30  1  0.82955334  0.42485024  0.17228480  1
  Ca2+  Ca31  1  0.82555315  0.41827745  0.50458998  1
  Ca2+  Ca32  1  0.83101677  0.41527097  0.83733546  1
  Ca2+  Ca33  1  0.82338291  0.91929448  0.17383206  1
  Ca2+  Ca34  1  0.82386631  0.91353704  0.50691626  1
  Ca2+  Ca35  1  0.82938124  0.91187684  0.83059497  1
  Ca2+  Ca36  1  0.41785148  0.16837181  0.17217664  1
  Ca2+  Ca37  1  0.42078762  0.16643451  0.49281529  1
  Ca2+  Ca38  1  0.42023940  0.16638855  0.82444983  1
  Ca2+  Ca39  1  0.42516524  0.67229891  0.15260139  1
  Ca2+  Ca40  1  0.42127024  0.66262305  0.50082599  1
  Ca2+  Ca41  1  0.42085336  0.66437972  0.83027941  1
  Ca2+  Ca42  1  0.91440508  0.17557273  0.15896307  1
  Ca2+  Ca43  1  0.92135393  0.17117746  0.50397935  1
  Ca2+  Ca44  1  0.92163119  0.17862538  0.82194634  1
  Ca2+  Ca45  1  0.91980809  0.65803231  0.16491170  1
  Ca2+  Ca46  1  0.92040279  0.66856296  0.49598202  1
  Ca2+  Ca47  1  0.91569997  0.67094494  0.82677744  1
  Al0+  Al48  1  0.00037082  -0.00074792  0.00728210  1
  Al0+  Al49  1  -0.00131545  -0.00107106  0.33097224  1
  Al0+  Al50  1  -0.00146729  0.00176717  0.65955446  1
  Al0+  Al51  1  -0.00078319  0.49997646  -0.00174341  1
  Al0+  Al52  1  0.00165172  0.50125441  0.33189825  1
  Al0+  Al53  1  -0.00080902  0.50199199  0.66486767  1
  Al0+  Al54  1  0.49775590  -0.00014867  -0.00365729  1
  Al0+  Al55  1  0.49878568  -0.00010424  0.33651174  1
  Al0+  Al56  1  0.49966180  -0.00201493  0.67321139  1
  Al0+  Al57  1  0.50049722  0.49748121  0.00085524  1
  Al0+  Al58  1  0.50115321  0.50044457  0.33186726  1
  Al0+  Al59  1  0.50252810  0.49979203  0.67076452  1
  Al0+  Al60  1  0.25069293  0.24787522  -0.00033081  1
  Al0+  Al61  1  0.25058349  0.25044569  0.33002100  1
  Al0+  Al62  1  0.24901306  0.25186020  0.67412067  1
  Al0+  Al63  1  0.24986950  0.75066363  0.00459163  1
  Al0+  Al64  1  0.24863655  0.74930728  0.32952912  1
  Al0+  Al65  1  0.25140685  0.75195916  0.67225895  1
  Al0+  Al66  1  0.75023760  0.24963063  -0.00344036  1
  Al0+  Al67  1  0.75065863  0.24894314  0.33147799  1
  Al0+  Al68  1  0.74942973  0.24944945  0.66144978  1
  Al0+  Al69  1  0.75040629  0.74887957  0.00217994  1
  Al0+  Al70  1  0.75225063  0.75151742  0.33928458  1
  Al0+  Al71  1  0.74927254  0.74963350  0.66153616  1
  Al0+  Al72  1  0.92787178  0.32452880  0.64877371  1
  Al0+  Al73  1  0.82063647  0.57103464  0.01289054  1
  Al0+  Al74  1  0.31791278  0.07028503  0.34653665  1
  Al0+  Al75  1  0.92991507  0.32117926  0.98614553  1
  Al0+  Al76  1  0.67947398  0.92695937  0.68240455  1
  Al0+  Al77  1  0.68129113  0.42699654  0.68080339  1
  Al0+  Al78  1  0.92898097  0.82130141  0.65303029  1
  Al0+  Al79  1  0.56869868  0.17703091  0.65333618  1
  Al0+  Al80  1  0.07061949  0.67948898  0.31868803  1
  Al0+  Al81  1  0.17827885  0.93001809  0.01631787  1
  Al0+  Al82  1  0.32196803  0.07277891  0.68355453  1
  Al0+  Al83  1  0.07231394  0.18064577  0.65172792  1
  Al0+  Al84  1  0.42795142  0.32268423  0.31845483  1
  Al0+  Al85  1  0.67831216  0.42898644  0.34882978  1
  Al0+  Al86  1  0.32309424  0.57186702  0.68089410  1
  Al0+  Al87  1  0.82395156  0.57062815  0.35074575  1
  Al0+  Al88  1  0.57289580  0.67814144  0.98566739  1
  Al0+  Al89  1  0.67898943  0.93106750  0.34673573  1
  Al0+  Al90  1  0.57000386  0.67809476  0.65116880  1
  Al0+  Al91  1  0.17644322  0.93053704  0.67950658  1
  Al0+  Al92  1  0.57110921  0.17726047  0.31813212  1
  Al0+  Al93  1  0.32140654  0.56913212  0.01578880  1
  Al0+  Al94  1  0.17608665  0.42949343  0.68179419  1
  Al0+  Al95  1  0.42696824  0.82163262  0.98330216  1
  Si0+  Si96  1  0.17829525  0.42775905  0.01693547  1
  Si0+  Si97  1  0.07227821  0.17810430  0.31678878  1
  Si0+  Si98  1  0.82110753  0.07151050  0.68253584  1
  Si0+  Si99  1  0.67876243  0.92980006  0.01338256  1
  Si0+  Si100  1  0.07156424  0.17618166  0.98500675  1
  Si0+  Si101  1  0.07065083  0.67961304  0.98461397  1
  Si0+  Si102  1  0.32153648  0.57248441  0.34612658  1
  Si0+  Si103  1  0.57083489  0.17878071  0.98425920  1
  Si0+  Si104  1  0.82091681  0.57230749  0.68236606  1
  Si0+  Si105  1  0.81999473  0.07158545  0.01356661  1
  Si0+  Si106  1  0.82460085  0.07348293  0.35023330  1
  Si0+  Si107  1  0.17992378  0.42928911  0.34530014  1
  Si0+  Si108  1  0.93011390  0.32050401  0.31716199  1
  Si0+  Si109  1  0.42723418  0.82113822  0.64924890  1
  Si0+  Si110  1  0.92900354  0.82232138  0.98724779  1
  Si0+  Si111  1  0.67848727  0.42438513  0.01703937  1
  Si0+  Si112  1  0.17694963  0.92633087  0.35019395  1
  Si0+  Si113  1  0.42789156  0.32094506  0.98346512  1
  Si0+  Si114  1  0.92687404  0.82210167  0.31391435  1
  Si0+  Si115  1  0.32407111  0.07326067  0.01965478  1
  Si0+  Si116  1  0.57236077  0.67938896  0.31915841  1
  Si0+  Si117  1  0.42907956  0.82012000  0.32006051  1
  Si0+  Si118  1  0.07462464  0.67954442  0.65190554  1
  Si0+  Si119  1  0.42875668  0.32244453  0.65309608  1
  O2-  O120  1  0.25473683  0.00386597  0.06200178  1
  O2-  O121  1  0.24135305  -0.00183538  0.39376353  1
  O2-  O122  1  0.24738044  0.00217024  0.73172622  1
  O2-  O123  1  0.24829288  0.49319350  0.06438020  1
  O2-  O124  1  0.25339862  0.49821148  0.38680120  1
  O2-  O125  1  0.24821267  0.50204579  0.73032148  1
  O2-  O126  1  0.74797740  0.00210314  0.05667640  1
  O2-  O127  1  0.75357551  0.00669946  0.39252628  1
  O2-  O128  1  0.75344099  0.00268993  0.72912133  1
  O2-  O129  1  0.74448930  0.49702087  0.05896480  1
  O2-  O130  1  0.74969398  0.50102316  0.39976665  1
  O2-  O131  1  0.75713836  0.50010926  0.72805972  1
  O2-  O132  1  -0.00126492  0.24663066  0.27414485  1
  O2-  O133  1  0.00378633  0.25545360  0.59984897  1
  O2-  O134  1  0.00644554  0.24779641  0.94120071  1
  O2-  O135  1  -0.00425661  0.75357191  0.26967098  1
  O2-  O136  1  0.00661695  0.74889525  0.60771179  1
  O2-  O137  1  -0.00043768  0.75141851  0.94406305  1
  O2-  O138  1  0.50174933  0.25191516  0.26755396  1
  O2-  O139  1  0.49216844  0.24992421  0.60764863  1
  O2-  O140  1  0.49965151  0.24989354  0.94292587  1
  O2-  O141  1  0.50051513  0.74963556  0.27690273  1
  O2-  O142  1  0.49453307  0.75187007  0.60342972  1
  O2-  O143  1  0.49845455  0.74783837  0.93551065  1
  O2-  O144  1  0.06889016  0.17712805  0.09139753  1
  O2-  O145  1  0.07371754  0.17945650  0.42111695  1
  O2-  O146  1  0.06669299  0.17857893  0.76558335  1
  O2-  O147  1  0.06943548  0.67925027  0.09002366  1
  O2-  O148  1  0.07336933  0.68147802  0.43142521  1
  O2-  O149  1  0.07312168  0.67934031  0.75779009  1
  O2-  O150  1  0.57216649  0.17722186  0.08922168  1
  O2-  O151  1  0.56745043  0.17537801  0.43099035  1
  O2-  O152  1  0.56893795  0.17970017  0.76738182  1
  O2-  O153  1  0.57415776  0.68314741  0.10019088  1
  O2-  O154  1  0.56956589  0.67864012  0.42402287  1
  O2-  O155  1  0.57098628  0.67906313  0.76413820  1
  O2-  O156  1  0.17821491  0.43038377  0.23989912  1
  O2-  O157  1  0.17846325  0.43136618  0.56725327  1
  O2-  O158  1  0.17837630  0.43030415  0.91206963  1
  O2-  O159  1  0.17902672  0.92662436  0.24420951  1
  O2-  O160  1  0.17942257  0.92965892  0.56568760  1
  O2-  O161  1  0.17248311  0.93345804  0.90412944  1
  O2-  O162  1  0.68047533  0.43126932  0.23452594  1
  O2-  O163  1  0.67949014  0.42761295  0.56807758  1
  O2-  O164  1  0.68078435  0.42011349  0.91170970  1
  O2-  O165  1  0.68008045  0.93125960  0.23243554  1
  O2-  O166  1  0.68078163  0.92807128  0.56937390  1
  O2-  O167  1  0.68122673  0.92972125  0.90871966  1
  O2-  O168  1  0.42717454  0.32096855  0.08852494  1
  O2-  O169  1  0.42368185  0.32214341  0.43144875  1
  O2-  O170  1  0.43296025  0.32261878  0.75926419  1
  O2-  O171  1  0.43148364  0.82290647  0.09814185  1
  O2-  O172  1  0.42712361  0.81832603  0.42480406  1
  O2-  O173  1  0.42795429  0.82026469  0.75465555  1
  O2-  O174  1  0.93025196  0.31878030  0.10001199  1
  O2-  O175  1  0.93224209  0.32076011  0.42155452  1
  O2-  O176  1  0.92743287  0.32171740  0.76273616  1
  O2-  O177  1  0.92896585  0.82296719  0.09232717  1
  O2-  O178  1  0.92825325  0.82393465  0.41903552  1
  O2-  O179  1  0.92855927  0.81859792  0.76712190  1
  O2-  O180  1  0.31662643  0.06753782  0.23299044  1
  O2-  O181  1  0.32239829  0.07110466  0.56957591  1
  O2-  O182  1  0.32502251  0.07567140  0.91482740  1
  O2-  O183  1  0.31997800  0.57332253  0.24091234  1
  O2-  O184  1  0.32166241  0.57038363  0.56637459  1
  O2-  O185  1  0.31975220  0.56791314  0.90340058  1
  O2-  O186  1  0.82642777  0.07160967  0.24367944  1
  O2-  O187  1  0.82050431  0.07035375  0.57691409  1
  O2-  O188  1  0.82117227  0.07141536  0.90905882  1
  O2-  O189  1  0.82321056  0.56814646  0.23649550  1
  O2-  O190  1  0.81905297  0.57209431  0.57695485  1
  O2-  O191  1  0.82167461  0.57208142  0.90021209  1
  O2-  O192  1  0.04632542  0.08468755  0.26997790  1
  O2-  O193  1  0.04113214  0.08494076  0.59450325  1
  O2-  O194  1  0.04116487  0.08329412  0.94113985  1
  O2-  O195  1  0.04131403  0.58284996  0.26230120  1
  O2-  O196  1  0.04836294  0.58707721  0.60406133  1
  O2-  O197  1  0.04293937  0.58828096  0.93706657  1
  O2-  O198  1  0.53749143  0.07976427  0.26399505  1
  O2-  O199  1  0.53981717  0.07837924  0.60302297  1
  O2-  O200  1  0.54330656  0.08717554  0.93648071  1
  O2-  O201  1  0.54612752  0.58819925  0.27022477  1
  O2-  O202  1  0.53816894  0.58118192  0.59796548  1
  O2-  O203  1  0.54800370  0.57715737  0.93682207  1
  O2-  O204  1  0.16170216  0.20823299  0.26607639  1
  O2-  O205  1  0.17253424  0.20797847  0.60146659  1
  O2-  O206  1  0.16734741  0.19584328  0.94164950  1
  O2-  O207  1  0.16643717  0.71112410  0.26106128  1
  O2-  O208  1  0.16867364  0.70450776  0.60618188  1
  O2-  O209  1  0.16261850  0.70780004  0.93956645  1
  O2-  O210  1  0.67164280  0.20095260  0.26491890  1
  O2-  O211  1  0.66485883  0.20600356  0.59899831  1
  O2-  O212  1  0.66261992  0.20565326  0.93649775  1
  O2-  O213  1  0.66524745  0.70894133  0.27464125  1
  O2-  O214  1  0.66476148  0.71068871  0.59552242  1
  O2-  O215  1  0.67067696  0.70963303  0.93290586  1
  O2-  O216  1  0.08519888  0.45603197  0.06323984  1
  O2-  O217  1  0.08980856  0.45919331  0.39357199  1
  O2-  O218  1  0.07747402  0.45891779  0.73415072  1
  O2-  O219  1  0.08280204  0.96113705  0.07525510  1
  O2-  O220  1  0.08039633  0.94750993  0.39122234  1
  O2-  O221  1  0.07673861  0.95881233  0.73053913  1
  O2-  O222  1  0.58340776  0.44500274  0.06140559  1
  O2-  O223  1  0.57927245  0.45741566  0.40069315  1
  O2-  O224  1  0.58633581  0.45880570  0.73672677  1
  O2-  O225  1  0.58611517  0.95782689  0.05935247  1
  O2-  O226  1  0.58269586  0.95911337  0.40146158  1
  O2-  O227  1  0.58432097  0.95679776  0.73867773  1
  O2-  O228  1  0.20051872  0.33164041  0.06068033  1
  O2-  O229  1  0.20507369  0.33688736  0.39187412  1
  O2-  O230  1  0.20151723  0.33266213  0.73833223  1
  O2-  O231  1  0.20794203  0.83361412  0.07152364  1
  O2-  O232  1  0.20513488  0.83302080  0.39460985  1
  O2-  O233  1  0.20366441  0.83295733  0.73474418  1
  O2-  O234  1  0.70859420  0.33214617  0.06479402  1
  O2-  O235  1  0.70590967  0.32852333  0.39723841  1
  O2-  O236  1  0.71081755  0.32951190  0.73402695  1
  O2-  O237  1  0.70848327  0.83956459  0.06270982  1
  O2-  O238  1  0.71074884  0.83581829  0.40203753  1
  O2-  O239  1  0.71437792  0.83106991  0.73517603  1
  O2-  O240  1  0.45705759  0.42121577  0.26362167  1
  O2-  O241  1  0.45794695  0.41430837  0.60636973  1
  O2-  O242  1  0.45479094  0.41246862  0.93603348  1
  O2-  O243  1  0.45737630  0.91137849  0.27219277  1
  O2-  O244  1  0.45588738  0.91441601  0.60483373  1
  O2-  O245  1  0.45453613  0.92019504  0.93075037  1
  O2-  O246  1  0.96217652  0.41092095  0.26916683  1
  O2-  O247  1  0.95321448  0.42408864  0.59663349  1
  O2-  O248  1  0.95960573  0.41744738  0.93167165  1
  O2-  O249  1  0.95117654  0.91637241  0.26645148  1
  O2-  O250  1  0.95464188  0.91744117  0.59610572  1
  O2-  O251  1  0.95676517  0.91492205  0.94138764  1
  O2-  O252  1  0.33065894  0.29270276  0.26139148  1
  O2-  O253  1  0.33205862  0.30369318  0.61186869  1
  O2-  O254  1  0.33566397  0.29297318  0.93657812  1
  O2-  O255  1  0.33774167  0.79254229  0.27067892  1
  O2-  O256  1  0.33292416  0.79740673  0.60318528  1
  O2-  O257  1  0.32708469  0.79424398  0.93413138  1
  O2-  O258  1  0.83838298  0.29424184  0.26837815  1
  O2-  O259  1  0.83236014  0.28972000  0.59442578  1
  O2-  O260  1  0.83414139  0.28812040  0.93211017  1
  O2-  O261  1  0.83265257  0.79687087  0.26814386  1
  O2-  O262  1  0.83500263  0.78740909  0.59633627  1
  O2-  O263  1  0.83723162  0.79481139  0.94019125  1
  O2-  O264  1  0.41780848  0.04611048  0.06557901  1
  O2-  O265  1  0.41309548  0.03784919  0.40054469  1
  O2-  O266  1  0.41778240  0.04041591  0.73914917  1
  O2-  O267  1  0.41887827  0.53860188  0.06961423  1
  O2-  O268  1  0.41453663  0.54885205  0.39191212  1
  O2-  O269  1  0.41874397  0.53958631  0.73632605  1
  O2-  O270  1  0.91011346  0.04384430  0.06501800  1
  O2-  O271  1  0.91794703  0.04589393  0.39613717  1
  O2-  O272  1  0.91457335  0.04578149  0.72804942  1
  O2-  O273  1  0.91744983  0.53880093  0.06709166  1
  O2-  O274  1  0.92261234  0.54083047  0.40180744  1
  O2-  O275  1  0.91677271  0.55373055  0.72634528  1
  O2-  O276  1  0.29750537  0.16687285  0.06662287  1
  O2-  O277  1  0.28852198  0.16821701  0.39772630  1
  O2-  O278  1  0.29728780  0.17119224  0.73754383  1
  O2-  O279  1  0.28977231  0.66536225  0.07004715  1
  O2-  O280  1  0.29008755  0.66300156  0.39371807  1
  O2-  O281  1  0.29666617  0.66989218  0.73509248  1
  O2-  O282  1  0.79165268  0.16320099  0.06209934  1
  O2-  O283  1  0.80378663  0.16823106  0.39410715  1
  O2-  O284  1  0.79393302  0.16460002  0.72845994  1
  O2-  O285  1  0.79208493  0.66772801  0.07001780  1
  O2-  O286  1  0.80153029  0.67122859  0.40009030  1
  O2-  O287  1  0.79082963  0.66445306  0.72835202  1
