# generated using pymatgen
data_Ca2Al2SiO7
_symmetry_space_group_name_H-M   'P 1'
_cell_length_a   15.47157927
_cell_length_b   15.46886156
_cell_length_c   15.29210114
_cell_angle_alpha   90.00846330
_cell_angle_beta   89.98235324
_cell_angle_gamma   90.03566328
_symmetry_Int_Tables_number   1
_chemical_formula_structural   Ca2Al2SiO7
_chemical_formula_sum   'Ca48 Al48 Si24 O168'
_cell_volume   3659.82274461
_cell_formula_units_Z   24
loop_
 _symmetry_equiv_pos_site_id
 _symmetry_equiv_pos_as_xyz
  1  'x, y, z'
loop_
 _atom_type_symbol
 _atom_type_oxidation_number
  Ca2+  2.0
  Al0+  0.0
  Si0+  0.0
  O2-  -2.0
loop_
 _atom_site_type_symbol
 _atom_site_label
 _atom_site_symmetry_multiplicity
 _atom_site_fract_x
 _atom_site_fract_y
 _atom_site_fract_z
 _atom_site_occupancy
  Ca2+  Ca0  1  0.17443295  0.07360500  0.17031070  1
  Ca2+  Ca1  1  0.17858488  0.08204779  0.49832822  1
  Ca2+  Ca2  1  0.17586376  0.07861796  0.84094123  1
  Ca2+  Ca3  1  0.17679917  0.57500851  0.17304393  1
  Ca2+  Ca4  1  0.16444076  0.58361590  0.49715364  1
  Ca2+  Ca5  1  0.17022005  0.57902296  0.83954226  1
  Ca2+  Ca6  1  0.67331954  0.07705711  0.17104274  1
  Ca2+  Ca7  1  0.67296952  0.07587973  0.50187286  1
  Ca2+  Ca8  1  0.67591515  0.07518949  0.83489491  1
  Ca2+  Ca9  1  0.66774118  0.58129844  0.17045567  1
  Ca2+  Ca10  1  0.67433793  0.57968309  0.50505013  1
  Ca2+  Ca11  1  0.67419518  0.58547259  0.83362371  1
  Ca2+  Ca12  1  0.08450342  0.33630156  0.16645196  1
  Ca2+  Ca13  1  0.07414710  0.33130713  0.49144588  1
  Ca2+  Ca14  1  0.08113005  0.33090781  0.82763965  1
  Ca2+  Ca15  1  0.09543099  0.83143885  0.16529548  1
  Ca2+  Ca16  1  0.08986622  0.82185188  0.49184411  1
  Ca2+  Ca17  1  0.08959791  0.82631464  0.82767572  1
  Ca2+  Ca18  1  0.56804994  0.33006287  0.16212676  1
  Ca2+  Ca19  1  0.57640503  0.32758082  0.48960606  1
  Ca2+  Ca20  1  0.57452886  0.33013989  0.83173184  1
  Ca2+  Ca21  1  0.58001995  0.84179339  0.16711522  1
  Ca2+  Ca22  1  0.57620433  0.84434717  0.49711186  1
  Ca2+  Ca23  1  0.57851187  0.84401597  0.82802730  1
  Ca2+  Ca24  1  0.32931696  0.42086855  0.17596803  1
  Ca2+  Ca25  1  0.32967512  0.41910534  0.49761909  1
  Ca2+  Ca26  1  0.32498273  0.42298914  0.84881814  1
  Ca2+  Ca27  1  0.32669611  0.92234254  0.17647057  1
  Ca2+  Ca28  1  0.33617420  0.91992230  0.50184618  1
  Ca2+  Ca29  1  0.33208290  0.92527790  0.83746936  1
  Ca2+  Ca30  1  0.83340164  0.41541742  0.17375765  1
  Ca2+  Ca31  1  0.84234175  0.41852673  0.50584017  1
  Ca2+  Ca32  1  0.83897000  0.42043066  0.82996073  1
  Ca2+  Ca33  1  0.82448472  0.92683433  0.17493875  1
  Ca2+  Ca34  1  0.82173408  0.92249879  0.50783475  1
  Ca2+  Ca35  1  0.82481102  0.92351286  0.84377495  1
  Ca2+  Ca36  1  0.40080770  0.17476845  0.16366359  1
  Ca2+  Ca37  1  0.41335907  0.16661942  0.49156214  1
  Ca2+  Ca38  1  0.40789847  0.16815815  0.83059758  1
  Ca2+  Ca39  1  0.40716881  0.67060954  0.16605115  1
  Ca2+  Ca40  1  0.41469157  0.68021540  0.49113476  1
  Ca2+  Ca41  1  0.41624583  0.67431438  0.82773713  1
  Ca2+  Ca42  1  0.91095973  0.16742759  0.16378990  1
  Ca2+  Ca43  1  0.90648797  0.17378788  0.49394774  1
  Ca2+  Ca44  1  0.91307969  0.16793010  0.82690038  1
  Ca2+  Ca45  1  0.92706174  0.66948488  0.16623704  1
  Ca2+  Ca46  1  0.92773126  0.66312564  0.49551072  1
  Ca2+  Ca47  1  0.92426319  0.66844549  0.82206908  1
  Al0+  Al48  1  -0.00081677  0.00087594  0.00493657  1
  Al0+  Al49  1  0.00053987  0.00078981  0.34205008  1
  Al0+  Al50  1  0.00236563  -0.00053260  0.66759831  1
  Al0+  Al51  1  0.00021402  0.50152016  0.00156539  1
  Al0+  Al52  1  0.00082849  0.49967866  0.32594945  1
  Al0+  Al53  1  0.00009404  0.49877183  0.66422260  1
  Al0+  Al54  1  0.50219269  0.00281011  0.00424873  1
  Al0+  Al55  1  0.50226020  -0.00005511  0.33353878  1
  Al0+  Al56  1  0.49920229  0.00308891  0.67055422  1
  Al0+  Al57  1  0.50183725  0.50162446  -0.00384762  1
  Al0+  Al58  1  0.50058558  0.49996394  0.33386053  1
  Al0+  Al59  1  0.49953729  0.50100581  0.66645310  1
  Al0+  Al60  1  0.24462210  0.25071498  -0.00082473  1
  Al0+  Al61  1  0.24612863  0.25073019  0.33681146  1
  Al0+  Al62  1  0.24757305  0.25090721  0.66874353  1
  Al0+  Al63  1  0.25139983  0.74784528  0.00161725  1
  Al0+  Al64  1  0.25213064  0.74802031  0.32994920  1
  Al0+  Al65  1  0.25198254  0.74882882  0.65820014  1
  Al0+  Al66  1  0.74818223  0.25232181  -0.00084765  1
  Al0+  Al67  1  0.74786000  0.25083331  0.32975135  1
  Al0+  Al68  1  0.74653634  0.25012469  0.66664180  1
  Al0+  Al69  1  0.75034755  0.74957866  0.00281188  1
  Al0+  Al70  1  0.75091641  0.74882117  0.33672930  1
  Al0+  Al71  1  0.74931266  0.74739765  0.67438021  1
  Al0+  Al72  1  0.82106053  0.07344877  0.01538202  1
  Al0+  Al73  1  0.67910920  0.92914207  0.68287983  1
  Al0+  Al74  1  0.43205696  0.82099274  0.31801857  1
  Al0+  Al75  1  0.42679259  0.32014223  0.98597964  1
  Al0+  Al76  1  0.17695392  0.42975150  0.35063985  1
  Al0+  Al77  1  0.82281316  0.07277765  0.68151374  1
  Al0+  Al78  1  0.68005327  0.92696352  0.35035589  1
  Al0+  Al79  1  0.67880014  0.92713464  0.01728687  1
  Al0+  Al80  1  0.07019682  0.67967271  0.65275700  1
  Al0+  Al81  1  0.82185293  0.56808004  0.67926243  1
  Al0+  Al82  1  0.07146444  0.68038285  0.31625936  1
  Al0+  Al83  1  0.32085411  0.07090077  0.34773364  1
  Al0+  Al84  1  0.17919289  0.92607457  0.35006828  1
  Al0+  Al85  1  0.92959945  0.31650449  0.65427789  1
  Al0+  Al86  1  0.32419236  0.57003943  0.01359916  1
  Al0+  Al87  1  0.92874660  0.31864277  0.31783165  1
  Al0+  Al88  1  0.32124202  0.07254141  0.01412557  1
  Al0+  Al89  1  0.32321429  0.57010751  0.35071664  1
  Al0+  Al90  1  0.17676483  0.42947917  0.01431040  1
  Al0+  Al91  1  0.42721917  0.32001604  0.32098355  1
  Al0+  Al92  1  0.17972938  0.92729208  0.01260494  1
  Al0+  Al93  1  0.82100241  0.07392860  0.34914561  1
  Al0+  Al94  1  0.43278464  0.82140478  0.65401224  1
  Al0+  Al95  1  0.31883150  0.07195243  0.68077331  1
  Si0+  Si96  1  0.57332939  0.17946396  0.98074857  1
  Si0+  Si97  1  0.17990535  0.43098060  0.68136725  1
  Si0+  Si98  1  0.67444572  0.42763666  0.68420507  1
  Si0+  Si99  1  0.43041232  0.82101287  0.98559582  1
  Si0+  Si100  1  0.57398980  0.67533746  0.64976904  1
  Si0+  Si101  1  0.67934950  0.43054527  0.01418685  1
  Si0+  Si102  1  0.82173571  0.57086427  0.01569292  1
  Si0+  Si103  1  0.56784969  0.18170398  0.65148662  1
  Si0+  Si104  1  0.92710387  0.82262764  0.31853479  1
  Si0+  Si105  1  0.18039807  0.92376783  0.68137054  1
  Si0+  Si106  1  0.57464408  0.67869337  0.98315665  1
  Si0+  Si107  1  0.07448747  0.17585427  0.64931159  1
  Si0+  Si108  1  0.57482649  0.67653110  0.31686587  1
  Si0+  Si109  1  0.92585469  0.82271919  0.65232050  1
  Si0+  Si110  1  0.06810729  0.17794936  0.98436709  1
  Si0+  Si111  1  0.57107968  0.17854569  0.31497154  1
  Si0+  Si112  1  0.92716061  0.32294261  0.98345834  1
  Si0+  Si113  1  0.07163757  0.17591630  0.31569687  1
  Si0+  Si114  1  0.82192984  0.56914681  0.34670328  1
  Si0+  Si115  1  0.32199770  0.57194109  0.68097311  1
  Si0+  Si116  1  0.42593685  0.32321654  0.65199211  1
  Si0+  Si117  1  0.92804773  0.82051086  0.98650440  1
  Si0+  Si118  1  0.67875101  0.42947859  0.34658524  1
  Si0+  Si119  1  0.07037505  0.68007020  0.98391315  1
  O2-  O120  1  0.25463024  -0.00441639  0.06270634  1
  O2-  O121  1  0.25284520  -0.00365032  0.39977098  1
  O2-  O122  1  0.24355697  -0.00294767  0.72593923  1
  O2-  O123  1  0.25642804  0.49368769  0.06213664  1
  O2-  O124  1  0.24983710  0.50009802  0.40186447  1
  O2-  O125  1  0.25334615  0.49926952  0.72389595  1
  O2-  O126  1  0.75037585  0.00041934  0.06444633  1
  O2-  O127  1  0.75392270  -0.00240364  0.39859113  1
  O2-  O128  1  0.75813813  -0.00572589  0.73182504  1
  O2-  O129  1  0.75144792  0.49960127  0.05788750  1
  O2-  O130  1  0.75137498  0.49811755  0.38916023  1
  O2-  O131  1  0.74493597  0.49564809  0.72721438  1
  O2-  O132  1  -0.00036528  0.24141004  0.27040083  1
  O2-  O133  1  -0.00207109  0.23681354  0.60673641  1
  O2-  O134  1  -0.00345746  0.25006908  0.94267986  1
  O2-  O135  1  0.00047483  0.76021313  0.27119532  1
  O2-  O136  1  -0.00347146  0.75641408  0.60733619  1
  O2-  O137  1  0.00196694  0.75344512  0.94159380  1
  O2-  O138  1  0.49647390  0.24154599  0.27197085  1
  O2-  O139  1  0.49641703  0.25262170  0.60953693  1
  O2-  O140  1  0.49819916  0.24263954  0.93705878  1
  O2-  O141  1  0.50745306  0.74560457  0.27200636  1
  O2-  O142  1  0.50922664  0.74759541  0.60720216  1
  O2-  O143  1  0.50388838  0.75133613  0.94318628  1
  O2-  O144  1  0.06778215  0.17735673  0.08889376  1
  O2-  O145  1  0.07314638  0.18005481  0.42136160  1
  O2-  O146  1  0.07884107  0.18101883  0.75502280  1
  O2-  O147  1  0.06765354  0.67846178  0.08837358  1
  O2-  O148  1  0.06622994  0.67799714  0.42951215  1
  O2-  O149  1  0.07047806  0.67932148  0.76665727  1
  O2-  O150  1  0.57961127  0.18510832  0.08553722  1
  O2-  O151  1  0.57382316  0.18355263  0.42092378  1
  O2-  O152  1  0.56787964  0.18430101  0.75662269  1
  O2-  O153  1  0.57850020  0.67566643  0.08766735  1
  O2-  O154  1  0.57632209  0.67342158  0.42224530  1
  O2-  O155  1  0.57039227  0.66984805  0.75542143  1
  O2-  O156  1  0.17768721  0.43163972  0.23727366  1
  O2-  O157  1  0.18012395  0.43021324  0.57696245  1
  O2-  O158  1  0.17411794  0.43378548  0.89974543  1
  O2-  O159  1  0.18124313  0.92820929  0.23641853  1
  O2-  O160  1  0.18376938  0.92104111  0.57656441  1
  O2-  O161  1  0.18042112  0.92679965  0.89835581  1
  O2-  O162  1  0.67926013  0.43173983  0.24122223  1
  O2-  O163  1  0.67080788  0.42871454  0.57880027  1
  O2-  O164  1  0.67980772  0.43205049  0.90898508  1
  O2-  O165  1  0.68211894  0.92686262  0.23700652  1
  O2-  O166  1  0.67829393  0.93196623  0.56991004  1
  O2-  O167  1  0.68108999  0.92623793  0.90370112  1
  O2-  O168  1  0.43027584  0.32160656  0.09863124  1
  O2-  O169  1  0.43244466  0.32080958  0.43464478  1
  O2-  O170  1  0.42671519  0.32405610  0.75719877  1
  O2-  O171  1  0.42975435  0.81874092  0.09016464  1
  O2-  O172  1  0.43416732  0.82080389  0.43132504  1
  O2-  O173  1  0.43128144  0.81885563  0.76782495  1
  O2-  O174  1  0.92564485  0.32486716  0.08814787  1
  O2-  O175  1  0.92860422  0.32016209  0.43101449  1
  O2-  O176  1  0.93361314  0.31964399  0.76787175  1
  O2-  O177  1  0.92567577  0.81558952  0.09113634  1
  O2-  O178  1  0.92393108  0.81561369  0.42390918  1
  O2-  O179  1  0.92735777  0.81940353  0.75844296  1
  O2-  O180  1  0.31726426  0.07114837  0.23453732  1
  O2-  O181  1  0.31930260  0.07428636  0.56841914  1
  O2-  O182  1  0.31783667  0.07074430  0.90000428  1
  O2-  O183  1  0.32406398  0.56710231  0.23724784  1
  O2-  O184  1  0.32311810  0.57058696  0.57663270  1
  O2-  O185  1  0.32038177  0.57209595  0.89895224  1
  O2-  O186  1  0.81655213  0.07483861  0.23562686  1
  O2-  O187  1  0.81613785  0.07539614  0.56883847  1
  O2-  O188  1  0.82070441  0.07232086  0.90171445  1
  O2-  O189  1  0.81973679  0.56886956  0.24115257  1
  O2-  O190  1  0.82185468  0.56492127  0.56620180  1
  O2-  O191  1  0.82284589  0.56961413  0.91058002  1
  O2-  O192  1  0.05044843  0.07994817  0.27268161  1
  O2-  O193  1  0.06059639  0.07852722  0.60710186  1
  O2-  O194  1  0.04080810  0.08614018  0.93550614  1
  O2-  O195  1  0.03381092  0.58703558  0.26024032  1
  O2-  O196  1  0.03562989  0.58455794  0.59885493  1
  O2-  O197  1  0.03778551  0.58938461  0.93584419  1
  O2-  O198  1  0.55315647  0.08327295  0.27109697  1
  O2-  O199  1  0.53929887  0.09069569  0.60438533  1
  O2-  O200  1  0.55402392  0.08327110  0.93742543  1
  O2-  O201  1  0.54931128  0.58307896  0.26963176  1
  O2-  O202  1  0.54658468  0.58251355  0.60178162  1
  O2-  O203  1  0.54786201  0.58796715  0.93223061  1
  O2-  O204  1  0.16288221  0.20685707  0.26815623  1
  O2-  O205  1  0.16390261  0.21192728  0.60060537  1
  O2-  O206  1  0.15813325  0.20679743  0.93308786  1
  O2-  O207  1  0.16889027  0.70581369  0.26228782  1
  O2-  O208  1  0.16630258  0.70729992  0.59700115  1
  O2-  O209  1  0.16327374  0.70509979  0.93639557  1
  O2-  O210  1  0.66044872  0.21256852  0.26542758  1
  O2-  O211  1  0.65823957  0.21113764  0.60222480  1
  O2-  O212  1  0.66327804  0.21413539  0.93070407  1
  O2-  O213  1  0.66954386  0.70003590  0.27062050  1
  O2-  O214  1  0.67051774  0.69487647  0.60755120  1
  O2-  O215  1  0.66731790  0.70507626  0.93504957  1
  O2-  O216  1  0.08077281  0.46346742  0.06828176  1
  O2-  O217  1  0.07782573  0.46169843  0.40059561  1
  O2-  O218  1  0.08935725  0.46149481  0.72908307  1
  O2-  O219  1  0.08203542  0.95520187  0.06575331  1
  O2-  O220  1  0.08076004  0.95111801  0.40434348  1
  O2-  O221  1  0.08411399  0.94206179  0.72508363  1
  O2-  O222  1  0.58892935  0.46079454  0.06187866  1
  O2-  O223  1  0.58939325  0.45842136  0.39720643  1
  O2-  O224  1  0.58191265  0.45563270  0.73259372  1
  O2-  O225  1  0.58073643  0.95520381  0.06913529  1
  O2-  O226  1  0.58297517  0.95907892  0.40218855  1
  O2-  O227  1  0.58407060  0.96658682  0.73691604  1
  O2-  O228  1  0.19454701  0.32855631  0.06321206  1
  O2-  O229  1  0.20218518  0.33146082  0.40415419  1
  O2-  O230  1  0.20536508  0.33910135  0.73009368  1
  O2-  O231  1  0.20572908  0.82844132  0.06412265  1
  O2-  O232  1  0.20757315  0.82666524  0.39906220  1
  O2-  O233  1  0.21133798  0.83159349  0.72838879  1
  O2-  O234  1  0.70611070  0.33955653  0.06208371  1
  O2-  O235  1  0.70413520  0.33758749  0.39361931  1
  O2-  O236  1  0.69980334  0.33497724  0.73114691  1
  O2-  O237  1  0.70718601  0.82835992  0.06912227  1
  O2-  O238  1  0.70572598  0.82732313  0.40307090  1
  O2-  O239  1  0.69659199  0.82720225  0.73353501  1
  O2-  O240  1  0.46462013  0.41497143  0.26744847  1
  O2-  O241  1  0.45438436  0.41524381  0.60535942  1
  O2-  O242  1  0.46265992  0.41605936  0.93109667  1
  O2-  O243  1  0.46284444  0.91774468  0.26391644  1
  O2-  O244  1  0.46215450  0.91939814  0.60236817  1
  O2-  O245  1  0.45687906  0.91464367  0.94006512  1
  O2-  O246  1  0.95922576  0.41456154  0.26194255  1
  O2-  O247  1  0.96438891  0.41176075  0.60024965  1
  O2-  O248  1  0.95720783  0.41527826  0.93690638  1
  O2-  O249  1  0.94622893  0.91973940  0.27796612  1
  O2-  O250  1  0.94676347  0.91800906  0.60793459  1
  O2-  O251  1  0.95150433  0.91443122  0.94161937  1
  O2-  O252  1  0.32848252  0.29375238  0.26975917  1
  O2-  O253  1  0.33360142  0.29590751  0.60624466  1
  O2-  O254  1  0.32811981  0.29394302  0.93250529  1
  O2-  O255  1  0.33656194  0.78866531  0.26321660  1
  O2-  O256  1  0.33868495  0.78803230  0.59752258  1
  O2-  O257  1  0.33958919  0.78996162  0.93699281  1
  O2-  O258  1  0.83030781  0.29296698  0.26349348  1
  O2-  O259  1  0.82903009  0.29548768  0.60291611  1
  O2-  O260  1  0.83429541  0.29870421  0.93573999  1
  O2-  O261  1  0.83608920  0.78959240  0.27016536  1
  O2-  O262  1  0.83209332  0.79373458  0.60874944  1
  O2-  O263  1  0.83802706  0.78791235  0.93745659  1
  O2-  O264  1  0.42272040  0.05582532  0.06291311  1
  O2-  O265  1  0.42156096  0.04778504  0.39727951  1
  O2-  O266  1  0.41455570  0.04252352  0.73621738  1
  O2-  O267  1  0.42539348  0.54951485  0.06278339  1
  O2-  O268  1  0.42192217  0.54147114  0.40349026  1
  O2-  O269  1  0.41488921  0.54723340  0.72841209  1
  O2-  O270  1  0.91887222  0.04721103  0.06875223  1
  O2-  O271  1  0.92125580  0.05530437  0.40072378  1
  O2-  O272  1  0.92597084  0.05458808  0.72960474  1
  O2-  O273  1  0.91257978  0.54319972  0.06395031  1
  O2-  O274  1  0.91286129  0.53903588  0.39250165  1
  O2-  O275  1  0.91677979  0.53361364  0.73549230  1
  O2-  O276  1  0.28614077  0.16902163  0.06475202  1
  O2-  O277  1  0.28909496  0.16790718  0.40181661  1
  O2-  O278  1  0.28723313  0.16886453  0.73523595  1
  O2-  O279  1  0.29118878  0.66577391  0.06692904  1
  O2-  O280  1  0.29449568  0.66876491  0.40073142  1
  O2-  O281  1  0.29149932  0.66331671  0.72734227  1
  O2-  O282  1  0.79179102  0.17316577  0.06491449  1
  O2-  O283  1  0.78545925  0.17157243  0.40010444  1
  O2-  O284  1  0.78683082  0.16949045  0.73497138  1
  O2-  O285  1  0.79306747  0.66115405  0.06411928  1
  O2-  O286  1  0.79531411  0.65971789  0.39598246  1
  O2-  O287  1  0.79396080  0.66331725  0.73781433  1
