# generated using pymatgen
data_Ca2Al2SiO7
_symmetry_space_group_name_H-M   'P 1'
_cell_length_a   15.45266921
_cell_length_b   15.45261159
_cell_length_c   15.27946361
_cell_angle_alpha   89.99425386
_cell_angle_beta   90.00416050
_cell_angle_gamma   89.99294459
_symmetry_Int_Tables_number   1
_chemical_formula_structural   Ca2Al2SiO7
_chemical_formula_sum   'Ca48 Al48 Si24 O168'
_cell_volume   3648.49283919
_cell_formula_units_Z   24
loop_
 _symmetry_equiv_pos_site_id
 _symmetry_equiv_pos_as_xyz
  1  'x, y, z'
loop_
 _atom_type_symbol
 _atom_type_oxidation_number
  Ca2+  2.0
  Al0+  0.0
  Si0+  0.0
  O2-  -2.0
loop_
 _atom_site_type_symbol
 _atom_site_label
 _atom_site_symmetry_multiplicity
 _atom_site_fract_x
 _atom_site_fract_y
 _atom_site_fract_z
 _atom_site_occupancy
  Ca2+  Ca0  1  0.17053102  0.09223771  0.16840891  1
  Ca2+  Ca1  1  0.16270635  0.08178996  0.50647617  1
  Ca2+  Ca2  1  0.16809126  0.08394439  0.83629775  1
  Ca2+  Ca3  1  0.16835607  0.57654377  0.17116079  1
  Ca2+  Ca4  1  0.18374743  0.58387623  0.50799912  1
  Ca2+  Ca5  1  0.17128575  0.57921797  0.83951863  1
  Ca2+  Ca6  1  0.66684562  0.08273742  0.17358192  1
  Ca2+  Ca7  1  0.67090488  0.08406035  0.50392286  1
  Ca2+  Ca8  1  0.65972987  0.07037741  0.84058668  1
  Ca2+  Ca9  1  0.67050343  0.57646673  0.18069818  1
  Ca2+  Ca10  1  0.66865784  0.58413156  0.50312923  1
  Ca2+  Ca11  1  0.67207437  0.58896424  0.83001159  1
  Ca2+  Ca12  1  0.08600794  0.32568550  0.16050767  1
  Ca2+  Ca13  1  0.07912958  0.32331076  0.49857973  1
  Ca2+  Ca14  1  0.08665670  0.32483573  0.82774879  1
  Ca2+  Ca15  1  0.07973454  0.82329448  0.16078891  1
  Ca2+  Ca16  1  0.07832619  0.83747917  0.50139204  1
  Ca2+  Ca17  1  0.07959182  0.83057437  0.82486726  1
  Ca2+  Ca18  1  0.58420844  0.32637340  0.16790580  1
  Ca2+  Ca19  1  0.57483718  0.33722599  0.49159966  1
  Ca2+  Ca20  1  0.57755184  0.32444115  0.82720970  1
  Ca2+  Ca21  1  0.58734052  0.82838351  0.16412031  1
  Ca2+  Ca22  1  0.58545270  0.82418048  0.50326592  1
  Ca2+  Ca23  1  0.58020064  0.83334619  0.82225016  1
  Ca2+  Ca24  1  0.32836151  0.41611117  0.17292672  1
  Ca2+  Ca25  1  0.34463768  0.42365598  0.50366817  1
  Ca2+  Ca26  1  0.33172447  0.41889974  0.83394274  1
  Ca2+  Ca27  1  0.33265135  0.92503969  0.16672880  1
  Ca2+  Ca28  1  0.32696437  0.91733760  0.51055849  1
  Ca2+  Ca29  1  0.32982276  0.91978828  0.83522615  1
  Ca2+  Ca30  1  0.82584478  0.42192576  0.17794668  1
  Ca2+  Ca31  1  0.82895898  0.42394527  0.50535172  1
  Ca2+  Ca32  1  0.84111747  0.41993290  0.83097013  1
  Ca2+  Ca33  1  0.82675144  0.92295605  0.17091781  1
  Ca2+  Ca34  1  0.82980350  0.92160430  0.50793626  1
  Ca2+  Ca35  1  0.82258307  0.91062994  0.83244989  1
  Ca2+  Ca36  1  0.42554045  0.16882113  0.16235268  1
  Ca2+  Ca37  1  0.42250315  0.18034621  0.49256094  1
  Ca2+  Ca38  1  0.41657348  0.16836515  0.83051253  1
  Ca2+  Ca39  1  0.42043005  0.66224623  0.16974496  1
  Ca2+  Ca40  1  0.42515342  0.66303612  0.49607858  1
  Ca2+  Ca41  1  0.42320226  0.67317091  0.81929984  1
  Ca2+  Ca42  1  0.92528741  0.16232792  0.16405188  1
  Ca2+  Ca43  1  0.92472772  0.16365749  0.49547692  1
  Ca2+  Ca44  1  0.92888891  0.17300112  0.82363524  1
  Ca2+  Ca45  1  0.91927846  0.66366681  0.16208233  1
  Ca2+  Ca46  1  0.90448659  0.67187973  0.49985343  1
  Ca2+  Ca47  1  0.92241272  0.66891413  0.82525296  1
  Al0+  Al48  1  -0.00140173  -0.00106941  -0.00488004  1
  Al0+  Al49  1  -0.00178291  -0.00094703  0.32991954  1
  Al0+  Al50  1  0.00051366  -0.00217128  0.66583947  1
  Al0+  Al51  1  0.00147187  0.50074589  0.00102310  1
  Al0+  Al52  1  0.00064193  0.50012209  0.33900297  1
  Al0+  Al53  1  0.00129840  0.49858185  0.66631542  1
  Al0+  Al54  1  0.49925625  -0.00111464  0.00672013  1
  Al0+  Al55  1  0.49718918  -0.00059014  0.33252730  1
  Al0+  Al56  1  0.49953021  -0.00067771  0.66546999  1
  Al0+  Al57  1  0.50152019  0.50076637  -0.00082438  1
  Al0+  Al58  1  0.49855282  0.50144320  0.32938591  1
  Al0+  Al59  1  0.50226033  0.49901084  0.66787941  1
  Al0+  Al60  1  0.25004946  0.25142734  0.00421657  1
  Al0+  Al61  1  0.24939242  0.24939120  0.32744260  1
  Al0+  Al62  1  0.25183497  0.25039442  0.65738745  1
  Al0+  Al63  1  0.25056319  0.75019120  -0.00255031  1
  Al0+  Al64  1  0.24843878  0.75004686  0.33538720  1
  Al0+  Al65  1  0.25051975  0.75156984  0.67376207  1
  Al0+  Al66  1  0.74916492  0.24970983  -0.00579870  1
  Al0+  Al67  1  0.75051807  0.24965244  0.33963152  1
  Al0+  Al68  1  0.75236871  0.25123520  0.66609724  1
  Al0+  Al69  1  0.74938462  0.75025701  0.00582493  1
  Al0+  Al70  1  0.74881141  0.75188538  0.32945734  1
  Al0+  Al71  1  0.75127933  0.75005125  0.66805078  1
  Al0+  Al72  1  0.57015982  0.68195840  0.31822618  1
  Al0+  Al73  1  0.06800295  0.17829771  0.31693584  1
  Al0+  Al74  1  0.57303660  0.17751873  0.31955534  1
  Al0+  Al75  1  0.31862259  0.07023929  0.01382979  1
  Al0+  Al76  1  0.67828543  0.42875743  0.34839319  1
  Al0+  Al77  1  0.42952045  0.32274470  0.31522057  1
  Al0+  Al78  1  0.42643847  0.82290650  0.65209707  1
  Al0+  Al79  1  0.57082628  0.17762303  0.98588214  1
  Al0+  Al80  1  0.82118646  0.06974155  0.34674423  1
  Al0+  Al81  1  0.17771016  0.92978909  0.68096673  1
  Al0+  Al82  1  0.31835897  0.57035186  0.34644438  1
  Al0+  Al83  1  0.07077623  0.17866702  0.65099206  1
  Al0+  Al84  1  0.92783477  0.32368136  0.64955143  1
  Al0+  Al85  1  0.82253393  0.57308335  0.34861077  1
  Al0+  Al86  1  0.32379323  0.57044812  0.68183014  1
  Al0+  Al87  1  0.07204189  0.17944708  0.98574381  1
  Al0+  Al88  1  0.17997768  0.43070031  0.01324408  1
  Al0+  Al89  1  0.57132532  0.68001845  0.65270599  1
  Al0+  Al90  1  0.43109920  0.32014611  0.65426102  1
  Al0+  Al91  1  0.67994394  0.93157897  0.67881885  1
  Al0+  Al92  1  0.92992921  0.81809691  0.65353586  1
  Al0+  Al93  1  0.82091377  0.57023058  0.68173886  1
  Al0+  Al94  1  0.07117387  0.67823668  0.98664102  1
  Al0+  Al95  1  0.67895878  0.92910782  0.01571565  1
  Si0+  Si96  1  0.92852769  0.32416761  0.31718601  1
  Si0+  Si97  1  0.82007520  0.56966592  0.01464137  1
  Si0+  Si98  1  0.17539707  0.92644656  0.01717679  1
  Si0+  Si99  1  0.43006129  0.82095603  0.98607527  1
  Si0+  Si100  1  0.67788014  0.42750321  0.01376855  1
  Si0+  Si101  1  0.42337938  0.82206552  0.31516100  1
  Si0+  Si102  1  0.82315914  0.07339895  0.68500546  1
  Si0+  Si103  1  0.17988562  0.42748540  0.68175921  1
  Si0+  Si104  1  0.32382595  0.57394867  0.01680528  1
  Si0+  Si105  1  0.32125991  0.07361719  0.68088944  1
  Si0+  Si106  1  0.42866102  0.32260348  0.98311504  1
  Si0+  Si107  1  0.82215289  0.07347064  0.01445632  1
  Si0+  Si108  1  0.17785659  0.42480185  0.35222415  1
  Si0+  Si109  1  0.92710800  0.32277694  0.98457023  1
  Si0+  Si110  1  0.07379858  0.67690820  0.65021078  1
  Si0+  Si111  1  0.07255461  0.67900746  0.32068263  1
  Si0+  Si112  1  0.67807701  0.42621763  0.68644720  1
  Si0+  Si113  1  0.67586172  0.92820172  0.35099570  1
  Si0+  Si114  1  0.57288572  0.17587613  0.65169159  1
  Si0+  Si115  1  0.92642135  0.82006424  0.98316165  1
  Si0+  Si116  1  0.57183900  0.67875407  0.98522407  1
  Si0+  Si117  1  0.32029528  0.07180415  0.34881600  1
  Si0+  Si118  1  0.92895864  0.82027616  0.31694026  1
  Si0+  Si119  1  0.17889153  0.92953644  0.34636089  1
  O2-  O120  1  0.23994502  -0.00138851  0.06206375  1
  O2-  O121  1  0.24895191  0.00072065  0.38956539  1
  O2-  O122  1  0.25301278  0.00473620  0.72600781  1
  O2-  O123  1  0.25485675  0.50543224  0.06040246  1
  O2-  O124  1  0.24710787  0.49336335  0.39518240  1
  O2-  O125  1  0.24690789  0.49731619  0.72747827  1
  O2-  O126  1  0.75268058  0.00598100  0.05997734  1
  O2-  O127  1  0.74131334  0.00046946  0.39366643  1
  O2-  O128  1  0.75010446  0.00925543  0.72899713  1
  O2-  O129  1  0.74967667  0.49805833  0.05568792  1
  O2-  O130  1  0.75061128  0.50105036  0.39774562  1
  O2-  O131  1  0.74879326  0.49367402  0.73061378  1
  O2-  O132  1  -0.00436827  0.25543046  0.27006522  1
  O2-  O133  1  -0.00357272  0.24807883  0.60076535  1
  O2-  O134  1  -0.00458735  0.25298578  0.94127784  1
  O2-  O135  1  -0.00406855  0.74392802  0.27719924  1
  O2-  O136  1  0.00378643  0.74344558  0.60449431  1
  O2-  O137  1  -0.00161257  0.75447896  0.93999323  1
  O2-  O138  1  0.50201772  0.24966889  0.26747646  1
  O2-  O139  1  0.50770168  0.24742083  0.60800752  1
  O2-  O140  1  0.49678020  0.25309834  0.93929485  1
  O2-  O141  1  0.49547004  0.75691944  0.27052037  1
  O2-  O142  1  0.49556958  0.74830560  0.60265691  1
  O2-  O143  1  0.49916915  0.74796751  0.94412972  1
  O2-  O144  1  0.06971558  0.18074419  0.09897204  1
  O2-  O145  1  0.06713142  0.17538722  0.42940033  1
  O2-  O146  1  0.07245402  0.18108490  0.76495666  1
  O2-  O147  1  0.06808175  0.67885787  0.10059178  1
  O2-  O148  1  0.07749806  0.68423323  0.42500581  1
  O2-  O149  1  0.07170730  0.67824000  0.75626649  1
  O2-  O150  1  0.57209093  0.17985002  0.09855338  1
  O2-  O151  1  0.56855468  0.17521708  0.43302698  1
  O2-  O152  1  0.56932727  0.17491216  0.75774527  1
  O2-  O153  1  0.57195353  0.67853776  0.09034833  1
  O2-  O154  1  0.57109782  0.68334653  0.43064460  1
  O2-  O155  1  0.57134511  0.68294048  0.76729480  1
  O2-  O156  1  0.17656665  0.42746341  0.24608224  1
  O2-  O157  1  0.18075739  0.42865457  0.57631764  1
  O2-  O158  1  0.18149485  0.43111710  0.90014184  1
  O2-  O159  1  0.18022575  0.92758480  0.24094435  1
  O2-  O160  1  0.17726468  0.93134711  0.56720297  1
  O2-  O161  1  0.17780413  0.92485652  0.91206683  1
  O2-  O162  1  0.68159660  0.43038547  0.23346584  1
  O2-  O163  1  0.67621579  0.42666649  0.58137520  1
  O2-  O164  1  0.67586129  0.42878841  0.90899761  1
  O2-  O165  1  0.67941376  0.92695438  0.24489556  1
  O2-  O166  1  0.68243809  0.93248811  0.56584520  1
  O2-  O167  1  0.67941752  0.92656304  0.90268630  1
  O2-  O168  1  0.43056658  0.32406692  0.08834076  1
  O2-  O169  1  0.42984370  0.32087671  0.42892165  1
  O2-  O170  1  0.43011630  0.31743697  0.76795559  1
  O2-  O171  1  0.42921066  0.81978696  0.09142751  1
  O2-  O172  1  0.41951245  0.82122731  0.42006798  1
  O2-  O173  1  0.42914940  0.82347609  0.76648423  1
  O2-  O174  1  0.92573489  0.32357690  0.09019862  1
  O2-  O175  1  0.93220021  0.32415343  0.42215802  1
  O2-  O176  1  0.93120131  0.32245662  0.76398166  1
  O2-  O177  1  0.92623287  0.81848619  0.08928701  1
  O2-  O178  1  0.93013483  0.82311302  0.42173183  1
  O2-  O179  1  0.93010293  0.81594661  0.76687730  1
  O2-  O180  1  0.31995639  0.07023989  0.24339109  1
  O2-  O181  1  0.32037195  0.07286834  0.57520443  1
  O2-  O182  1  0.31896130  0.06823439  0.90066847  1
  O2-  O183  1  0.31329024  0.57280856  0.23295747  1
  O2-  O184  1  0.32341707  0.56942734  0.56868767  1
  O2-  O185  1  0.32466369  0.57337563  0.91140668  1
  O2-  O186  1  0.82445102  0.06460450  0.23324613  1
  O2-  O187  1  0.82350593  0.07057686  0.57920282  1
  O2-  O188  1  0.82202609  0.07253456  0.90923300  1
  O2-  O189  1  0.82266525  0.57111289  0.23388778  1
  O2-  O190  1  0.81700654  0.57147349  0.56934191  1
  O2-  O191  1  0.81975063  0.57154368  0.90970417  1
  O2-  O192  1  0.03582261  0.08204295  0.26172410  1
  O2-  O193  1  0.04278786  0.07967089  0.59975125  1
  O2-  O194  1  0.04518625  0.08093303  0.93302310  1
  O2-  O195  1  0.04940701  0.58467478  0.27533410  1
  O2-  O196  1  0.05314836  0.58225348  0.60581988  1
  O2-  O197  1  0.03907750  0.58277785  0.93174603  1
  O2-  O198  1  0.54263578  0.07853631  0.26658192  1
  O2-  O199  1  0.54629548  0.08411777  0.60367150  1
  O2-  O200  1  0.53689570  0.08022423  0.93548459  1
  O2-  O201  1  0.53837533  0.58671847  0.26207027  1
  O2-  O202  1  0.54693104  0.58013575  0.60274672  1
  O2-  O203  1  0.54732305  0.58630250  0.93730748  1
  O2-  O204  1  0.16512117  0.20791348  0.26358045  1
  O2-  O205  1  0.16764132  0.20765295  0.59547779  1
  O2-  O206  1  0.16866642  0.21258820  0.93375307  1
  O2-  O207  1  0.16044713  0.71306663  0.26865563  1
  O2-  O208  1  0.16690985  0.70652374  0.60650740  1
  O2-  O209  1  0.16878046  0.70630198  0.93322903  1
  O2-  O210  1  0.67341884  0.20359737  0.26860967  1
  O2-  O211  1  0.66882244  0.19749134  0.60981549  1
  O2-  O212  1  0.66681404  0.20658171  0.92928841  1
  O2-  O213  1  0.66620401  0.71321464  0.26105922  1
  O2-  O214  1  0.66772072  0.71314755  0.60011317  1
  O2-  O215  1  0.66420610  0.70855724  0.94029494  1
  O2-  O216  1  0.08371777  0.46199888  0.06938826  1
  O2-  O217  1  0.08460670  0.45005299  0.39840304  1
  O2-  O218  1  0.08615877  0.45044919  0.72882591  1
  O2-  O219  1  0.07892411  0.94634656  0.06022862  1
  O2-  O220  1  0.08665631  0.95740943  0.39207640  1
  O2-  O221  1  0.08141534  0.95919935  0.73691394  1
  O2-  O222  1  0.58682397  0.45684061  0.06230722  1
  O2-  O223  1  0.57943867  0.45924347  0.39746023  1
  O2-  O224  1  0.58620565  0.45365671  0.73519354  1
  O2-  O225  1  0.58310355  0.95676092  0.07186532  1
  O2-  O226  1  0.57946231  0.94719921  0.39341270  1
  O2-  O227  1  0.58182983  0.95896447  0.73342840  1
  O2-  O228  1  0.21040045  0.33573082  0.07036213  1
  O2-  O229  1  0.20321949  0.33026393  0.39556933  1
  O2-  O230  1  0.20965897  0.33387264  0.72617032  1
  O2-  O231  1  0.20594700  0.83386061  0.06430398  1
  O2-  O232  1  0.20608423  0.83870981  0.39558682  1
  O2-  O233  1  0.20664656  0.83445544  0.73888358  1
  O2-  O234  1  0.70563277  0.33504691  0.06003677  1
  O2-  O235  1  0.70286234  0.33077825  0.40298160  1
  O2-  O236  1  0.70305716  0.33176358  0.73290664  1
  O2-  O237  1  0.71283022  0.83385737  0.07265444  1
  O2-  O238  1  0.70728522  0.83628415  0.39575586  1
  O2-  O239  1  0.71476780  0.83679027  0.73433653  1
  O2-  O240  1  0.45483246  0.42089229  0.26088360  1
  O2-  O241  1  0.46247643  0.41625930  0.60090768  1
  O2-  O242  1  0.45559195  0.41644669  0.93692751  1
  O2-  O243  1  0.44629298  0.91684696  0.26987002  1
  O2-  O244  1  0.45556808  0.92035201  0.59765227  1
  O2-  O245  1  0.45986293  0.91193383  0.93973545  1
  O2-  O246  1  0.95426985  0.41871529  0.27108071  1
  O2-  O247  1  0.95809134  0.42117503  0.59636714  1
  O2-  O248  1  0.95469053  0.41612577  0.93921317  1
  O2-  O249  1  0.96292004  0.90805298  0.26542913  1
  O2-  O250  1  0.96092299  0.91397391  0.59864977  1
  O2-  O251  1  0.94681830  0.91449571  0.93709361  1
  O2-  O252  1  0.33119177  0.29243941  0.26277991  1
  O2-  O253  1  0.33713138  0.29093536  0.59528913  1
  O2-  O254  1  0.33493756  0.29653150  0.93878909  1
  O2-  O255  1  0.33130294  0.79256013  0.26671124  1
  O2-  O256  1  0.32570618  0.79848145  0.60296788  1
  O2-  O257  1  0.33738155  0.79662982  0.93836875  1
  O2-  O258  1  0.83361369  0.29985665  0.27403072  1
  O2-  O259  1  0.82741245  0.30034635  0.59882231  1
  O2-  O260  1  0.83417031  0.29974981  0.93559708  1
  O2-  O261  1  0.83698442  0.79674881  0.26756670  1
  O2-  O262  1  0.83473913  0.78728980  0.59796634  1
  O2-  O263  1  0.83357957  0.78936655  0.93844371  1
  O2-  O264  1  0.41200489  0.03455195  0.07153003  1
  O2-  O265  1  0.41168421  0.04427267  0.39679464  1
  O2-  O266  1  0.41482827  0.04829841  0.72737429  1
  O2-  O267  1  0.41829474  0.54806153  0.06202170  1
  O2-  O268  1  0.41634385  0.54301771  0.39758226  1
  O2-  O269  1  0.41940091  0.53811857  0.73727765  1
  O2-  O270  1  0.91576890  0.04506444  0.06068178  1
  O2-  O271  1  0.91569337  0.03139061  0.40087812  1
  O2-  O272  1  0.91485685  0.04205757  0.73103256  1
  O2-  O273  1  0.91216114  0.54331662  0.06224925  1
  O2-  O274  1  0.92188395  0.54959174  0.40191201  1
  O2-  O275  1  0.91950868  0.54112300  0.73478433  1
  O2-  O276  1  0.29113842  0.16688502  0.06922017  1
  O2-  O277  1  0.29170244  0.16393675  0.39425641  1
  O2-  O278  1  0.29459422  0.16727738  0.72655752  1
  O2-  O279  1  0.29856888  0.66803929  0.06229882  1
  O2-  O280  1  0.28492408  0.66616363  0.40116316  1
  O2-  O281  1  0.29388881  0.66684959  0.73677373  1
  O2-  O282  1  0.79833212  0.16819794  0.05943285  1
  O2-  O283  1  0.79828888  0.16693185  0.40229170  1
  O2-  O284  1  0.80392855  0.16937616  0.72901146  1
  O2-  O285  1  0.79205961  0.66059142  0.06409388  1
  O2-  O286  1  0.79293520  0.67312589  0.39663583  1
  O2-  O287  1  0.78819614  0.66539742  0.73795388  1
