# generated using pymatgen
data_Ca2Al2SiO7
_symmetry_space_group_name_H-M   'P 1'
_cell_length_a   15.46440892
_cell_length_b   15.46343455
_cell_length_c   15.28848519
_cell_angle_alpha   90.00966843
_cell_angle_beta   89.99806040
_cell_angle_gamma   90.01131672
_symmetry_Int_Tables_number   1
_chemical_formula_structural   Ca2Al2SiO7
_chemical_formula_sum   'Ca48 Al48 Si24 O168'
_cell_volume   3655.97929448
_cell_formula_units_Z   24
loop_
 _symmetry_equiv_pos_site_id
 _symmetry_equiv_pos_as_xyz
  1  'x, y, z'
loop_
 _atom_type_symbol
 _atom_type_oxidation_number
  Ca2+  2.0
  Al0+  0.0
  Si0+  0.0
  O2-  -2.0
loop_
 _atom_site_type_symbol
 _atom_site_label
 _atom_site_symmetry_multiplicity
 _atom_site_fract_x
 _atom_site_fract_y
 _atom_site_fract_z
 _atom_site_occupancy
  Ca2+  Ca0  1  0.17233586  0.09010317  0.16416524  1
  Ca2+  Ca1  1  0.16419092  0.07510503  0.50936874  1
  Ca2+  Ca2  1  0.16506938  0.08162045  0.83834649  1
  Ca2+  Ca3  1  0.15404457  0.58138870  0.16735979  1
  Ca2+  Ca4  1  0.16686330  0.57997927  0.51052534  1
  Ca2+  Ca5  1  0.16593254  0.57380513  0.83723691  1
  Ca2+  Ca6  1  0.67305577  0.07177712  0.17292831  1
  Ca2+  Ca7  1  0.68079053  0.07372295  0.50186282  1
  Ca2+  Ca8  1  0.67050546  0.07371654  0.83448096  1
  Ca2+  Ca9  1  0.67128700  0.58428301  0.17016091  1
  Ca2+  Ca10  1  0.68206537  0.58587381  0.50421969  1
  Ca2+  Ca11  1  0.67297863  0.58837854  0.83634369  1
  Ca2+  Ca12  1  0.07237439  0.32980251  0.15696378  1
  Ca2+  Ca13  1  0.07647480  0.33001442  0.50136286  1
  Ca2+  Ca14  1  0.08194098  0.32586710  0.82956262  1
  Ca2+  Ca15  1  0.07669167  0.82140648  0.16510019  1
  Ca2+  Ca16  1  0.07782786  0.82800942  0.49209552  1
  Ca2+  Ca17  1  0.09082570  0.82771553  0.82853658  1
  Ca2+  Ca18  1  0.58132197  0.33023804  0.16174403  1
  Ca2+  Ca19  1  0.58393262  0.33184665  0.49761772  1
  Ca2+  Ca20  1  0.58021217  0.33097376  0.82736624  1
  Ca2+  Ca21  1  0.58008192  0.83722959  0.15922821  1
  Ca2+  Ca22  1  0.57503737  0.84543157  0.49722762  1
  Ca2+  Ca23  1  0.57586559  0.84071678  0.83166495  1
  Ca2+  Ca24  1  0.32207145  0.41902613  0.16903413  1
  Ca2+  Ca25  1  0.32375910  0.42896205  0.51295200  1
  Ca2+  Ca26  1  0.31926899  0.41846447  0.83810327  1
  Ca2+  Ca27  1  0.33822920  0.91530365  0.16585364  1
  Ca2+  Ca28  1  0.32745802  0.90880137  0.50644213  1
  Ca2+  Ca29  1  0.33199655  0.91651663  0.83538302  1
  Ca2+  Ca30  1  0.84184015  0.42013889  0.17231534  1
  Ca2+  Ca31  1  0.84597586  0.42549222  0.50289239  1
  Ca2+  Ca32  1  0.84639053  0.42011033  0.83285023  1
  Ca2+  Ca33  1  0.82357763  0.91629405  0.17869425  1
  Ca2+  Ca34  1  0.82950644  0.92068205  0.50946807  1
  Ca2+  Ca35  1  0.82439629  0.92066819  0.83783471  1
  Ca2+  Ca36  1  0.41696078  0.16378594  0.15898006  1
  Ca2+  Ca37  1  0.41973463  0.16656847  0.49718064  1
  Ca2+  Ca38  1  0.41470883  0.16154967  0.83194329  1
  Ca2+  Ca39  1  0.42651611  0.68028490  0.15686902  1
  Ca2+  Ca40  1  0.41394512  0.67713582  0.49635582  1
  Ca2+  Ca41  1  0.42090296  0.67470209  0.82644761  1
  Ca2+  Ca42  1  0.91484902  0.17601504  0.16055759  1
  Ca2+  Ca43  1  0.91063618  0.17271746  0.49690076  1
  Ca2+  Ca44  1  0.92265203  0.17608545  0.82202322  1
  Ca2+  Ca45  1  0.92046594  0.66742979  0.16751757  1
  Ca2+  Ca46  1  0.91877591  0.66835525  0.49177391  1
  Ca2+  Ca47  1  0.92121402  0.66535101  0.83175310  1
  Al0+  Al48  1  0.00029815  0.00044351  0.00083095  1
  Al0+  Al49  1  0.00257756  0.00075637  0.33097595  1
  Al0+  Al50  1  0.00101338  -0.00077468  0.67340623  1
  Al0+  Al51  1  -0.00009387  0.50108537  -0.00224839  1
  Al0+  Al52  1  -0.00015213  0.49603027  0.33147956  1
  Al0+  Al53  1  0.00089442  0.49860370  0.67162269  1
  Al0+  Al54  1  0.50013968  0.00100388  0.00380518  1
  Al0+  Al55  1  0.50015947  0.00243129  0.33280287  1
  Al0+  Al56  1  0.49975283  -0.00007106  0.66326540  1
  Al0+  Al57  1  0.50047569  0.50128097  -0.00229610  1
  Al0+  Al58  1  0.49736370  0.49988145  0.33341860  1
  Al0+  Al59  1  0.50237700  0.50242172  0.66734062  1
  Al0+  Al60  1  0.24852238  0.25121612  0.00680858  1
  Al0+  Al61  1  0.24965030  0.25105307  0.33569978  1
  Al0+  Al62  1  0.25033502  0.25030807  0.66387034  1
  Al0+  Al63  1  0.25076159  0.75070719  -0.00596132  1
  Al0+  Al64  1  0.25254980  0.74953482  0.32291865  1
  Al0+  Al65  1  0.25265825  0.75095763  0.67014550  1
  Al0+  Al66  1  0.74807214  0.25194792  -0.00477379  1
  Al0+  Al67  1  0.74776634  0.24856006  0.33154670  1
  Al0+  Al68  1  0.74975251  0.25090470  0.66426190  1
  Al0+  Al69  1  0.74953365  0.74888793  0.00217707  1
  Al0+  Al70  1  0.74732774  0.74756664  0.33963674  1
  Al0+  Al71  1  0.74876594  0.74832866  0.67561532  1
  Al0+  Al72  1  0.07069669  0.67771751  0.32090878  1
  Al0+  Al73  1  0.92945946  0.32083053  0.64855095  1
  Al0+  Al74  1  0.92739605  0.32048097  0.98324227  1
  Al0+  Al75  1  0.82392085  0.07150233  0.34647406  1
  Al0+  Al76  1  0.17971146  0.42817163  0.68272938  1
  Al0+  Al77  1  0.43128142  0.82190954  0.31798703  1
  Al0+  Al78  1  0.43129606  0.82358958  0.98227552  1
  Al0+  Al79  1  0.67823540  0.92760410  0.34914303  1
  Al0+  Al80  1  0.82161834  0.56989439  0.68203210  1
  Al0+  Al81  1  0.82086002  0.56804610  0.34581291  1
  Al0+  Al82  1  0.17852786  0.92897392  0.67832730  1
  Al0+  Al83  1  0.32292490  0.57346698  0.68228101  1
  Al0+  Al84  1  0.31831309  0.06899993  0.01291196  1
  Al0+  Al85  1  0.92552432  0.82281297  0.32208795  1
  Al0+  Al86  1  0.17900832  0.43197000  0.01666970  1
  Al0+  Al87  1  0.67768969  0.92952220  0.68312725  1
  Al0+  Al88  1  0.68159673  0.93006983  0.01508160  1
  Al0+  Al89  1  0.43101483  0.81976183  0.65091380  1
  Al0+  Al90  1  0.82239513  0.07276734  0.68296319  1
  Al0+  Al91  1  0.07248295  0.17845656  0.98555552  1
  Al0+  Al92  1  0.07281737  0.17583212  0.65039781  1
  Al0+  Al93  1  0.92923034  0.31713543  0.31938178  1
  Al0+  Al94  1  0.06947585  0.68077439  0.98438961  1
  Al0+  Al95  1  0.57295578  0.67801257  0.98365534  1
  Si0+  Si96  1  0.42689808  0.32227831  0.31810454  1
  Si0+  Si97  1  0.42917412  0.32362501  0.65160397  1
  Si0+  Si98  1  0.17571803  0.92418642  0.01944096  1
  Si0+  Si99  1  0.07052664  0.68027647  0.65448533  1
  Si0+  Si100  1  0.57000789  0.17945497  0.64989563  1
  Si0+  Si101  1  0.56818261  0.18132161  0.31663893  1
  Si0+  Si102  1  0.67567817  0.42737489  0.01450418  1
  Si0+  Si103  1  0.92713167  0.81979959  0.65611352  1
  Si0+  Si104  1  0.92654188  0.82254740  0.98447350  1
  Si0+  Si105  1  0.67441530  0.42714825  0.34883498  1
  Si0+  Si106  1  0.32215075  0.07229799  0.67976513  1
  Si0+  Si107  1  0.18198390  0.92697591  0.34511339  1
  Si0+  Si108  1  0.57112697  0.67464148  0.31822976  1
  Si0+  Si109  1  0.67727113  0.42750166  0.68293558  1
  Si0+  Si110  1  0.56936473  0.18015643  0.98453104  1
  Si0+  Si111  1  0.82012715  0.56867598  0.01628528  1
  Si0+  Si112  1  0.32351602  0.57304627  0.01804336  1
  Si0+  Si113  1  0.82226738  0.07465634  0.01578720  1
  Si0+  Si114  1  0.32054907  0.07263759  0.34885320  1
  Si0+  Si115  1  0.32118139  0.57117261  0.34665743  1
  Si0+  Si116  1  0.57458008  0.67669304  0.64726597  1
  Si0+  Si117  1  0.17911009  0.42928090  0.34965671  1
  Si0+  Si118  1  0.07624746  0.17673445  0.31578184  1
  Si0+  Si119  1  0.42801642  0.32161259  0.98632817  1
  O2-  O120  1  0.24376985  -0.00479358  0.06215354  1
  O2-  O121  1  0.25031553  0.00073063  0.38906536  1
  O2-  O122  1  0.24970382  0.00832856  0.72278892  1
  O2-  O123  1  0.25180724  0.50873361  0.06498938  1
  O2-  O124  1  0.24754256  0.50362140  0.39030477  1
  O2-  O125  1  0.25319638  0.49947077  0.73181833  1
  O2-  O126  1  0.75962843  0.00140071  0.06138327  1
  O2-  O127  1  0.75967418  -0.00857489  0.39611830  1
  O2-  O128  1  0.75183964  -0.00070210  0.73274239  1
  O2-  O129  1  0.74818791  0.49671417  0.05627105  1
  O2-  O130  1  0.74411011  0.49436042  0.39236880  1
  O2-  O131  1  0.74721964  0.49385187  0.72763782  1
  O2-  O132  1  0.00152601  0.23979104  0.27380932  1
  O2-  O133  1  -0.00159695  0.24500963  0.59939404  1
  O2-  O134  1  -0.00360138  0.24514000  0.93517149  1
  O2-  O135  1  -0.00363362  0.74883926  0.27252828  1
  O2-  O136  1  -0.00116117  0.75008653  0.61212219  1
  O2-  O137  1  -0.00008773  0.76017000  0.93792635  1
  O2-  O138  1  0.49749768  0.25257771  0.27363737  1
  O2-  O139  1  0.49985539  0.25258645  0.60806551  1
  O2-  O140  1  0.49851527  0.25131089  0.94201886  1
  O2-  O141  1  0.50938560  0.74949538  0.27410361  1
  O2-  O142  1  0.50607994  0.74553690  0.60320833  1
  O2-  O143  1  0.50141543  0.74954934  0.93300120  1
  O2-  O144  1  0.07303377  0.18286515  0.09958061  1
  O2-  O145  1  0.08429510  0.17953844  0.42058551  1
  O2-  O146  1  0.07488225  0.17865915  0.76354652  1
  O2-  O147  1  0.06457224  0.67949644  0.09756139  1
  O2-  O148  1  0.07338425  0.67903041  0.43498499  1
  O2-  O149  1  0.06933572  0.68148050  0.75949892  1
  O2-  O150  1  0.56886260  0.18284498  0.08988688  1
  O2-  O151  1  0.56552283  0.18301894  0.42180457  1
  O2-  O152  1  0.56753160  0.17989222  0.75520549  1
  O2-  O153  1  0.57208459  0.67614890  0.09771041  1
  O2-  O154  1  0.56556563  0.66716920  0.42307981  1
  O2-  O155  1  0.57332543  0.67468026  0.75246874  1
  O2-  O156  1  0.18157954  0.42718195  0.24462373  1
  O2-  O157  1  0.18092402  0.43108074  0.56825360  1
  O2-  O158  1  0.18246737  0.43071954  0.90428294  1
  O2-  O159  1  0.18449348  0.92670231  0.24036290  1
  O2-  O160  1  0.18095368  0.92541335  0.56444366  1
  O2-  O161  1  0.17706735  0.92376724  0.91404241  1
  O2-  O162  1  0.67022794  0.42805778  0.24314168  1
  O2-  O163  1  0.67338275  0.42893732  0.57724543  1
  O2-  O164  1  0.67169948  0.42572054  0.91004732  1
  O2-  O165  1  0.67557783  0.93274679  0.23544799  1
  O2-  O166  1  0.67805166  0.93220810  0.56962800  1
  O2-  O167  1  0.68062089  0.93396741  0.90235858  1
  O2-  O168  1  0.43097521  0.32075899  0.09199459  1
  O2-  O169  1  0.42746587  0.32137025  0.42315442  1
  O2-  O170  1  0.43067559  0.32209493  0.75670150  1
  O2-  O171  1  0.43507526  0.82350128  0.09634704  1
  O2-  O172  1  0.42766000  0.81997161  0.43107275  1
  O2-  O173  1  0.43195413  0.82221187  0.76321352  1
  O2-  O174  1  0.92685378  0.32004594  0.09740621  1
  O2-  O175  1  0.93215243  0.31992486  0.43180341  1
  O2-  O176  1  0.93062362  0.32101893  0.76164449  1
  O2-  O177  1  0.92528184  0.81830769  0.09013872  1
  O2-  O178  1  0.92971973  0.82191345  0.43624498  1
  O2-  O179  1  0.92763561  0.81701231  0.76124194  1
  O2-  O180  1  0.32055608  0.07622968  0.24400183  1
  O2-  O181  1  0.32445680  0.07112865  0.57360792  1
  O2-  O182  1  0.31949025  0.07014742  0.90003149  1
  O2-  O183  1  0.32484625  0.56643497  0.24204643  1
  O2-  O184  1  0.31923671  0.57265069  0.56744078  1
  O2-  O185  1  0.32488994  0.56763488  0.91305962  1
  O2-  O186  1  0.81712270  0.07539689  0.23290585  1
  O2-  O187  1  0.82015792  0.07149329  0.56920507  1
  O2-  O188  1  0.81792277  0.07558867  0.91058023  1
  O2-  O189  1  0.82018553  0.56528427  0.23253068  1
  O2-  O190  1  0.82213212  0.57044591  0.56876985  1
  O2-  O191  1  0.82026952  0.56837365  0.91127177  1
  O2-  O192  1  0.06018566  0.08107978  0.27082208  1
  O2-  O193  1  0.04854043  0.07411835  0.60160124  1
  O2-  O194  1  0.05385049  0.07587512  0.93762761  1
  O2-  O195  1  0.04192346  0.57962213  0.26787220  1
  O2-  O196  1  0.04342437  0.58786893  0.60862631  1
  O2-  O197  1  0.03427082  0.58633935  0.93007729  1
  O2-  O198  1  0.53757791  0.09136128  0.26780692  1
  O2-  O199  1  0.53805324  0.09052816  0.59998277  1
  O2-  O200  1  0.53863289  0.08993011  0.93744762  1
  O2-  O201  1  0.54004902  0.58325436  0.26856475  1
  O2-  O202  1  0.55127628  0.58231241  0.60056812  1
  O2-  O203  1  0.54629557  0.57860153  0.93072831  1
  O2-  O204  1  0.16782175  0.21029773  0.26807634  1
  O2-  O205  1  0.17180351  0.20500432  0.59634940  1
  O2-  O206  1  0.17067495  0.21170601  0.93510936  1
  O2-  O207  1  0.16708883  0.70619333  0.26359323  1
  O2-  O208  1  0.16252560  0.70856072  0.60831363  1
  O2-  O209  1  0.16784351  0.70514603  0.93144824  1
  O2-  O210  1  0.65846061  0.20915739  0.26701956  1
  O2-  O211  1  0.66052521  0.20785141  0.60094978  1
  O2-  O212  1  0.65928829  0.20863380  0.93471302  1
  O2-  O213  1  0.66743381  0.69263619  0.27581195  1
  O2-  O214  1  0.66939607  0.70290719  0.60396325  1
  O2-  O215  1  0.67251060  0.70414836  0.93289808  1
  O2-  O216  1  0.08187920  0.46416790  0.06937050  1
  O2-  O217  1  0.08723796  0.45455516  0.39641898  1
  O2-  O218  1  0.08375500  0.45829431  0.73704577  1
  O2-  O219  1  0.08072922  0.94665558  0.06494988  1
  O2-  O220  1  0.08917017  0.95088715  0.39219235  1
  O2-  O221  1  0.08299686  0.95208983  0.73710002  1
  O2-  O222  1  0.58446961  0.45524348  0.06453756  1
  O2-  O223  1  0.58038333  0.45187765  0.39609905  1
  O2-  O224  1  0.58428413  0.45303197  0.73075797  1
  O2-  O225  1  0.58676930  0.96646618  0.06898726  1
  O2-  O226  1  0.58276466  0.96853177  0.40148274  1
  O2-  O227  1  0.58037813  0.96526646  0.73409792  1
  O2-  O228  1  0.21365456  0.33778974  0.07347906  1
  O2-  O229  1  0.21139874  0.33911826  0.39793232  1
  O2-  O230  1  0.21141158  0.32982714  0.73368802  1
  O2-  O231  1  0.20447601  0.83092872  0.06498274  1
  O2-  O232  1  0.21367540  0.83560789  0.39163995  1
  O2-  O233  1  0.21466047  0.83605795  0.73518307  1
  O2-  O234  1  0.70091771  0.33459402  0.06251817  1
  O2-  O235  1  0.69759637  0.33274112  0.39334000  1
  O2-  O236  1  0.69818497  0.33261672  0.72759420  1
  O2-  O237  1  0.70851018  0.83177819  0.06811092  1
  O2-  O238  1  0.69131512  0.82564685  0.39948796  1
  O2-  O239  1  0.70147309  0.83071047  0.73596863  1
  O2-  O240  1  0.45352749  0.41376839  0.26953271  1
  O2-  O241  1  0.45832167  0.41505532  0.60333237  1
  O2-  O242  1  0.45590078  0.41236573  0.93832262  1
  O2-  O243  1  0.45811105  0.92099042  0.26672144  1
  O2-  O244  1  0.45984659  0.91735624  0.59599489  1
  O2-  O245  1  0.46208583  0.92239433  0.93158395  1
  O2-  O246  1  0.96360104  0.41177515  0.26393775  1
  O2-  O247  1  0.96357325  0.41965881  0.59829374  1
  O2-  O248  1  0.95942794  0.41810049  0.93289859  1
  O2-  O249  1  0.95452055  0.92034515  0.26692323  1
  O2-  O250  1  0.95370612  0.91223323  0.61070758  1
  O2-  O251  1  0.94432406  0.91914545  0.94222102  1
  O2-  O252  1  0.33555333  0.29283193  0.27061603  1
  O2-  O253  1  0.33869639  0.29640954  0.60158807  1
  O2-  O254  1  0.33687581  0.29175673  0.94090618  1
  O2-  O255  1  0.33783241  0.78905023  0.25963751  1
  O2-  O256  1  0.33397676  0.78674442  0.59736273  1
  O2-  O257  1  0.33122830  0.79948424  0.93221284  1
  O2-  O258  1  0.82987836  0.29225966  0.26663897  1
  O2-  O259  1  0.82794698  0.29849446  0.59759221  1
  O2-  O260  1  0.82668045  0.29901813  0.93115265  1
  O2-  O261  1  0.82581752  0.79408987  0.27160525  1
  O2-  O262  1  0.83511295  0.79057724  0.61005863  1
  O2-  O263  1  0.83557046  0.79060764  0.93752786  1
  O2-  O264  1  0.41499885  0.04062803  0.06948314  1
  O2-  O265  1  0.41304652  0.04740176  0.39552093  1
  O2-  O266  1  0.41409165  0.04356876  0.72683647  1
  O2-  O267  1  0.41615424  0.54289221  0.06477837  1
  O2-  O268  1  0.41073808  0.53985900  0.39711886  1
  O2-  O269  1  0.42302795  0.54751223  0.73177943  1
  O2-  O270  1  0.91846409  0.05659419  0.05951223  1
  O2-  O271  1  0.92702306  0.05601988  0.39455414  1
  O2-  O272  1  0.91998037  0.04633045  0.73681543  1
  O2-  O273  1  0.91104547  0.53954688  0.06389781  1
  O2-  O274  1  0.91698247  0.53453375  0.39976049  1
  O2-  O275  1  0.91706926  0.53950838  0.73752073  1
  O2-  O276  1  0.29043750  0.16558842  0.07081161  1
  O2-  O277  1  0.29454276  0.16490777  0.39748473  1
  O2-  O278  1  0.30408887  0.16803322  0.72384305  1
  O2-  O279  1  0.30135851  0.66925322  0.05978377  1
  O2-  O280  1  0.29607758  0.66519138  0.39031849  1
  O2-  O281  1  0.29364060  0.66953653  0.73675858  1
  O2-  O282  1  0.78928210  0.16719808  0.06084224  1
  O2-  O283  1  0.78367629  0.16658212  0.40035191  1
  O2-  O284  1  0.78947895  0.17107399  0.73329556  1
  O2-  O285  1  0.79212743  0.65986519  0.06462057  1
  O2-  O286  1  0.79266006  0.66377308  0.40305848  1
  O2-  O287  1  0.79013566  0.66405561  0.73993890  1
