# generated using pymatgen
data_Ca2Al2SiO7
_symmetry_space_group_name_H-M   'P 1'
_cell_length_a   15.46694783
_cell_length_b   15.46584023
_cell_length_c   15.29078988
_cell_angle_alpha   90.01337178
_cell_angle_beta   90.00691078
_cell_angle_gamma   90.01762358
_symmetry_Int_Tables_number   1
_chemical_formula_structural   Ca2Al2SiO7
_chemical_formula_sum   'Ca48 Al48 Si24 O168'
_cell_volume   3657.69951738
_cell_formula_units_Z   24
loop_
 _symmetry_equiv_pos_site_id
 _symmetry_equiv_pos_as_xyz
  1  'x, y, z'
loop_
 _atom_type_symbol
 _atom_type_oxidation_number
  Ca2+  2.0
  Al0+  0.0
  Si0+  0.0
  O2-  -2.0
loop_
 _atom_site_type_symbol
 _atom_site_label
 _atom_site_symmetry_multiplicity
 _atom_site_fract_x
 _atom_site_fract_y
 _atom_site_fract_z
 _atom_site_occupancy
  Ca2+  Ca0  1  0.17496497  0.07681744  0.16763994  1
  Ca2+  Ca1  1  0.17382408  0.08232684  0.50763145  1
  Ca2+  Ca2  1  0.17812453  0.08708410  0.83606086  1
  Ca2+  Ca3  1  0.17816952  0.57209184  0.17045228  1
  Ca2+  Ca4  1  0.18067360  0.57319664  0.50450279  1
  Ca2+  Ca5  1  0.17599133  0.57500574  0.83745563  1
  Ca2+  Ca6  1  0.65664501  0.08483576  0.16691874  1
  Ca2+  Ca7  1  0.65865009  0.07951540  0.50886176  1
  Ca2+  Ca8  1  0.65743776  0.07499996  0.83742166  1
  Ca2+  Ca9  1  0.66139301  0.56713984  0.16771589  1
  Ca2+  Ca10  1  0.66002021  0.57628691  0.50347483  1
  Ca2+  Ca11  1  0.66565190  0.57764843  0.83765049  1
  Ca2+  Ca12  1  0.08418682  0.34290698  0.16201988  1
  Ca2+  Ca13  1  0.08781470  0.33612658  0.50049281  1
  Ca2+  Ca14  1  0.08221579  0.33552039  0.82220714  1
  Ca2+  Ca15  1  0.08974066  0.83667858  0.16090920  1
  Ca2+  Ca16  1  0.07955567  0.83805761  0.49307318  1
  Ca2+  Ca17  1  0.07882399  0.83754764  0.82785821  1
  Ca2+  Ca18  1  0.57489563  0.33121647  0.15960162  1
  Ca2+  Ca19  1  0.57709300  0.32310553  0.48960847  1
  Ca2+  Ca20  1  0.57836617  0.32442174  0.83154667  1
  Ca2+  Ca21  1  0.57466829  0.83337102  0.16349143  1
  Ca2+  Ca22  1  0.57764461  0.82739095  0.49853730  1
  Ca2+  Ca23  1  0.58736417  0.82770746  0.82363548  1
  Ca2+  Ca24  1  0.33687889  0.42201685  0.17341616  1
  Ca2+  Ca25  1  0.33302318  0.42083527  0.50591412  1
  Ca2+  Ca26  1  0.32864581  0.42273497  0.84059512  1
  Ca2+  Ca27  1  0.32880362  0.92060382  0.17104462  1
  Ca2+  Ca28  1  0.33348189  0.92018395  0.50325196  1
  Ca2+  Ca29  1  0.33306497  0.93326347  0.83980315  1
  Ca2+  Ca30  1  0.81819332  0.40954716  0.16905215  1
  Ca2+  Ca31  1  0.82683684  0.41109813  0.50288503  1
  Ca2+  Ca32  1  0.82745980  0.40978735  0.83668773  1
  Ca2+  Ca33  1  0.82391236  0.91953083  0.16713747  1
  Ca2+  Ca34  1  0.82642487  0.91836011  0.50912155  1
  Ca2+  Ca35  1  0.82215145  0.91287616  0.83468772  1
  Ca2+  Ca36  1  0.42114878  0.17896347  0.15951477  1
  Ca2+  Ca37  1  0.42397462  0.16761785  0.49472903  1
  Ca2+  Ca38  1  0.41828642  0.16653753  0.83136057  1
  Ca2+  Ca39  1  0.40243150  0.67036773  0.16598045  1
  Ca2+  Ca40  1  0.41376204  0.66673413  0.49641124  1
  Ca2+  Ca41  1  0.41840097  0.66363930  0.82940590  1
  Ca2+  Ca42  1  0.92178768  0.16642315  0.16360407  1
  Ca2+  Ca43  1  0.92492449  0.17088686  0.50321191  1
  Ca2+  Ca44  1  0.92835070  0.17276688  0.82310437  1
  Ca2+  Ca45  1  0.92146907  0.66683752  0.16161314  1
  Ca2+  Ca46  1  0.91836177  0.67297186  0.49928788  1
  Ca2+  Ca47  1  0.91976290  0.67348316  0.82343603  1
  Al0+  Al48  1  -0.00318352  0.00062905  0.00079463  1
  Al0+  Al49  1  -0.00227660  0.00053381  0.33484373  1
  Al0+  Al50  1  -0.00219590  0.00190655  0.65802539  1
  Al0+  Al51  1  0.00071421  0.50349337  -0.00047076  1
  Al0+  Al52  1  0.00023294  0.50195211  0.33493122  1
  Al0+  Al53  1  -0.00220369  0.50244590  0.66351778  1
  Al0+  Al54  1  0.49940732  -0.00074634  0.00602622  1
  Al0+  Al55  1  0.50029712  -0.00381954  0.32640525  1
  Al0+  Al56  1  0.49892065  -0.00221641  0.67166208  1
  Al0+  Al57  1  0.50072891  0.50122558  0.00305576  1
  Al0+  Al58  1  0.50306510  0.49968066  0.33951069  1
  Al0+  Al59  1  0.50161159  0.49985236  0.66740513  1
  Al0+  Al60  1  0.24889442  0.24985700  0.00379442  1
  Al0+  Al61  1  0.25013873  0.24783456  0.33150751  1
  Al0+  Al62  1  0.25019384  0.24946925  0.66993806  1
  Al0+  Al63  1  0.24837678  0.74877311  0.00090294  1
  Al0+  Al64  1  0.24769762  0.74947397  0.33725491  1
  Al0+  Al65  1  0.24949580  0.74931085  0.67062314  1
  Al0+  Al66  1  0.75140417  0.24834177  -0.00065207  1
  Al0+  Al67  1  0.75414165  0.24844320  0.33475344  1
  Al0+  Al68  1  0.75154463  0.24770215  0.66041250  1
  Al0+  Al69  1  0.75009941  0.75200283  0.00532134  1
  Al0+  Al70  1  0.75069148  0.75203393  0.33105650  1
  Al0+  Al71  1  0.74929737  0.74889785  0.66028823  1
  Al0+  Al72  1  0.17783732  0.42621663  0.34952895  1
  Al0+  Al73  1  0.68112872  0.42828314  0.34858141  1
  Al0+  Al74  1  0.32249819  0.56997452  0.01588314  1
  Al0+  Al75  1  0.92878114  0.32395186  0.65057200  1
  Al0+  Al76  1  0.32421117  0.57191493  0.68423537  1
  Al0+  Al77  1  0.56897387  0.17661271  0.65461221  1
  Al0+  Al78  1  0.57125037  0.17829082  0.98318927  1
  Al0+  Al79  1  0.42749558  0.81716908  0.31974912  1
  Al0+  Al80  1  0.57370211  0.17769310  0.31830850  1
  Al0+  Al81  1  0.17690328  0.42844829  0.01387984  1
  Al0+  Al82  1  0.42716917  0.32366747  0.98363004  1
  Al0+  Al83  1  0.32117775  0.06978143  0.67881249  1
  Al0+  Al84  1  0.32290481  0.07302608  0.01809472  1
  Al0+  Al85  1  0.68051643  0.92896636  0.67842584  1
  Al0+  Al86  1  0.32216078  0.57032205  0.34998247  1
  Al0+  Al87  1  0.17852375  0.42978986  0.68165750  1
  Al0+  Al88  1  0.07450451  0.18070329  0.65118363  1
  Al0+  Al89  1  0.92954713  0.82085823  0.65228516  1
  Al0+  Al90  1  0.17852565  0.93035421  0.34774406  1
  Al0+  Al91  1  0.17748541  0.93066227  0.01164325  1
  Al0+  Al92  1  0.42911278  0.32193260  0.31969331  1
  Al0+  Al93  1  0.67818856  0.92800718  0.01524525  1
  Al0+  Al94  1  0.57026522  0.67762121  0.65393173  1
  Al0+  Al95  1  0.68109155  0.42766410  0.01086541  1
  Si0+  Si96  1  0.82206831  0.07037932  0.35052061  1
  Si0+  Si97  1  0.42714226  0.82129838  0.65325416  1
  Si0+  Si98  1  0.82209747  0.57430868  0.35005751  1
  Si0+  Si99  1  0.82208319  0.57379342  0.01515168  1
  Si0+  Si100  1  0.07026156  0.17699678  0.31703461  1
  Si0+  Si101  1  0.57304695  0.68106529  0.98648178  1
  Si0+  Si102  1  0.42730809  0.81990041  0.98496849  1
  Si0+  Si103  1  0.81913955  0.57191404  0.67980439  1
  Si0+  Si104  1  0.68089187  0.42591294  0.68116041  1
  Si0+  Si105  1  0.92728402  0.82136152  0.98478499  1
  Si0+  Si106  1  0.92829904  0.82306270  0.31445790  1
  Si0+  Si107  1  0.57465659  0.67832682  0.31536955  1
  Si0+  Si108  1  0.07311030  0.67905686  0.64817855  1
  Si0+  Si109  1  0.06861730  0.68069723  0.31684340  1
  Si0+  Si110  1  0.07012014  0.68023732  0.98303040  1
  Si0+  Si111  1  0.93030419  0.32242862  0.98693140  1
  Si0+  Si112  1  0.82256526  0.07256794  0.68351378  1
  Si0+  Si113  1  0.17436678  0.92832583  0.68088360  1
  Si0+  Si114  1  0.42930682  0.32186650  0.65180590  1
  Si0+  Si115  1  0.32337883  0.06966671  0.34976899  1
  Si0+  Si116  1  0.06965501  0.17760682  0.98713214  1
  Si0+  Si117  1  0.67880515  0.92938032  0.34920022  1
  Si0+  Si118  1  0.82142553  0.07117248  0.01654266  1
  Si0+  Si119  1  0.93156603  0.32213807  0.31678851  1
  O2-  O120  1  0.25052944  -0.00115337  0.06462140  1
  O2-  O121  1  0.25352719  0.00286395  0.39554978  1
  O2-  O122  1  0.24333356  -0.00361986  0.72418199  1
  O2-  O123  1  0.25542129  0.49252880  0.06409733  1
  O2-  O124  1  0.25597982  0.49199177  0.39815769  1
  O2-  O125  1  0.25169109  0.49977092  0.73230604  1
  O2-  O126  1  0.74819280  0.00759349  0.06130386  1
  O2-  O127  1  0.74533040  0.00455483  0.39085586  1
  O2-  O128  1  0.75314544  0.00475650  0.72742239  1
  O2-  O129  1  0.75611413  0.50263523  0.05847316  1
  O2-  O130  1  0.75337224  0.50648034  0.39486086  1
  O2-  O131  1  0.75260283  0.49731197  0.72278468  1
  O2-  O132  1  0.00609313  0.25479109  0.27419804  1
  O2-  O133  1  0.00529922  0.25617383  0.60129913  1
  O2-  O134  1  0.00592796  0.25629316  0.94613437  1
  O2-  O135  1  -0.00116084  0.75254597  0.27169148  1
  O2-  O136  1  0.00901692  0.75244245  0.60350672  1
  O2-  O137  1  -0.00046711  0.75263481  0.94176877  1
  O2-  O138  1  0.50319309  0.25144712  0.26974654  1
  O2-  O139  1  0.49654128  0.25198725  0.60710855  1
  O2-  O140  1  0.49756201  0.24901271  0.93392611  1
  O2-  O141  1  0.50056901  0.74087180  0.27112946  1
  O2-  O142  1  0.49122011  0.74830488  0.60885885  1
  O2-  O143  1  0.50124358  0.75102674  0.94362484  1
  O2-  O144  1  0.06330822  0.17274353  0.09224940  1
  O2-  O145  1  0.06548821  0.17322582  0.42146619  1
  O2-  O146  1  0.07053461  0.17828520  0.76518677  1
  O2-  O147  1  0.06680168  0.67948178  0.08822013  1
  O2-  O148  1  0.06426370  0.68305499  0.42168031  1
  O2-  O149  1  0.06904094  0.67900478  0.75396847  1
  O2-  O150  1  0.57328162  0.18284413  0.09652035  1
  O2-  O151  1  0.57135691  0.17652544  0.43231428  1
  O2-  O152  1  0.56912230  0.17721052  0.76718830  1
  O2-  O153  1  0.57694561  0.68314671  0.09135241  1
  O2-  O154  1  0.57966777  0.68362719  0.42076198  1
  O2-  O155  1  0.57460516  0.67942629  0.76734476  1
  O2-  O156  1  0.17208338  0.43249510  0.23649206  1
  O2-  O157  1  0.18069627  0.43169058  0.56830844  1
  O2-  O158  1  0.16975301  0.43447856  0.90111716  1
  O2-  O159  1  0.17725444  0.93274309  0.23484749  1
  O2-  O160  1  0.17551102  0.92870092  0.57514536  1
  O2-  O161  1  0.17500471  0.93320805  0.89809224  1
  O2-  O162  1  0.68406261  0.42839933  0.23526846  1
  O2-  O163  1  0.68202215  0.42695936  0.57611205  1
  O2-  O164  1  0.68418640  0.42900737  0.89760148  1
  O2-  O165  1  0.68234375  0.92674363  0.24418006  1
  O2-  O166  1  0.68111574  0.92941823  0.56505515  1
  O2-  O167  1  0.68293515  0.92167193  0.90250882  1
  O2-  O168  1  0.43107827  0.32543995  0.09713156  1
  O2-  O169  1  0.43021815  0.31902004  0.43370399  1
  O2-  O170  1  0.43204236  0.32330074  0.75716394  1
  O2-  O171  1  0.42677708  0.81748284  0.09021726  1
  O2-  O172  1  0.43129342  0.81968624  0.43293622  1
  O2-  O173  1  0.43048619  0.82298262  0.75881219  1
  O2-  O174  1  0.92869847  0.32098461  0.09234655  1
  O2-  O175  1  0.92950692  0.32064408  0.42131497  1
  O2-  O176  1  0.92665878  0.32095885  0.76478928  1
  O2-  O177  1  0.92621827  0.81966235  0.09003288  1
  O2-  O178  1  0.92691003  0.82234749  0.41939478  1
  O2-  O179  1  0.92835712  0.81765992  0.76581823  1
  O2-  O180  1  0.32097601  0.06775047  0.24460329  1
  O2-  O181  1  0.32298848  0.06623725  0.56559073  1
  O2-  O182  1  0.32163664  0.07068020  0.90414249  1
  O2-  O183  1  0.31693078  0.57273202  0.23675700  1
  O2-  O184  1  0.32358744  0.57184274  0.57097661  1
  O2-  O185  1  0.31981810  0.57292611  0.90262160  1
  O2-  O186  1  0.82718124  0.06748235  0.24545986  1
  O2-  O187  1  0.82233366  0.07080118  0.57765670  1
  O2-  O188  1  0.82650217  0.06812153  0.91162101  1
  O2-  O189  1  0.82282788  0.57442519  0.24429386  1
  O2-  O190  1  0.81680829  0.57412390  0.57479897  1
  O2-  O191  1  0.82119903  0.57685984  0.90957070  1
  O2-  O192  1  0.03197463  0.08877415  0.26807398  1
  O2-  O193  1  0.04132558  0.08469947  0.59492987  1
  O2-  O194  1  0.03286455  0.08978497  0.93714077  1
  O2-  O195  1  0.03766875  0.58996811  0.26838855  1
  O2-  O196  1  0.04044576  0.58909521  0.59970038  1
  O2-  O197  1  0.03885204  0.59051935  0.93313883  1
  O2-  O198  1  0.54679044  0.07871589  0.26623540  1
  O2-  O199  1  0.53715212  0.07947834  0.60183014  1
  O2-  O200  1  0.54492915  0.07628392  0.93602240  1
  O2-  O201  1  0.55621974  0.58141343  0.27510869  1
  O2-  O202  1  0.54435176  0.58015072  0.59908666  1
  O2-  O203  1  0.54802855  0.58865136  0.93965436  1
  O2-  O204  1  0.16444193  0.19471397  0.27133716  1
  O2-  O205  1  0.17363786  0.20444428  0.59783881  1
  O2-  O206  1  0.16400979  0.19635445  0.94282471  1
  O2-  O207  1  0.16004321  0.70868362  0.27033678  1
  O2-  O208  1  0.16860696  0.70012392  0.60465771  1
  O2-  O209  1  0.16111611  0.70772871  0.93465851  1
  O2-  O210  1  0.67559495  0.20137508  0.26951523  1
  O2-  O211  1  0.66665956  0.20325692  0.60092822  1
  O2-  O212  1  0.67179730  0.20520664  0.93200165  1
  O2-  O213  1  0.66617213  0.70980145  0.26708506  1
  O2-  O214  1  0.66354294  0.71162375  0.59568392  1
  O2-  O215  1  0.66521610  0.71041899  0.93928439  1
  O2-  O216  1  0.08020752  0.46487220  0.06821096  1
  O2-  O217  1  0.08033786  0.46107374  0.40180434  1
  O2-  O218  1  0.07778502  0.45962430  0.73019177  1
  O2-  O219  1  0.07836651  0.95804496  0.06508853  1
  O2-  O220  1  0.08074835  0.96129636  0.39983866  1
  O2-  O221  1  0.07923617  0.95351960  0.72377688  1
  O2-  O222  1  0.58732078  0.46180585  0.06683186  1
  O2-  O223  1  0.58623567  0.45679796  0.40582752  1
  O2-  O224  1  0.59016365  0.45495815  0.72855968  1
  O2-  O225  1  0.58167235  0.95295890  0.07039923  1
  O2-  O226  1  0.58509915  0.95202869  0.39430740  1
  O2-  O227  1  0.58458904  0.95599426  0.73448403  1
  O2-  O228  1  0.19126406  0.32668275  0.06322180  1
  O2-  O229  1  0.19645877  0.32317266  0.39633419  1
  O2-  O230  1  0.20189138  0.33009685  0.73318997  1
  O2-  O231  1  0.20302779  0.83119222  0.06314718  1
  O2-  O232  1  0.20480713  0.83333222  0.40180582  1
  O2-  O233  1  0.19578825  0.83384416  0.72658991  1
  O2-  O234  1  0.71553758  0.33298656  0.06622991  1
  O2-  O235  1  0.71722706  0.33275414  0.40164072  1
  O2-  O236  1  0.71100308  0.33436984  0.72739807  1
  O2-  O237  1  0.71567179  0.83525636  0.07341605  1
  O2-  O238  1  0.71235645  0.83884047  0.39605939  1
  O2-  O239  1  0.71557756  0.83244174  0.73055881  1
  O2-  O240  1  0.45847669  0.42202007  0.27039040  1
  O2-  O241  1  0.45767061  0.41429522  0.60518958  1
  O2-  O242  1  0.45936623  0.42239322  0.93224081  1
  O2-  O243  1  0.46104528  0.91107598  0.26210447  1
  O2-  O244  1  0.45843002  0.91184909  0.60479980  1
  O2-  O245  1  0.45381687  0.91307692  0.94083350  1
  O2-  O246  1  0.95382579  0.41611094  0.27049589  1
  O2-  O247  1  0.94805309  0.42460383  0.59812028  1
  O2-  O248  1  0.95133667  0.41683193  0.94103890  1
  O2-  O249  1  0.95598941  0.91504458  0.26765391  1
  O2-  O250  1  0.95260364  0.91797042  0.59593235  1
  O2-  O251  1  0.95243338  0.91378825  0.93771444  1
  O2-  O252  1  0.33014461  0.29422635  0.26657065  1
  O2-  O253  1  0.33496231  0.29790269  0.60824568  1
  O2-  O254  1  0.32613823  0.29710701  0.93452940  1
  O2-  O255  1  0.32934686  0.78875027  0.26687516  1
  O2-  O256  1  0.33126775  0.80149057  0.60885201  1
  O2-  O257  1  0.33632792  0.79088003  0.93689656  1
  O2-  O258  1  0.84201046  0.28836672  0.26794806  1
  O2-  O259  1  0.83361496  0.28911529  0.59419162  1
  O2-  O260  1  0.84090157  0.29065786  0.93759738  1
  O2-  O261  1  0.83663055  0.79453400  0.26626982  1
  O2-  O262  1  0.83655110  0.78378367  0.59494752  1
  O2-  O263  1  0.83621188  0.79022334  0.93765653  1
  O2-  O264  1  0.41952652  0.04365350  0.07226515  1
  O2-  O265  1  0.41693717  0.03969582  0.39360126  1
  O2-  O266  1  0.41385140  0.03454678  0.73746374  1
  O2-  O267  1  0.42284771  0.55135554  0.06839859  1
  O2-  O268  1  0.42361418  0.55198406  0.40042228  1
  O2-  O269  1  0.42365353  0.54428528  0.73581817  1
  O2-  O270  1  0.91105286  0.03894535  0.06776138  1
  O2-  O271  1  0.90988702  0.03529101  0.40077061  1
  O2-  O272  1  0.91641208  0.04549331  0.72825830  1
  O2-  O273  1  0.91589381  0.55050440  0.06117555  1
  O2-  O274  1  0.91507655  0.54909316  0.39665819  1
  O2-  O275  1  0.91238405  0.55049153  0.72713321  1
  O2-  O276  1  0.29237736  0.16974547  0.07189237  1
  O2-  O277  1  0.29885756  0.16361347  0.39458284  1
  O2-  O278  1  0.29265791  0.16565801  0.73461491  1
  O2-  O279  1  0.28584523  0.66641651  0.06801937  1
  O2-  O280  1  0.28619050  0.66620682  0.40373907  1
  O2-  O281  1  0.29623378  0.67136096  0.73656798  1
  O2-  O282  1  0.80194146  0.16593493  0.06281869  1
  O2-  O283  1  0.80264124  0.16382301  0.39732101  1
  O2-  O284  1  0.79933330  0.16694896  0.72836895  1
  O2-  O285  1  0.79581676  0.66545561  0.06488127  1
  O2-  O286  1  0.79766264  0.66942700  0.39450670  1
  O2-  O287  1  0.78763294  0.66174676  0.72881384  1
