# generated using pymatgen
data_Ca2Al2SiO7
_symmetry_space_group_name_H-M   'P 1'
_cell_length_a   15.45538342
_cell_length_b   15.45546130
_cell_length_c   15.28184363
_cell_angle_alpha   89.99165834
_cell_angle_beta   90.00598404
_cell_angle_gamma   90.00459672
_symmetry_Int_Tables_number   1
_chemical_formula_structural   Ca2Al2SiO7
_chemical_formula_sum   'Ca48 Al48 Si24 O168'
_cell_volume   3650.37514532
_cell_formula_units_Z   24
loop_
 _symmetry_equiv_pos_site_id
 _symmetry_equiv_pos_as_xyz
  1  'x, y, z'
loop_
 _atom_type_symbol
 _atom_type_oxidation_number
  Ca2+  2.0
  Al0+  0.0
  Si0+  0.0
  O2-  -2.0
loop_
 _atom_site_type_symbol
 _atom_site_label
 _atom_site_symmetry_multiplicity
 _atom_site_fract_x
 _atom_site_fract_y
 _atom_site_fract_z
 _atom_site_occupancy
  Ca2+  Ca0  1  0.17064941  0.08715059  0.17528181  1
  Ca2+  Ca1  1  0.17566226  0.08747156  0.50718513  1
  Ca2+  Ca2  1  0.16435611  0.08631858  0.83405607  1
  Ca2+  Ca3  1  0.16809418  0.57516251  0.17345444  1
  Ca2+  Ca4  1  0.16498356  0.57510572  0.50051814  1
  Ca2+  Ca5  1  0.16846851  0.56877707  0.84414952  1
  Ca2+  Ca6  1  0.66929030  0.08086249  0.17509909  1
  Ca2+  Ca7  1  0.66886352  0.09069247  0.50161584  1
  Ca2+  Ca8  1  0.66410015  0.08031101  0.83773200  1
  Ca2+  Ca9  1  0.66459126  0.58053916  0.16233516  1
  Ca2+  Ca10  1  0.67485389  0.58067189  0.50730704  1
  Ca2+  Ca11  1  0.67783033  0.58066155  0.84656345  1
  Ca2+  Ca12  1  0.09595237  0.32478946  0.16288682  1
  Ca2+  Ca13  1  0.08535753  0.33102717  0.49939738  1
  Ca2+  Ca14  1  0.08606737  0.32861191  0.82709098  1
  Ca2+  Ca15  1  0.08684391  0.81786096  0.16195395  1
  Ca2+  Ca16  1  0.09014565  0.82710724  0.49407330  1
  Ca2+  Ca17  1  0.08737178  0.82615607  0.83146700  1
  Ca2+  Ca18  1  0.57731118  0.33231354  0.15892098  1
  Ca2+  Ca19  1  0.58070451  0.32094800  0.49488450  1
  Ca2+  Ca20  1  0.57624684  0.33769820  0.83114828  1
  Ca2+  Ca21  1  0.57679095  0.83013677  0.16054681  1
  Ca2+  Ca22  1  0.57313847  0.83156161  0.49237174  1
  Ca2+  Ca23  1  0.58783844  0.82871599  0.83492817  1
  Ca2+  Ca24  1  0.32781883  0.42489483  0.16832305  1
  Ca2+  Ca25  1  0.31906075  0.41592714  0.50076616  1
  Ca2+  Ca26  1  0.32462933  0.41501433  0.84284339  1
  Ca2+  Ca27  1  0.33472509  0.92176122  0.17461725  1
  Ca2+  Ca28  1  0.32906415  0.92387683  0.50351110  1
  Ca2+  Ca29  1  0.32930546  0.92508096  0.83045070  1
  Ca2+  Ca30  1  0.82985408  0.41839901  0.16423478  1
  Ca2+  Ca31  1  0.83749658  0.41992057  0.50750179  1
  Ca2+  Ca32  1  0.83208961  0.42247127  0.83772486  1
  Ca2+  Ca33  1  0.82647336  0.92112416  0.16932554  1
  Ca2+  Ca34  1  0.83634478  0.92671929  0.50054376  1
  Ca2+  Ca35  1  0.82687175  0.92048186  0.84203267  1
  Ca2+  Ca36  1  0.41721576  0.17274591  0.16332938  1
  Ca2+  Ca37  1  0.42337404  0.15588657  0.49495508  1
  Ca2+  Ca38  1  0.42006027  0.17229810  0.82858556  1
  Ca2+  Ca39  1  0.41270514  0.66799668  0.15913485  1
  Ca2+  Ca40  1  0.40915596  0.67467366  0.49055053  1
  Ca2+  Ca41  1  0.42280804  0.65731160  0.83582198  1
  Ca2+  Ca42  1  0.92726277  0.16454563  0.16379592  1
  Ca2+  Ca43  1  0.92737421  0.17109798  0.49327028  1
  Ca2+  Ca44  1  0.92755774  0.17638723  0.82521125  1
  Ca2+  Ca45  1  0.92727779  0.66070665  0.16090509  1
  Ca2+  Ca46  1  0.92227990  0.66676691  0.49597732  1
  Ca2+  Ca47  1  0.91876112  0.65756465  0.83256591  1
  Al0+  Al48  1  0.00094917  -0.00105040  -0.00387188  1
  Al0+  Al49  1  -0.00270946  0.00015426  0.33309411  1
  Al0+  Al50  1  -0.00046912  -0.00142875  0.66797934  1
  Al0+  Al51  1  -0.00023201  0.49743497  0.00439528  1
  Al0+  Al52  1  -0.00209582  0.49923971  0.33277880  1
  Al0+  Al53  1  0.00062229  0.50057833  0.67072221  1
  Al0+  Al54  1  0.49954153  -0.00074105  0.00319844  1
  Al0+  Al55  1  0.50013549  -0.00244039  0.32777658  1
  Al0+  Al56  1  0.49939220  -0.00138440  0.66740801  1
  Al0+  Al57  1  0.50000706  0.50102212  -0.00237864  1
  Al0+  Al58  1  0.50077841  0.50024127  0.33998599  1
  Al0+  Al59  1  0.50115884  0.49957294  0.66130351  1
  Al0+  Al60  1  0.25256956  0.24906094  -0.00550993  1
  Al0+  Al61  1  0.25113583  0.25049325  0.33863313  1
  Al0+  Al62  1  0.25212079  0.25091487  0.67074286  1
  Al0+  Al63  1  0.24922459  0.75297371  -0.00523959  1
  Al0+  Al64  1  0.24990909  0.74998220  0.32651867  1
  Al0+  Al65  1  0.25135002  0.75134939  0.67039056  1
  Al0+  Al66  1  0.75215361  0.24901753  0.00331196  1
  Al0+  Al67  1  0.75040003  0.24912994  0.33260962  1
  Al0+  Al68  1  0.74916585  0.25124802  0.66085892  1
  Al0+  Al69  1  0.74898856  0.75246793  0.00652387  1
  Al0+  Al70  1  0.74841830  0.75000524  0.33442010  1
  Al0+  Al71  1  0.75157067  0.75001359  0.66774693  1
  Al0+  Al72  1  0.56893282  0.17791363  0.65363152  1
  Al0+  Al73  1  0.57106420  0.17942263  0.31786053  1
  Al0+  Al74  1  0.42924219  0.81882989  0.31910190  1
  Al0+  Al75  1  0.82095272  0.07132398  0.34785196  1
  Al0+  Al76  1  0.67799834  0.93066511  0.01477708  1
  Al0+  Al77  1  0.17676264  0.92774270  0.68230222  1
  Al0+  Al78  1  0.17743175  0.42871258  0.34978183  1
  Al0+  Al79  1  0.07205930  0.18011805  0.32087819  1
  Al0+  Al80  1  0.07058743  0.67708009  0.98493656  1
  Al0+  Al81  1  0.56999532  0.68131654  0.98666852  1
  Al0+  Al82  1  0.07230964  0.17770786  0.65001236  1
  Al0+  Al83  1  0.32039462  0.57281331  0.01293852  1
  Al0+  Al84  1  0.07165666  0.17870138  0.98584538  1
  Al0+  Al85  1  0.82185274  0.57152324  0.01770212  1
  Al0+  Al86  1  0.18063025  0.43090762  0.68197046  1
  Al0+  Al87  1  0.81973471  0.57110413  0.68007152  1
  Al0+  Al88  1  0.32136053  0.57341418  0.34815182  1
  Al0+  Al89  1  0.43146667  0.32111556  0.98710755  1
  Al0+  Al90  1  0.67760404  0.42741328  0.01415564  1
  Al0+  Al91  1  0.93027239  0.32283408  0.65167818  1
  Al0+  Al92  1  0.06869878  0.67915309  0.32034314  1
  Al0+  Al93  1  0.32136712  0.07018137  0.34514666  1
  Al0+  Al94  1  0.32230578  0.07090219  0.68305684  1
  Al0+  Al95  1  0.17932196  0.42605620  0.01571756  1
  Si0+  Si96  1  0.42771254  0.32388894  0.64723344  1
  Si0+  Si97  1  0.17695384  0.92803677  0.34607082  1
  Si0+  Si98  1  0.92579518  0.32095556  0.98371401  1
  Si0+  Si99  1  0.82406316  0.07129150  0.01586405  1
  Si0+  Si100  1  0.32416927  0.57380297  0.68298543  1
  Si0+  Si101  1  0.57376507  0.67597403  0.31759765  1
  Si0+  Si102  1  0.07079686  0.68071998  0.65343526  1
  Si0+  Si103  1  0.92504828  0.82283326  0.31638231  1
  Si0+  Si104  1  0.81963622  0.57110048  0.34905157  1
  Si0+  Si105  1  0.57349407  0.17679287  0.98552108  1
  Si0+  Si106  1  0.42866009  0.32356613  0.31774107  1
  Si0+  Si107  1  0.43033418  0.81916955  0.65202151  1
  Si0+  Si108  1  0.17743298  0.92964106  0.01596384  1
  Si0+  Si109  1  0.67969469  0.92941619  0.68043560  1
  Si0+  Si110  1  0.67827699  0.92795472  0.35177310  1
  Si0+  Si111  1  0.92834028  0.82107695  0.98353883  1
  Si0+  Si112  1  0.82060646  0.07294679  0.68132762  1
  Si0+  Si113  1  0.67711607  0.42707298  0.68189223  1
  Si0+  Si114  1  0.57360156  0.67911094  0.65154686  1
  Si0+  Si115  1  0.42687148  0.82546714  0.97914377  1
  Si0+  Si116  1  0.92595499  0.82128369  0.65173731  1
  Si0+  Si117  1  0.92718830  0.32236943  0.31455737  1
  Si0+  Si118  1  0.67849878  0.42766872  0.35020946  1
  Si0+  Si119  1  0.32017818  0.06999891  0.01544904  1
  O2-  O120  1  0.24813685  0.00037161  0.05823405  1
  O2-  O121  1  0.24192560  -0.00037599  0.39086842  1
  O2-  O122  1  0.24368900  0.00494425  0.73232852  1
  O2-  O123  1  0.24612735  0.50403521  0.06382808  1
  O2-  O124  1  0.24921129  0.50230552  0.39888634  1
  O2-  O125  1  0.25827313  0.50347592  0.72705368  1
  O2-  O126  1  0.75087503  0.00737367  0.06017859  1
  O2-  O127  1  0.74599064  -0.00297052  0.39672485  1
  O2-  O128  1  0.74917485  0.00172852  0.72315873  1
  O2-  O129  1  0.74894447  0.49925617  0.06629884  1
  O2-  O130  1  0.74862000  0.50040600  0.39170604  1
  O2-  O131  1  0.74443181  0.49691517  0.72547400  1
  O2-  O132  1  -0.00116543  0.25568363  0.27223069  1
  O2-  O133  1  0.00049116  0.25005319  0.59991404  1
  O2-  O134  1  -0.00257558  0.25459027  0.94087448  1
  O2-  O135  1  -0.00588087  0.75452295  0.27328149  1
  O2-  O136  1  0.00147943  0.75410443  0.61086983  1
  O2-  O137  1  -0.00713794  0.74938642  0.93760944  1
  O2-  O138  1  0.49679440  0.25445308  0.27248068  1
  O2-  O139  1  0.49428284  0.25179559  0.60501217  1
  O2-  O140  1  0.51002325  0.24914739  0.94062178  1
  O2-  O141  1  0.50098324  0.74038076  0.27454455  1
  O2-  O142  1  0.49835920  0.74508706  0.60915212  1
  O2-  O143  1  0.49397107  0.75382415  0.93667369  1
  O2-  O144  1  0.07106828  0.17641496  0.09927037  1
  O2-  O145  1  0.07075900  0.17918907  0.43346784  1
  O2-  O146  1  0.06795613  0.17871818  0.76375481  1
  O2-  O147  1  0.07051692  0.68034669  0.09808045  1
  O2-  O148  1  0.06654742  0.68089710  0.43431611  1
  O2-  O149  1  0.06885062  0.68149554  0.75834011  1
  O2-  O150  1  0.57019602  0.17518803  0.09099515  1
  O2-  O151  1  0.57049544  0.18021681  0.43127760  1
  O2-  O152  1  0.56907381  0.17750853  0.76683998  1
  O2-  O153  1  0.56905783  0.68392104  0.09966817  1
  O2-  O154  1  0.57828726  0.67985048  0.42368831  1
  O2-  O155  1  0.57550203  0.68077903  0.75637095  1
  O2-  O156  1  0.17922573  0.42822512  0.23670571  1
  O2-  O157  1  0.17891934  0.43426167  0.56898247  1
  O2-  O158  1  0.18122531  0.42570583  0.90193923  1
  O2-  O159  1  0.17868831  0.92821886  0.24022712  1
  O2-  O160  1  0.18194093  0.92066704  0.56882550  1
  O2-  O161  1  0.17740678  0.93004023  0.91092343  1
  O2-  O162  1  0.67744000  0.42799755  0.24543174  1
  O2-  O163  1  0.67670951  0.42949886  0.57588626  1
  O2-  O164  1  0.67945031  0.42832152  0.90030233  1
  O2-  O165  1  0.68035963  0.92734268  0.24640004  1
  O2-  O166  1  0.68063649  0.92742526  0.57541334  1
  O2-  O167  1  0.67969131  0.93230599  0.90071789  1
  O2-  O168  1  0.43058338  0.31738973  0.10029943  1
  O2-  O169  1  0.43172701  0.32362586  0.42346334  1
  O2-  O170  1  0.43146922  0.32763304  0.75274615  1
  O2-  O171  1  0.42805955  0.82827917  0.08470080  1
  O2-  O172  1  0.43141430  0.81944219  0.43297952  1
  O2-  O173  1  0.43274514  0.82062442  0.75676246  1
  O2-  O174  1  0.92133476  0.31723249  0.08912330  1
  O2-  O175  1  0.92513441  0.32261575  0.42021176  1
  O2-  O176  1  0.92867819  0.32132634  0.76515747  1
  O2-  O177  1  0.93227772  0.82427681  0.08900410  1
  O2-  O178  1  0.92343363  0.82133691  0.42240772  1
  O2-  O179  1  0.91968083  0.82012681  0.75632890  1
  O2-  O180  1  0.32070112  0.06923713  0.23165876  1
  O2-  O181  1  0.32601002  0.06444912  0.56949172  1
  O2-  O182  1  0.32218362  0.06781840  0.91049273  1
  O2-  O183  1  0.32160153  0.57269051  0.23513194  1
  O2-  O184  1  0.32208168  0.57674285  0.57748765  1
  O2-  O185  1  0.32000247  0.56896532  0.89884180  1
  O2-  O186  1  0.82029078  0.06833702  0.23474082  1
  O2-  O187  1  0.82002867  0.07041782  0.57614008  1
  O2-  O188  1  0.82387973  0.06919948  0.90986166  1
  O2-  O189  1  0.81890906  0.57188859  0.24460983  1
  O2-  O190  1  0.81737616  0.57341463  0.56632441  1
  O2-  O191  1  0.81989342  0.57085638  0.90386651  1
  O2-  O192  1  0.03987688  0.08269260  0.26779078  1
  O2-  O193  1  0.04452782  0.07711888  0.60052654  1
  O2-  O194  1  0.03991750  0.08224626  0.93112783  1
  O2-  O195  1  0.03530585  0.58348113  0.26667077  1
  O2-  O196  1  0.03946043  0.59066290  0.60567620  1
  O2-  O197  1  0.04078028  0.57882376  0.93380579  1
  O2-  O198  1  0.54279123  0.08217639  0.26482266  1
  O2-  O199  1  0.54009846  0.08012759  0.59954372  1
  O2-  O200  1  0.54277088  0.08445697  0.93896804  1
  O2-  O201  1  0.55368705  0.57974507  0.27568358  1
  O2-  O202  1  0.55195577  0.58583816  0.60362097  1
  O2-  O203  1  0.54262144  0.58511062  0.93004979  1
  O2-  O204  1  0.17022918  0.20924130  0.26845404  1
  O2-  O205  1  0.17337984  0.20509034  0.60276185  1
  O2-  O206  1  0.16804029  0.20698448  0.93107084  1
  O2-  O207  1  0.16351220  0.71026999  0.26405813  1
  O2-  O208  1  0.16378099  0.70780461  0.60740330  1
  O2-  O209  1  0.16502596  0.71282770  0.92914172  1
  O2-  O210  1  0.66810901  0.20974162  0.26478582  1
  O2-  O211  1  0.66483769  0.20863406  0.59764634  1
  O2-  O212  1  0.67012681  0.19503299  0.94267441  1
  O2-  O213  1  0.66561274  0.70576218  0.26992702  1
  O2-  O214  1  0.66337662  0.71207158  0.60246876  1
  O2-  O215  1  0.66686986  0.71636575  0.93413868  1
  O2-  O216  1  0.07910930  0.44653882  0.06688740  1
  O2-  O217  1  0.07781047  0.45774997  0.40103545  1
  O2-  O218  1  0.08558196  0.46421415  0.73663964  1
  O2-  O219  1  0.08498085  0.95541563  0.06258903  1
  O2-  O220  1  0.08123746  0.94634801  0.39057991  1
  O2-  O221  1  0.07564120  0.94762583  0.73443718  1
  O2-  O222  1  0.58041476  0.45800007  0.06740421  1
  O2-  O223  1  0.58779611  0.45346600  0.40110859  1
  O2-  O224  1  0.58260877  0.45291312  0.72603829  1
  O2-  O225  1  0.58129033  0.95903605  0.06987271  1
  O2-  O226  1  0.58427388  0.95337533  0.39609473  1
  O2-  O227  1  0.58826948  0.95525173  0.72876719  1
  O2-  O228  1  0.21523426  0.32869576  0.06637076  1
  O2-  O229  1  0.20884473  0.33235231  0.40518075  1
  O2-  O230  1  0.20929647  0.33393942  0.73539366  1
  O2-  O231  1  0.20638213  0.83792004  0.06235138  1
  O2-  O232  1  0.20671541  0.83572717  0.39208805  1
  O2-  O233  1  0.21194626  0.83200427  0.73858839  1
  O2-  O234  1  0.70506760  0.32848863  0.06808171  1
  O2-  O235  1  0.70875381  0.33668433  0.39743057  1
  O2-  O236  1  0.70171798  0.33322269  0.72713513  1
  O2-  O237  1  0.70959735  0.83698059  0.07265115  1
  O2-  O238  1  0.70393513  0.83417107  0.39895706  1
  O2-  O239  1  0.71019045  0.83869640  0.72878945  1
  O2-  O240  1  0.45666150  0.41756612  0.27348464  1
  O2-  O241  1  0.45562309  0.41611096  0.59785476  1
  O2-  O242  1  0.45999451  0.41674328  0.93022768  1
  O2-  O243  1  0.46400550  0.91220817  0.26140090  1
  O2-  O244  1  0.46242048  0.90882685  0.60310326  1
  O2-  O245  1  0.45860713  0.91756165  0.93269013  1
  O2-  O246  1  0.94811300  0.41709510  0.26947500  1
  O2-  O247  1  0.95931136  0.42201971  0.59926003  1
  O2-  O248  1  0.94784436  0.41606989  0.94032726  1
  O2-  O249  1  0.94784481  0.91650765  0.27004772  1
  O2-  O250  1  0.94945755  0.91426529  0.60468512  1
  O2-  O251  1  0.95673810  0.91273581  0.93392060  1
  O2-  O252  1  0.33508475  0.29758163  0.27335623  1
  O2-  O253  1  0.33327856  0.30032685  0.60375309  1
  O2-  O254  1  0.33894186  0.28472121  0.92895216  1
  O2-  O255  1  0.33312195  0.79353980  0.26193042  1
  O2-  O256  1  0.33768990  0.79333624  0.60476473  1
  O2-  O257  1  0.33262759  0.80472791  0.93290762  1
  O2-  O258  1  0.83490078  0.29324054  0.26790358  1
  O2-  O259  1  0.83095008  0.29716346  0.59813485  1
  O2-  O260  1  0.83336589  0.29297773  0.93473843  1
  O2-  O261  1  0.83114084  0.79620806  0.27093774  1
  O2-  O262  1  0.83684369  0.78945288  0.60001768  1
  O2-  O263  1  0.83231774  0.80058371  0.94058153  1
  O2-  O264  1  0.41133037  0.04127208  0.06370466  1
  O2-  O265  1  0.41733821  0.03367279  0.39734060  1
  O2-  O266  1  0.41801399  0.03390964  0.73782529  1
  O2-  O267  1  0.41887073  0.54478720  0.06452467  1
  O2-  O268  1  0.42123053  0.54974318  0.40255504  1
  O2-  O269  1  0.42074219  0.54969532  0.72428941  1
  O2-  O270  1  0.91563592  0.03878409  0.06241016  1
  O2-  O271  1  0.91608053  0.03787983  0.40430233  1
  O2-  O272  1  0.91119565  0.04374818  0.72960864  1
  O2-  O273  1  0.91868567  0.54088422  0.07182839  1
  O2-  O274  1  0.91068096  0.54302024  0.39747034  1
  O2-  O275  1  0.91552022  0.54148788  0.73452093  1
  O2-  O276  1  0.29308841  0.16192835  0.06131662  1
  O2-  O277  1  0.29686337  0.16675021  0.40116708  1
  O2-  O278  1  0.30269803  0.17138806  0.73422133  1
  O2-  O279  1  0.29717707  0.67515234  0.06001116  1
  O2-  O280  1  0.29070273  0.67262573  0.39940144  1
  O2-  O281  1  0.30044208  0.66700246  0.73002102  1
  O2-  O282  1  0.80460626  0.16550422  0.06212715  1
  O2-  O283  1  0.79004532  0.16775494  0.40198538  1
  O2-  O284  1  0.79146494  0.16474769  0.72736020  1
  O2-  O285  1  0.79459374  0.67023085  0.06985740  1
  O2-  O286  1  0.79223629  0.66358188  0.39695026  1
  O2-  O287  1  0.78859867  0.66754453  0.73456648  1
