# generated using pymatgen
data_Ca2Al2SiO7
_symmetry_space_group_name_H-M   'P 1'
_cell_length_a   15.46043275
_cell_length_b   15.45969699
_cell_length_c   15.28536741
_cell_angle_alpha   89.98181167
_cell_angle_beta   89.98763473
_cell_angle_gamma   89.99631767
_symmetry_Int_Tables_number   1
_chemical_formula_structural   Ca2Al2SiO7
_chemical_formula_sum   'Ca48 Al48 Si24 O168'
_cell_volume   3653.41050070
_cell_formula_units_Z   24
loop_
 _symmetry_equiv_pos_site_id
 _symmetry_equiv_pos_as_xyz
  1  'x, y, z'
loop_
 _atom_type_symbol
 _atom_type_oxidation_number
  Ca2+  2.0
  Al0+  0.0
  Si0+  0.0
  O2-  -2.0
loop_
 _atom_site_type_symbol
 _atom_site_label
 _atom_site_symmetry_multiplicity
 _atom_site_fract_x
 _atom_site_fract_y
 _atom_site_fract_z
 _atom_site_occupancy
  Ca2+  Ca0  1  0.16434050  0.08794330  0.17402112  1
  Ca2+  Ca1  1  0.17094383  0.08787223  0.50679097  1
  Ca2+  Ca2  1  0.16265940  0.08697213  0.83156423  1
  Ca2+  Ca3  1  0.17871870  0.58251343  0.17287891  1
  Ca2+  Ca4  1  0.17005666  0.58531928  0.50580280  1
  Ca2+  Ca5  1  0.16903503  0.58567454  0.83993322  1
  Ca2+  Ca6  1  0.67959084  0.09119560  0.16846684  1
  Ca2+  Ca7  1  0.68060167  0.07825381  0.50862379  1
  Ca2+  Ca8  1  0.67895807  0.08430731  0.83883685  1
  Ca2+  Ca9  1  0.67056014  0.57822990  0.16667249  1
  Ca2+  Ca10  1  0.66419206  0.58445906  0.50288460  1
  Ca2+  Ca11  1  0.67167968  0.57659707  0.84156705  1
  Ca2+  Ca12  1  0.07413599  0.32094001  0.16290661  1
  Ca2+  Ca13  1  0.07093848  0.32207906  0.49535423  1
  Ca2+  Ca14  1  0.07151533  0.32566833  0.82763661  1
  Ca2+  Ca15  1  0.06977578  0.83750930  0.16368907  1
  Ca2+  Ca16  1  0.08391554  0.83447964  0.50007026  1
  Ca2+  Ca17  1  0.07949415  0.82957336  0.82938278  1
  Ca2+  Ca18  1  0.58034023  0.33067748  0.16217430  1
  Ca2+  Ca19  1  0.57479288  0.32976566  0.49385261  1
  Ca2+  Ca20  1  0.58978549  0.32860613  0.83759227  1
  Ca2+  Ca21  1  0.58328507  0.82696445  0.16463799  1
  Ca2+  Ca22  1  0.59362801  0.82372815  0.49779449  1
  Ca2+  Ca23  1  0.58578421  0.82805787  0.82377624  1
  Ca2+  Ca24  1  0.33602926  0.42280644  0.17367545  1
  Ca2+  Ca25  1  0.33385346  0.41804319  0.49920629  1
  Ca2+  Ca26  1  0.32832862  0.42441128  0.84087726  1
  Ca2+  Ca27  1  0.32797228  0.92554189  0.17412098  1
  Ca2+  Ca28  1  0.32654138  0.93003550  0.50816005  1
  Ca2+  Ca29  1  0.32481375  0.91917374  0.83086856  1
  Ca2+  Ca30  1  0.83158149  0.40962025  0.16712874  1
  Ca2+  Ca31  1  0.83785603  0.41268811  0.50361321  1
  Ca2+  Ca32  1  0.83504321  0.42007164  0.84455204  1
  Ca2+  Ca33  1  0.84135063  0.92567300  0.17053942  1
  Ca2+  Ca34  1  0.83592938  0.92628968  0.50374942  1
  Ca2+  Ca35  1  0.83667729  0.92698360  0.83621890  1
  Ca2+  Ca36  1  0.41896330  0.17088025  0.16225248  1
  Ca2+  Ca37  1  0.41103683  0.16849537  0.49197795  1
  Ca2+  Ca38  1  0.42348018  0.16200863  0.82945548  1
  Ca2+  Ca39  1  0.41986823  0.65807673  0.16514119  1
  Ca2+  Ca40  1  0.42769742  0.66754936  0.49272929  1
  Ca2+  Ca41  1  0.42141360  0.66637294  0.82699028  1
  Ca2+  Ca42  1  0.92238430  0.16695982  0.15835637  1
  Ca2+  Ca43  1  0.92166752  0.16511957  0.49349036  1
  Ca2+  Ca44  1  0.91841914  0.17164075  0.82919794  1
  Ca2+  Ca45  1  0.90917561  0.67957997  0.16038636  1
  Ca2+  Ca46  1  0.92462873  0.67527777  0.49486627  1
  Ca2+  Ca47  1  0.91417117  0.67164717  0.82892989  1
  Al0+  Al48  1  0.00022085  -0.00264109  -0.00517843  1
  Al0+  Al49  1  -0.00015071  -0.00206437  0.33166375  1
  Al0+  Al50  1  0.00149698  0.00028640  0.67146766  1
  Al0+  Al51  1  0.00243528  0.50129487  0.00489438  1
  Al0+  Al52  1  0.00042004  0.49943389  0.33025258  1
  Al0+  Al53  1  0.00069252  0.50090008  0.65927085  1
  Al0+  Al54  1  0.49859563  -0.00122426  -0.00420789  1
  Al0+  Al55  1  0.50026841  -0.00337792  0.33787116  1
  Al0+  Al56  1  0.49951166  -0.00081924  0.67187136  1
  Al0+  Al57  1  0.50077144  0.49986415  0.00560279  1
  Al0+  Al58  1  0.50084138  0.49935203  0.33031154  1
  Al0+  Al59  1  0.50074220  0.50089861  0.66375525  1
  Al0+  Al60  1  0.25070515  0.25102626  -0.00392833  1
  Al0+  Al61  1  0.24929461  0.25253877  0.32905574  1
  Al0+  Al62  1  0.24925238  0.25332086  0.66932748  1
  Al0+  Al63  1  0.25063937  0.75239291  0.00639515  1
  Al0+  Al64  1  0.25295789  0.74980414  0.33843236  1
  Al0+  Al65  1  0.25216227  0.75217838  0.66565179  1
  Al0+  Al66  1  0.74844454  0.24938485  0.00129198  1
  Al0+  Al67  1  0.74845562  0.25040593  0.33844927  1
  Al0+  Al68  1  0.74607985  0.25185748  0.66629890  1
  Al0+  Al69  1  0.74798012  0.75013318  -0.00241301  1
  Al0+  Al70  1  0.75006453  0.74697715  0.32465535  1
  Al0+  Al71  1  0.75030411  0.74822213  0.66448909  1
  Al0+  Al72  1  0.82102040  0.07309869  0.68280746  1
  Al0+  Al73  1  0.92548781  0.32119111  0.65166235  1
  Al0+  Al74  1  0.31947386  0.57142180  0.01340923  1
  Al0+  Al75  1  0.32032409  0.07553779  0.68367583  1
  Al0+  Al76  1  0.56964820  0.17800927  0.98684115  1
  Al0+  Al77  1  0.06941739  0.17821975  0.31896511  1
  Al0+  Al78  1  0.07249874  0.17767703  0.98242058  1
  Al0+  Al79  1  0.92524814  0.32161869  0.31681977  1
  Al0+  Al80  1  0.57092264  0.67951691  0.65345044  1
  Al0+  Al81  1  0.32067411  0.07272636  0.34426830  1
  Al0+  Al82  1  0.68051069  0.92615356  0.68089297  1
  Al0+  Al83  1  0.07059798  0.17852080  0.65075487  1
  Al0+  Al84  1  0.07312107  0.67966904  0.65459975  1
  Al0+  Al85  1  0.56998021  0.67880184  0.31602265  1
  Al0+  Al86  1  0.92836493  0.32226238  0.98588940  1
  Al0+  Al87  1  0.68096064  0.42822602  0.01659663  1
  Al0+  Al88  1  0.82353797  0.57355005  0.01490241  1
  Al0+  Al89  1  0.17888990  0.92800983  0.68327321  1
  Al0+  Al90  1  0.93092980  0.81868490  0.32041355  1
  Al0+  Al91  1  0.82062780  0.06811161  0.01415863  1
  Al0+  Al92  1  0.82053239  0.07058159  0.34638552  1
  Al0+  Al93  1  0.32241702  0.57009036  0.35055792  1
  Al0+  Al94  1  0.42943176  0.31917668  0.32005192  1
  Al0+  Al95  1  0.92730723  0.81901271  0.98396196  1
  Si0+  Si96  1  0.32239077  0.07159752  0.01426586  1
  Si0+  Si97  1  0.67940611  0.43005062  0.35048787  1
  Si0+  Si98  1  0.42843038  0.82323928  0.64856976  1
  Si0+  Si99  1  0.42932194  0.32193875  0.65329093  1
  Si0+  Si100  1  0.57139368  0.17467948  0.32008564  1
  Si0+  Si101  1  0.17843229  0.42578531  0.01835139  1
  Si0+  Si102  1  0.17784056  0.43200467  0.68147506  1
  Si0+  Si103  1  0.67443743  0.92735123  0.01687967  1
  Si0+  Si104  1  0.42732038  0.82246676  0.31625672  1
  Si0+  Si105  1  0.82136001  0.57222779  0.34866929  1
  Si0+  Si106  1  0.56835813  0.67873068  0.98382375  1
  Si0+  Si107  1  0.67875013  0.92412773  0.34778179  1
  Si0+  Si108  1  0.42710703  0.82127406  0.98420685  1
  Si0+  Si109  1  0.92830127  0.82144264  0.65041990  1
  Si0+  Si110  1  0.07477889  0.68011533  0.98774704  1
  Si0+  Si111  1  0.17711712  0.42961853  0.35201086  1
  Si0+  Si112  1  0.42919090  0.32390829  0.98224638  1
  Si0+  Si113  1  0.17764082  0.92811966  0.34959658  1
  Si0+  Si114  1  0.67569733  0.43078354  0.68056220  1
  Si0+  Si115  1  0.32217226  0.57026254  0.68034126  1
  Si0+  Si116  1  0.07576200  0.67714405  0.31662978  1
  Si0+  Si117  1  0.82219815  0.56882568  0.67804285  1
  Si0+  Si118  1  0.56938566  0.17749574  0.65153964  1
  Si0+  Si119  1  0.18015382  0.93012613  0.01662021  1
  O2-  O120  1  0.24650616  0.00652591  0.05717752  1
  O2-  O121  1  0.24542080  -0.00094881  0.39130552  1
  O2-  O122  1  0.24695689  0.00437113  0.73339196  1
  O2-  O123  1  0.24655145  0.49615936  0.06155866  1
  O2-  O124  1  0.24421399  0.49986159  0.39812812  1
  O2-  O125  1  0.24798472  0.50435814  0.72446776  1
  O2-  O126  1  0.74428110  -0.00574538  0.06148542  1
  O2-  O127  1  0.74436472  -0.00419245  0.39120071  1
  O2-  O128  1  0.74965276  -0.00066960  0.73250777  1
  O2-  O129  1  0.75645146  0.49715637  0.06628820  1
  O2-  O130  1  0.75447151  0.49750951  0.39223048  1
  O2-  O131  1  0.75290697  0.49612559  0.72012972  1
  O2-  O132  1  -0.00621492  0.24598482  0.26862430  1
  O2-  O133  1  -0.00764484  0.24437033  0.60190856  1
  O2-  O134  1  -0.00055089  0.25008952  0.93502642  1
  O2-  O135  1  0.00651445  0.74474530  0.27260245  1
  O2-  O136  1  0.00087215  0.75600431  0.60704678  1
  O2-  O137  1  -0.00086791  0.73926884  0.94126386  1
  O2-  O138  1  0.49929263  0.23945326  0.27507440  1
  O2-  O139  1  0.49449884  0.24550172  0.61072768  1
  O2-  O140  1  0.49505150  0.25277430  0.93802482  1
  O2-  O141  1  0.49427996  0.75310621  0.26998789  1
  O2-  O142  1  0.50101022  0.75786551  0.60539830  1
  O2-  O143  1  0.49814464  0.75033166  0.94179926  1
  O2-  O144  1  0.07392017  0.17770269  0.09598190  1
  O2-  O145  1  0.07062546  0.17878710  0.43226100  1
  O2-  O146  1  0.07194939  0.18473220  0.76384077  1
  O2-  O147  1  0.08001060  0.68714187  0.09295596  1
  O2-  O148  1  0.07467681  0.67823525  0.42256241  1
  O2-  O149  1  0.07104429  0.67766193  0.76777696  1
  O2-  O150  1  0.56534213  0.17696332  0.10008379  1
  O2-  O151  1  0.57110286  0.17809475  0.42601860  1
  O2-  O152  1  0.57074438  0.18084264  0.75660905  1
  O2-  O153  1  0.56698571  0.67932895  0.08890049  1
  O2-  O154  1  0.57072786  0.68009113  0.42933376  1
  O2-  O155  1  0.56652059  0.67590986  0.76657846  1
  O2-  O156  1  0.17933535  0.43173309  0.24646856  1
  O2-  O157  1  0.18064625  0.43278958  0.57664793  1
  O2-  O158  1  0.18059814  0.42748557  0.91225612  1
  O2-  O159  1  0.17913724  0.92654208  0.24357000  1
  O2-  O160  1  0.18384113  0.92460205  0.56977989  1
  O2-  O161  1  0.18394101  0.92373663  0.91221161  1
  O2-  O162  1  0.67732349  0.43068396  0.24594283  1
  O2-  O163  1  0.67017866  0.43332476  0.57540124  1
  O2-  O164  1  0.67688364  0.43307738  0.90246253  1
  O2-  O165  1  0.67779871  0.92370261  0.24221085  1
  O2-  O166  1  0.68394774  0.92639244  0.56686254  1
  O2-  O167  1  0.67314241  0.92778509  0.91150122  1
  O2-  O168  1  0.42952190  0.32347616  0.08780138  1
  O2-  O169  1  0.43196606  0.32036208  0.43380243  1
  O2-  O170  1  0.43242163  0.32709215  0.75811516  1
  O2-  O171  1  0.42760808  0.82264804  0.08929964  1
  O2-  O172  1  0.42788326  0.82220103  0.42148932  1
  O2-  O173  1  0.42587886  0.81843148  0.75453524  1
  O2-  O174  1  0.92976398  0.31844544  0.09912321  1
  O2-  O175  1  0.92746526  0.32174284  0.43033049  1
  O2-  O176  1  0.92784749  0.32701933  0.76471788  1
  O2-  O177  1  0.93005328  0.82099155  0.09725121  1
  O2-  O178  1  0.93122072  0.81728674  0.43359868  1
  O2-  O179  1  0.92575169  0.81644290  0.75588198  1
  O2-  O180  1  0.32185505  0.06968157  0.23070875  1
  O2-  O181  1  0.32050864  0.07523666  0.56972568  1
  O2-  O182  1  0.32475325  0.06799253  0.90968815  1
  O2-  O183  1  0.32137315  0.56782800  0.23733533  1
  O2-  O184  1  0.32399115  0.56657657  0.57559184  1
  O2-  O185  1  0.31873389  0.57138714  0.89948937  1
  O2-  O186  1  0.82003881  0.07011193  0.23322154  1
  O2-  O187  1  0.81932096  0.07194140  0.56877945  1
  O2-  O188  1  0.81947173  0.06793627  0.90148050  1
  O2-  O189  1  0.81785629  0.57475893  0.24416418  1
  O2-  O190  1  0.82087432  0.56984152  0.57265632  1
  O2-  O191  1  0.81873788  0.57510662  0.90052711  1
  O2-  O192  1  0.04640569  0.07823283  0.26717107  1
  O2-  O193  1  0.05112587  0.07606881  0.60271487  1
  O2-  O194  1  0.04617334  0.07858315  0.93132372  1
  O2-  O195  1  0.05276558  0.58322006  0.27142591  1
  O2-  O196  1  0.04163439  0.58596764  0.59566641  1
  O2-  O197  1  0.06112624  0.58255607  0.94663135  1
  O2-  O198  1  0.55188639  0.07904041  0.27653196  1
  O2-  O199  1  0.54598015  0.08379540  0.60643320  1
  O2-  O200  1  0.53766426  0.08248699  0.93065328  1
  O2-  O201  1  0.53735104  0.58332284  0.26220432  1
  O2-  O202  1  0.53533076  0.58519416  0.59694205  1
  O2-  O203  1  0.53870421  0.58680874  0.93776947  1
  O2-  O204  1  0.16625552  0.21062600  0.26476836  1
  O2-  O205  1  0.16889884  0.21396675  0.60022441  1
  O2-  O206  1  0.17202439  0.20604139  0.93059805  1
  O2-  O207  1  0.17060496  0.70281435  0.27319413  1
  O2-  O208  1  0.17063445  0.70779964  0.60027899  1
  O2-  O209  1  0.16551543  0.71404205  0.93917630  1
  O2-  O210  1  0.66272536  0.20693027  0.27417680  1
  O2-  O211  1  0.65836679  0.20989643  0.60154566  1
  O2-  O212  1  0.66464775  0.21054580  0.93159605  1
  O2-  O213  1  0.66490904  0.70909173  0.25939355  1
  O2-  O214  1  0.66827268  0.70583148  0.59763552  1
  O2-  O215  1  0.65972351  0.70559250  0.93583844  1
  O2-  O216  1  0.08564141  0.44899805  0.06601005  1
  O2-  O217  1  0.08280824  0.45413546  0.39766473  1
  O2-  O218  1  0.08623396  0.46148942  0.72808123  1
  O2-  O219  1  0.08693238  0.95442230  0.06209475  1
  O2-  O220  1  0.08395393  0.95049375  0.39566496  1
  O2-  O221  1  0.07945865  0.94856394  0.73645176  1
  O2-  O222  1  0.58382539  0.46073483  0.07088637  1
  O2-  O223  1  0.58930673  0.46313890  0.39839268  1
  O2-  O224  1  0.58725664  0.46537330  0.73077478  1
  O2-  O225  1  0.58012152  0.95250529  0.06261405  1
  O2-  O226  1  0.58419604  0.94333269  0.39498914  1
  O2-  O227  1  0.57984027  0.94806655  0.73180098  1
  O2-  O228  1  0.20784760  0.33303734  0.06428340  1
  O2-  O229  1  0.20717770  0.33721867  0.39748192  1
  O2-  O230  1  0.20815857  0.34276557  0.73159010  1
  O2-  O231  1  0.21363816  0.84238664  0.06881395  1
  O2-  O232  1  0.20485180  0.83537449  0.39681670  1
  O2-  O233  1  0.21422353  0.83092387  0.73789872  1
  O2-  O234  1  0.70228731  0.32880911  0.07015270  1
  O2-  O235  1  0.70114535  0.33773196  0.40046932  1
  O2-  O236  1  0.69582794  0.33715029  0.72673683  1
  O2-  O237  1  0.69796657  0.83256482  0.06086108  1
  O2-  O238  1  0.70857000  0.83067505  0.39231645  1
  O2-  O239  1  0.70735326  0.82640336  0.73333391  1
  O2-  O240  1  0.46565079  0.41301857  0.26497976  1
  O2-  O241  1  0.46332815  0.41061838  0.60266910  1
  O2-  O242  1  0.45795370  0.41707080  0.93640178  1
  O2-  O243  1  0.45431386  0.91557650  0.26878899  1
  O2-  O244  1  0.44975911  0.91880208  0.60513834  1
  O2-  O245  1  0.45332188  0.91187057  0.93420025  1
  O2-  O246  1  0.95435348  0.42071023  0.26521586  1
  O2-  O247  1  0.95959910  0.41731214  0.59608893  1
  O2-  O248  1  0.95649495  0.42350982  0.93657347  1
  O2-  O249  1  0.96237048  0.91364924  0.26403741  1
  O2-  O250  1  0.95184852  0.91622767  0.60719529  1
  O2-  O251  1  0.96383655  0.91187264  0.92804017  1
  O2-  O252  1  0.33291783  0.29534226  0.26367956  1
  O2-  O253  1  0.33586213  0.30065881  0.60681576  1
  O2-  O254  1  0.33503617  0.30205647  0.93616739  1
  O2-  O255  1  0.33296542  0.79803207  0.27072112  1
  O2-  O256  1  0.33765545  0.79333179  0.60005173  1
  O2-  O257  1  0.33574169  0.79077186  0.93754834  1
  O2-  O258  1  0.82335483  0.29829139  0.26980521  1
  O2-  O259  1  0.82337423  0.30172877  0.60166698  1
  O2-  O260  1  0.82819942  0.29720736  0.93563858  1
  O2-  O261  1  0.83640394  0.78675049  0.26360462  1
  O2-  O262  1  0.83740592  0.79054700  0.60212546  1
  O2-  O263  1  0.82958268  0.79162903  0.93018862  1
  O2-  O264  1  0.41187152  0.03771134  0.06270058  1
  O2-  O265  1  0.41702017  0.04161038  0.40008575  1
  O2-  O266  1  0.41831590  0.04434066  0.73639393  1
  O2-  O267  1  0.41539355  0.54053484  0.06779517  1
  O2-  O268  1  0.41882143  0.53504443  0.40239959  1
  O2-  O269  1  0.41222789  0.53733733  0.72886382  1
  O2-  O270  1  0.91774412  0.03380267  0.06540113  1
  O2-  O271  1  0.91631558  0.03580993  0.39957183  1
  O2-  O272  1  0.91963025  0.04681283  0.73473584  1
  O2-  O273  1  0.92522977  0.55742791  0.06594391  1
  O2-  O274  1  0.91603123  0.54989443  0.39345548  1
  O2-  O275  1  0.91484946  0.54396468  0.72495927  1
  O2-  O276  1  0.30179748  0.16705200  0.05753843  1
  O2-  O277  1  0.29294373  0.17096177  0.39638299  1
  O2-  O278  1  0.29657677  0.17529827  0.73669359  1
  O2-  O279  1  0.29016392  0.66753933  0.06982905  1
  O2-  O280  1  0.29729780  0.66859242  0.40404071  1
  O2-  O281  1  0.29966697  0.66387313  0.72563231  1
  O2-  O282  1  0.78801398  0.16416107  0.06730794  1
  O2-  O283  1  0.78897635  0.16601351  0.40256025  1
  O2-  O284  1  0.78697245  0.17127822  0.73382528  1
  O2-  O285  1  0.78636714  0.66995612  0.06779852  1
  O2-  O286  1  0.78836757  0.66244475  0.39657615  1
  O2-  O287  1  0.79258683  0.65964410  0.72584335  1
