# generated using pymatgen
data_Ca2Al2SiO7
_symmetry_space_group_name_H-M   'P 1'
_cell_length_a   15.46051510
_cell_length_b   15.45836166
_cell_length_c   15.28420630
_cell_angle_alpha   90.00851512
_cell_angle_beta   90.00915259
_cell_angle_gamma   89.99816369
_symmetry_Int_Tables_number   1
_chemical_formula_structural   Ca2Al2SiO7
_chemical_formula_sum   'Ca48 Al48 Si24 O168'
_cell_volume   3652.83708587
_cell_formula_units_Z   24
loop_
 _symmetry_equiv_pos_site_id
 _symmetry_equiv_pos_as_xyz
  1  'x, y, z'
loop_
 _atom_type_symbol
 _atom_type_oxidation_number
  Ca2+  2.0
  Al0+  0.0
  Si0+  0.0
  O2-  -2.0
loop_
 _atom_site_type_symbol
 _atom_site_label
 _atom_site_symmetry_multiplicity
 _atom_site_fract_x
 _atom_site_fract_y
 _atom_site_fract_z
 _atom_site_occupancy
  Ca2+  Ca0  1  0.16679616  0.07368838  0.16808440  1
  Ca2+  Ca1  1  0.16321395  0.08277073  0.50302425  1
  Ca2+  Ca2  1  0.16853379  0.08202387  0.83978955  1
  Ca2+  Ca3  1  0.16713734  0.58045206  0.17778420  1
  Ca2+  Ca4  1  0.15518657  0.57190488  0.50066241  1
  Ca2+  Ca5  1  0.16469180  0.57578737  0.83464687  1
  Ca2+  Ca6  1  0.67281403  0.07998799  0.16614964  1
  Ca2+  Ca7  1  0.67381356  0.07664690  0.51294750  1
  Ca2+  Ca8  1  0.67553342  0.07845943  0.83846177  1
  Ca2+  Ca9  1  0.66823098  0.57864261  0.16882671  1
  Ca2+  Ca10  1  0.65962433  0.57866131  0.50153136  1
  Ca2+  Ca11  1  0.67146056  0.58036730  0.84287726  1
  Ca2+  Ca12  1  0.06980254  0.34106247  0.16356899  1
  Ca2+  Ca13  1  0.07671499  0.33320394  0.49681491  1
  Ca2+  Ca14  1  0.07137507  0.32656394  0.82336420  1
  Ca2+  Ca15  1  0.08470547  0.83487125  0.16679776  1
  Ca2+  Ca16  1  0.07220001  0.83318860  0.48954571  1
  Ca2+  Ca17  1  0.07683588  0.83629752  0.82715039  1
  Ca2+  Ca18  1  0.58011929  0.34214053  0.16343349  1
  Ca2+  Ca19  1  0.58305834  0.32676600  0.49178121  1
  Ca2+  Ca20  1  0.58655121  0.32601929  0.82901260  1
  Ca2+  Ca21  1  0.59054280  0.82228242  0.15972803  1
  Ca2+  Ca22  1  0.59139781  0.82186700  0.49701332  1
  Ca2+  Ca23  1  0.59953690  0.82533917  0.82965045  1
  Ca2+  Ca24  1  0.32748837  0.41642409  0.17822197  1
  Ca2+  Ca25  1  0.32332426  0.41169184  0.50083900  1
  Ca2+  Ca26  1  0.32483277  0.41290463  0.83350840  1
  Ca2+  Ca27  1  0.32500235  0.92011073  0.16917463  1
  Ca2+  Ca28  1  0.32412880  0.91167793  0.50121258  1
  Ca2+  Ca29  1  0.32575410  0.92406306  0.84455264  1
  Ca2+  Ca30  1  0.82625608  0.41646670  0.16953229  1
  Ca2+  Ca31  1  0.83514769  0.41509822  0.50143371  1
  Ca2+  Ca32  1  0.83186872  0.41982862  0.84349990  1
  Ca2+  Ca33  1  0.83494841  0.91992315  0.16721096  1
  Ca2+  Ca34  1  0.83496425  0.91978705  0.50992884  1
  Ca2+  Ca35  1  0.82926121  0.92614360  0.83557684  1
  Ca2+  Ca36  1  0.41264519  0.17185747  0.16400117  1
  Ca2+  Ca37  1  0.42451515  0.17064189  0.49699801  1
  Ca2+  Ca38  1  0.42280621  0.16168805  0.82887144  1
  Ca2+  Ca39  1  0.43039363  0.66307948  0.16243064  1
  Ca2+  Ca40  1  0.42807176  0.66407298  0.49687464  1
  Ca2+  Ca41  1  0.43059119  0.66977107  0.82978948  1
  Ca2+  Ca42  1  0.91129569  0.17781036  0.16092132  1
  Ca2+  Ca43  1  0.91673915  0.17446494  0.50031104  1
  Ca2+  Ca44  1  0.91115437  0.17344604  0.82633555  1
  Ca2+  Ca45  1  0.91931715  0.66786764  0.16584737  1
  Ca2+  Ca46  1  0.91848248  0.68123833  0.49299010  1
  Ca2+  Ca47  1  0.91094109  0.67304816  0.82988938  1
  Al0+  Al48  1  0.00073661  0.00064490  0.00695999  1
  Al0+  Al49  1  0.00073331  0.00132921  0.33368056  1
  Al0+  Al50  1  -0.00049070  0.00201511  0.66411438  1
  Al0+  Al51  1  -0.00111836  0.50106727  -0.00237583  1
  Al0+  Al52  1  -0.00120538  0.50123084  0.33086506  1
  Al0+  Al53  1  -0.00054674  0.49960827  0.67018993  1
  Al0+  Al54  1  0.49801525  0.00046835  0.00900865  1
  Al0+  Al55  1  0.50166391  -0.00019167  0.33435324  1
  Al0+  Al56  1  0.49817444  -0.00310260  0.66483037  1
  Al0+  Al57  1  0.49830204  0.50037754  -0.00518838  1
  Al0+  Al58  1  0.50033707  0.49834224  0.33071290  1
  Al0+  Al59  1  0.49804823  0.50146418  0.66497436  1
  Al0+  Al60  1  0.24855581  0.25008518  0.00286549  1
  Al0+  Al61  1  0.25178393  0.24969111  0.33406266  1
  Al0+  Al62  1  0.24837104  0.24977136  0.66874337  1
  Al0+  Al63  1  0.25115725  0.74814764  0.00105060  1
  Al0+  Al64  1  0.25191182  0.75112344  0.33643946  1
  Al0+  Al65  1  0.25251510  0.74749736  0.66869149  1
  Al0+  Al66  1  0.74680410  0.25081867  0.00279571  1
  Al0+  Al67  1  0.75049826  0.24930576  0.33397014  1
  Al0+  Al68  1  0.74837464  0.24997060  0.66102303  1
  Al0+  Al69  1  0.75335568  0.74876251  0.00251030  1
  Al0+  Al70  1  0.75137839  0.75037550  0.32467667  1
  Al0+  Al71  1  0.75091204  0.74762057  0.66004487  1
  Al0+  Al72  1  0.56988825  0.67913848  0.31756773  1
  Al0+  Al73  1  0.17727047  0.42970945  0.34670526  1
  Al0+  Al74  1  0.57016046  0.17704799  0.65447406  1
  Al0+  Al75  1  0.67871583  0.92593244  0.67933047  1
  Al0+  Al76  1  0.92970516  0.82413762  0.31484300  1
  Al0+  Al77  1  0.93109211  0.82028585  0.65550885  1
  Al0+  Al78  1  0.67912011  0.42994255  0.34857717  1
  Al0+  Al79  1  0.43035393  0.31830719  0.32033688  1
  Al0+  Al80  1  0.32136515  0.07335561  0.01613057  1
  Al0+  Al81  1  0.17836823  0.42894311  0.68189474  1
  Al0+  Al82  1  0.92908870  0.32043057  0.31815620  1
  Al0+  Al83  1  0.57226357  0.68048833  0.98457319  1
  Al0+  Al84  1  0.82320977  0.57129450  0.01595301  1
  Al0+  Al85  1  0.92722663  0.32321208  0.65126783  1
  Al0+  Al86  1  0.92719799  0.32058720  0.98566632  1
  Al0+  Al87  1  0.82109095  0.07294802  0.01595505  1
  Al0+  Al88  1  0.18002389  0.92979581  0.34981792  1
  Al0+  Al89  1  0.07185638  0.67994597  0.31951794  1
  Al0+  Al90  1  0.17836668  0.92663093  0.01452601  1
  Al0+  Al91  1  0.67966022  0.92775483  0.01562520  1
  Al0+  Al92  1  0.67673946  0.42941576  0.01319191  1
  Al0+  Al93  1  0.82123922  0.07270186  0.68093734  1
  Al0+  Al94  1  0.57122351  0.67973474  0.65257391  1
  Al0+  Al95  1  0.07245845  0.17912313  0.65198788  1
  Si0+  Si96  1  0.32107611  0.07062783  0.68045736  1
  Si0+  Si97  1  0.42783599  0.82219789  0.98444405  1
  Si0+  Si98  1  0.82076646  0.07135071  0.34984070  1
  Si0+  Si99  1  0.82100291  0.57315459  0.35136854  1
  Si0+  Si100  1  0.32065701  0.56967625  0.01440732  1
  Si0+  Si101  1  0.32387105  0.57163664  0.68618005  1
  Si0+  Si102  1  0.17918779  0.43018230  0.01476257  1
  Si0+  Si103  1  0.67614417  0.42900232  0.67950820  1
  Si0+  Si104  1  0.32374482  0.07216834  0.35327124  1
  Si0+  Si105  1  0.93163360  0.82239148  0.98423619  1
  Si0+  Si106  1  0.67987851  0.92774974  0.34827121  1
  Si0+  Si107  1  0.42473935  0.82159414  0.64959242  1
  Si0+  Si108  1  0.82006204  0.56973951  0.67950610  1
  Si0+  Si109  1  0.17895188  0.92811452  0.67998234  1
  Si0+  Si110  1  0.57302324  0.17627370  0.31493818  1
  Si0+  Si111  1  0.42588792  0.32138150  0.98364297  1
  Si0+  Si112  1  0.07122085  0.17845360  0.98493138  1
  Si0+  Si113  1  0.32336903  0.57169834  0.35048064  1
  Si0+  Si114  1  0.56852994  0.17781011  0.98639283  1
  Si0+  Si115  1  0.07381808  0.67842210  0.98342115  1
  Si0+  Si116  1  0.42754045  0.32163932  0.65114467  1
  Si0+  Si117  1  0.07486562  0.67813434  0.65228739  1
  Si0+  Si118  1  0.42829102  0.82408448  0.31608409  1
  Si0+  Si119  1  0.07358092  0.17875051  0.31524614  1
  O2-  O120  1  0.25019757  -0.00046562  0.06360664  1
  O2-  O121  1  0.25533340  0.00355973  0.39804406  1
  O2-  O122  1  0.24953272  -0.00045516  0.72210070  1
  O2-  O123  1  0.24987125  0.50014832  0.05846602  1
  O2-  O124  1  0.25004810  0.50716608  0.39384729  1
  O2-  O125  1  0.25327717  0.50395665  0.72923936  1
  O2-  O126  1  0.75133328  -0.00083547  0.06717567  1
  O2-  O127  1  0.75104541  -0.00194198  0.39081638  1
  O2-  O128  1  0.74714173  0.00136348  0.72919324  1
  O2-  O129  1  0.74990474  0.49960456  0.06392264  1
  O2-  O130  1  0.75243795  0.50499005  0.39728262  1
  O2-  O131  1  0.75035906  0.49673688  0.72104058  1
  O2-  O132  1  0.00648691  0.24861463  0.27072375  1
  O2-  O133  1  0.00023974  0.25121648  0.60271855  1
  O2-  O134  1  -0.00025633  0.24331644  0.93980287  1
  O2-  O135  1  0.00320808  0.75273676  0.26592287  1
  O2-  O136  1  0.00999714  0.74989969  0.60879267  1
  O2-  O137  1  0.00443681  0.75182114  0.94243646  1
  O2-  O138  1  0.50455125  0.24501449  0.27046674  1
  O2-  O139  1  0.49782275  0.25449030  0.60767193  1
  O2-  O140  1  0.49697757  0.24938846  0.94369375  1
  O2-  O141  1  0.49644495  0.75556524  0.27136653  1
  O2-  O142  1  0.49767419  0.75641440  0.60709700  1
  O2-  O143  1  0.50174643  0.76028192  0.93823026  1
  O2-  O144  1  0.07363835  0.18208608  0.09040910  1
  O2-  O145  1  0.07245726  0.17901226  0.42084649  1
  O2-  O146  1  0.07585799  0.18005415  0.76567879  1
  O2-  O147  1  0.07608700  0.67631191  0.08788758  1
  O2-  O148  1  0.06786735  0.68019300  0.43347934  1
  O2-  O149  1  0.07524557  0.67960640  0.75841640  1
  O2-  O150  1  0.56771804  0.17885017  0.09136453  1
  O2-  O151  1  0.57102810  0.17588830  0.42079669  1
  O2-  O152  1  0.56791092  0.17821513  0.76795643  1
  O2-  O153  1  0.56764342  0.67810161  0.09740477  1
  O2-  O154  1  0.56844778  0.67993524  0.43101451  1
  O2-  O155  1  0.57064514  0.67867792  0.76551602  1
  O2-  O156  1  0.18017961  0.43129277  0.23311108  1
  O2-  O157  1  0.17965354  0.43061440  0.56890541  1
  O2-  O158  1  0.18173304  0.43090611  0.90959995  1
  O2-  O159  1  0.18278727  0.93116537  0.23711997  1
  O2-  O160  1  0.18151165  0.92697577  0.57516180  1
  O2-  O161  1  0.17938592  0.92686118  0.90005917  1
  O2-  O162  1  0.67848090  0.43160334  0.23591430  1
  O2-  O163  1  0.67343746  0.43130758  0.57450812  1
  O2-  O164  1  0.67632044  0.42966480  0.89881386  1
  O2-  O165  1  0.67851220  0.92997649  0.24350974  1
  O2-  O166  1  0.68156856  0.92631021  0.56521879  1
  O2-  O167  1  0.68212017  0.92922577  0.90201700  1
  O2-  O168  1  0.42420952  0.32304106  0.08852027  1
  O2-  O169  1  0.43072817  0.31602041  0.43358315  1
  O2-  O170  1  0.42766254  0.32078829  0.75725358  1
  O2-  O171  1  0.42482468  0.81631410  0.08973105  1
  O2-  O172  1  0.42969392  0.82440699  0.42195814  1
  O2-  O173  1  0.41721727  0.81976624  0.75463632  1
  O2-  O174  1  0.93012582  0.32172990  0.09882322  1
  O2-  O175  1  0.92910967  0.31870897  0.43098932  1
  O2-  O176  1  0.92803661  0.32425395  0.76509373  1
  O2-  O177  1  0.93283636  0.82193257  0.08889077  1
  O2-  O178  1  0.92915356  0.82363178  0.42888075  1
  O2-  O179  1  0.93176992  0.81843187  0.76900697  1
  O2-  O180  1  0.32362049  0.07159051  0.24794754  1
  O2-  O181  1  0.32148737  0.07069743  0.57556923  1
  O2-  O182  1  0.32053466  0.07313839  0.90179213  1
  O2-  O183  1  0.32412846  0.56885768  0.24439272  1
  O2-  O184  1  0.32696261  0.57229108  0.58108118  1
  O2-  O185  1  0.31938132  0.56885854  0.90928553  1
  O2-  O186  1  0.81860133  0.07264197  0.24483284  1
  O2-  O187  1  0.82044817  0.07108366  0.56697997  1
  O2-  O188  1  0.82005272  0.07323300  0.90248661  1
  O2-  O189  1  0.82043284  0.57206924  0.24602149  1
  O2-  O190  1  0.82031326  0.57093273  0.57460322  1
  O2-  O191  1  0.82226068  0.57144894  0.90140061  1
  O2-  O192  1  0.04606939  0.08583613  0.26968521  1
  O2-  O193  1  0.04603122  0.08111713  0.59763112  1
  O2-  O194  1  0.05105140  0.08217476  0.94196983  1
  O2-  O195  1  0.04282837  0.58263892  0.26478057  1
  O2-  O196  1  0.04500506  0.58540590  0.60834958  1
  O2-  O197  1  0.04330621  0.58818460  0.93367023  1
  O2-  O198  1  0.54725283  0.08233912  0.26950932  1
  O2-  O199  1  0.53746915  0.08133102  0.59903177  1
  O2-  O200  1  0.53946582  0.08565831  0.93997746  1
  O2-  O201  1  0.53624365  0.58366712  0.26408396  1
  O2-  O202  1  0.53590127  0.58421672  0.59796442  1
  O2-  O203  1  0.53532645  0.58576426  0.92936141  1
  O2-  O204  1  0.16862762  0.20081399  0.27138474  1
  O2-  O205  1  0.17102757  0.20742550  0.59834711  1
  O2-  O206  1  0.16417932  0.20762743  0.93805218  1
  O2-  O207  1  0.17324852  0.70429934  0.27001499  1
  O2-  O208  1  0.17038330  0.69717043  0.60777720  1
  O2-  O209  1  0.16665426  0.70293996  0.93512309  1
  O2-  O210  1  0.66655710  0.20174984  0.27039469  1
  O2-  O211  1  0.66459121  0.20671315  0.59668235  1
  O2-  O212  1  0.65926892  0.20687314  0.93795538  1
  O2-  O213  1  0.66595901  0.70849610  0.26321122  1
  O2-  O214  1  0.66626831  0.70747707  0.59471205  1
  O2-  O215  1  0.67128231  0.70764138  0.93309321  1
  O2-  O216  1  0.08761659  0.45995480  0.05986696  1
  O2-  O217  1  0.08062800  0.46072106  0.40069978  1
  O2-  O218  1  0.08310232  0.46154405  0.73829881  1
  O2-  O219  1  0.08212192  0.95480866  0.07042066  1
  O2-  O220  1  0.08308770  0.96190465  0.40258113  1
  O2-  O221  1  0.08744551  0.95568013  0.72710796  1
  O2-  O222  1  0.57704266  0.45902995  0.06358937  1
  O2-  O223  1  0.58164228  0.46018805  0.40187444  1
  O2-  O224  1  0.58472737  0.45819479  0.72736122  1
  O2-  O225  1  0.58076238  0.95301129  0.06889539  1
  O2-  O226  1  0.58744610  0.95418866  0.39595786  1
  O2-  O227  1  0.57653839  0.94629781  0.72837553  1
  O2-  O228  1  0.20577783  0.33871135  0.06216915  1
  O2-  O229  1  0.21171818  0.33361813  0.39972215  1
  O2-  O230  1  0.21157685  0.33345436  0.73746741  1
  O2-  O231  1  0.20826796  0.82816505  0.06691210  1
  O2-  O232  1  0.21083596  0.83308034  0.40500394  1
  O2-  O233  1  0.20647080  0.83564625  0.72714098  1
  O2-  O234  1  0.69993406  0.33114719  0.06732946  1
  O2-  O235  1  0.70864102  0.33165936  0.40061886  1
  O2-  O236  1  0.70005429  0.33545099  0.72438231  1
  O2-  O237  1  0.70959343  0.83010998  0.06790165  1
  O2-  O238  1  0.70732211  0.83438101  0.39247810  1
  O2-  O239  1  0.71242965  0.82800975  0.73021844  1
  O2-  O240  1  0.45886367  0.41463147  0.26495451  1
  O2-  O241  1  0.44965858  0.41609000  0.60617006  1
  O2-  O242  1  0.45250899  0.41211358  0.93341985  1
  O2-  O243  1  0.45330501  0.91824319  0.27076570  1
  O2-  O244  1  0.44403124  0.91580665  0.60274319  1
  O2-  O245  1  0.44536574  0.91979227  0.94375038  1
  O2-  O246  1  0.95790917  0.41758461  0.26507586  1
  O2-  O247  1  0.95753389  0.42208402  0.59981143  1
  O2-  O248  1  0.96075975  0.41688189  0.93189305  1
  O2-  O249  1  0.95856015  0.92304717  0.26373733  1
  O2-  O250  1  0.95859656  0.91679097  0.60088576  1
  O2-  O251  1  0.95929945  0.91521168  0.93820026  1
  O2-  O252  1  0.33390416  0.28790251  0.26466431  1
  O2-  O253  1  0.33484979  0.29336237  0.60567299  1
  O2-  O254  1  0.33390328  0.29259985  0.93604723  1
  O2-  O255  1  0.33429787  0.79950485  0.27133779  1
  O2-  O256  1  0.33378191  0.78959097  0.59978300  1
  O2-  O257  1  0.33644419  0.79044921  0.93558447  1
  O2-  O258  1  0.83281872  0.28648502  0.26517942  1
  O2-  O259  1  0.82921422  0.29677321  0.59707294  1
  O2-  O260  1  0.82834442  0.29280858  0.93457669  1
  O2-  O261  1  0.83253664  0.79525006  0.26068346  1
  O2-  O262  1  0.83815222  0.78513056  0.59768983  1
  O2-  O263  1  0.84073173  0.79198535  0.93701281  1
  O2-  O264  1  0.41796632  0.04803649  0.07324131  1
  O2-  O265  1  0.41841093  0.04671676  0.39839754  1
  O2-  O266  1  0.41187591  0.04161627  0.72939739  1
  O2-  O267  1  0.41176410  0.54010134  0.06125844  1
  O2-  O268  1  0.41419178  0.53927432  0.39781681  1
  O2-  O269  1  0.41591650  0.54296271  0.73486062  1
  O2-  O270  1  0.91959701  0.04775909  0.06950662  1
  O2-  O271  1  0.91359201  0.04592892  0.39562798  1
  O2-  O272  1  0.92004441  0.04430506  0.73351381  1
  O2-  O273  1  0.92204971  0.54325509  0.06814748  1
  O2-  O274  1  0.91450500  0.54726779  0.39696086  1
  O2-  O275  1  0.91189669  0.54642220  0.72954858  1
  O2-  O276  1  0.29126861  0.17115078  0.07029414  1
  O2-  O277  1  0.29790155  0.16544206  0.39949690  1
  O2-  O278  1  0.29515410  0.16224686  0.72924264  1
  O2-  O279  1  0.29522025  0.66125852  0.06272427  1
  O2-  O280  1  0.30545135  0.66717899  0.39550521  1
  O2-  O281  1  0.29884557  0.66501257  0.73405496  1
  O2-  O282  1  0.78764091  0.16899323  0.07023880  1
  O2-  O283  1  0.79063447  0.16172121  0.39837786  1
  O2-  O284  1  0.79111179  0.17200344  0.73152363  1
  O2-  O285  1  0.79765790  0.66909858  0.06944349  1
  O2-  O286  1  0.79493722  0.66838824  0.39439819  1
  O2-  O287  1  0.78913304  0.66030507  0.72733053  1
