# generated using pymatgen
data_Ca2Al2SiO7
_symmetry_space_group_name_H-M   'P 1'
_cell_length_a   15.46159799
_cell_length_b   15.46136729
_cell_length_c   15.28578498
_cell_angle_alpha   90.01061057
_cell_angle_beta   89.99027173
_cell_angle_gamma   89.99156089
_symmetry_Int_Tables_number   1
_chemical_formula_structural   Ca2Al2SiO7
_chemical_formula_sum   'Ca48 Al48 Si24 O168'
_cell_volume   3654.18055314
_cell_formula_units_Z   24
loop_
 _symmetry_equiv_pos_site_id
 _symmetry_equiv_pos_as_xyz
  1  'x, y, z'
loop_
 _atom_type_symbol
 _atom_type_oxidation_number
  Ca2+  2.0
  Al0+  0.0
  Si0+  0.0
  O2-  -2.0
loop_
 _atom_site_type_symbol
 _atom_site_label
 _atom_site_symmetry_multiplicity
 _atom_site_fract_x
 _atom_site_fract_y
 _atom_site_fract_z
 _atom_site_occupancy
  Ca2+  Ca0  1  0.17055929  0.08202302  0.16730835  1
  Ca2+  Ca1  1  0.17172339  0.08354511  0.51210556  1
  Ca2+  Ca2  1  0.17454546  0.07656465  0.83799508  1
  Ca2+  Ca3  1  0.16632303  0.57510456  0.17093014  1
  Ca2+  Ca4  1  0.16454164  0.57473942  0.49935030  1
  Ca2+  Ca5  1  0.16783707  0.58254471  0.83596158  1
  Ca2+  Ca6  1  0.67005540  0.09399121  0.16409048  1
  Ca2+  Ca7  1  0.66497597  0.08776187  0.50345650  1
  Ca2+  Ca8  1  0.66892741  0.08723032  0.83986444  1
  Ca2+  Ca9  1  0.67726462  0.57807575  0.16938927  1
  Ca2+  Ca10  1  0.67709935  0.57530708  0.51089017  1
  Ca2+  Ca11  1  0.67373824  0.57306052  0.84018335  1
  Ca2+  Ca12  1  0.07593965  0.33303284  0.16586924  1
  Ca2+  Ca13  1  0.08344323  0.32322199  0.49001171  1
  Ca2+  Ca14  1  0.07531822  0.32604143  0.82918201  1
  Ca2+  Ca15  1  0.07987142  0.83081689  0.15636450  1
  Ca2+  Ca16  1  0.07814890  0.83674587  0.50247876  1
  Ca2+  Ca17  1  0.07527728  0.84380896  0.83030881  1
  Ca2+  Ca18  1  0.58260209  0.32611943  0.15593447  1
  Ca2+  Ca19  1  0.58971567  0.32390076  0.49938884  1
  Ca2+  Ca20  1  0.58815568  0.32617501  0.83208904  1
  Ca2+  Ca21  1  0.57257086  0.83249417  0.16098867  1
  Ca2+  Ca22  1  0.56835562  0.83693583  0.49533455  1
  Ca2+  Ca23  1  0.56982275  0.83999277  0.82988324  1
  Ca2+  Ca24  1  0.32829478  0.40962366  0.17004263  1
  Ca2+  Ca25  1  0.32561796  0.41143943  0.50205368  1
  Ca2+  Ca26  1  0.33428959  0.41425654  0.84085409  1
  Ca2+  Ca27  1  0.33535357  0.91869569  0.16541321  1
  Ca2+  Ca28  1  0.32808075  0.92082060  0.51158470  1
  Ca2+  Ca29  1  0.32921684  0.92406760  0.84020440  1
  Ca2+  Ca30  1  0.83730619  0.42038105  0.16960437  1
  Ca2+  Ca31  1  0.83460005  0.42442395  0.50629158  1
  Ca2+  Ca32  1  0.82364471  0.41982410  0.84329068  1
  Ca2+  Ca33  1  0.83672559  0.92353957  0.16451236  1
  Ca2+  Ca34  1  0.83077492  0.91720368  0.50778151  1
  Ca2+  Ca35  1  0.83764800  0.92150550  0.84291123  1
  Ca2+  Ca36  1  0.42740365  0.16854628  0.15658923  1
  Ca2+  Ca37  1  0.42748001  0.15959499  0.49806817  1
  Ca2+  Ca38  1  0.42458674  0.16108778  0.83167452  1
  Ca2+  Ca39  1  0.41273230  0.67851215  0.15950685  1
  Ca2+  Ca40  1  0.41186226  0.68078529  0.49622904  1
  Ca2+  Ca41  1  0.41502168  0.67950477  0.82863544  1
  Ca2+  Ca42  1  0.91765393  0.17826462  0.15928792  1
  Ca2+  Ca43  1  0.93146712  0.17277392  0.49315240  1
  Ca2+  Ca44  1  0.91815923  0.16831190  0.83060911  1
  Ca2+  Ca45  1  0.91318136  0.66748004  0.16007082  1
  Ca2+  Ca46  1  0.90891817  0.66758239  0.50037338  1
  Ca2+  Ca47  1  0.90702282  0.67539739  0.83181403  1
  Al0+  Al48  1  0.00025678  -0.00141254  0.00622020  1
  Al0+  Al49  1  0.00079557  -0.00036245  0.33104448  1
  Al0+  Al50  1  -0.00046159  -0.00013775  0.66006214  1
  Al0+  Al51  1  0.00088973  0.49960674  -0.00246452  1
  Al0+  Al52  1  0.00126814  0.50102365  0.34006074  1
  Al0+  Al53  1  -0.00003168  0.50342879  0.67145813  1
  Al0+  Al54  1  0.49958679  -0.00048724  -0.00332818  1
  Al0+  Al55  1  0.50001390  -0.00012715  0.32463827  1
  Al0+  Al56  1  0.49985952  0.00154179  0.66108725  1
  Al0+  Al57  1  0.50014705  0.49997556  0.00267322  1
  Al0+  Al58  1  0.50178826  0.50217439  0.33624668  1
  Al0+  Al59  1  0.49943652  0.49889911  0.66897754  1
  Al0+  Al60  1  0.25096405  0.24843432  0.00145008  1
  Al0+  Al61  1  0.25169523  0.24774187  0.33528387  1
  Al0+  Al62  1  0.25135360  0.24932122  0.66880385  1
  Al0+  Al63  1  0.24872022  0.74898791  -0.00113532  1
  Al0+  Al64  1  0.24771042  0.75149260  0.32971047  1
  Al0+  Al65  1  0.24572651  0.74881341  0.66460687  1
  Al0+  Al66  1  0.75065474  0.25010026  0.00026585  1
  Al0+  Al67  1  0.75200574  0.25039943  0.32836413  1
  Al0+  Al68  1  0.74979702  0.25052835  0.66430551  1
  Al0+  Al69  1  0.75019235  0.74929659  0.00082309  1
  Al0+  Al70  1  0.74774883  0.75113194  0.33819408  1
  Al0+  Al71  1  0.74805649  0.75028027  0.66602622  1
  Al0+  Al72  1  0.57115109  0.18007576  0.98318722  1
  Al0+  Al73  1  0.92787156  0.82012065  0.65286522  1
  Al0+  Al74  1  0.82157404  0.57327584  0.68547430  1
  Al0+  Al75  1  0.67910736  0.42679649  0.68290882  1
  Al0+  Al76  1  0.67845298  0.42818595  0.01794587  1
  Al0+  Al77  1  0.42842699  0.81975980  0.98409592  1
  Al0+  Al78  1  0.18224029  0.42856057  0.34665872  1
  Al0+  Al79  1  0.42715065  0.32239430  0.98596253  1
  Al0+  Al80  1  0.93206739  0.32260802  0.31939583  1
  Al0+  Al81  1  0.82018115  0.57174614  0.34942904  1
  Al0+  Al82  1  0.32267814  0.07092852  0.01756573  1
  Al0+  Al83  1  0.32315220  0.07115963  0.68206149  1
  Al0+  Al84  1  0.57120542  0.18068110  0.65178618  1
  Al0+  Al85  1  0.17943372  0.92816025  0.01684439  1
  Al0+  Al86  1  0.42783109  0.82014445  0.65274934  1
  Al0+  Al87  1  0.07136834  0.18029164  0.65504607  1
  Al0+  Al88  1  0.57117702  0.18055451  0.31788667  1
  Al0+  Al89  1  0.92943297  0.82049320  0.98858734  1
  Al0+  Al90  1  0.82110852  0.07081957  0.01294191  1
  Al0+  Al91  1  0.82207858  0.57109366  0.01661598  1
  Al0+  Al92  1  0.42755788  0.81932824  0.31760876  1
  Al0+  Al93  1  0.17667818  0.92846139  0.68095638  1
  Al0+  Al94  1  0.93031622  0.32162832  0.98503063  1
  Al0+  Al95  1  0.07462860  0.17657379  0.31632063  1
  Si0+  Si96  1  0.92610186  0.82093899  0.31867593  1
  Si0+  Si97  1  0.67751270  0.42622861  0.35122598  1
  Si0+  Si98  1  0.67891410  0.93117851  0.34813186  1
  Si0+  Si99  1  0.42862193  0.32419236  0.31981958  1
  Si0+  Si100  1  0.32196264  0.06801033  0.34834520  1
  Si0+  Si101  1  0.92921052  0.32319609  0.65125829  1
  Si0+  Si102  1  0.32092746  0.57135384  0.01396812  1
  Si0+  Si103  1  0.82065246  0.06934145  0.67803258  1
  Si0+  Si104  1  0.67747916  0.92978948  0.67931508  1
  Si0+  Si105  1  0.07197250  0.17674560  0.98382297  1
  Si0+  Si106  1  0.31988940  0.57112929  0.68047606  1
  Si0+  Si107  1  0.67710144  0.92707732  0.01590648  1
  Si0+  Si108  1  0.56990725  0.67647824  0.64991095  1
  Si0+  Si109  1  0.17928934  0.42784147  0.68269816  1
  Si0+  Si110  1  0.07204523  0.67693454  0.98284456  1
  Si0+  Si111  1  0.17757802  0.92740105  0.34967085  1
  Si0+  Si112  1  0.57235387  0.67775590  0.98359324  1
  Si0+  Si113  1  0.06933383  0.68010123  0.31900439  1
  Si0+  Si114  1  0.82219700  0.07183876  0.34908237  1
  Si0+  Si115  1  0.42708650  0.32448719  0.64912811  1
  Si0+  Si116  1  0.17922830  0.42806148  0.01357094  1
  Si0+  Si117  1  0.32253412  0.57508377  0.34913338  1
  Si0+  Si118  1  0.07196672  0.67550329  0.64691716  1
  Si0+  Si119  1  0.57305343  0.67875418  0.31758366  1
  O2-  O120  1  0.25135796  -0.00129762  0.06903986  1
  O2-  O121  1  0.24738003  0.00022015  0.39069882  1
  O2-  O122  1  0.25125202  -0.00219450  0.72995394  1
  O2-  O123  1  0.25378375  0.49626403  0.05540964  1
  O2-  O124  1  0.25994676  0.50116494  0.39405413  1
  O2-  O125  1  0.25139893  0.49827699  0.72401500  1
  O2-  O126  1  0.74517301  -0.00339188  0.06003560  1
  O2-  O127  1  0.75017536  0.00161098  0.39171733  1
  O2-  O128  1  0.75038549  -0.00172544  0.72132224  1
  O2-  O129  1  0.75253386  0.49807734  0.06817873  1
  O2-  O130  1  0.74609979  0.49554038  0.39481393  1
  O2-  O131  1  0.75174924  0.49827512  0.73254181  1
  O2-  O132  1  0.00174428  0.24847131  0.26836433  1
  O2-  O133  1  0.00077319  0.25815401  0.60659369  1
  O2-  O134  1  0.00309730  0.24484735  0.93876925  1
  O2-  O135  1  -0.00309515  0.74952913  0.27721691  1
  O2-  O136  1  0.00113890  0.74380890  0.60533471  1
  O2-  O137  1  0.00302363  0.74571455  0.94057484  1
  O2-  O138  1  0.50055001  0.26045225  0.27498177  1
  O2-  O139  1  0.49638199  0.25610103  0.60558555  1
  O2-  O140  1  0.49856197  0.25184275  0.93361742  1
  O2-  O141  1  0.49931278  0.74098177  0.27210924  1
  O2-  O142  1  0.50146771  0.74490222  0.60417931  1
  O2-  O143  1  0.50460868  0.74655220  0.93761490  1
  O2-  O144  1  0.07142867  0.17957526  0.08944943  1
  O2-  O145  1  0.07387944  0.17711748  0.43045052  1
  O2-  O146  1  0.06806269  0.18147950  0.76798779  1
  O2-  O147  1  0.07380622  0.67581954  0.08890744  1
  O2-  O148  1  0.07220192  0.68174823  0.42384759  1
  O2-  O149  1  0.07654793  0.67230019  0.75181406  1
  O2-  O150  1  0.56969819  0.18132592  0.09700585  1
  O2-  O151  1  0.56953116  0.17845946  0.43125857  1
  O2-  O152  1  0.57326345  0.17878405  0.76365012  1
  O2-  O153  1  0.56986184  0.68019241  0.08959482  1
  O2-  O154  1  0.57300531  0.68272572  0.42311363  1
  O2-  O155  1  0.56691660  0.67771687  0.75532188  1
  O2-  O156  1  0.18248554  0.43202697  0.23348063  1
  O2-  O157  1  0.18003503  0.42852376  0.57742459  1
  O2-  O158  1  0.17876243  0.43062979  0.90822412  1
  O2-  O159  1  0.17790251  0.92389762  0.24512605  1
  O2-  O160  1  0.17800856  0.93028030  0.56646498  1
  O2-  O161  1  0.17885585  0.92936281  0.90354942  1
  O2-  O162  1  0.67528090  0.42809547  0.24626453  1
  O2-  O163  1  0.68118898  0.42721671  0.56864429  1
  O2-  O164  1  0.67869305  0.42994659  0.90449467  1
  O2-  O165  1  0.68051169  0.92856863  0.24341952  1
  O2-  O166  1  0.67766285  0.93097960  0.57360794  1
  O2-  O167  1  0.67794483  0.92641527  0.91002253  1
  O2-  O168  1  0.42702957  0.32168236  0.10007027  1
  O2-  O169  1  0.42719611  0.32238154  0.42543899  1
  O2-  O170  1  0.42574269  0.32699906  0.75398284  1
  O2-  O171  1  0.42908994  0.81674385  0.09746976  1
  O2-  O172  1  0.42765226  0.82003575  0.43097176  1
  O2-  O173  1  0.42925555  0.81904005  0.76544998  1
  O2-  O174  1  0.93468144  0.32364218  0.09798842  1
  O2-  O175  1  0.93410144  0.32108689  0.43352580  1
  O2-  O176  1  0.92960610  0.32015147  0.75678631  1
  O2-  O177  1  0.93083654  0.81886045  0.10230808  1
  O2-  O178  1  0.92676857  0.82167092  0.42383977  1
  O2-  O179  1  0.92859487  0.82230725  0.76544226  1
  O2-  O180  1  0.32276916  0.06654688  0.24374084  1
  O2-  O181  1  0.32339875  0.06919374  0.56739862  1
  O2-  O182  1  0.32183393  0.06972254  0.90431337  1
  O2-  O183  1  0.31892340  0.57727168  0.24367817  1
  O2-  O184  1  0.31792581  0.57128150  0.57520873  1
  O2-  O185  1  0.31792670  0.57338719  0.90864130  1
  O2-  O186  1  0.82259800  0.06985846  0.24420832  1
  O2-  O187  1  0.81928036  0.06771193  0.57244249  1
  O2-  O188  1  0.82255559  0.06819211  0.89926566  1
  O2-  O189  1  0.81931175  0.57436146  0.23693088  1
  O2-  O190  1  0.81985727  0.57144206  0.57123027  1
  O2-  O191  1  0.81952872  0.57182116  0.90365853  1
  O2-  O192  1  0.04721380  0.07727670  0.26517056  1
  O2-  O193  1  0.03801803  0.08652989  0.59708653  1
  O2-  O194  1  0.04502107  0.08292315  0.94065770  1
  O2-  O195  1  0.04336620  0.58771326  0.27273825  1
  O2-  O196  1  0.04604274  0.58174084  0.59969992  1
  O2-  O197  1  0.04862618  0.58392775  0.93502270  1
  O2-  O198  1  0.53833792  0.08582098  0.26258231  1
  O2-  O199  1  0.54059815  0.08497749  0.59447072  1
  O2-  O200  1  0.54507335  0.08042297  0.93182222  1
  O2-  O201  1  0.55464275  0.58245829  0.27405246  1
  O2-  O202  1  0.54430912  0.58276352  0.60347081  1
  O2-  O203  1  0.54548961  0.58459749  0.93854506  1
  O2-  O204  1  0.17353164  0.20562057  0.26563092  1
  O2-  O205  1  0.16904764  0.20949468  0.60152327  1
  O2-  O206  1  0.16525792  0.20349469  0.93869457  1
  O2-  O207  1  0.15980227  0.70829210  0.26873769  1
  O2-  O208  1  0.16399592  0.70127617  0.59703949  1
  O2-  O209  1  0.16507551  0.70192743  0.93540026  1
  O2-  O210  1  0.66931914  0.20591685  0.26558050  1
  O2-  O211  1  0.66792604  0.21079838  0.59529630  1
  O2-  O212  1  0.67025275  0.20692522  0.93181229  1
  O2-  O213  1  0.66394302  0.71158551  0.27022257  1
  O2-  O214  1  0.66315969  0.70283271  0.60384200  1
  O2-  O215  1  0.66582833  0.70256636  0.93804173  1
  O2-  O216  1  0.09000147  0.46105114  0.06248014  1
  O2-  O217  1  0.08903548  0.46391660  0.40427798  1
  O2-  O218  1  0.08840425  0.45748515  0.73061135  1
  O2-  O219  1  0.08197810  0.95550830  0.07222473  1
  O2-  O220  1  0.08396915  0.95211779  0.39582131  1
  O2-  O221  1  0.07815337  0.96026377  0.73119206  1
  O2-  O222  1  0.57986964  0.45814401  0.07127505  1
  O2-  O223  1  0.58321047  0.45068504  0.39854710  1
  O2-  O224  1  0.57920323  0.45391206  0.73354397  1
  O2-  O225  1  0.58341264  0.95149169  0.06170864  1
  O2-  O226  1  0.58632288  0.96084807  0.39373919  1
  O2-  O227  1  0.58706285  0.96037529  0.72662832  1
  O2-  O228  1  0.20336347  0.33633160  0.06205233  1
  O2-  O229  1  0.21249669  0.33205689  0.40260242  1
  O2-  O230  1  0.20610967  0.33698354  0.73122881  1
  O2-  O231  1  0.20665643  0.82777702  0.06796771  1
  O2-  O232  1  0.20669111  0.83565969  0.39716470  1
  O2-  O233  1  0.19810331  0.82685233  0.72980004  1
  O2-  O234  1  0.70662583  0.32962983  0.06896547  1
  O2-  O235  1  0.70468498  0.33199802  0.39547767  1
  O2-  O236  1  0.70871803  0.32821817  0.73454517  1
  O2-  O237  1  0.70322026  0.83442159  0.06379403  1
  O2-  O238  1  0.70534946  0.84040652  0.39890511  1
  O2-  O239  1  0.70017837  0.83695213  0.72583610  1
  O2-  O240  1  0.44638151  0.42147825  0.27717273  1
  O2-  O241  1  0.44974383  0.41884923  0.60184506  1
  O2-  O242  1  0.45052102  0.42362944  0.93583173  1
  O2-  O243  1  0.46344348  0.91271070  0.26211138  1
  O2-  O244  1  0.46166689  0.91469453  0.59676143  1
  O2-  O245  1  0.45949324  0.91542381  0.93025513  1
  O2-  O246  1  0.96381939  0.42127693  0.26884269  1
  O2-  O247  1  0.95303897  0.41911067  0.60943193  1
  O2-  O248  1  0.96414969  0.41650477  0.92946560  1
  O2-  O249  1  0.95411950  0.91250840  0.27166547  1
  O2-  O250  1  0.95928224  0.91476945  0.59414350  1
  O2-  O251  1  0.96088733  0.91746549  0.93555502  1
  O2-  O252  1  0.33627027  0.29545783  0.27368802  1
  O2-  O253  1  0.33341414  0.29784308  0.60331107  1
  O2-  O254  1  0.32732065  0.29684476  0.93372979  1
  O2-  O255  1  0.33079183  0.78935651  0.26354352  1
  O2-  O256  1  0.33103543  0.78754909  0.59938010  1
  O2-  O257  1  0.33268398  0.78488465  0.93160289  1
  O2-  O258  1  0.83378843  0.29604624  0.26635918  1
  O2-  O259  1  0.83743157  0.29509452  0.60370032  1
  O2-  O260  1  0.83407382  0.29066981  0.93262330  1
  O2-  O261  1  0.83336236  0.79413350  0.27347247  1
  O2-  O262  1  0.82992891  0.79204499  0.59790557  1
  O2-  O263  1  0.83170906  0.79309625  0.93480997  1
  O2-  O264  1  0.42137409  0.04000992  0.06894554  1
  O2-  O265  1  0.41361562  0.03576501  0.39414518  1
  O2-  O266  1  0.42199553  0.04123191  0.73230925  1
  O2-  O267  1  0.41335500  0.55070349  0.06258473  1
  O2-  O268  1  0.41868894  0.55809508  0.39394071  1
  O2-  O269  1  0.41211684  0.54727383  0.72824217  1
  O2-  O270  1  0.91494808  0.03830949  0.07108551  1
  O2-  O271  1  0.91404245  0.04181948  0.39616765  1
  O2-  O272  1  0.91193006  0.04104984  0.72470459  1
  O2-  O273  1  0.92295920  0.54450219  0.06626750  1
  O2-  O274  1  0.91735730  0.54400891  0.40417036  1
  O2-  O275  1  0.92282453  0.55280019  0.73547989  1
  O2-  O276  1  0.29425683  0.16977117  0.07061477  1
  O2-  O277  1  0.29911865  0.16093620  0.39597048  1
  O2-  O278  1  0.29640992  0.17002124  0.73432914  1
  O2-  O279  1  0.28756517  0.66017667  0.06407251  1
  O2-  O280  1  0.28842490  0.66606546  0.39651072  1
  O2-  O281  1  0.28834882  0.66122353  0.72901708  1
  O2-  O282  1  0.79079974  0.16630477  0.06864520  1
  O2-  O283  1  0.79540984  0.16429840  0.39559259  1
  O2-  O284  1  0.79383624  0.16155656  0.72406596  1
  O2-  O285  1  0.79223571  0.66973282  0.06970375  1
  O2-  O286  1  0.78740606  0.66843582  0.40408258  1
  O2-  O287  1  0.78930243  0.67196447  0.73544468  1
