# generated using pymatgen
data_Ca2Al2SiO7
_symmetry_space_group_name_H-M   'P 1'
_cell_length_a   15.45656519
_cell_length_b   15.45719956
_cell_length_c   15.28324664
_cell_angle_alpha   90.00397874
_cell_angle_beta   89.99572352
_cell_angle_gamma   89.98818981
_symmetry_Int_Tables_number   1
_chemical_formula_structural   Ca2Al2SiO7
_chemical_formula_sum   'Ca48 Al48 Si24 O168'
_cell_volume   3651.40002500
_cell_formula_units_Z   24
loop_
 _symmetry_equiv_pos_site_id
 _symmetry_equiv_pos_as_xyz
  1  'x, y, z'
loop_
 _atom_type_symbol
 _atom_type_oxidation_number
  Ca2+  2.0
  Al0+  0.0
  Si0+  0.0
  O2-  -2.0
loop_
 _atom_site_type_symbol
 _atom_site_label
 _atom_site_symmetry_multiplicity
 _atom_site_fract_x
 _atom_site_fract_y
 _atom_site_fract_z
 _atom_site_occupancy
  Ca2+  Ca0  1  0.16337572  0.07559139  0.17574560  1
  Ca2+  Ca1  1  0.15892421  0.08192894  0.50266551  1
  Ca2+  Ca2  1  0.16543630  0.08433021  0.83468310  1
  Ca2+  Ca3  1  0.17856524  0.58317703  0.17298128  1
  Ca2+  Ca4  1  0.16959719  0.57133430  0.50499471  1
  Ca2+  Ca5  1  0.16686542  0.58044064  0.83682281  1
  Ca2+  Ca6  1  0.67348064  0.08314597  0.16714093  1
  Ca2+  Ca7  1  0.67033922  0.08246008  0.51421960  1
  Ca2+  Ca8  1  0.67483783  0.08707332  0.83448303  1
  Ca2+  Ca9  1  0.66763849  0.58198791  0.16745919  1
  Ca2+  Ca10  1  0.66719676  0.58489796  0.50121407  1
  Ca2+  Ca11  1  0.67425409  0.57517213  0.84337977  1
  Ca2+  Ca12  1  0.08489275  0.33341669  0.16992887  1
  Ca2+  Ca13  1  0.07956869  0.32864355  0.49548148  1
  Ca2+  Ca14  1  0.07627191  0.32966299  0.81926301  1
  Ca2+  Ca15  1  0.08312778  0.82802168  0.15657413  1
  Ca2+  Ca16  1  0.08674859  0.82867052  0.49798550  1
  Ca2+  Ca17  1  0.07803569  0.81908926  0.83306481  1
  Ca2+  Ca18  1  0.57233056  0.34059854  0.16132817  1
  Ca2+  Ca19  1  0.57340124  0.33131252  0.49786789  1
  Ca2+  Ca20  1  0.57497649  0.33609320  0.82836178  1
  Ca2+  Ca21  1  0.57579581  0.82465190  0.16138686  1
  Ca2+  Ca22  1  0.58078014  0.83175191  0.49806133  1
  Ca2+  Ca23  1  0.57393791  0.83881533  0.82738551  1
  Ca2+  Ca24  1  0.33368279  0.42526846  0.17550814  1
  Ca2+  Ca25  1  0.32599568  0.41130873  0.50302827  1
  Ca2+  Ca26  1  0.32929193  0.41639102  0.83934121  1
  Ca2+  Ca27  1  0.32781011  0.91571088  0.17168551  1
  Ca2+  Ca28  1  0.32937413  0.91580536  0.50482315  1
  Ca2+  Ca29  1  0.33733362  0.91474887  0.83730090  1
  Ca2+  Ca30  1  0.83016763  0.41916768  0.16761212  1
  Ca2+  Ca31  1  0.83827041  0.41159478  0.50470604  1
  Ca2+  Ca32  1  0.82842067  0.41709558  0.84089625  1
  Ca2+  Ca33  1  0.84247665  0.92209196  0.16773322  1
  Ca2+  Ca34  1  0.82463516  0.92564505  0.51257161  1
  Ca2+  Ca35  1  0.83354867  0.92724063  0.83759510  1
  Ca2+  Ca36  1  0.41192104  0.18254996  0.16278263  1
  Ca2+  Ca37  1  0.41808942  0.17684071  0.50062375  1
  Ca2+  Ca38  1  0.42374202  0.17930563  0.82468103  1
  Ca2+  Ca39  1  0.41659746  0.66300191  0.16017394  1
  Ca2+  Ca40  1  0.42012274  0.66853644  0.49558628  1
  Ca2+  Ca41  1  0.41095185  0.67536422  0.83243722  1
  Ca2+  Ca42  1  0.92079184  0.16872802  0.16580225  1
  Ca2+  Ca43  1  0.92153595  0.17438277  0.49795028  1
  Ca2+  Ca44  1  0.91678745  0.16864459  0.82493919  1
  Ca2+  Ca45  1  0.92501142  0.67226539  0.15352949  1
  Ca2+  Ca46  1  0.92674757  0.66342983  0.49827346  1
  Ca2+  Ca47  1  0.92557469  0.65955699  0.83156583  1
  Al0+  Al48  1  -0.00027953  -0.00124844  -0.00013922  1
  Al0+  Al49  1  -0.00060588  0.00106961  0.33752167  1
  Al0+  Al50  1  -0.00036503  -0.00208939  0.66937996  1
  Al0+  Al51  1  -0.00027706  0.49725333  0.00093483  1
  Al0+  Al52  1  0.00041739  0.50091153  0.33119119  1
  Al0+  Al53  1  0.00238621  0.49992421  0.66283260  1
  Al0+  Al54  1  0.50070720  0.00140337  -0.00027099  1
  Al0+  Al55  1  0.50046190  -0.00078822  0.33256764  1
  Al0+  Al56  1  0.49802215  -0.00033337  0.66216501  1
  Al0+  Al57  1  0.49810261  0.50029198  0.00077028  1
  Al0+  Al58  1  0.50326513  0.50181098  0.33081989  1
  Al0+  Al59  1  0.49931031  0.50386891  0.66420038  1
  Al0+  Al60  1  0.25056745  0.24887184  -0.00358060  1
  Al0+  Al61  1  0.25022653  0.24873664  0.32831370  1
  Al0+  Al62  1  0.24811025  0.24892805  0.66551003  1
  Al0+  Al63  1  0.24944954  0.74857218  -0.00413861  1
  Al0+  Al64  1  0.25073159  0.75126617  0.34237769  1
  Al0+  Al65  1  0.25019211  0.74940280  0.65869699  1
  Al0+  Al66  1  0.75027302  0.24753810  0.01116248  1
  Al0+  Al67  1  0.75074475  0.25105966  0.33021928  1
  Al0+  Al68  1  0.74914463  0.25089654  0.66484906  1
  Al0+  Al69  1  0.74956974  0.75206098  -0.00063717  1
  Al0+  Al70  1  0.74933189  0.74993502  0.32945307  1
  Al0+  Al71  1  0.74927952  0.75059458  0.67332721  1
  Al0+  Al72  1  0.67590584  0.92833208  0.68292331  1
  Al0+  Al73  1  0.07054867  0.67625072  0.98599444  1
  Al0+  Al74  1  0.43032832  0.31988133  0.31914677  1
  Al0+  Al75  1  0.92816897  0.32318978  0.31445255  1
  Al0+  Al76  1  0.57068116  0.18045430  0.65347639  1
  Al0+  Al77  1  0.32488444  0.57132553  0.35087277  1
  Al0+  Al78  1  0.07044513  0.67894139  0.65030847  1
  Al0+  Al79  1  0.42912272  0.32268344  0.98525191  1
  Al0+  Al80  1  0.92821936  0.32165622  0.65402628  1
  Al0+  Al81  1  0.07000519  0.17772607  0.31680643  1
  Al0+  Al82  1  0.92730923  0.82308862  0.98431183  1
  Al0+  Al83  1  0.07093992  0.17563911  0.65288263  1
  Al0+  Al84  1  0.17908263  0.42854293  0.34861459  1
  Al0+  Al85  1  0.82197264  0.06854883  0.01689751  1
  Al0+  Al86  1  0.31725604  0.57070648  0.01160503  1
  Al0+  Al87  1  0.18025460  0.42809815  0.68086648  1
  Al0+  Al88  1  0.82079099  0.07236700  0.68188228  1
  Al0+  Al89  1  0.17840131  0.93015835  0.34777066  1
  Al0+  Al90  1  0.42750129  0.32468372  0.65201861  1
  Al0+  Al91  1  0.42970554  0.82101332  0.98784677  1
  Al0+  Al92  1  0.82321161  0.57255856  0.01520991  1
  Al0+  Al93  1  0.57148208  0.68054513  0.31847544  1
  Al0+  Al94  1  0.67860177  0.42920005  0.01586211  1
  Al0+  Al95  1  0.42947109  0.82108230  0.65155003  1
  Si0+  Si96  1  0.18173738  0.93063073  0.01185421  1
  Si0+  Si97  1  0.32196341  0.57295726  0.68373177  1
  Si0+  Si98  1  0.31966043  0.07015986  0.68191358  1
  Si0+  Si99  1  0.92799786  0.31856369  0.98669777  1
  Si0+  Si100  1  0.42682557  0.82205200  0.31655090  1
  Si0+  Si101  1  0.92931298  0.82004206  0.32105779  1
  Si0+  Si102  1  0.07070276  0.17781603  0.98525878  1
  Si0+  Si103  1  0.57313816  0.17583805  0.31536537  1
  Si0+  Si104  1  0.82246398  0.57085560  0.67984928  1
  Si0+  Si105  1  0.57470537  0.67887104  0.65132942  1
  Si0+  Si106  1  0.68063106  0.42930364  0.34974423  1
  Si0+  Si107  1  0.67725104  0.43057922  0.67897736  1
  Si0+  Si108  1  0.32373121  0.07189780  0.34982546  1
  Si0+  Si109  1  0.57199585  0.67744500  0.98214055  1
  Si0+  Si110  1  0.82072724  0.57287536  0.34811708  1
  Si0+  Si111  1  0.32273256  0.07249321  0.01405038  1
  Si0+  Si112  1  0.17915076  0.92586393  0.68408663  1
  Si0+  Si113  1  0.07247869  0.68040668  0.31887560  1
  Si0+  Si114  1  0.92691583  0.82053577  0.65063147  1
  Si0+  Si115  1  0.81947787  0.07160931  0.35031876  1
  Si0+  Si116  1  0.57302652  0.17889063  0.98508830  1
  Si0+  Si117  1  0.67962850  0.92803428  0.34703166  1
  Si0+  Si118  1  0.17742372  0.42373104  0.01619108  1
  Si0+  Si119  1  0.67452585  0.92844768  0.01887547  1
  O2-  O120  1  0.25252968  0.00073308  0.05608070  1
  O2-  O121  1  0.25380540  0.00447632  0.39433717  1
  O2-  O122  1  0.24835540  -0.00080471  0.72566774  1
  O2-  O123  1  0.24425473  0.49469444  0.05893442  1
  O2-  O124  1  0.25369256  0.49778013  0.39959934  1
  O2-  O125  1  0.25725304  0.50062425  0.72785896  1
  O2-  O126  1  0.74860835  -0.00846933  0.06366522  1
  O2-  O127  1  0.74478720  0.00345425  0.39053631  1
  O2-  O128  1  0.74798608  0.00068964  0.73204402  1
  O2-  O129  1  0.74970419  0.50268467  0.06648660  1
  O2-  O130  1  0.75400974  0.49840254  0.39199871  1
  O2-  O131  1  0.75060569  0.49980823  0.72033618  1
  O2-  O132  1  0.00128863  0.25176664  0.26477221  1
  O2-  O133  1  -0.00086627  0.24832459  0.60472346  1
  O2-  O134  1  0.00161126  0.25071644  0.94413662  1
  O2-  O135  1  0.00274021  0.75277112  0.27715878  1
  O2-  O136  1  -0.00529416  0.75308346  0.60338002  1
  O2-  O137  1  -0.00780746  0.74310128  0.93684802  1
  O2-  O138  1  0.50395359  0.24360616  0.27132504  1
  O2-  O139  1  0.50062095  0.25346533  0.60246628  1
  O2-  O140  1  0.50641736  0.24936834  0.94115243  1
  O2-  O141  1  0.49259343  0.75120641  0.27227755  1
  O2-  O142  1  0.50715667  0.74858128  0.60727133  1
  O2-  O143  1  0.50629795  0.74943385  0.93901120  1
  O2-  O144  1  0.07118026  0.17586125  0.09011019  1
  O2-  O145  1  0.06498101  0.17412982  0.42959978  1
  O2-  O146  1  0.07052464  0.17737865  0.76725661  1
  O2-  O147  1  0.07432885  0.68208474  0.09999944  1
  O2-  O148  1  0.06920576  0.68060198  0.42402284  1
  O2-  O149  1  0.06941271  0.67884391  0.76322522  1
  O2-  O150  1  0.56979652  0.17680016  0.09090105  1
  O2-  O151  1  0.57376993  0.17561472  0.42067610  1
  O2-  O152  1  0.56986826  0.18293041  0.76731108  1
  O2-  O153  1  0.56988677  0.67818951  0.08802538  1
  O2-  O154  1  0.57657869  0.68577118  0.43151293  1
  O2-  O155  1  0.57502407  0.67584452  0.75650514  1
  O2-  O156  1  0.17963750  0.43272257  0.23456055  1
  O2-  O157  1  0.17901356  0.42920050  0.56815389  1
  O2-  O158  1  0.17858931  0.42100620  0.91058235  1
  O2-  O159  1  0.17943977  0.92904813  0.23387875  1
  O2-  O160  1  0.18026109  0.92598648  0.57889445  1
  O2-  O161  1  0.18257631  0.93245351  0.90678578  1
  O2-  O162  1  0.68020267  0.43085751  0.24492061  1
  O2-  O163  1  0.67588927  0.43322319  0.57368517  1
  O2-  O164  1  0.68052804  0.42885669  0.90147475  1
  O2-  O165  1  0.68154621  0.92790140  0.24195213  1
  O2-  O166  1  0.67945672  0.92738241  0.56838754  1
  O2-  O167  1  0.66962735  0.93377015  0.91402676  1
  O2-  O168  1  0.42788192  0.32065250  0.09841528  1
  O2-  O169  1  0.43239593  0.31808187  0.43196609  1
  O2-  O170  1  0.42980557  0.32409967  0.76581308  1
  O2-  O171  1  0.42925265  0.82081373  0.10098494  1
  O2-  O172  1  0.43020031  0.82454884  0.42188717  1
  O2-  O173  1  0.42789265  0.81901703  0.76488916  1
  O2-  O174  1  0.92880178  0.31768882  0.09155605  1
  O2-  O175  1  0.92528969  0.32030072  0.42757852  1
  O2-  O176  1  0.92792607  0.32251695  0.76826919  1
  O2-  O177  1  0.93586926  0.82613283  0.09869741  1
  O2-  O178  1  0.92730320  0.81659860  0.42609038  1
  O2-  O179  1  0.92890558  0.81904431  0.75582724  1
  O2-  O180  1  0.32525188  0.06832851  0.24371643  1
  O2-  O181  1  0.31980285  0.06843588  0.57682237  1
  O2-  O182  1  0.32168166  0.07324231  0.90899598  1
  O2-  O183  1  0.32213351  0.57279137  0.23682844  1
  O2-  O184  1  0.32148571  0.57350844  0.57839339  1
  O2-  O185  1  0.31542720  0.57187827  0.89858967  1
  O2-  O186  1  0.82093327  0.06860679  0.24496805  1
  O2-  O187  1  0.81971777  0.06977446  0.56778356  1
  O2-  O188  1  0.82181402  0.07106517  0.90443694  1
  O2-  O189  1  0.81838980  0.57588211  0.24356802  1
  O2-  O190  1  0.82077513  0.57327670  0.57430436  1
  O2-  O191  1  0.82323979  0.56671039  0.90107814  1
  O2-  O192  1  0.03678682  0.07916139  0.26405594  1
  O2-  O193  1  0.04454624  0.07578177  0.60165761  1
  O2-  O194  1  0.04185053  0.08679265  0.93776348  1
  O2-  O195  1  0.04427111  0.58994348  0.27074501  1
  O2-  O196  1  0.03765155  0.58453867  0.59425880  1
  O2-  O197  1  0.04638456  0.57589561  0.93405285  1
  O2-  O198  1  0.54957219  0.08102820  0.26946025  1
  O2-  O199  1  0.54096885  0.08328207  0.59896406  1
  O2-  O200  1  0.54543489  0.08660715  0.93796859  1
  O2-  O201  1  0.54673882  0.58335501  0.26378742  1
  O2-  O202  1  0.54777751  0.58722484  0.60150306  1
  O2-  O203  1  0.54348327  0.58540048  0.93554311  1
  O2-  O204  1  0.17017480  0.19901387  0.26396246  1
  O2-  O205  1  0.16928068  0.20112460  0.59992955  1
  O2-  O206  1  0.16342814  0.20204167  0.93775573  1
  O2-  O207  1  0.16554089  0.70941886  0.27515171  1
  O2-  O208  1  0.16473735  0.71182485  0.59445115  1
  O2-  O209  1  0.16465617  0.71230068  0.92969799  1
  O2-  O210  1  0.66642853  0.20207466  0.26929373  1
  O2-  O211  1  0.66813111  0.20722878  0.59858507  1
  O2-  O212  1  0.66868897  0.20231445  0.94306904  1
  O2-  O213  1  0.66581603  0.71575102  0.26132283  1
  O2-  O214  1  0.66896217  0.70347246  0.60515138  1
  O2-  O215  1  0.66743796  0.69840506  0.93817630  1
  O2-  O216  1  0.08265412  0.44521624  0.06091786  1
  O2-  O217  1  0.08004238  0.45966073  0.39979545  1
  O2-  O218  1  0.08376038  0.46260741  0.73419053  1
  O2-  O219  1  0.09083355  0.95928226  0.06042782  1
  O2-  O220  1  0.08195728  0.95971234  0.40376536  1
  O2-  O221  1  0.08660030  0.95026138  0.73137079  1
  O2-  O222  1  0.58030055  0.45928927  0.06794620  1
  O2-  O223  1  0.59073831  0.46070319  0.39801617  1
  O2-  O224  1  0.58664971  0.46152313  0.72783222  1
  O2-  O225  1  0.58360262  0.96001123  0.06905704  1
  O2-  O226  1  0.58526530  0.94999497  0.39254578  1
  O2-  O227  1  0.57584527  0.95576215  0.73242686  1
  O2-  O228  1  0.20518356  0.33036881  0.06250788  1
  O2-  O229  1  0.20443873  0.32704834  0.39653705  1
  O2-  O230  1  0.20664913  0.33004745  0.73491972  1
  O2-  O231  1  0.20976040  0.83904003  0.05911636  1
  O2-  O232  1  0.20851152  0.83552057  0.40571484  1
  O2-  O233  1  0.21113524  0.83450558  0.72960286  1
  O2-  O234  1  0.70601238  0.33204221  0.07167824  1
  O2-  O235  1  0.70601362  0.33592430  0.39569561  1
  O2-  O236  1  0.70233782  0.33880458  0.72651578  1
  O2-  O237  1  0.69324068  0.83208141  0.06165570  1
  O2-  O238  1  0.71227224  0.83800206  0.39495388  1
  O2-  O239  1  0.70263957  0.83004130  0.73776920  1
  O2-  O240  1  0.46450167  0.41599873  0.26661832  1
  O2-  O241  1  0.45512702  0.42335188  0.59954739  1
  O2-  O242  1  0.45810030  0.41922152  0.93104584  1
  O2-  O243  1  0.45424689  0.91529166  0.26938519  1
  O2-  O244  1  0.45609437  0.91719740  0.59513903  1
  O2-  O245  1  0.45799584  0.91928026  0.93471400  1
  O2-  O246  1  0.95443802  0.42309772  0.26286549  1
  O2-  O247  1  0.95714959  0.41858019  0.59891841  1
  O2-  O248  1  0.95140847  0.41129538  0.93955236  1
  O2-  O249  1  0.95463706  0.91340706  0.27631796  1
  O2-  O250  1  0.95295826  0.91390201  0.60475020  1
  O2-  O251  1  0.96448226  0.91782436  0.92935701  1
  O2-  O252  1  0.33459857  0.29015666  0.26295937  1
  O2-  O253  1  0.33092069  0.29096777  0.60034128  1
  O2-  O254  1  0.33375890  0.28756025  0.93090880  1
  O2-  O255  1  0.33105521  0.79952696  0.27410635  1
  O2-  O256  1  0.33505744  0.78902272  0.59478812  1
  O2-  O257  1  0.33464391  0.78953951  0.93180988  1
  O2-  O258  1  0.82959047  0.29306199  0.26175855  1
  O2-  O259  1  0.82965560  0.29695504  0.60013282  1
  O2-  O260  1  0.83573335  0.28755293  0.94255096  1
  O2-  O261  1  0.83947454  0.79102414  0.27070322  1
  O2-  O262  1  0.83207084  0.79557922  0.60650319  1
  O2-  O263  1  0.82469767  0.80741555  0.93601671  1
  O2-  O264  1  0.41415088  0.04624338  0.06270767  1
  O2-  O265  1  0.41723977  0.04472881  0.39651818  1
  O2-  O266  1  0.41091602  0.04101861  0.72936408  1
  O2-  O267  1  0.41454113  0.54270603  0.06514553  1
  O2-  O268  1  0.42593417  0.54715154  0.40032718  1
  O2-  O269  1  0.41805577  0.55403912  0.72827958  1
  O2-  O270  1  0.91875891  0.03609066  0.07131469  1
  O2-  O271  1  0.90925656  0.04055212  0.39862323  1
  O2-  O272  1  0.91886940  0.04157653  0.73551281  1
  O2-  O273  1  0.92131979  0.54302118  0.06899760  1
  O2-  O274  1  0.91395613  0.54870786  0.39429343  1
  O2-  O275  1  0.91377762  0.54226420  0.72641350  1
  O2-  O276  1  0.29214391  0.16316576  0.06254457  1
  O2-  O277  1  0.30012533  0.16606733  0.39379056  1
  O2-  O278  1  0.29241188  0.16136575  0.73089734  1
  O2-  O279  1  0.28628659  0.66737617  0.06691195  1
  O2-  O280  1  0.29682152  0.66960316  0.40401900  1
  O2-  O281  1  0.29059259  0.66608963  0.72785306  1
  O2-  O282  1  0.79013638  0.16229101  0.07581773  1
  O2-  O283  1  0.79335093  0.16499982  0.39466913  1
  O2-  O284  1  0.79208791  0.17145759  0.73443159  1
  O2-  O285  1  0.79902272  0.67386761  0.06520955  1
  O2-  O286  1  0.78841380  0.66332320  0.39668937  1
  O2-  O287  1  0.79591166  0.66164065  0.72986701  1
