# generated using pymatgen
data_Ca2Al2SiO7
_symmetry_space_group_name_H-M   'P 1'
_cell_length_a   15.45973494
_cell_length_b   15.46085340
_cell_length_c   15.28387793
_cell_angle_alpha   90.03074123
_cell_angle_beta   89.99238362
_cell_angle_gamma   89.99532171
_symmetry_Int_Tables_number   1
_chemical_formula_structural   Ca2Al2SiO7
_chemical_formula_sum   'Ca48 Al48 Si24 O168'
_cell_volume   3653.16256189
_cell_formula_units_Z   24
loop_
 _symmetry_equiv_pos_site_id
 _symmetry_equiv_pos_as_xyz
  1  'x, y, z'
loop_
 _atom_type_symbol
 _atom_type_oxidation_number
  Ca2+  2.0
  Al0+  0.0
  Si0+  0.0
  O2-  -2.0
loop_
 _atom_site_type_symbol
 _atom_site_label
 _atom_site_symmetry_multiplicity
 _atom_site_fract_x
 _atom_site_fract_y
 _atom_site_fract_z
 _atom_site_occupancy
  Ca2+  Ca0  1  0.17560617  0.07873006  0.16754771  1
  Ca2+  Ca1  1  0.17175759  0.07395470  0.50099287  1
  Ca2+  Ca2  1  0.17018102  0.07304626  0.84372247  1
  Ca2+  Ca3  1  0.16239680  0.57998813  0.16167999  1
  Ca2+  Ca4  1  0.16922955  0.57653953  0.50483046  1
  Ca2+  Ca5  1  0.16139724  0.57193720  0.83969572  1
  Ca2+  Ca6  1  0.66021025  0.08172577  0.16231650  1
  Ca2+  Ca7  1  0.67013953  0.08361881  0.50186020  1
  Ca2+  Ca8  1  0.66686364  0.08110957  0.84277018  1
  Ca2+  Ca9  1  0.66919577  0.57972980  0.16417502  1
  Ca2+  Ca10  1  0.66899685  0.57612827  0.50818064  1
  Ca2+  Ca11  1  0.67327642  0.57319376  0.84226240  1
  Ca2+  Ca12  1  0.08253930  0.32764944  0.15582151  1
  Ca2+  Ca13  1  0.07376925  0.33973320  0.49689100  1
  Ca2+  Ca14  1  0.08769495  0.32808714  0.82960320  1
  Ca2+  Ca15  1  0.08335846  0.83487165  0.15896620  1
  Ca2+  Ca16  1  0.07799752  0.84270985  0.49621160  1
  Ca2+  Ca17  1  0.08733513  0.82824285  0.82836641  1
  Ca2+  Ca18  1  0.57132162  0.32671088  0.15579156  1
  Ca2+  Ca19  1  0.57362928  0.33675064  0.49668040  1
  Ca2+  Ca20  1  0.57733239  0.33690114  0.83028704  1
  Ca2+  Ca21  1  0.57192210  0.83959926  0.15828199  1
  Ca2+  Ca22  1  0.56974192  0.83370341  0.49561310  1
  Ca2+  Ca23  1  0.57074493  0.84121129  0.83318958  1
  Ca2+  Ca24  1  0.32896808  0.40672302  0.16810027  1
  Ca2+  Ca25  1  0.33198180  0.41456418  0.50839028  1
  Ca2+  Ca26  1  0.32726378  0.41057510  0.83932560  1
  Ca2+  Ca27  1  0.33017160  0.92561331  0.17320965  1
  Ca2+  Ca28  1  0.32693301  0.91576445  0.50429668  1
  Ca2+  Ca29  1  0.32767327  0.91870599  0.84389607  1
  Ca2+  Ca30  1  0.83205512  0.41911137  0.16727608  1
  Ca2+  Ca31  1  0.83022581  0.41286325  0.50982161  1
  Ca2+  Ca32  1  0.82394150  0.41537928  0.84154593  1
  Ca2+  Ca33  1  0.82799788  0.91379797  0.16967178  1
  Ca2+  Ca34  1  0.83790984  0.91481819  0.50548427  1
  Ca2+  Ca35  1  0.82725000  0.91388546  0.83933521  1
  Ca2+  Ca36  1  0.41225445  0.17014291  0.15709464  1
  Ca2+  Ca37  1  0.41087714  0.17635703  0.49634636  1
  Ca2+  Ca38  1  0.41648990  0.17348586  0.83768291  1
  Ca2+  Ca39  1  0.41042560  0.68176071  0.16201122  1
  Ca2+  Ca40  1  0.41299175  0.67757184  0.49779081  1
  Ca2+  Ca41  1  0.41166954  0.67993377  0.83158267  1
  Ca2+  Ca42  1  0.92518386  0.17124231  0.16194239  1
  Ca2+  Ca43  1  0.91890020  0.17857880  0.49640264  1
  Ca2+  Ca44  1  0.92500335  0.17001845  0.83048059  1
  Ca2+  Ca45  1  0.92212443  0.66964376  0.15944588  1
  Ca2+  Ca46  1  0.91921301  0.67833352  0.49622313  1
  Ca2+  Ca47  1  0.91887948  0.66736886  0.83414433  1
  Al0+  Al48  1  -0.00183357  0.00129468  -0.00117362  1
  Al0+  Al49  1  -0.00185296  0.00088802  0.33245826  1
  Al0+  Al50  1  0.00154283  -0.00026466  0.66747021  1
  Al0+  Al51  1  -0.00036837  0.50259934  0.00402168  1
  Al0+  Al52  1  -0.00267734  0.50212725  0.33108158  1
  Al0+  Al53  1  0.00104890  0.50079989  0.66606254  1
  Al0+  Al54  1  0.50014208  0.00268677  -0.00133433  1
  Al0+  Al55  1  0.50087786  0.00098119  0.33676169  1
  Al0+  Al56  1  0.50136614  0.00079975  0.66054949  1
  Al0+  Al57  1  0.49946635  0.50300859  0.00161735  1
  Al0+  Al58  1  0.49998871  0.49889673  0.33016934  1
  Al0+  Al59  1  0.50132533  0.50035744  0.66750373  1
  Al0+  Al60  1  0.24812849  0.24870823  -0.00126577  1
  Al0+  Al61  1  0.24824869  0.24849640  0.33648822  1
  Al0+  Al62  1  0.25216013  0.24778263  0.66516525  1
  Al0+  Al63  1  0.24618038  0.74748005  -0.00632753  1
  Al0+  Al64  1  0.24938881  0.74715487  0.33439230  1
  Al0+  Al65  1  0.25027258  0.74914735  0.66454016  1
  Al0+  Al66  1  0.74859193  0.24959509  0.00304941  1
  Al0+  Al67  1  0.74959028  0.25017053  0.32968599  1
  Al0+  Al68  1  0.75186168  0.24869368  0.66771369  1
  Al0+  Al69  1  0.74900442  0.74985274  0.00862246  1
  Al0+  Al70  1  0.75148789  0.74833253  0.33194606  1
  Al0+  Al71  1  0.75095780  0.74963269  0.66334600  1
  Al0+  Al72  1  0.67972825  0.42800992  0.67988095  1
  Al0+  Al73  1  0.07054968  0.17831545  0.98598974  1
  Al0+  Al74  1  0.17699297  0.92569286  0.01367745  1
  Al0+  Al75  1  0.17989854  0.92937543  0.68177865  1
  Al0+  Al76  1  0.57178878  0.17962765  0.98439337  1
  Al0+  Al77  1  0.82102956  0.57040486  0.01675141  1
  Al0+  Al78  1  0.06931220  0.67928638  0.98491475  1
  Al0+  Al79  1  0.67601693  0.42698664  0.01770731  1
  Al0+  Al80  1  0.67924778  0.93065740  0.01269861  1
  Al0+  Al81  1  0.92795511  0.32274259  0.31856001  1
  Al0+  Al82  1  0.92980378  0.82057112  0.65448188  1
  Al0+  Al83  1  0.93050104  0.32045553  0.65572532  1
  Al0+  Al84  1  0.42916531  0.82071512  0.31942108  1
  Al0+  Al85  1  0.43028365  0.32079065  0.65276424  1
  Al0+  Al86  1  0.17936970  0.42845642  0.67918930  1
  Al0+  Al87  1  0.32298411  0.07217198  0.35126959  1
  Al0+  Al88  1  0.32013928  0.06958450  0.01348071  1
  Al0+  Al89  1  0.92967286  0.82223893  0.31820339  1
  Al0+  Al90  1  0.42854971  0.82171646  0.65189188  1
  Al0+  Al91  1  0.42758267  0.32005000  0.32008580  1
  Al0+  Al92  1  0.17862375  0.92718246  0.34833122  1
  Al0+  Al93  1  0.42886490  0.82109528  0.98747682  1
  Al0+  Al94  1  0.18116264  0.42878778  0.01313491  1
  Al0+  Al95  1  0.42799425  0.32336309  0.98477762  1
  Si0+  Si96  1  0.82008239  0.07178702  0.34889297  1
  Si0+  Si97  1  0.57294988  0.17838774  0.31724676  1
  Si0+  Si98  1  0.82202159  0.57353612  0.68242622  1
  Si0+  Si99  1  0.92881039  0.32278248  0.98472321  1
  Si0+  Si100  1  0.32291484  0.57172255  0.68319446  1
  Si0+  Si101  1  0.07241441  0.67719165  0.64816638  1
  Si0+  Si102  1  0.82136326  0.57118364  0.35207753  1
  Si0+  Si103  1  0.92591335  0.82227347  0.98436760  1
  Si0+  Si104  1  0.82167619  0.07032669  0.68124635  1
  Si0+  Si105  1  0.07311445  0.17706914  0.64860754  1
  Si0+  Si106  1  0.67996468  0.92718450  0.35019591  1
  Si0+  Si107  1  0.57459850  0.17799722  0.64831901  1
  Si0+  Si108  1  0.07166461  0.67728015  0.31617839  1
  Si0+  Si109  1  0.17747135  0.42928340  0.34726984  1
  Si0+  Si110  1  0.67985555  0.42937121  0.34913289  1
  Si0+  Si111  1  0.32192399  0.57376445  0.01609064  1
  Si0+  Si112  1  0.07028329  0.17934617  0.31702271  1
  Si0+  Si113  1  0.57417877  0.67943981  0.98364349  1
  Si0+  Si114  1  0.57255669  0.67853081  0.65088960  1
  Si0+  Si115  1  0.32506306  0.07126433  0.68457989  1
  Si0+  Si116  1  0.67934519  0.92865365  0.67915312  1
  Si0+  Si117  1  0.82326048  0.07320372  0.01786191  1
  Si0+  Si118  1  0.57253224  0.67739916  0.31634717  1
  Si0+  Si119  1  0.32265799  0.56946104  0.34831928  1
  O2-  O120  1  0.25087102  -0.00503135  0.06366442  1
  O2-  O121  1  0.25381317  -0.00417413  0.39946535  1
  O2-  O122  1  0.25739543  0.00108933  0.72748102  1
  O2-  O123  1  0.25937640  0.49947203  0.06098226  1
  O2-  O124  1  0.25230879  0.49664222  0.38949602  1
  O2-  O125  1  0.25564944  0.50130821  0.72619424  1
  O2-  O126  1  0.75446046  0.00402552  0.06130716  1
  O2-  O127  1  0.75157647  -0.00180499  0.39234171  1
  O2-  O128  1  0.75079487  -0.00146510  0.72193057  1
  O2-  O129  1  0.74981331  0.49764900  0.06767050  1
  O2-  O130  1  0.75125831  0.49909789  0.39409948  1
  O2-  O131  1  0.75647948  0.50142115  0.72504006  1
  O2-  O132  1  0.00531062  0.25163905  0.27261775  1
  O2-  O133  1  0.00805656  0.25030776  0.60527036  1
  O2-  O134  1  -0.00347416  0.25417828  0.93941940  1
  O2-  O135  1  0.00833915  0.75164797  0.27349403  1
  O2-  O136  1  0.00609604  0.74886907  0.60508417  1
  O2-  O137  1  -0.00279858  0.75724115  0.93932753  1
  O2-  O138  1  0.49913086  0.24216744  0.27534404  1
  O2-  O139  1  0.50600691  0.24719330  0.60494244  1
  O2-  O140  1  0.50451525  0.25590586  0.93470366  1
  O2-  O141  1  0.50563774  0.74770419  0.27249436  1
  O2-  O142  1  0.50349606  0.74639669  0.60577947  1
  O2-  O143  1  0.50427566  0.74679105  0.93940114  1
  O2-  O144  1  0.06857907  0.18014459  0.09935626  1
  O2-  O145  1  0.06740149  0.18003617  0.42301527  1
  O2-  O146  1  0.07004748  0.17596876  0.75403637  1
  O2-  O147  1  0.06776762  0.67842987  0.09809334  1
  O2-  O148  1  0.06818941  0.67163629  0.42181486  1
  O2-  O149  1  0.07080157  0.67549414  0.75332976  1
  O2-  O150  1  0.56960911  0.17894823  0.09819625  1
  O2-  O151  1  0.57888252  0.18236855  0.42308293  1
  O2-  O152  1  0.57630436  0.17563727  0.75308439  1
  O2-  O153  1  0.57382330  0.68158378  0.08947584  1
  O2-  O154  1  0.57209904  0.67717327  0.42241402  1
  O2-  O155  1  0.57427158  0.68028767  0.75592655  1
  O2-  O156  1  0.17683252  0.43029006  0.24247068  1
  O2-  O157  1  0.17864337  0.43220877  0.56521464  1
  O2-  O158  1  0.17991601  0.42992466  0.89998305  1
  O2-  O159  1  0.17835196  0.92837894  0.23538949  1
  O2-  O160  1  0.17833116  0.93188518  0.56856883  1
  O2-  O161  1  0.17863716  0.92704838  0.89969827  1
  O2-  O162  1  0.68076913  0.43138030  0.24485968  1
  O2-  O163  1  0.68056784  0.43019403  0.56584662  1
  O2-  O164  1  0.67890907  0.42872671  0.90369335  1
  O2-  O165  1  0.67961085  0.92763915  0.24540566  1
  O2-  O166  1  0.68034872  0.93011523  0.57367752  1
  O2-  O167  1  0.68149941  0.93051317  0.89886153  1
  O2-  O168  1  0.42694669  0.31914058  0.09860413  1
  O2-  O169  1  0.43080831  0.32317167  0.43363934  1
  O2-  O170  1  0.42996567  0.32124107  0.76488761  1
  O2-  O171  1  0.42995936  0.82015860  0.10074545  1
  O2-  O172  1  0.43065743  0.81745267  0.43292675  1
  O2-  O173  1  0.43024846  0.82216242  0.76470199  1
  O2-  O174  1  0.93127232  0.32068671  0.09078086  1
  O2-  O175  1  0.92798227  0.32154615  0.43222642  1
  O2-  O176  1  0.92825317  0.31664719  0.76813424  1
  O2-  O177  1  0.92585745  0.82083256  0.09013311  1
  O2-  O178  1  0.92805185  0.81974314  0.43173558  1
  O2-  O179  1  0.92516440  0.81826610  0.76685510  1
  O2-  O180  1  0.32187142  0.07315568  0.23825151  1
  O2-  O181  1  0.32385860  0.07114664  0.57873433  1
  O2-  O182  1  0.31919259  0.06856637  0.89961479  1
  O2-  O183  1  0.32315064  0.57156752  0.24375814  1
  O2-  O184  1  0.32185455  0.57165995  0.57680411  1
  O2-  O185  1  0.31939870  0.57585633  0.91052024  1
  O2-  O186  1  0.81909398  0.07240551  0.24433813  1
  O2-  O187  1  0.82052259  0.07114702  0.57563591  1
  O2-  O188  1  0.82436991  0.07228141  0.91193641  1
  O2-  O189  1  0.82157314  0.57178188  0.24775133  1
  O2-  O190  1  0.81946395  0.57501609  0.57630401  1
  O2-  O191  1  0.81943676  0.57052447  0.90265937  1
  O2-  O192  1  0.03947173  0.08809442  0.27024819  1
  O2-  O193  1  0.04057127  0.08624983  0.60109250  1
  O2-  O194  1  0.03704486  0.08311995  0.92975396  1
  O2-  O195  1  0.03897824  0.58709821  0.26718869  1
  O2-  O196  1  0.04411220  0.58533848  0.59927302  1
  O2-  O197  1  0.03441690  0.58353966  0.93059917  1
  O2-  O198  1  0.55390095  0.08200675  0.27529687  1
  O2-  O199  1  0.54997760  0.08505476  0.59923839  1
  O2-  O200  1  0.54193141  0.08293387  0.92874683  1
  O2-  O201  1  0.54596820  0.58459256  0.26986165  1
  O2-  O202  1  0.54728271  0.58532693  0.60327021  1
  O2-  O203  1  0.55076813  0.58530643  0.93822247  1
  O2-  O204  1  0.16449444  0.20283781  0.27274638  1
  O2-  O205  1  0.16787833  0.19780627  0.60367257  1
  O2-  O206  1  0.16491428  0.20959611  0.92957720  1
  O2-  O207  1  0.16758598  0.69462506  0.27266706  1
  O2-  O208  1  0.16687449  0.69906781  0.60223049  1
  O2-  O209  1  0.16475888  0.70414510  0.92612065  1
  O2-  O210  1  0.66389847  0.20734060  0.26796893  1
  O2-  O211  1  0.66846443  0.20299196  0.60168661  1
  O2-  O212  1  0.67354835  0.20085564  0.93406975  1
  O2-  O213  1  0.66691617  0.70091401  0.27165552  1
  O2-  O214  1  0.66510924  0.70449806  0.60158158  1
  O2-  O215  1  0.66770974  0.70644258  0.93850890  1
  O2-  O216  1  0.08616692  0.46329769  0.06800772  1
  O2-  O217  1  0.08631511  0.46245990  0.39431707  1
  O2-  O218  1  0.08293194  0.46018091  0.73314953  1
  O2-  O219  1  0.07778940  0.95554917  0.06389153  1
  O2-  O220  1  0.07956174  0.96025655  0.39997903  1
  O2-  O221  1  0.08295977  0.96029108  0.73518427  1
  O2-  O222  1  0.57825151  0.45879696  0.07071923  1
  O2-  O223  1  0.58765841  0.45906832  0.39607253  1
  O2-  O224  1  0.58412332  0.46070578  0.73381451  1
  O2-  O225  1  0.58434975  0.96399441  0.06783199  1
  O2-  O226  1  0.58940699  0.95596857  0.39989331  1
  O2-  O227  1  0.58740699  0.95756153  0.72528352  1
  O2-  O228  1  0.20805543  0.33208163  0.06803922  1
  O2-  O229  1  0.19959742  0.33679742  0.39543580  1
  O2-  O230  1  0.20757609  0.32977155  0.72966845  1
  O2-  O231  1  0.20039769  0.82480501  0.06252954  1
  O2-  O232  1  0.20226070  0.82628080  0.40022138  1
  O2-  O233  1  0.20704478  0.82963085  0.73074298  1
  O2-  O234  1  0.70304682  0.32824362  0.07051231  1
  O2-  O235  1  0.70740551  0.33656772  0.39500261  1
  O2-  O236  1  0.71001207  0.33110799  0.73263151  1
  O2-  O237  1  0.70746987  0.83560312  0.07058309  1
  O2-  O238  1  0.70791368  0.83468173  0.39672040  1
  O2-  O239  1  0.70652975  0.83640275  0.72526323  1
  O2-  O240  1  0.45918733  0.41609133  0.26597350  1
  O2-  O241  1  0.45989722  0.41883311  0.59929693  1
  O2-  O242  1  0.45044423  0.42513610  0.93580093  1
  O2-  O243  1  0.46108728  0.91852613  0.26958956  1
  O2-  O244  1  0.46191102  0.91665897  0.59574701  1
  O2-  O245  1  0.46210185  0.91609872  0.93306954  1
  O2-  O246  1  0.95480778  0.42058270  0.26640617  1
  O2-  O247  1  0.95708062  0.41844298  0.60084873  1
  O2-  O248  1  0.95315267  0.41687264  0.94121921  1
  O2-  O249  1  0.95234495  0.92111482  0.26576035  1
  O2-  O250  1  0.95856852  0.91825435  0.60045141  1
  O2-  O251  1  0.94462501  0.91764099  0.93988628  1
  O2-  O252  1  0.32834714  0.29328264  0.27026037  1
  O2-  O253  1  0.33394138  0.28919580  0.59714445  1
  O2-  O254  1  0.33109622  0.29017187  0.93206082  1
  O2-  O255  1  0.33295663  0.78602223  0.26783082  1
  O2-  O256  1  0.33314678  0.78804155  0.59672041  1
  O2-  O257  1  0.33399037  0.78734739  0.93229152  1
  O2-  O258  1  0.83297865  0.28886240  0.26444476  1
  O2-  O259  1  0.83550329  0.28550812  0.59932636  1
  O2-  O260  1  0.83426058  0.29684089  0.94173631  1
  O2-  O261  1  0.83344978  0.78811046  0.26542685  1
  O2-  O262  1  0.83387386  0.78952688  0.59715266  1
  O2-  O263  1  0.83251888  0.79226874  0.94002375  1
  O2-  O264  1  0.41914586  0.04494022  0.06589654  1
  O2-  O265  1  0.42363073  0.04947003  0.40355129  1
  O2-  O266  1  0.42061622  0.04700665  0.72668953  1
  O2-  O267  1  0.41770767  0.55894414  0.06135750  1
  O2-  O268  1  0.41490897  0.54273948  0.39644547  1
  O2-  O269  1  0.41740507  0.55039972  0.72813012  1
  O2-  O270  1  0.91555330  0.04697892  0.06593048  1
  O2-  O271  1  0.91178754  0.04662728  0.39770393  1
  O2-  O272  1  0.91286406  0.04274822  0.72909347  1
  O2-  O273  1  0.91811703  0.54266548  0.07247009  1
  O2-  O274  1  0.91352781  0.54432702  0.39986489  1
  O2-  O275  1  0.91711075  0.55195912  0.72565309  1
  O2-  O276  1  0.28722028  0.16627364  0.06663590  1
  O2-  O277  1  0.28855592  0.16899960  0.40654226  1
  O2-  O278  1  0.29906101  0.16488199  0.72935826  1
  O2-  O279  1  0.28691735  0.66368949  0.06414184  1
  O2-  O280  1  0.29251514  0.65923145  0.39929441  1
  O2-  O281  1  0.29564637  0.66490379  0.72868990  1
  O2-  O282  1  0.79836273  0.16594142  0.06571245  1
  O2-  O283  1  0.78842639  0.16294064  0.39740429  1
  O2-  O284  1  0.79350561  0.16056902  0.73063103  1
  O2-  O285  1  0.79167908  0.66734561  0.07295918  1
  O2-  O286  1  0.79179323  0.66289939  0.40005441  1
  O2-  O287  1  0.79256825  0.66570315  0.72950182  1
