# generated using pymatgen
data_Ca2Al2SiO7
_symmetry_space_group_name_H-M   'P 1'
_cell_length_a   15.46017336
_cell_length_b   15.46088160
_cell_length_c   15.28614684
_cell_angle_alpha   90.00041527
_cell_angle_beta   89.99981318
_cell_angle_gamma   89.99889357
_symmetry_Int_Tables_number   1
_chemical_formula_structural   Ca2Al2SiO7
_chemical_formula_sum   'Ca48 Al48 Si24 O168'
_cell_volume   3653.81572774
_cell_formula_units_Z   24
loop_
 _symmetry_equiv_pos_site_id
 _symmetry_equiv_pos_as_xyz
  1  'x, y, z'
loop_
 _atom_type_symbol
 _atom_type_oxidation_number
  Ca2+  2.0
  Al0+  0.0
  Si0+  0.0
  O2-  -2.0
loop_
 _atom_site_type_symbol
 _atom_site_label
 _atom_site_symmetry_multiplicity
 _atom_site_fract_x
 _atom_site_fract_y
 _atom_site_fract_z
 _atom_site_occupancy
  Ca2+  Ca0  1  0.17229783  0.06950830  0.17651186  1
  Ca2+  Ca1  1  0.17764035  0.08562961  0.50596357  1
  Ca2+  Ca2  1  0.17208689  0.08590942  0.83555216  1
  Ca2+  Ca3  1  0.16181106  0.57847366  0.17023044  1
  Ca2+  Ca4  1  0.16691217  0.58055838  0.50799202  1
  Ca2+  Ca5  1  0.16515060  0.57396603  0.83194180  1
  Ca2+  Ca6  1  0.66908664  0.09440300  0.16788479  1
  Ca2+  Ca7  1  0.66922808  0.08205748  0.50916747  1
  Ca2+  Ca8  1  0.67434235  0.08788395  0.83341834  1
  Ca2+  Ca9  1  0.67127197  0.57835294  0.16707059  1
  Ca2+  Ca10  1  0.66813105  0.58040771  0.50648551  1
  Ca2+  Ca11  1  0.67411228  0.57498269  0.84317199  1
  Ca2+  Ca12  1  0.07925649  0.33501813  0.16435326  1
  Ca2+  Ca13  1  0.08359269  0.32836047  0.49997335  1
  Ca2+  Ca14  1  0.08535362  0.33225368  0.82563951  1
  Ca2+  Ca15  1  0.08789932  0.83273573  0.16527484  1
  Ca2+  Ca16  1  0.07930621  0.82648404  0.49277395  1
  Ca2+  Ca17  1  0.07800999  0.82993649  0.82301856  1
  Ca2+  Ca18  1  0.57886536  0.32486238  0.16216855  1
  Ca2+  Ca19  1  0.57017659  0.32193945  0.49492169  1
  Ca2+  Ca20  1  0.58274314  0.32519284  0.82701188  1
  Ca2+  Ca21  1  0.57375483  0.83812216  0.16617051  1
  Ca2+  Ca22  1  0.57866668  0.83707661  0.49671928  1
  Ca2+  Ca23  1  0.58561856  0.83294409  0.82701320  1
  Ca2+  Ca24  1  0.32895797  0.41288764  0.17141697  1
  Ca2+  Ca25  1  0.33315557  0.41870642  0.51219351  1
  Ca2+  Ca26  1  0.32476281  0.41373988  0.83024291  1
  Ca2+  Ca27  1  0.32506686  0.91843309  0.17813719  1
  Ca2+  Ca28  1  0.33288639  0.92511124  0.50054457  1
  Ca2+  Ca29  1  0.32619710  0.92503960  0.83589206  1
  Ca2+  Ca30  1  0.83004713  0.41681225  0.16918737  1
  Ca2+  Ca31  1  0.83598217  0.41373827  0.50090669  1
  Ca2+  Ca32  1  0.82789128  0.42300787  0.84422538  1
  Ca2+  Ca33  1  0.83449911  0.92303318  0.17101536  1
  Ca2+  Ca34  1  0.82911518  0.91512334  0.50966021  1
  Ca2+  Ca35  1  0.83422683  0.92610934  0.83151129  1
  Ca2+  Ca36  1  0.42640856  0.16116088  0.16547387  1
  Ca2+  Ca37  1  0.42119678  0.16596345  0.49451115  1
  Ca2+  Ca38  1  0.42693129  0.17045701  0.82109866  1
  Ca2+  Ca39  1  0.41089957  0.67575698  0.16715934  1
  Ca2+  Ca40  1  0.41291314  0.67158365  0.49596501  1
  Ca2+  Ca41  1  0.41440194  0.66647121  0.82778534  1
  Ca2+  Ca42  1  0.91269237  0.17169532  0.16262090  1
  Ca2+  Ca43  1  0.92312340  0.16523075  0.49929052  1
  Ca2+  Ca44  1  0.92132811  0.16128133  0.82617008  1
  Ca2+  Ca45  1  0.91922755  0.67195719  0.16585798  1
  Ca2+  Ca46  1  0.92743153  0.67760645  0.49507490  1
  Ca2+  Ca47  1  0.92052667  0.67150949  0.82320954  1
  Al0+  Al48  1  -0.00080211  0.00028390  0.00773863  1
  Al0+  Al49  1  -0.00071086  -0.00149110  0.33456189  1
  Al0+  Al50  1  -0.00141526  0.00091790  0.66047158  1
  Al0+  Al51  1  0.00110569  0.50203380  0.00657722  1
  Al0+  Al52  1  -0.00060098  0.50049215  0.32736164  1
  Al0+  Al53  1  0.00010879  0.50074513  0.66642527  1
  Al0+  Al54  1  0.50077331  0.00078492  -0.00783176  1
  Al0+  Al55  1  0.50149373  -0.00143001  0.32800591  1
  Al0+  Al56  1  0.50038006  -0.00158379  0.67261051  1
  Al0+  Al57  1  0.49869919  0.50172874  0.00370149  1
  Al0+  Al58  1  0.50088127  0.49707653  0.33034553  1
  Al0+  Al59  1  0.49969158  0.50093131  0.66853727  1
  Al0+  Al60  1  0.25060519  0.25076900  0.00554462  1
  Al0+  Al61  1  0.24953130  0.24974823  0.33316439  1
  Al0+  Al62  1  0.24893430  0.25075324  0.66815888  1
  Al0+  Al63  1  0.24831062  0.74994248  0.00008109  1
  Al0+  Al64  1  0.25006764  0.74740665  0.32955263  1
  Al0+  Al65  1  0.25094325  0.74866118  0.66740058  1
  Al0+  Al66  1  0.74928018  0.25113703  0.00230615  1
  Al0+  Al67  1  0.75001939  0.25093177  0.32878934  1
  Al0+  Al68  1  0.74970517  0.24930583  0.66656115  1
  Al0+  Al69  1  0.74945713  0.75197024  0.00332299  1
  Al0+  Al70  1  0.75320003  0.74894095  0.33051927  1
  Al0+  Al71  1  0.74858748  0.74999622  0.66699521  1
  Al0+  Al72  1  0.42617969  0.32216904  0.31696920  1
  Al0+  Al73  1  0.67784299  0.42878156  0.01638747  1
  Al0+  Al74  1  0.93059766  0.31916933  0.31932322  1
  Al0+  Al75  1  0.18027931  0.42852502  0.01585516  1
  Al0+  Al76  1  0.07226866  0.67801568  0.65241626  1
  Al0+  Al77  1  0.92774990  0.82132695  0.65251490  1
  Al0+  Al78  1  0.81966332  0.07004980  0.01479659  1
  Al0+  Al79  1  0.92809373  0.82295041  0.31537001  1
  Al0+  Al80  1  0.32094802  0.07159853  0.68086667  1
  Al0+  Al81  1  0.32218027  0.07042331  0.34822082  1
  Al0+  Al82  1  0.17973390  0.92976094  0.01215758  1
  Al0+  Al83  1  0.17746504  0.42886380  0.67984049  1
  Al0+  Al84  1  0.42923509  0.32144715  0.65361383  1
  Al0+  Al85  1  0.57139964  0.18087188  0.98180433  1
  Al0+  Al86  1  0.57005903  0.17836096  0.31753932  1
  Al0+  Al87  1  0.57183188  0.17696339  0.65131834  1
  Al0+  Al88  1  0.82237727  0.07230927  0.67996156  1
  Al0+  Al89  1  0.07155433  0.17905513  0.65505902  1
  Al0+  Al90  1  0.07129287  0.67994531  0.31548128  1
  Al0+  Al91  1  0.43116719  0.81876007  0.32118919  1
  Al0+  Al92  1  0.82189770  0.57367815  0.01637315  1
  Al0+  Al93  1  0.67827906  0.92751578  0.68168048  1
  Al0+  Al94  1  0.17815196  0.92582263  0.35121245  1
  Al0+  Al95  1  0.32250373  0.57295246  0.68144439  1
  Si0+  Si96  1  0.57452405  0.67537803  0.31683935  1
  Si0+  Si97  1  0.57095064  0.67860874  0.65351130  1
  Si0+  Si98  1  0.42742238  0.81985286  0.98278629  1
  Si0+  Si99  1  0.93087060  0.32232988  0.98573962  1
  Si0+  Si100  1  0.57097211  0.67974935  0.98546084  1
  Si0+  Si101  1  0.68080567  0.92732578  0.34625408  1
  Si0+  Si102  1  0.67952650  0.42849045  0.35046297  1
  Si0+  Si103  1  0.92863948  0.82288514  0.98448425  1
  Si0+  Si104  1  0.17710542  0.42937447  0.34848757  1
  Si0+  Si105  1  0.17787149  0.92799594  0.68079189  1
  Si0+  Si106  1  0.82118828  0.57030388  0.35062319  1
  Si0+  Si107  1  0.32252233  0.56858767  0.34701976  1
  Si0+  Si108  1  0.07284803  0.17677511  0.31592333  1
  Si0+  Si109  1  0.82001094  0.07337744  0.34840317  1
  Si0+  Si110  1  0.67590766  0.92829841  0.01804376  1
  Si0+  Si111  1  0.32378421  0.07139747  0.01601263  1
  Si0+  Si112  1  0.07023841  0.17873297  0.98784537  1
  Si0+  Si113  1  0.82005220  0.57052220  0.67921718  1
  Si0+  Si114  1  0.67877630  0.42927993  0.67977124  1
  Si0+  Si115  1  0.07053940  0.67910537  0.98273369  1
  Si0+  Si116  1  0.42578652  0.32403019  0.98203972  1
  Si0+  Si117  1  0.32110124  0.57338971  0.01878299  1
  Si0+  Si118  1  0.42861074  0.82105475  0.65357412  1
  Si0+  Si119  1  0.92666857  0.32357160  0.65341549  1
  O2-  O120  1  0.25542607  0.00268038  0.05974399  1
  O2-  O121  1  0.24775095  0.00109890  0.39931181  1
  O2-  O122  1  0.24353997  -0.00135609  0.72703005  1
  O2-  O123  1  0.25613939  0.50183905  0.06325103  1
  O2-  O124  1  0.25375905  0.49539164  0.38876704  1
  O2-  O125  1  0.24981894  0.50108950  0.72988154  1
  O2-  O126  1  0.74254805  -0.00192136  0.06276983  1
  O2-  O127  1  0.75231066  -0.00214937  0.38813892  1
  O2-  O128  1  0.74955780  0.00089056  0.73020812  1
  O2-  O129  1  0.75084710  0.50041308  0.06653893  1
  O2-  O130  1  0.74848498  0.50136005  0.39411501  1
  O2-  O131  1  0.75225381  0.49748356  0.72253320  1
  O2-  O132  1  0.00354239  0.24420399  0.27028306  1
  O2-  O133  1  -0.00478968  0.25398839  0.61093707  1
  O2-  O134  1  0.00171956  0.25163533  0.94348815  1
  O2-  O135  1  0.00341030  0.75528378  0.26404409  1
  O2-  O136  1  0.00301726  0.75261002  0.60320747  1
  O2-  O137  1  -0.00180838  0.74993494  0.94230114  1
  O2-  O138  1  0.49543552  0.24775111  0.26715462  1
  O2-  O139  1  0.49673969  0.24607909  0.60245791  1
  O2-  O140  1  0.49544230  0.25628306  0.93818647  1
  O2-  O141  1  0.50576299  0.74394260  0.27259690  1
  O2-  O142  1  0.49981786  0.74927269  0.61187687  1
  O2-  O143  1  0.50009381  0.74985355  0.94141579  1
  O2-  O144  1  0.06761946  0.17971476  0.09281032  1
  O2-  O145  1  0.07243627  0.17951843  0.42147595  1
  O2-  O146  1  0.07071646  0.17937986  0.76898646  1
  O2-  O147  1  0.07222970  0.68010773  0.08757644  1
  O2-  O148  1  0.06890109  0.67723113  0.42871298  1
  O2-  O149  1  0.06823848  0.67768673  0.76670627  1
  O2-  O150  1  0.56919069  0.17982203  0.09477045  1
  O2-  O151  1  0.57226914  0.17893022  0.43067649  1
  O2-  O152  1  0.57349404  0.18182796  0.76501699  1
  O2-  O153  1  0.57007765  0.68131870  0.09056686  1
  O2-  O154  1  0.57470276  0.67503557  0.42266860  1
  O2-  O155  1  0.57255322  0.67836422  0.75872513  1
  O2-  O156  1  0.17655536  0.43197066  0.24305333  1
  O2-  O157  1  0.17587623  0.43069407  0.56614689  1
  O2-  O158  1  0.17840054  0.42921425  0.90334773  1
  O2-  O159  1  0.18203607  0.92731851  0.23699028  1
  O2-  O160  1  0.18213478  0.92682562  0.57578175  1
  O2-  O161  1  0.18038293  0.93038722  0.89886191  1
  O2-  O162  1  0.68080917  0.43053438  0.24560358  1
  O2-  O163  1  0.67881146  0.43271702  0.57449357  1
  O2-  O164  1  0.68074923  0.43132644  0.90202030  1
  O2-  O165  1  0.68098145  0.92616603  0.24103230  1
  O2-  O166  1  0.67846883  0.92442874  0.56772295  1
  O2-  O167  1  0.67764333  0.92483954  0.91297710  1
  O2-  O168  1  0.42546122  0.32240606  0.08752650  1
  O2-  O169  1  0.43000985  0.32756081  0.42991229  1
  O2-  O170  1  0.43328360  0.32225294  0.76750396  1
  O2-  O171  1  0.42778810  0.81881001  0.08802244  1
  O2-  O172  1  0.43351171  0.81774644  0.43427394  1
  O2-  O173  1  0.42879542  0.81904694  0.75900908  1
  O2-  O174  1  0.93182773  0.32097150  0.09096285  1
  O2-  O175  1  0.93083702  0.31915570  0.43253987  1
  O2-  O176  1  0.92583313  0.32659867  0.75907980  1
  O2-  O177  1  0.92939791  0.82238548  0.08927161  1
  O2-  O178  1  0.92246032  0.81777566  0.42821535  1
  O2-  O179  1  0.92811883  0.81843391  0.76699376  1
  O2-  O180  1  0.32191325  0.06645039  0.23404810  1
  O2-  O181  1  0.32243927  0.06920950  0.56821224  1
  O2-  O182  1  0.32187947  0.07100167  0.91029042  1
  O2-  O183  1  0.32241582  0.56880691  0.24166289  1
  O2-  O184  1  0.32480726  0.57299119  0.56774507  1
  O2-  O185  1  0.32034815  0.57637437  0.91367927  1
  O2-  O186  1  0.81756852  0.07468775  0.24296511  1
  O2-  O187  1  0.82082541  0.07339154  0.56628969  1
  O2-  O188  1  0.82357919  0.06792995  0.90232487  1
  O2-  O189  1  0.81904380  0.56978766  0.24571918  1
  O2-  O190  1  0.81723065  0.57007239  0.57399963  1
  O2-  O191  1  0.82050999  0.57235466  0.90193648  1
  O2-  O192  1  0.04827839  0.08235013  0.27188854  1
  O2-  O193  1  0.04205657  0.08473638  0.59663033  1
  O2-  O194  1  0.03992058  0.08730090  0.94130165  1
  O2-  O195  1  0.03693253  0.58379542  0.26097169  1
  O2-  O196  1  0.04085699  0.58088025  0.59866909  1
  O2-  O197  1  0.04219030  0.58639370  0.93756415  1
  O2-  O198  1  0.54623556  0.07964349  0.26242926  1
  O2-  O199  1  0.54593784  0.07598793  0.60355589  1
  O2-  O200  1  0.54344273  0.08298113  0.92807633  1
  O2-  O201  1  0.54932901  0.58236323  0.27006833  1
  O2-  O202  1  0.54409812  0.58763809  0.60414851  1
  O2-  O203  1  0.54407318  0.58734115  0.93826825  1
  O2-  O204  1  0.16554134  0.20271531  0.26874791  1
  O2-  O205  1  0.16602656  0.21152068  0.59884734  1
  O2-  O206  1  0.16429524  0.20442119  0.94331178  1
  O2-  O207  1  0.17075405  0.70238782  0.26168788  1
  O2-  O208  1  0.17225803  0.70252801  0.60140502  1
  O2-  O209  1  0.16242963  0.70737417  0.93570014  1
  O2-  O210  1  0.66639838  0.21284158  0.26371286  1
  O2-  O211  1  0.66989738  0.20739566  0.59883244  1
  O2-  O212  1  0.66920470  0.21312006  0.93059267  1
  O2-  O213  1  0.66756221  0.70097597  0.27042917  1
  O2-  O214  1  0.66159368  0.70574173  0.60340157  1
  O2-  O215  1  0.66312161  0.70782018  0.93814503  1
  O2-  O216  1  0.08502711  0.46130192  0.07111717  1
  O2-  O217  1  0.08628837  0.46200389  0.39440591  1
  O2-  O218  1  0.07911065  0.45798647  0.73499997  1
  O2-  O219  1  0.08519902  0.96035582  0.06932961  1
  O2-  O220  1  0.07694604  0.94947180  0.40002661  1
  O2-  O221  1  0.08254414  0.95078711  0.72348656  1
  O2-  O222  1  0.57976274  0.45907838  0.06926048  1
  O2-  O223  1  0.58714064  0.45595908  0.39709356  1
  O2-  O224  1  0.58980203  0.46104473  0.72947430  1
  O2-  O225  1  0.58020997  0.95270439  0.06059841  1
  O2-  O226  1  0.58867790  0.95435271  0.39256200  1
  O2-  O227  1  0.58049331  0.95124591  0.73758870  1
  O2-  O228  1  0.20777038  0.33178579  0.07224155  1
  O2-  O229  1  0.19781654  0.33500679  0.39302158  1
  O2-  O230  1  0.20502667  0.33187616  0.73583993  1
  O2-  O231  1  0.21055686  0.83285714  0.06572565  1
  O2-  O232  1  0.21030550  0.82685202  0.40016401  1
  O2-  O233  1  0.20598894  0.83556994  0.72858151  1
  O2-  O234  1  0.70783358  0.33213131  0.07038426  1
  O2-  O235  1  0.71186034  0.33796724  0.39692863  1
  O2-  O236  1  0.70480175  0.33759061  0.72712474  1
  O2-  O237  1  0.70062459  0.83525938  0.06577188  1
  O2-  O238  1  0.70669461  0.83429178  0.39319143  1
  O2-  O239  1  0.70705848  0.82879164  0.73627667  1
  O2-  O240  1  0.45817940  0.41923256  0.26159662  1
  O2-  O241  1  0.46107503  0.41966239  0.60123712  1
  O2-  O242  1  0.44866290  0.42030753  0.94001023  1
  O2-  O243  1  0.46337259  0.91224936  0.26230450  1
  O2-  O244  1  0.45800227  0.91168671  0.60618580  1
  O2-  O245  1  0.45369252  0.91145186  0.93468378  1
  O2-  O246  1  0.96086048  0.41473596  0.26352453  1
  O2-  O247  1  0.95231592  0.41605008  0.60474292  1
  O2-  O248  1  0.95863080  0.41540417  0.94057078  1
  O2-  O249  1  0.95017093  0.92397527  0.26497743  1
  O2-  O250  1  0.94988380  0.91986899  0.59891606  1
  O2-  O251  1  0.95960167  0.91450545  0.93884996  1
  O2-  O252  1  0.32571326  0.29892118  0.26601731  1
  O2-  O253  1  0.32877405  0.29967165  0.60423119  1
  O2-  O254  1  0.33130461  0.29716956  0.93782590  1
  O2-  O255  1  0.33684497  0.78548146  0.26429127  1
  O2-  O256  1  0.33803749  0.79305414  0.60489233  1
  O2-  O257  1  0.33647479  0.78934266  0.93522481  1
  O2-  O258  1  0.83469019  0.28956176  0.26342331  1
  O2-  O259  1  0.83367470  0.29940097  0.60551797  1
  O2-  O260  1  0.83812671  0.29646190  0.94016973  1
  O2-  O261  1  0.83126873  0.78942972  0.26031900  1
  O2-  O262  1  0.83020071  0.78805535  0.59999475  1
  O2-  O263  1  0.83499341  0.79699935  0.93949090  1
  O2-  O264  1  0.41795158  0.04336810  0.05891710  1
  O2-  O265  1  0.42109948  0.03757925  0.39812611  1
  O2-  O266  1  0.41496969  0.03753509  0.73765933  1
  O2-  O267  1  0.41623312  0.55420210  0.06447155  1
  O2-  O268  1  0.41648157  0.54520440  0.39295656  1
  O2-  O269  1  0.42094238  0.54539591  0.73652181  1
  O2-  O270  1  0.91405460  0.03851235  0.07256825  1
  O2-  O271  1  0.91391952  0.05073653  0.39317636  1
  O2-  O272  1  0.92108716  0.04291220  0.73320513  1
  O2-  O273  1  0.91939133  0.54648431  0.07020773  1
  O2-  O274  1  0.91232073  0.53826203  0.39611308  1
  O2-  O275  1  0.91190249  0.54558416  0.72712217  1
  O2-  O276  1  0.30033769  0.16490901  0.06231578  1
  O2-  O277  1  0.29531633  0.17043340  0.39934796  1
  O2-  O278  1  0.29046867  0.16737601  0.73588582  1
  O2-  O279  1  0.29098402  0.66561146  0.06569788  1
  O2-  O280  1  0.29386050  0.65998879  0.39377336  1
  O2-  O281  1  0.29554116  0.67099861  0.73695249  1
  O2-  O282  1  0.79092585  0.16750907  0.06784618  1
  O2-  O283  1  0.78945276  0.16436888  0.39529604  1
  O2-  O284  1  0.79580344  0.17136135  0.73437376  1
  O2-  O285  1  0.79067431  0.67114785  0.06994660  1
  O2-  O286  1  0.79387066  0.66260676  0.39747579  1
  O2-  O287  1  0.78899434  0.66022457  0.72821499  1
