# generated using pymatgen
data_Ca2Al2SiO7
_symmetry_space_group_name_H-M   'P 1'
_cell_length_a   15.46139933
_cell_length_b   15.46219082
_cell_length_c   15.28669442
_cell_angle_alpha   90.01369482
_cell_angle_beta   89.99881976
_cell_angle_gamma   89.98397843
_symmetry_Int_Tables_number   1
_chemical_formula_structural   Ca2Al2SiO7
_chemical_formula_sum   'Ca48 Al48 Si24 O168'
_cell_volume   3654.54556023
_cell_formula_units_Z   24
loop_
 _symmetry_equiv_pos_site_id
 _symmetry_equiv_pos_as_xyz
  1  'x, y, z'
loop_
 _atom_type_symbol
 _atom_type_oxidation_number
  Ca2+  2.0
  Al0+  0.0
  Si0+  0.0
  O2-  -2.0
loop_
 _atom_site_type_symbol
 _atom_site_label
 _atom_site_symmetry_multiplicity
 _atom_site_fract_x
 _atom_site_fract_y
 _atom_site_fract_z
 _atom_site_occupancy
  Ca2+  Ca0  1  0.16964165  0.07733137  0.16853602  1
  Ca2+  Ca1  1  0.17000132  0.07507912  0.50732107  1
  Ca2+  Ca2  1  0.16845241  0.06956108  0.83530675  1
  Ca2+  Ca3  1  0.16919172  0.57809725  0.16840130  1
  Ca2+  Ca4  1  0.17376279  0.58664850  0.51167823  1
  Ca2+  Ca5  1  0.17332487  0.58390706  0.83306420  1
  Ca2+  Ca6  1  0.66860733  0.06925435  0.17590665  1
  Ca2+  Ca7  1  0.67375385  0.07942006  0.50461432  1
  Ca2+  Ca8  1  0.66858017  0.07966939  0.83384156  1
  Ca2+  Ca9  1  0.65867985  0.58085328  0.17383402  1
  Ca2+  Ca10  1  0.66211646  0.58026575  0.50526849  1
  Ca2+  Ca11  1  0.67104105  0.59596575  0.83109544  1
  Ca2+  Ca12  1  0.07825499  0.33376966  0.16237883  1
  Ca2+  Ca13  1  0.06802385  0.33486717  0.49650150  1
  Ca2+  Ca14  1  0.08032594  0.33433324  0.82690602  1
  Ca2+  Ca15  1  0.07704911  0.83745717  0.16569177  1
  Ca2+  Ca16  1  0.07463831  0.83316938  0.50311092  1
  Ca2+  Ca17  1  0.08258167  0.83224458  0.82076036  1
  Ca2+  Ca18  1  0.57999901  0.33683519  0.16949087  1
  Ca2+  Ca19  1  0.57847987  0.33171202  0.49682233  1
  Ca2+  Ca20  1  0.57950276  0.32390798  0.82070586  1
  Ca2+  Ca21  1  0.58388589  0.83022975  0.15784584  1
  Ca2+  Ca22  1  0.58113612  0.82190049  0.49105529  1
  Ca2+  Ca23  1  0.57570784  0.82862586  0.82747612  1
  Ca2+  Ca24  1  0.32998160  0.41546465  0.17382238  1
  Ca2+  Ca25  1  0.33829381  0.42141621  0.50870395  1
  Ca2+  Ca26  1  0.33563906  0.42443057  0.83459438  1
  Ca2+  Ca27  1  0.33170721  0.90514336  0.16867665  1
  Ca2+  Ca28  1  0.32876461  0.90329795  0.50725265  1
  Ca2+  Ca29  1  0.32563911  0.90336444  0.83513765  1
  Ca2+  Ca30  1  0.82515259  0.42023995  0.17807857  1
  Ca2+  Ca31  1  0.83044125  0.41881800  0.50647713  1
  Ca2+  Ca32  1  0.83706754  0.42382085  0.83064024  1
  Ca2+  Ca33  1  0.82206854  0.91806389  0.17765319  1
  Ca2+  Ca34  1  0.83575903  0.92216693  0.50531772  1
  Ca2+  Ca35  1  0.82969328  0.91939111  0.83470137  1
  Ca2+  Ca36  1  0.41532489  0.17174569  0.16605262  1
  Ca2+  Ca37  1  0.42096344  0.17590237  0.49948841  1
  Ca2+  Ca38  1  0.42324617  0.17305588  0.82333612  1
  Ca2+  Ca39  1  0.43129138  0.67719943  0.16423837  1
  Ca2+  Ca40  1  0.42188070  0.67284450  0.49949148  1
  Ca2+  Ca41  1  0.42484520  0.67256794  0.82529545  1
  Ca2+  Ca42  1  0.90722166  0.17025409  0.17185890  1
  Ca2+  Ca43  1  0.90701197  0.17242166  0.49682079  1
  Ca2+  Ca44  1  0.91638862  0.17145691  0.82214524  1
  Ca2+  Ca45  1  0.91190984  0.67564045  0.16721926  1
  Ca2+  Ca46  1  0.91572156  0.67431042  0.50243350  1
  Ca2+  Ca47  1  0.92344867  0.67376206  0.81990584  1
  Al0+  Al48  1  0.00197716  0.00407161  0.00508904  1
  Al0+  Al49  1  0.00196605  -0.00016692  0.33241522  1
  Al0+  Al50  1  0.00021370  0.00085115  0.67256159  1
  Al0+  Al51  1  -0.00054926  0.50117782  0.00492451  1
  Al0+  Al52  1  0.00005006  0.49755523  0.32848825  1
  Al0+  Al53  1  -0.00091883  0.49973810  0.66353518  1
  Al0+  Al54  1  0.49963887  0.00185584  -0.00064839  1
  Al0+  Al55  1  0.49737116  0.00092582  0.33512214  1
  Al0+  Al56  1  0.49876333  0.00117171  0.65965992  1
  Al0+  Al57  1  0.50178545  0.50151044  -0.00341729  1
  Al0+  Al58  1  0.49805692  0.50009690  0.32966238  1
  Al0+  Al59  1  0.49923036  0.49923623  0.66820814  1
  Al0+  Al60  1  0.24737847  0.24992241  0.00279236  1
  Al0+  Al61  1  0.24816418  0.24848618  0.33102579  1
  Al0+  Al62  1  0.24875696  0.24793134  0.66439188  1
  Al0+  Al63  1  0.24941307  0.74805887  0.00568855  1
  Al0+  Al64  1  0.25109076  0.74714954  0.32946664  1
  Al0+  Al65  1  0.24993907  0.74615910  0.66988340  1
  Al0+  Al66  1  0.75012043  0.25382533  -0.00035244  1
  Al0+  Al67  1  0.74867669  0.25094806  0.33486744  1
  Al0+  Al68  1  0.75024959  0.24848341  0.66513798  1
  Al0+  Al69  1  0.75249082  0.75193904  -0.00041037  1
  Al0+  Al70  1  0.75226885  0.74788779  0.32900021  1
  Al0+  Al71  1  0.74991878  0.74984767  0.66446997  1
  Al0+  Al72  1  0.07141902  0.67801568  0.65395493  1
  Al0+  Al73  1  0.82099994  0.06907762  0.34909965  1
  Al0+  Al74  1  0.32227773  0.56905064  0.68099428  1
  Al0+  Al75  1  0.68035954  0.93116569  0.01152969  1
  Al0+  Al76  1  0.57405369  0.67894108  0.98200780  1
  Al0+  Al77  1  0.92861101  0.82394031  0.65419712  1
  Al0+  Al78  1  0.42745519  0.82019683  0.65273811  1
  Al0+  Al79  1  0.57282409  0.17731940  0.65029495  1
  Al0+  Al80  1  0.42828956  0.82264750  0.31763905  1
  Al0+  Al81  1  0.67734013  0.43151056  0.34722701  1
  Al0+  Al82  1  0.67649963  0.92534193  0.34931148  1
  Al0+  Al83  1  0.57206706  0.67970466  0.31845247  1
  Al0+  Al84  1  0.42826114  0.32021829  0.31907204  1
  Al0+  Al85  1  0.92731025  0.32043243  0.31789257  1
  Al0+  Al86  1  0.42809017  0.82236313  0.98397201  1
  Al0+  Al87  1  0.57253136  0.67940669  0.65087540  1
  Al0+  Al88  1  0.82111205  0.57171683  0.67945944  1
  Al0+  Al89  1  0.81983494  0.07097658  0.68156891  1
  Al0+  Al90  1  0.17967836  0.42951486  0.01394254  1
  Al0+  Al91  1  0.17943622  0.92727120  0.01583090  1
  Al0+  Al92  1  0.18187647  0.92919755  0.67891107  1
  Al0+  Al93  1  0.93099519  0.82143950  0.31948768  1
  Al0+  Al94  1  0.42745966  0.32108874  0.65341884  1
  Al0+  Al95  1  0.93001279  0.32062940  0.65409546  1
  Si0+  Si96  1  0.67921421  0.42841294  0.01452972  1
  Si0+  Si97  1  0.07173347  0.18016987  0.98346596  1
  Si0+  Si98  1  0.32442474  0.57070995  0.01999138  1
  Si0+  Si99  1  0.18184419  0.92778851  0.34866252  1
  Si0+  Si100  1  0.93161038  0.82414734  0.98603714  1
  Si0+  Si101  1  0.57161755  0.17873327  0.31524944  1
  Si0+  Si102  1  0.07176047  0.17823981  0.31460256  1
  Si0+  Si103  1  0.42686037  0.32063477  0.98598357  1
  Si0+  Si104  1  0.31766410  0.56780497  0.34815143  1
  Si0+  Si105  1  0.17693035  0.42622457  0.68100499  1
  Si0+  Si106  1  0.06909491  0.67823195  0.98709763  1
  Si0+  Si107  1  0.92931790  0.32192947  0.98463510  1
  Si0+  Si108  1  0.82109918  0.57109079  0.01529035  1
  Si0+  Si109  1  0.07162465  0.17648424  0.65051650  1
  Si0+  Si110  1  0.57151650  0.18071489  0.98647659  1
  Si0+  Si111  1  0.32122283  0.07295277  0.01671971  1
  Si0+  Si112  1  0.82515229  0.57127807  0.35011474  1
  Si0+  Si113  1  0.82236674  0.07599454  0.01717241  1
  Si0+  Si114  1  0.67599052  0.92752146  0.68237819  1
  Si0+  Si115  1  0.32028437  0.07394698  0.34930130  1
  Si0+  Si116  1  0.07307083  0.67686875  0.31519606  1
  Si0+  Si117  1  0.32307695  0.07415332  0.68313181  1
  Si0+  Si118  1  0.67879436  0.42830838  0.68398485  1
  Si0+  Si119  1  0.17730649  0.42628222  0.34932100  1
  O2-  O120  1  0.25844248  -0.00131947  0.06170725  1
  O2-  O121  1  0.25612459  -0.00418606  0.39003119  1
  O2-  O122  1  0.25898914  0.00118268  0.72710785  1
  O2-  O123  1  0.25705436  0.49955068  0.06372728  1
  O2-  O124  1  0.24630118  0.49761797  0.39196484  1
  O2-  O125  1  0.24840578  0.49144654  0.72579182  1
  O2-  O126  1  0.75517494  0.00570501  0.05941291  1
  O2-  O127  1  0.75061189  -0.00423702  0.39905004  1
  O2-  O128  1  0.74515118  -0.00376255  0.72784803  1
  O2-  O129  1  0.74580454  0.50389240  0.05607534  1
  O2-  O130  1  0.75261960  0.50598080  0.39256953  1
  O2-  O131  1  0.74526648  0.49900096  0.72928963  1
  O2-  O132  1  0.00133320  0.24540191  0.27002961  1
  O2-  O133  1  0.00399934  0.24575619  0.60656369  1
  O2-  O134  1  -0.00116126  0.24977038  0.94207790  1
  O2-  O135  1  0.00339137  0.74451916  0.27092770  1
  O2-  O136  1  -0.00111981  0.74959502  0.60513599  1
  O2-  O137  1  0.00613497  0.75631610  0.94493679  1
  O2-  O138  1  0.50181270  0.24613170  0.26928237  1
  O2-  O139  1  0.50016453  0.25040111  0.60325500  1
  O2-  O140  1  0.49957492  0.25138968  0.94443329  1
  O2-  O141  1  0.50906169  0.76014398  0.26834126  1
  O2-  O142  1  0.50338909  0.75391888  0.60154913  1
  O2-  O143  1  0.50034113  0.75045145  0.93482438  1
  O2-  O144  1  0.07364397  0.18096606  0.08840965  1
  O2-  O145  1  0.07537035  0.17987516  0.41975095  1
  O2-  O146  1  0.07170540  0.17781697  0.75661006  1
  O2-  O147  1  0.06472848  0.67562405  0.09231893  1
  O2-  O148  1  0.07588971  0.67701042  0.42015067  1
  O2-  O149  1  0.07100658  0.67888097  0.76837808  1
  O2-  O150  1  0.57216874  0.18261693  0.09137814  1
  O2-  O151  1  0.57081567  0.18131399  0.42013912  1
  O2-  O152  1  0.57155424  0.17986819  0.76533166  1
  O2-  O153  1  0.57366147  0.67711274  0.09531652  1
  O2-  O154  1  0.56680709  0.67497629  0.43116016  1
  O2-  O155  1  0.57195694  0.68194761  0.76455042  1
  O2-  O156  1  0.17833578  0.42711910  0.24376223  1
  O2-  O157  1  0.17637996  0.42682631  0.57535852  1
  O2-  O158  1  0.17871205  0.43038442  0.90121226  1
  O2-  O159  1  0.18130585  0.92979558  0.24323733  1
  O2-  O160  1  0.18101900  0.93160923  0.56549782  1
  O2-  O161  1  0.17595463  0.93020638  0.90320966  1
  O2-  O162  1  0.67885109  0.43234145  0.23294704  1
  O2-  O163  1  0.67960137  0.42813914  0.57861039  1
  O2-  O164  1  0.68233724  0.42071978  0.91022788  1
  O2-  O165  1  0.67840767  0.92906498  0.23483794  1
  O2-  O166  1  0.67775051  0.92831689  0.57729341  1
  O2-  O167  1  0.68298534  0.93382308  0.89857928  1
  O2-  O168  1  0.42695215  0.31900674  0.09123208  1
  O2-  O169  1  0.42692392  0.31864227  0.43121225  1
  O2-  O170  1  0.42819672  0.31886174  0.76806360  1
  O2-  O171  1  0.43054797  0.82068116  0.09744013  1
  O2-  O172  1  0.42126829  0.81496698  0.43008143  1
  O2-  O173  1  0.42710429  0.81779002  0.76628728  1
  O2-  O174  1  0.92908530  0.32078098  0.08955777  1
  O2-  O175  1  0.93031926  0.32194777  0.43043738  1
  O2-  O176  1  0.93283084  0.32040340  0.76810986  1
  O2-  O177  1  0.93124692  0.82166154  0.09124621  1
  O2-  O178  1  0.93487248  0.82318221  0.43179799  1
  O2-  O179  1  0.93156106  0.82341003  0.76867034  1
  O2-  O180  1  0.31564833  0.07931895  0.24412310  1
  O2-  O181  1  0.31785465  0.07951500  0.57784536  1
  O2-  O182  1  0.31720774  0.07945715  0.91181041  1
  O2-  O183  1  0.31462565  0.56508461  0.24286021  1
  O2-  O184  1  0.31958652  0.56853455  0.56764588  1
  O2-  O185  1  0.32303501  0.56979743  0.91456009  1
  O2-  O186  1  0.81866637  0.06874925  0.23458409  1
  O2-  O187  1  0.82084236  0.07125614  0.56923642  1
  O2-  O188  1  0.82277938  0.07859414  0.91177419  1
  O2-  O189  1  0.82790702  0.56802399  0.24367830  1
  O2-  O190  1  0.82307905  0.56797950  0.56696102  1
  O2-  O191  1  0.82494352  0.56861993  0.91042689  1
  O2-  O192  1  0.04797813  0.08461679  0.26754571  1
  O2-  O193  1  0.04507244  0.08379539  0.60491368  1
  O2-  O194  1  0.04460212  0.08770488  0.93686889  1
  O2-  O195  1  0.04880836  0.58264611  0.26872041  1
  O2-  O196  1  0.04499534  0.58058604  0.59923150  1
  O2-  O197  1  0.03487481  0.58872292  0.93912364  1
  O2-  O198  1  0.54469274  0.08509505  0.26961439  1
  O2-  O199  1  0.54532565  0.08092648  0.59472267  1
  O2-  O200  1  0.54514714  0.08986840  0.93753781  1
  O2-  O201  1  0.53342450  0.58487911  0.26291341  1
  O2-  O202  1  0.54248103  0.58007933  0.60261785  1
  O2-  O203  1  0.54863727  0.57865791  0.93015180  1
  O2-  O204  1  0.16317593  0.20715270  0.26508424  1
  O2-  O205  1  0.16500172  0.19936075  0.60310836  1
  O2-  O206  1  0.16240290  0.20983955  0.93495670  1
  O2-  O207  1  0.16481057  0.70417741  0.26589158  1
  O2-  O208  1  0.16818359  0.70750993  0.60040544  1
  O2-  O209  1  0.16456608  0.69770198  0.94468563  1
  O2-  O210  1  0.66383671  0.20657092  0.26784653  1
  O2-  O211  1  0.66988398  0.20700041  0.59762135  1
  O2-  O212  1  0.66276463  0.21143034  0.93870734  1
  O2-  O213  1  0.67400815  0.69445641  0.26704840  1
  O2-  O214  1  0.67178759  0.70193787  0.59829567  1
  O2-  O215  1  0.67374677  0.70845655  0.93192557  1
  O2-  O216  1  0.08412066  0.46341116  0.07014951  1
  O2-  O217  1  0.08410443  0.45287255  0.39398943  1
  O2-  O218  1  0.08485374  0.45470776  0.72863453  1
  O2-  O219  1  0.08490122  0.96487468  0.07191246  1
  O2-  O220  1  0.09152341  0.95964740  0.39548085  1
  O2-  O221  1  0.08756478  0.96331309  0.73618009  1
  O2-  O222  1  0.58529399  0.45232216  0.06023622  1
  O2-  O223  1  0.57961830  0.46065881  0.39935785  1
  O2-  O224  1  0.58444936  0.44965832  0.73029398  1
  O2-  O225  1  0.58341033  0.96235116  0.06526602  1
  O2-  O226  1  0.57688399  0.95352978  0.39963936  1
  O2-  O227  1  0.58176907  0.95535659  0.72699511  1
  O2-  O228  1  0.20638721  0.33204233  0.06922344  1
  O2-  O229  1  0.20404907  0.33385819  0.39486689  1
  O2-  O230  1  0.19834049  0.33082256  0.72632010  1
  O2-  O231  1  0.20319204  0.82940266  0.07146960  1
  O2-  O232  1  0.20717504  0.83391758  0.39266925  1
  O2-  O233  1  0.20989607  0.83260407  0.73418981  1
  O2-  O234  1  0.71098404  0.33919677  0.06598377  1
  O2-  O235  1  0.70738938  0.33479524  0.39976264  1
  O2-  O236  1  0.70817170  0.33567032  0.73060439  1
  O2-  O237  1  0.71356781  0.83508062  0.06581936  1
  O2-  O238  1  0.70385333  0.82462938  0.39648968  1
  O2-  O239  1  0.70215055  0.83437422  0.72880376  1
  O2-  O240  1  0.45886906  0.41516923  0.26214987  1
  O2-  O241  1  0.45518212  0.41890622  0.60137480  1
  O2-  O242  1  0.45270616  0.41330632  0.94039023  1
  O2-  O243  1  0.44135210  0.92674291  0.27056355  1
  O2-  O244  1  0.44296420  0.92204517  0.60300666  1
  O2-  O245  1  0.45171130  0.92343864  0.93369977  1
  O2-  O246  1  0.96006456  0.41553836  0.26077476  1
  O2-  O247  1  0.96109538  0.41502592  0.59764218  1
  O2-  O248  1  0.95967781  0.41413218  0.93952630  1
  O2-  O249  1  0.96555704  0.91642234  0.26346262  1
  O2-  O250  1  0.96163090  0.92100791  0.60216329  1
  O2-  O251  1  0.95565774  0.91889596  0.94300322  1
  O2-  O252  1  0.33134684  0.28795220  0.26456429  1
  O2-  O253  1  0.32884391  0.29338059  0.60039656  1
  O2-  O254  1  0.33503427  0.29136561  0.94006130  1
  O2-  O255  1  0.33293417  0.78436788  0.26204826  1
  O2-  O256  1  0.33135720  0.78445185  0.60070402  1
  O2-  O257  1  0.32702443  0.79202440  0.93707492  1
  O2-  O258  1  0.83068701  0.28993696  0.26304976  1
  O2-  O259  1  0.83402035  0.29057727  0.60097296  1
  O2-  O260  1  0.83699821  0.29636898  0.93714865  1
  O2-  O261  1  0.83570742  0.79094242  0.26224024  1
  O2-  O262  1  0.83114395  0.79707640  0.60120279  1
  O2-  O263  1  0.84164132  0.79355931  0.93792802  1
  O2-  O264  1  0.41707501  0.05561908  0.06117025  1
  O2-  O265  1  0.41437485  0.05655940  0.39486466  1
  O2-  O266  1  0.41915886  0.05492500  0.72627845  1
  O2-  O267  1  0.41888431  0.54485474  0.06419740  1
  O2-  O268  1  0.40870529  0.53802812  0.39387780  1
  O2-  O269  1  0.41712737  0.53742167  0.73884614  1
  O2-  O270  1  0.91689799  0.05436820  0.06297356  1
  O2-  O271  1  0.92235622  0.04484246  0.39825367  1
  O2-  O272  1  0.91626357  0.04248302  0.73836104  1
  O2-  O273  1  0.90962573  0.53877219  0.06659446  1
  O2-  O274  1  0.91805455  0.54094325  0.39495833  1
  O2-  O275  1  0.91713898  0.53752712  0.73502994  1
  O2-  O276  1  0.28783059  0.16323338  0.06687394  1
  O2-  O277  1  0.28408421  0.16228689  0.39880355  1
  O2-  O278  1  0.29219398  0.16551607  0.73289609  1
  O2-  O279  1  0.29473127  0.66185298  0.06839367  1
  O2-  O280  1  0.28842175  0.65959324  0.39446560  1
  O2-  O281  1  0.28700628  0.66189650  0.73903755  1
  O2-  O282  1  0.79422066  0.16972935  0.06284979  1
  O2-  O283  1  0.79193240  0.16838946  0.39899791  1
  O2-  O284  1  0.78920548  0.16780209  0.73711123  1
  O2-  O285  1  0.79859016  0.66468680  0.06149760  1
  O2-  O286  1  0.80620396  0.66707385  0.39216021  1
  O2-  O287  1  0.79332209  0.66906257  0.73513224  1
