# generated using pymatgen
data_Ca2Al2SiO7
_symmetry_space_group_name_H-M   'P 1'
_cell_length_a   15.45894461
_cell_length_b   15.45926419
_cell_length_c   15.28479148
_cell_angle_alpha   89.99085551
_cell_angle_beta   89.99925086
_cell_angle_gamma   89.98493464
_symmetry_Int_Tables_number   1
_chemical_formula_structural   Ca2Al2SiO7
_chemical_formula_sum   'Ca48 Al48 Si24 O168'
_cell_volume   3652.81903998
_cell_formula_units_Z   24
loop_
 _symmetry_equiv_pos_site_id
 _symmetry_equiv_pos_as_xyz
  1  'x, y, z'
loop_
 _atom_type_symbol
 _atom_type_oxidation_number
  Ca2+  2.0
  Al0+  0.0
  Si0+  0.0
  O2-  -2.0
loop_
 _atom_site_type_symbol
 _atom_site_label
 _atom_site_symmetry_multiplicity
 _atom_site_fract_x
 _atom_site_fract_y
 _atom_site_fract_z
 _atom_site_occupancy
  Ca2+  Ca0  1  0.16078664  0.07711098  0.17111538  1
  Ca2+  Ca1  1  0.16497086  0.08076151  0.51174534  1
  Ca2+  Ca2  1  0.16119124  0.07066613  0.83196285  1
  Ca2+  Ca3  1  0.17023483  0.59355167  0.16743576  1
  Ca2+  Ca4  1  0.16812182  0.58903722  0.50805032  1
  Ca2+  Ca5  1  0.17703249  0.59502443  0.83756936  1
  Ca2+  Ca6  1  0.67089367  0.08334125  0.17436008  1
  Ca2+  Ca7  1  0.68209531  0.07663437  0.50968756  1
  Ca2+  Ca8  1  0.66750673  0.07828696  0.83237176  1
  Ca2+  Ca9  1  0.66979371  0.58386938  0.17334556  1
  Ca2+  Ca10  1  0.66478846  0.58049185  0.50043532  1
  Ca2+  Ca11  1  0.67501837  0.58462225  0.84123189  1
  Ca2+  Ca12  1  0.07900533  0.32821729  0.16777704  1
  Ca2+  Ca13  1  0.07075511  0.32141225  0.49714732  1
  Ca2+  Ca14  1  0.07787368  0.32698448  0.82111611  1
  Ca2+  Ca15  1  0.07812746  0.82795449  0.16476121  1
  Ca2+  Ca16  1  0.07925919  0.83079916  0.49893012  1
  Ca2+  Ca17  1  0.08551133  0.82731028  0.82549248  1
  Ca2+  Ca18  1  0.58915481  0.32929378  0.16359124  1
  Ca2+  Ca19  1  0.57861790  0.33681703  0.49819189  1
  Ca2+  Ca20  1  0.57781975  0.32694368  0.82887815  1
  Ca2+  Ca21  1  0.58491137  0.82042236  0.16193652  1
  Ca2+  Ca22  1  0.57987778  0.83414106  0.50030489  1
  Ca2+  Ca23  1  0.57918815  0.82914018  0.82528211  1
  Ca2+  Ca24  1  0.33294306  0.42377393  0.16810339  1
  Ca2+  Ca25  1  0.33098852  0.42395567  0.51080747  1
  Ca2+  Ca26  1  0.33457813  0.42538393  0.83309769  1
  Ca2+  Ca27  1  0.32541683  0.91414740  0.16644533  1
  Ca2+  Ca28  1  0.32672935  0.92241266  0.51534794  1
  Ca2+  Ca29  1  0.32172477  0.91149522  0.83196092  1
  Ca2+  Ca30  1  0.82934777  0.42224443  0.17442265  1
  Ca2+  Ca31  1  0.83128765  0.40905487  0.50224319  1
  Ca2+  Ca32  1  0.83906886  0.42376037  0.83799241  1
  Ca2+  Ca33  1  0.83550618  0.92162516  0.17557174  1
  Ca2+  Ca34  1  0.83711440  0.92031579  0.50822035  1
  Ca2+  Ca35  1  0.83591208  0.91796940  0.82918370  1
  Ca2+  Ca36  1  0.42561232  0.17044145  0.15762746  1
  Ca2+  Ca37  1  0.40915533  0.17247528  0.50075974  1
  Ca2+  Ca38  1  0.41948028  0.16757280  0.82361121  1
  Ca2+  Ca39  1  0.42794616  0.66109087  0.16117039  1
  Ca2+  Ca40  1  0.41735354  0.67331892  0.50040903  1
  Ca2+  Ca41  1  0.41792260  0.66705091  0.82735030  1
  Ca2+  Ca42  1  0.91324597  0.16972127  0.17105806  1
  Ca2+  Ca43  1  0.92186605  0.16304981  0.49564177  1
  Ca2+  Ca44  1  0.92074060  0.17240429  0.82061677  1
  Ca2+  Ca45  1  0.92467959  0.66711508  0.16027589  1
  Ca2+  Ca46  1  0.92699479  0.67938486  0.49504601  1
  Ca2+  Ca47  1  0.92816600  0.66873409  0.82476014  1
  Al0+  Al48  1  -0.00093478  0.00084298  0.00589417  1
  Al0+  Al49  1  0.00093032  -0.00076683  0.33001124  1
  Al0+  Al50  1  -0.00035396  -0.00074842  0.67057914  1
  Al0+  Al51  1  0.00067634  0.50049961  0.00143439  1
  Al0+  Al52  1  0.00094033  0.49934361  0.32775515  1
  Al0+  Al53  1  0.00013771  0.49800626  0.65820430  1
  Al0+  Al54  1  0.50029870  0.00025799  -0.00261325  1
  Al0+  Al55  1  0.49818825  0.00125840  0.33286811  1
  Al0+  Al56  1  0.50211978  -0.00121798  0.66877709  1
  Al0+  Al57  1  0.49992005  0.49874922  -0.00020668  1
  Al0+  Al58  1  0.49966235  0.50095899  0.33411219  1
  Al0+  Al59  1  0.50042567  0.49774896  0.66789198  1
  Al0+  Al60  1  0.24951215  0.24993180  0.00034650  1
  Al0+  Al61  1  0.24968230  0.25235377  0.32757687  1
  Al0+  Al62  1  0.25102466  0.25232153  0.66326844  1
  Al0+  Al63  1  0.24971112  0.75071747  0.00868840  1
  Al0+  Al64  1  0.25060746  0.75220645  0.33179387  1
  Al0+  Al65  1  0.25451836  0.75011810  0.66646841  1
  Al0+  Al66  1  0.74942974  0.24954078  -0.00545648  1
  Al0+  Al67  1  0.74905597  0.25004405  0.33934981  1
  Al0+  Al68  1  0.74739782  0.25001585  0.66935397  1
  Al0+  Al69  1  0.75020002  0.75119912  0.00067867  1
  Al0+  Al70  1  0.74818771  0.74997353  0.32796761  1
  Al0+  Al71  1  0.75113926  0.74727089  0.66695671  1
  Al0+  Al72  1  0.82172820  0.07139856  0.68360025  1
  Al0+  Al73  1  0.17907978  0.92882782  0.68076541  1
  Al0+  Al74  1  0.92790342  0.82017975  0.65352974  1
  Al0+  Al75  1  0.67957136  0.92537226  0.68210862  1
  Al0+  Al76  1  0.56818624  0.67934292  0.32060357  1
  Al0+  Al77  1  0.32102467  0.57080732  0.67940791  1
  Al0+  Al78  1  0.92547253  0.32165964  0.65212219  1
  Al0+  Al79  1  0.32103037  0.56964020  0.01524096  1
  Al0+  Al80  1  0.57164977  0.17843520  0.98548559  1
  Al0+  Al81  1  0.07066138  0.68018514  0.98556786  1
  Al0+  Al82  1  0.57222147  0.67760375  0.98544639  1
  Al0+  Al83  1  0.43122449  0.82143341  0.65477771  1
  Al0+  Al84  1  0.92532369  0.31973508  0.31684926  1
  Al0+  Al85  1  0.07289499  0.67871467  0.31681063  1
  Al0+  Al86  1  0.67934176  0.43051595  0.34769365  1
  Al0+  Al87  1  0.82196237  0.57219149  0.01342194  1
  Al0+  Al88  1  0.07048829  0.17802896  0.65445195  1
  Al0+  Al89  1  0.17851916  0.93014051  0.01697128  1
  Al0+  Al90  1  0.81999499  0.06841978  0.34697185  1
  Al0+  Al91  1  0.07442270  0.67929081  0.65282817  1
  Al0+  Al92  1  0.32182620  0.07478319  0.68063071  1
  Al0+  Al93  1  0.07193854  0.17871915  0.31659693  1
  Al0+  Al94  1  0.92847228  0.82127531  0.31755409  1
  Al0+  Al95  1  0.43030155  0.32073272  0.65292366  1
  Si0+  Si96  1  0.81889139  0.07197740  0.01615029  1
  Si0+  Si97  1  0.32284888  0.07305425  0.01709670  1
  Si0+  Si98  1  0.31963740  0.57033015  0.34885484  1
  Si0+  Si99  1  0.57170279  0.17669216  0.64787435  1
  Si0+  Si100  1  0.07090024  0.17785389  0.98517815  1
  Si0+  Si101  1  0.42797637  0.82487518  0.31553872  1
  Si0+  Si102  1  0.42640342  0.32134724  0.98290131  1
  Si0+  Si103  1  0.82342991  0.57362058  0.35047410  1
  Si0+  Si104  1  0.92782454  0.82461168  0.98300829  1
  Si0+  Si105  1  0.32221774  0.07393028  0.34653379  1
  Si0+  Si106  1  0.17844280  0.42721586  0.34851316  1
  Si0+  Si107  1  0.17724691  0.42529287  0.01777942  1
  Si0+  Si108  1  0.42858375  0.82065667  0.98422765  1
  Si0+  Si109  1  0.67501470  0.92586341  0.34871269  1
  Si0+  Si110  1  0.92981725  0.32024491  0.98574803  1
  Si0+  Si111  1  0.18144340  0.93090275  0.34896930  1
  Si0+  Si112  1  0.42899012  0.32248694  0.31688322  1
  Si0+  Si113  1  0.67694514  0.92953451  0.01641847  1
  Si0+  Si114  1  0.82211818  0.56853351  0.67926077  1
  Si0+  Si115  1  0.67747251  0.42896554  0.68366766  1
  Si0+  Si116  1  0.68005519  0.42766015  0.01505224  1
  Si0+  Si117  1  0.17702564  0.42964852  0.68127048  1
  Si0+  Si118  1  0.57311385  0.67615701  0.65096743  1
  Si0+  Si119  1  0.56931756  0.17975191  0.32097142  1
  O2-  O120  1  0.25303760  0.00674640  0.06314595  1
  O2-  O121  1  0.25114324  0.00409820  0.38906002  1
  O2-  O122  1  0.24979536  0.00316150  0.73100288  1
  O2-  O123  1  0.24538447  0.49523192  0.06194307  1
  O2-  O124  1  0.24433944  0.50368313  0.39011961  1
  O2-  O125  1  0.24209032  0.50093332  0.72694535  1
  O2-  O126  1  0.74836376  0.00036633  0.05855276  1
  O2-  O127  1  0.74728919  -0.00924852  0.39161467  1
  O2-  O128  1  0.75075217  -0.00223980  0.73367147  1
  O2-  O129  1  0.74452385  0.49947686  0.06003553  1
  O2-  O130  1  0.75606273  0.50314423  0.39510594  1
  O2-  O131  1  0.75256893  0.49637871  0.72362630  1
  O2-  O132  1  -0.00162853  0.24919695  0.26566785  1
  O2-  O133  1  -0.00661426  0.24483948  0.60459181  1
  O2-  O134  1  0.00238175  0.25108336  0.94378249  1
  O2-  O135  1  -0.00355139  0.74583787  0.26654057  1
  O2-  O136  1  0.00324913  0.75199880  0.60369961  1
  O2-  O137  1  -0.00501340  0.75407457  0.93990395  1
  O2-  O138  1  0.49889243  0.25005666  0.27557369  1
  O2-  O139  1  0.50045542  0.24296079  0.60359613  1
  O2-  O140  1  0.49348659  0.25028686  0.94061770  1
  O2-  O141  1  0.49726336  0.75677513  0.27185471  1
  O2-  O142  1  0.50700995  0.74772575  0.60788043  1
  O2-  O143  1  0.49663587  0.75133817  0.93998343  1
  O2-  O144  1  0.06982968  0.17852743  0.09022489  1
  O2-  O145  1  0.07536956  0.17971343  0.42932714  1
  O2-  O146  1  0.07021133  0.18188484  0.76894238  1
  O2-  O147  1  0.06899654  0.68191914  0.09851657  1
  O2-  O148  1  0.07651052  0.68258870  0.42987964  1
  O2-  O149  1  0.07266500  0.67889796  0.76672392  1
  O2-  O150  1  0.57210177  0.18111327  0.09959393  1
  O2-  O151  1  0.56548049  0.17921192  0.42528475  1
  O2-  O152  1  0.57210928  0.18036823  0.75382925  1
  O2-  O153  1  0.57064737  0.67849144  0.09883386  1
  O2-  O154  1  0.56444124  0.67741486  0.43342972  1
  O2-  O155  1  0.57247580  0.67484050  0.75671836  1
  O2-  O156  1  0.18356788  0.42332844  0.24331466  1
  O2-  O157  1  0.18005889  0.42982700  0.57554384  1
  O2-  O158  1  0.17793683  0.42123215  0.91262545  1
  O2-  O159  1  0.18416636  0.93088876  0.24346917  1
  O2-  O160  1  0.18178080  0.92846731  0.56685554  1
  O2-  O161  1  0.17835862  0.93026220  0.90455335  1
  O2-  O162  1  0.67789688  0.43109480  0.23423131  1
  O2-  O163  1  0.67382216  0.43139918  0.57858271  1
  O2-  O164  1  0.68277828  0.42624027  0.90950496  1
  O2-  O165  1  0.67133941  0.92973051  0.24269601  1
  O2-  O166  1  0.67947148  0.92723804  0.56818030  1
  O2-  O167  1  0.67574788  0.92962876  0.91197154  1
  O2-  O168  1  0.42676473  0.32088850  0.08914555  1
  O2-  O169  1  0.42825474  0.32296406  0.42164911  1
  O2-  O170  1  0.43491890  0.32351920  0.76592293  1
  O2-  O171  1  0.43181066  0.82170741  0.09039832  1
  O2-  O172  1  0.42752080  0.82563434  0.42083044  1
  O2-  O173  1  0.43021911  0.81731026  0.76786529  1
  O2-  O174  1  0.92723656  0.31783899  0.09058699  1
  O2-  O175  1  0.92603508  0.31632087  0.42964729  1
  O2-  O176  1  0.92976317  0.32438011  0.76659202  1
  O2-  O177  1  0.92865042  0.82585801  0.08868607  1
  O2-  O178  1  0.93097918  0.82210499  0.43067226  1
  O2-  O179  1  0.92634457  0.81510342  0.76732892  1
  O2-  O180  1  0.32526511  0.07261954  0.24122608  1
  O2-  O181  1  0.31975381  0.07290509  0.56619366  1
  O2-  O182  1  0.32301122  0.07436688  0.91236626  1
  O2-  O183  1  0.32190768  0.56743193  0.24353816  1
  O2-  O184  1  0.32325018  0.56845234  0.56587616  1
  O2-  O185  1  0.32147637  0.56852010  0.90247724  1
  O2-  O186  1  0.81452956  0.06968213  0.23292655  1
  O2-  O187  1  0.81988308  0.07173096  0.57002671  1
  O2-  O188  1  0.81948414  0.07278806  0.91172924  1
  O2-  O189  1  0.81998203  0.57228250  0.24453517  1
  O2-  O190  1  0.81925103  0.56908018  0.57442952  1
  O2-  O191  1  0.82268631  0.56849991  0.89995359  1
  O2-  O192  1  0.04390330  0.08093043  0.26317544  1
  O2-  O193  1  0.04680206  0.07836208  0.60365031  1
  O2-  O194  1  0.03956030  0.08657338  0.93983411  1
  O2-  O195  1  0.05257637  0.57797743  0.26520402  1
  O2-  O196  1  0.04583475  0.58167944  0.59885648  1
  O2-  O197  1  0.04352752  0.58123737  0.93424076  1
  O2-  O198  1  0.54211321  0.08820024  0.27104001  1
  O2-  O199  1  0.55167666  0.08184604  0.60377603  1
  O2-  O200  1  0.54333140  0.08144818  0.93176145  1
  O2-  O201  1  0.53360023  0.58418408  0.26500146  1
  O2-  O202  1  0.54347966  0.58398296  0.60485396  1
  O2-  O203  1  0.54432214  0.57941058  0.93349804  1
  O2-  O204  1  0.16936477  0.21022853  0.26057590  1
  O2-  O205  1  0.16717018  0.20958037  0.60059172  1
  O2-  O206  1  0.16447508  0.20216015  0.94024713  1
  O2-  O207  1  0.17068268  0.71221037  0.26393724  1
  O2-  O208  1  0.17320613  0.70571000  0.60102404  1
  O2-  O209  1  0.16936246  0.71252765  0.93725271  1
  O2-  O210  1  0.66033289  0.20895881  0.27355571  1
  O2-  O211  1  0.66356085  0.20752161  0.60211192  1
  O2-  O212  1  0.66572367  0.21214606  0.92858182  1
  O2-  O213  1  0.66489942  0.70554543  0.26452476  1
  O2-  O214  1  0.66677799  0.69845857  0.60443486  1
  O2-  O215  1  0.66892330  0.70942834  0.93257228  1
  O2-  O216  1  0.08375590  0.45000514  0.06410040  1
  O2-  O217  1  0.08394539  0.44851275  0.39258587  1
  O2-  O218  1  0.08143180  0.45013026  0.72552899  1
  O2-  O219  1  0.08259653  0.96286205  0.07259524  1
  O2-  O220  1  0.08880260  0.95675672  0.39377137  1
  O2-  O221  1  0.08139697  0.95379267  0.73656012  1
  O2-  O222  1  0.58433545  0.44693450  0.05930056  1
  O2-  O223  1  0.58274360  0.46361093  0.40204300  1
  O2-  O224  1  0.58843801  0.46051158  0.73415230  1
  O2-  O225  1  0.58526045  0.95791852  0.06471502  1
  O2-  O226  1  0.58194902  0.95535551  0.39484410  1
  O2-  O227  1  0.58195288  0.95430646  0.73665826  1
  O2-  O228  1  0.20488845  0.33243154  0.06659233  1
  O2-  O229  1  0.21283680  0.33761943  0.39633698  1
  O2-  O230  1  0.20703283  0.33807339  0.72882835  1
  O2-  O231  1  0.21209380  0.83639737  0.07481677  1
  O2-  O232  1  0.21173387  0.83970132  0.39594913  1
  O2-  O233  1  0.21386025  0.83239998  0.73430220  1
  O2-  O234  1  0.70986615  0.33472165  0.06153041  1
  O2-  O235  1  0.70546127  0.33390138  0.40369809  1
  O2-  O236  1  0.69915846  0.33597370  0.73115973  1
  O2-  O237  1  0.70467879  0.83787328  0.06451256  1
  O2-  O238  1  0.69478012  0.83014052  0.39202118  1
  O2-  O239  1  0.70607899  0.82591552  0.73514015  1
  O2-  O240  1  0.45941819  0.41302474  0.26885869  1
  O2-  O241  1  0.46629897  0.41524881  0.59689164  1
  O2-  O242  1  0.45467087  0.41362687  0.93666474  1
  O2-  O243  1  0.45144334  0.91898834  0.26823253  1
  O2-  O244  1  0.46029169  0.91791142  0.59917950  1
  O2-  O245  1  0.45352818  0.91429028  0.93873542  1
  O2-  O246  1  0.95261248  0.41864956  0.26421567  1
  O2-  O247  1  0.95585699  0.41659800  0.59409330  1
  O2-  O248  1  0.95680616  0.41248705  0.93935881  1
  O2-  O249  1  0.96096786  0.91726154  0.26204517  1
  O2-  O250  1  0.95218199  0.92024679  0.60424372  1
  O2-  O251  1  0.95516774  0.91884370  0.93913424  1
  O2-  O252  1  0.33851723  0.29588070  0.26645869  1
  O2-  O253  1  0.33364746  0.29594704  0.59628154  1
  O2-  O254  1  0.33188233  0.29858223  0.93783460  1
  O2-  O255  1  0.33559073  0.79723085  0.26869290  1
  O2-  O256  1  0.33774516  0.78837486  0.59678696  1
  O2-  O257  1  0.33421214  0.79404655  0.94228893  1
  O2-  O258  1  0.82636939  0.28940343  0.26465990  1
  O2-  O259  1  0.82384422  0.29992338  0.60414440  1
  O2-  O260  1  0.83915728  0.29176910  0.93664270  1
  O2-  O261  1  0.82753548  0.80033345  0.26575740  1
  O2-  O262  1  0.83101662  0.78839114  0.59885801  1
  O2-  O263  1  0.83278568  0.80228481  0.93964899  1
  O2-  O264  1  0.41661093  0.04545336  0.06377865  1
  O2-  O265  1  0.41387323  0.04733119  0.39518440  1
  O2-  O266  1  0.42142596  0.04820210  0.73114986  1
  O2-  O267  1  0.41753096  0.53569585  0.06996289  1
  O2-  O268  1  0.40924129  0.53761842  0.39674345  1
  O2-  O269  1  0.41608278  0.53465102  0.73394812  1
  O2-  O270  1  0.91031526  0.04565300  0.06532751  1
  O2-  O271  1  0.91870258  0.04015885  0.39712891  1
  O2-  O272  1  0.91945499  0.04537661  0.73864272  1
  O2-  O273  1  0.91710720  0.53853485  0.06882152  1
  O2-  O274  1  0.91913551  0.55076341  0.39261733  1
  O2-  O275  1  0.91449725  0.53992091  0.72584226  1
  O2-  O276  1  0.29986461  0.16795650  0.06337248  1
  O2-  O277  1  0.29647126  0.16790516  0.39049752  1
  O2-  O278  1  0.29809541  0.17511764  0.73213195  1
  O2-  O279  1  0.29250952  0.66530538  0.07225712  1
  O2-  O280  1  0.29653103  0.66500218  0.39293656  1
  O2-  O281  1  0.29563018  0.66736625  0.73480969  1
  O2-  O282  1  0.78839682  0.16404089  0.06234203  1
  O2-  O283  1  0.78633417  0.16301107  0.40186805  1
  O2-  O284  1  0.78994357  0.16971537  0.73683610  1
  O2-  O285  1  0.79303954  0.66954447  0.06721293  1
  O2-  O286  1  0.79370733  0.66688009  0.39494171  1
  O2-  O287  1  0.79355060  0.65849126  0.72938258  1
