# generated using pymatgen
data_Ca2Al2SiO7
_symmetry_space_group_name_H-M   'P 1'
_cell_length_a   15.46549420
_cell_length_b   15.46453899
_cell_length_c   15.28859088
_cell_angle_alpha   89.99759080
_cell_angle_beta   90.01384443
_cell_angle_gamma   90.02294854
_symmetry_Int_Tables_number   1
_chemical_formula_structural   Ca2Al2SiO7
_chemical_formula_sum   'Ca48 Al48 Si24 O168'
_cell_volume   3656.52200845
_cell_formula_units_Z   24
loop_
 _symmetry_equiv_pos_site_id
 _symmetry_equiv_pos_as_xyz
  1  'x, y, z'
loop_
 _atom_type_symbol
 _atom_type_oxidation_number
  Ca2+  2.0
  Al0+  0.0
  Si0+  0.0
  O2-  -2.0
loop_
 _atom_site_type_symbol
 _atom_site_label
 _atom_site_symmetry_multiplicity
 _atom_site_fract_x
 _atom_site_fract_y
 _atom_site_fract_z
 _atom_site_occupancy
  Ca2+  Ca0  1  0.16835172  0.07862861  0.17396050  1
  Ca2+  Ca1  1  0.17367315  0.08242949  0.50314675  1
  Ca2+  Ca2  1  0.16435191  0.06970259  0.83994039  1
  Ca2+  Ca3  1  0.15762977  0.57660234  0.16804054  1
  Ca2+  Ca4  1  0.16221733  0.58063504  0.49619435  1
  Ca2+  Ca5  1  0.17448074  0.58330621  0.84792224  1
  Ca2+  Ca6  1  0.66650955  0.07957218  0.16798328  1
  Ca2+  Ca7  1  0.66012798  0.07872086  0.49518772  1
  Ca2+  Ca8  1  0.67078207  0.07723109  0.84776776  1
  Ca2+  Ca9  1  0.68016369  0.57395934  0.17414547  1
  Ca2+  Ca10  1  0.67500923  0.57932233  0.50940687  1
  Ca2+  Ca11  1  0.67386205  0.57828538  0.84159271  1
  Ca2+  Ca12  1  0.08280041  0.33188824  0.16009820  1
  Ca2+  Ca13  1  0.08205661  0.32982150  0.48626756  1
  Ca2+  Ca14  1  0.07389708  0.34394636  0.83721257  1
  Ca2+  Ca15  1  0.07859371  0.82201059  0.15522792  1
  Ca2+  Ca16  1  0.08216272  0.82728697  0.49266846  1
  Ca2+  Ca17  1  0.08099511  0.83352109  0.83528116  1
  Ca2+  Ca18  1  0.59658492  0.32423762  0.16091857  1
  Ca2+  Ca19  1  0.58737527  0.33107518  0.49242858  1
  Ca2+  Ca20  1  0.59490934  0.33107050  0.83297376  1
  Ca2+  Ca21  1  0.57884109  0.84298122  0.16359492  1
  Ca2+  Ca22  1  0.58168679  0.82825255  0.49051016  1
  Ca2+  Ca23  1  0.58828346  0.82511229  0.83103504  1
  Ca2+  Ca24  1  0.32316031  0.42169017  0.16591010  1
  Ca2+  Ca25  1  0.32498515  0.41192281  0.49846234  1
  Ca2+  Ca26  1  0.32663711  0.42477237  0.84364226  1
  Ca2+  Ca27  1  0.32930610  0.91901391  0.17182039  1
  Ca2+  Ca28  1  0.33228572  0.91907004  0.49752323  1
  Ca2+  Ca29  1  0.32001991  0.91168183  0.83830599  1
  Ca2+  Ca30  1  0.83193451  0.42165579  0.16817058  1
  Ca2+  Ca31  1  0.82456367  0.42708281  0.50146429  1
  Ca2+  Ca32  1  0.82648847  0.42583095  0.84214430  1
  Ca2+  Ca33  1  0.82590340  0.91554778  0.16503461  1
  Ca2+  Ca34  1  0.82713809  0.91546181  0.49911132  1
  Ca2+  Ca35  1  0.83028386  0.92292227  0.84775718  1
  Ca2+  Ca36  1  0.42598963  0.16368928  0.16471123  1
  Ca2+  Ca37  1  0.42076563  0.16766838  0.48669563  1
  Ca2+  Ca38  1  0.42339183  0.16871669  0.83509825  1
  Ca2+  Ca39  1  0.41464339  0.67086510  0.16259673  1
  Ca2+  Ca40  1  0.42450330  0.67356955  0.49445765  1
  Ca2+  Ca41  1  0.42353703  0.66199618  0.82986446  1
  Ca2+  Ca42  1  0.91605085  0.17345618  0.15747080  1
  Ca2+  Ca43  1  0.92605368  0.17012719  0.49170185  1
  Ca2+  Ca44  1  0.90859508  0.17463807  0.83651192  1
  Ca2+  Ca45  1  0.92163681  0.66354168  0.15886916  1
  Ca2+  Ca46  1  0.91821397  0.66150842  0.49349175  1
  Ca2+  Ca47  1  0.91424733  0.66575498  0.83616813  1
  Al0+  Al48  1  0.00005032  -0.00104749  0.00515322  1
  Al0+  Al49  1  -0.00061496  -0.00104364  0.33026069  1
  Al0+  Al50  1  0.00055683  -0.00066111  0.66819488  1
  Al0+  Al51  1  0.00111827  0.49898460  -0.00359830  1
  Al0+  Al52  1  -0.00028949  0.49958168  0.33859181  1
  Al0+  Al53  1  -0.00169727  0.50041899  0.66709819  1
  Al0+  Al54  1  0.49882037  0.00036901  -0.00632655  1
  Al0+  Al55  1  0.49891607  0.00086413  0.33430923  1
  Al0+  Al56  1  0.49851676  0.00136564  0.66723389  1
  Al0+  Al57  1  0.49820132  0.49898179  0.00832202  1
  Al0+  Al58  1  0.49784926  0.50004694  0.33543948  1
  Al0+  Al59  1  0.49891538  0.49756864  0.66250895  1
  Al0+  Al60  1  0.25276195  0.24994402  -0.00071287  1
  Al0+  Al61  1  0.25117849  0.24915485  0.33613628  1
  Al0+  Al62  1  0.25153954  0.24880029  0.66866822  1
  Al0+  Al63  1  0.25128377  0.75178084  0.00285658  1
  Al0+  Al64  1  0.25000940  0.74924697  0.32604288  1
  Al0+  Al65  1  0.24913898  0.75058264  0.66829086  1
  Al0+  Al66  1  0.75202194  0.24794049  -0.00424364  1
  Al0+  Al67  1  0.75128175  0.24978033  0.33474595  1
  Al0+  Al68  1  0.75137044  0.25017530  0.66419449  1
  Al0+  Al69  1  0.74901697  0.75065286  0.00400765  1
  Al0+  Al70  1  0.74996476  0.75084669  0.34122908  1
  Al0+  Al71  1  0.75138414  0.75071742  0.66463956  1
  Al0+  Al72  1  0.82168611  0.07154851  0.01490128  1
  Al0+  Al73  1  0.82093938  0.57099515  0.34970085  1
  Al0+  Al74  1  0.57023937  0.18034007  0.98504483  1
  Al0+  Al75  1  0.67741453  0.42689861  0.34883975  1
  Al0+  Al76  1  0.82141184  0.57187050  0.01526035  1
  Al0+  Al77  1  0.67644535  0.92834983  0.01362388  1
  Al0+  Al78  1  0.57077314  0.18174818  0.31946888  1
  Al0+  Al79  1  0.92721919  0.82113621  0.98507529  1
  Al0+  Al80  1  0.07135829  0.67927613  0.98316816  1
  Al0+  Al81  1  0.17979987  0.92956764  0.67932391  1
  Al0+  Al82  1  0.82155868  0.57294764  0.68497270  1
  Al0+  Al83  1  0.31926718  0.06907506  0.34570121  1
  Al0+  Al84  1  0.17835603  0.42866649  0.01344238  1
  Al0+  Al85  1  0.67862602  0.93162593  0.34774936  1
  Al0+  Al86  1  0.93042932  0.32019237  0.98597994  1
  Al0+  Al87  1  0.06832439  0.67903773  0.32013815  1
  Al0+  Al88  1  0.67886758  0.42737476  0.01490544  1
  Al0+  Al89  1  0.07361136  0.17785545  0.32052619  1
  Al0+  Al90  1  0.57140680  0.67933488  0.65385938  1
  Al0+  Al91  1  0.18094362  0.43042794  0.34672011  1
  Al0+  Al92  1  0.67763188  0.42801694  0.68227710  1
  Al0+  Al93  1  0.17868525  0.92970245  0.01584183  1
  Al0+  Al94  1  0.32241498  0.57327880  0.01563972  1
  Al0+  Al95  1  0.43134007  0.82034732  0.31932516  1
  Si0+  Si96  1  0.32204530  0.57556391  0.35223890  1
  Si0+  Si97  1  0.32226665  0.07156962  0.01528941  1
  Si0+  Si98  1  0.93049027  0.31991277  0.31760541  1
  Si0+  Si99  1  0.07080605  0.17808548  0.65298283  1
  Si0+  Si100  1  0.42626444  0.82202772  0.65030875  1
  Si0+  Si101  1  0.67756374  0.93019486  0.68030250  1
  Si0+  Si102  1  0.17876870  0.42702540  0.68043970  1
  Si0+  Si103  1  0.42744293  0.32351091  0.98242428  1
  Si0+  Si104  1  0.17673849  0.92598166  0.34878660  1
  Si0+  Si105  1  0.57146722  0.17868219  0.65031590  1
  Si0+  Si106  1  0.42668470  0.31934467  0.65004720  1
  Si0+  Si107  1  0.07226754  0.67905220  0.65158493  1
  Si0+  Si108  1  0.07552065  0.17702692  0.98303528  1
  Si0+  Si109  1  0.82135700  0.06966342  0.67953169  1
  Si0+  Si110  1  0.93024418  0.82329193  0.65077369  1
  Si0+  Si111  1  0.93003231  0.32145414  0.64904573  1
  Si0+  Si112  1  0.56969142  0.67739213  0.98863989  1
  Si0+  Si113  1  0.92483915  0.82309110  0.31682756  1
  Si0+  Si114  1  0.32321977  0.07362517  0.68581649  1
  Si0+  Si115  1  0.82419163  0.07261831  0.35131810  1
  Si0+  Si116  1  0.57364586  0.67715549  0.31673849  1
  Si0+  Si117  1  0.31937475  0.57025916  0.67839586  1
  Si0+  Si118  1  0.42924423  0.82197567  0.98288074  1
  Si0+  Si119  1  0.42626523  0.32376839  0.31550617  1
  O2-  O120  1  0.25017170  0.00792327  0.06038666  1
  O2-  O121  1  0.24214900  -0.00270183  0.39418255  1
  O2-  O122  1  0.25534043  0.00327007  0.72736585  1
  O2-  O123  1  0.24605064  0.50462295  0.06303373  1
  O2-  O124  1  0.25495745  0.50483602  0.39642695  1
  O2-  O125  1  0.24739948  0.50053664  0.72103314  1
  O2-  O126  1  0.74953338  -0.00081520  0.06292867  1
  O2-  O127  1  0.75518791  0.00423910  0.39614142  1
  O2-  O128  1  0.74686882  0.00251906  0.72175868  1
  O2-  O129  1  0.75000695  0.49946306  0.06453705  1
  O2-  O130  1  0.74346373  0.50406183  0.39910374  1
  O2-  O131  1  0.74643135  0.50271692  0.73200673  1
  O2-  O132  1  -0.00213710  0.25007271  0.27356947  1
  O2-  O133  1  0.00430759  0.25230030  0.60853750  1
  O2-  O134  1  0.00730831  0.24613914  0.93798138  1
  O2-  O135  1  -0.00631407  0.75394221  0.27509588  1
  O2-  O136  1  -0.00104719  0.74868601  0.61027584  1
  O2-  O137  1  -0.00155610  0.74987605  0.93153213  1
  O2-  O138  1  0.50183089  0.26201703  0.27290719  1
  O2-  O139  1  0.50008099  0.24984401  0.60896995  1
  O2-  O140  1  0.49941409  0.25855694  0.93684331  1
  O2-  O141  1  0.50525063  0.74551031  0.27151388  1
  O2-  O142  1  0.49861148  0.75695260  0.60701086  1
  O2-  O143  1  0.49959989  0.74900905  0.94360686  1
  O2-  O144  1  0.07687295  0.17924081  0.08845996  1
  O2-  O145  1  0.07216103  0.17990177  0.43496262  1
  O2-  O146  1  0.06905461  0.17651628  0.75756887  1
  O2-  O147  1  0.07025924  0.67998947  0.09655018  1
  O2-  O148  1  0.06884492  0.68148767  0.43455785  1
  O2-  O149  1  0.07652464  0.67943728  0.75577829  1
  O2-  O150  1  0.56742655  0.17808064  0.09771359  1
  O2-  O151  1  0.56710132  0.18078052  0.43357270  1
  O2-  O152  1  0.57083311  0.17682245  0.75507940  1
  O2-  O153  1  0.56733180  0.67813284  0.09328062  1
  O2-  O154  1  0.57093679  0.67993115  0.42295274  1
  O2-  O155  1  0.56858764  0.68052268  0.76726531  1
  O2-  O156  1  0.18077628  0.43006396  0.23468964  1
  O2-  O157  1  0.18030969  0.42455492  0.57531271  1
  O2-  O158  1  0.18222308  0.42911114  0.89869528  1
  O2-  O159  1  0.17909677  0.92697822  0.24377651  1
  O2-  O160  1  0.17992400  0.93115355  0.56624122  1
  O2-  O161  1  0.18118538  0.93008384  0.90191380  1
  O2-  O162  1  0.68259459  0.42526070  0.23600566  1
  O2-  O163  1  0.68009369  0.42680293  0.56893786  1
  O2-  O164  1  0.67906889  0.43071427  0.90099502  1
  O2-  O165  1  0.67794934  0.93370547  0.23563532  1
  O2-  O166  1  0.67697281  0.93191720  0.57516823  1
  O2-  O167  1  0.67618626  0.92984282  0.89889487  1
  O2-  O168  1  0.42287088  0.32034802  0.08723232  1
  O2-  O169  1  0.42331056  0.31929081  0.42189157  1
  O2-  O170  1  0.42127968  0.31781971  0.75453161  1
  O2-  O171  1  0.42999847  0.82575419  0.08768165  1
  O2-  O172  1  0.43202509  0.81886307  0.43325763  1
  O2-  O173  1  0.42438252  0.82037100  0.75575409  1
  O2-  O174  1  0.93096507  0.31826394  0.09886127  1
  O2-  O175  1  0.93300859  0.31766989  0.42414865  1
  O2-  O176  1  0.92960054  0.32056774  0.75383850  1
  O2-  O177  1  0.92860142  0.82051774  0.09835244  1
  O2-  O178  1  0.92749019  0.82549965  0.42336879  1
  O2-  O179  1  0.93080288  0.82810838  0.75504382  1
  O2-  O180  1  0.31969652  0.06721615  0.23308915  1
  O2-  O181  1  0.32343511  0.07615486  0.58037992  1
  O2-  O182  1  0.32207609  0.06906830  0.90906109  1
  O2-  O183  1  0.32203235  0.57624395  0.24743081  1
  O2-  O184  1  0.31733309  0.57092387  0.57346020  1
  O2-  O185  1  0.32418592  0.57063222  0.90063128  1
  O2-  O186  1  0.82502851  0.07393314  0.24668355  1
  O2-  O187  1  0.82333722  0.06794480  0.57439917  1
  O2-  O188  1  0.81852102  0.07141329  0.90000556  1
  O2-  O189  1  0.82319412  0.56895231  0.23684487  1
  O2-  O190  1  0.82372298  0.57047025  0.57156728  1
  O2-  O191  1  0.81779428  0.57192520  0.90154331  1
  O2-  O192  1  0.04706944  0.07974112  0.26839189  1
  O2-  O193  1  0.03969620  0.08780527  0.60389099  1
  O2-  O194  1  0.04840892  0.08297830  0.93903846  1
  O2-  O195  1  0.03811108  0.58117454  0.26952057  1
  O2-  O196  1  0.04581307  0.58599171  0.60471500  1
  O2-  O197  1  0.04823788  0.57978592  0.93003148  1
  O2-  O198  1  0.53399482  0.08687103  0.26752203  1
  O2-  O199  1  0.54250062  0.08631040  0.60321156  1
  O2-  O200  1  0.53461123  0.08594886  0.92689186  1
  O2-  O201  1  0.54847909  0.58261347  0.27321398  1
  O2-  O202  1  0.53818005  0.58364264  0.59880715  1
  O2-  O203  1  0.53960337  0.58581088  0.94111700  1
  O2-  O204  1  0.16976355  0.20900173  0.26769824  1
  O2-  O205  1  0.16538114  0.20251799  0.60839903  1
  O2-  O206  1  0.16980123  0.20011361  0.93584980  1
  O2-  O207  1  0.16492696  0.70656606  0.26593004  1
  O2-  O208  1  0.16318911  0.70908857  0.60256752  1
  O2-  O209  1  0.17109929  0.71111958  0.93263205  1
  O2-  O210  1  0.67033444  0.20563598  0.26847500  1
  O2-  O211  1  0.66397033  0.20432678  0.60283958  1
  O2-  O212  1  0.66697715  0.20683598  0.92899542  1
  O2-  O213  1  0.66834215  0.70320921  0.27504016  1
  O2-  O214  1  0.66776208  0.71039804  0.59888766  1
  O2-  O215  1  0.66068144  0.70584167  0.94003238  1
  O2-  O216  1  0.07929779  0.45173923  0.06477600  1
  O2-  O217  1  0.08586935  0.46070460  0.40461033  1
  O2-  O218  1  0.08576437  0.45266931  0.72498014  1
  O2-  O219  1  0.08257634  0.95596340  0.07055516  1
  O2-  O220  1  0.08140415  0.94760474  0.39342725  1
  O2-  O221  1  0.08432875  0.96267740  0.73431506  1
  O2-  O222  1  0.57970628  0.44962042  0.06731404  1
  O2-  O223  1  0.57491687  0.44725487  0.39785315  1
  O2-  O224  1  0.57512085  0.44898462  0.73000700  1
  O2-  O225  1  0.57782232  0.96037000  0.06313128  1
  O2-  O226  1  0.58399161  0.96542548  0.40420593  1
  O2-  O227  1  0.58442623  0.95506810  0.72687570  1
  O2-  O228  1  0.21016029  0.33054639  0.06480332  1
  O2-  O229  1  0.21337143  0.33477759  0.40324784  1
  O2-  O230  1  0.20825651  0.33615673  0.72836261  1
  O2-  O231  1  0.21386602  0.83575025  0.06967384  1
  O2-  O232  1  0.20715073  0.83345334  0.39460770  1
  O2-  O233  1  0.21072982  0.83347402  0.73464689  1
  O2-  O234  1  0.70974642  0.32861319  0.06277088  1
  O2-  O235  1  0.71040227  0.32986465  0.40358533  1
  O2-  O236  1  0.71013395  0.32892544  0.73229682  1
  O2-  O237  1  0.70030101  0.83069736  0.06808278  1
  O2-  O238  1  0.70781561  0.83583241  0.40509918  1
  O2-  O239  1  0.70618276  0.83846884  0.72577726  1
  O2-  O240  1  0.44096262  0.42115245  0.27409877  1
  O2-  O241  1  0.44969406  0.41129580  0.60074641  1
  O2-  O242  1  0.44934527  0.41909972  0.93840225  1
  O2-  O243  1  0.46282581  0.91631581  0.26589358  1
  O2-  O244  1  0.44830631  0.91820193  0.60696787  1
  O2-  O245  1  0.45670903  0.91168724  0.93070764  1
  O2-  O246  1  0.95854341  0.41303462  0.27437907  1
  O2-  O247  1  0.95727052  0.41349034  0.60167732  1
  O2-  O248  1  0.96132512  0.41483179  0.92743157  1
  O2-  O249  1  0.94810942  0.91680421  0.27068651  1
  O2-  O250  1  0.96169778  0.91334968  0.60063082  1
  O2-  O251  1  0.95716049  0.92087109  0.93332751  1
  O2-  O252  1  0.33603109  0.28997652  0.26885812  1
  O2-  O253  1  0.33561969  0.28834767  0.60047065  1
  O2-  O254  1  0.33625047  0.29341537  0.93140591  1
  O2-  O255  1  0.33508596  0.79151676  0.26419024  1
  O2-  O256  1  0.33413954  0.79279523  0.60261590  1
  O2-  O257  1  0.33794620  0.79346687  0.93491062  1
  O2-  O258  1  0.83698642  0.29464297  0.27284888  1
  O2-  O259  1  0.83994993  0.28973072  0.60020744  1
  O2-  O260  1  0.83667711  0.28618321  0.92722453  1
  O2-  O261  1  0.82992137  0.79898234  0.27419595  1
  O2-  O262  1  0.83764842  0.79882486  0.60278161  1
  O2-  O263  1  0.82682905  0.79559396  0.93280290  1
  O2-  O264  1  0.41402749  0.04038114  0.06010110  1
  O2-  O265  1  0.41315725  0.03533077  0.40365336  1
  O2-  O266  1  0.41732895  0.04920392  0.73171212  1
  O2-  O267  1  0.41682834  0.54209179  0.07364118  1
  O2-  O268  1  0.41614510  0.55217300  0.39877622  1
  O2-  O269  1  0.41058761  0.54057210  0.72517495  1
  O2-  O270  1  0.91986434  0.04732428  0.06827566  1
  O2-  O271  1  0.91773468  0.04510645  0.39874669  1
  O2-  O272  1  0.91151094  0.04008271  0.72815276  1
  O2-  O273  1  0.92077527  0.54286553  0.06325767  1
  O2-  O274  1  0.91645008  0.53703583  0.40613670  1
  O2-  O275  1  0.92052148  0.54230210  0.73578243  1
  O2-  O276  1  0.30392291  0.16697185  0.05912752  1
  O2-  O277  1  0.29082800  0.16496527  0.40329462  1
  O2-  O278  1  0.29646488  0.16621118  0.73352047  1
  O2-  O279  1  0.30022121  0.67290144  0.06643661  1
  O2-  O280  1  0.29305365  0.66833864  0.39876738  1
  O2-  O281  1  0.29376373  0.66212261  0.72680508  1
  O2-  O282  1  0.79227040  0.16882634  0.06697079  1
  O2-  O283  1  0.79884075  0.16531320  0.39954372  1
  O2-  O284  1  0.79625509  0.16303192  0.72443533  1
  O2-  O285  1  0.79360965  0.66940255  0.06848298  1
  O2-  O286  1  0.79819454  0.67059465  0.40378584  1
  O2-  O287  1  0.79625555  0.67398106  0.73358219  1
