# generated using pymatgen
data_Ca2Al2SiO7
_symmetry_space_group_name_H-M   'P 1'
_cell_length_a   15.46094097
_cell_length_b   15.46172552
_cell_length_c   15.28632245
_cell_angle_alpha   89.98628017
_cell_angle_beta   89.99514676
_cell_angle_gamma   90.00205276
_symmetry_Int_Tables_number   1
_chemical_formula_structural   Ca2Al2SiO7
_chemical_formula_sum   'Ca48 Al48 Si24 O168'
_cell_volume   3654.23845382
_cell_formula_units_Z   24
loop_
 _symmetry_equiv_pos_site_id
 _symmetry_equiv_pos_as_xyz
  1  'x, y, z'
loop_
 _atom_type_symbol
 _atom_type_oxidation_number
  Ca2+  2.0
  Al0+  0.0
  Si0+  0.0
  O2-  -2.0
loop_
 _atom_site_type_symbol
 _atom_site_label
 _atom_site_symmetry_multiplicity
 _atom_site_fract_x
 _atom_site_fract_y
 _atom_site_fract_z
 _atom_site_occupancy
  Ca2+  Ca0  1  0.16878313  0.07605221  0.18116807  1
  Ca2+  Ca1  1  0.17509400  0.09498344  0.50250099  1
  Ca2+  Ca2  1  0.17261148  0.09254585  0.83295057  1
  Ca2+  Ca3  1  0.17367558  0.57765856  0.17283179  1
  Ca2+  Ca4  1  0.16574432  0.58142448  0.50430835  1
  Ca2+  Ca5  1  0.16334779  0.57230921  0.83791216  1
  Ca2+  Ca6  1  0.67530351  0.09419348  0.16939881  1
  Ca2+  Ca7  1  0.66885657  0.09217589  0.50107728  1
  Ca2+  Ca8  1  0.67179790  0.08898228  0.83911259  1
  Ca2+  Ca9  1  0.67612381  0.57844895  0.16939750  1
  Ca2+  Ca10  1  0.67486084  0.58134648  0.50101523  1
  Ca2+  Ca11  1  0.67486756  0.57293905  0.84610158  1
  Ca2+  Ca12  1  0.08731781  0.32735040  0.16621643  1
  Ca2+  Ca13  1  0.08463575  0.32723363  0.50166498  1
  Ca2+  Ca14  1  0.07988776  0.33659983  0.82482390  1
  Ca2+  Ca15  1  0.08325067  0.82726461  0.16321136  1
  Ca2+  Ca16  1  0.08738911  0.82403596  0.49455938  1
  Ca2+  Ca17  1  0.07066235  0.82458479  0.82630901  1
  Ca2+  Ca18  1  0.57461023  0.32868399  0.16064907  1
  Ca2+  Ca19  1  0.57474275  0.32182260  0.49070013  1
  Ca2+  Ca20  1  0.58346077  0.32734699  0.83301145  1
  Ca2+  Ca21  1  0.58153860  0.83158899  0.16408304  1
  Ca2+  Ca22  1  0.58024516  0.83202789  0.49722379  1
  Ca2+  Ca23  1  0.58220044  0.83088017  0.83017932  1
  Ca2+  Ca24  1  0.33562452  0.41864441  0.16815608  1
  Ca2+  Ca25  1  0.32929726  0.41626886  0.50217777  1
  Ca2+  Ca26  1  0.32011981  0.41653260  0.84262391  1
  Ca2+  Ca27  1  0.32537544  0.92411175  0.17821246  1
  Ca2+  Ca28  1  0.32372887  0.92784870  0.49974433  1
  Ca2+  Ca29  1  0.33147555  0.92474216  0.83365242  1
  Ca2+  Ca30  1  0.82790140  0.42320745  0.16930809  1
  Ca2+  Ca31  1  0.84192518  0.42013912  0.50265284  1
  Ca2+  Ca32  1  0.83078944  0.41825669  0.84266931  1
  Ca2+  Ca33  1  0.83651070  0.92588686  0.16878414  1
  Ca2+  Ca34  1  0.83696674  0.92207959  0.50038218  1
  Ca2+  Ca35  1  0.83969761  0.92064367  0.84044083  1
  Ca2+  Ca36  1  0.42097682  0.17594218  0.16088271  1
  Ca2+  Ca37  1  0.42147121  0.16534370  0.48947288  1
  Ca2+  Ca38  1  0.42602548  0.17111866  0.82745764  1
  Ca2+  Ca39  1  0.41027578  0.66308872  0.16248730  1
  Ca2+  Ca40  1  0.41428037  0.66604852  0.49098468  1
  Ca2+  Ca41  1  0.41377478  0.66259741  0.83507667  1
  Ca2+  Ca42  1  0.92018850  0.15732730  0.16388076  1
  Ca2+  Ca43  1  0.92522568  0.17083585  0.49397565  1
  Ca2+  Ca44  1  0.92263271  0.17368929  0.82495947  1
  Ca2+  Ca45  1  0.91682532  0.66776823  0.16260289  1
  Ca2+  Ca46  1  0.92941799  0.66790016  0.49437788  1
  Ca2+  Ca47  1  0.91543402  0.67432004  0.82584322  1
  Al0+  Al48  1  0.00053222  -0.00225425  -0.00228785  1
  Al0+  Al49  1  -0.00320939  -0.00243040  0.33887593  1
  Al0+  Al50  1  0.00097689  0.00006286  0.66124785  1
  Al0+  Al51  1  0.00239032  0.49821997  0.00920922  1
  Al0+  Al52  1  0.00044309  0.50100567  0.33182533  1
  Al0+  Al53  1  0.00047473  0.50246872  0.66451884  1
  Al0+  Al54  1  0.50113222  -0.00092676  -0.00420791  1
  Al0+  Al55  1  0.50067062  -0.00199093  0.33147040  1
  Al0+  Al56  1  0.50092109  -0.00056648  0.66811625  1
  Al0+  Al57  1  0.49883424  0.49950584  0.00097132  1
  Al0+  Al58  1  0.50042653  0.49966400  0.33437258  1
  Al0+  Al59  1  0.50194011  0.49998649  0.66737367  1
  Al0+  Al60  1  0.25205537  0.24969925  0.00056069  1
  Al0+  Al61  1  0.24873234  0.25079551  0.32837685  1
  Al0+  Al62  1  0.25127015  0.25323698  0.67414947  1
  Al0+  Al63  1  0.24878816  0.75025825  -0.00125336  1
  Al0+  Al64  1  0.24954361  0.74867451  0.33623242  1
  Al0+  Al65  1  0.25154013  0.75269514  0.66555477  1
  Al0+  Al66  1  0.75183253  0.24942535  0.00519773  1
  Al0+  Al67  1  0.74904464  0.25081855  0.33492082  1
  Al0+  Al68  1  0.74885486  0.25111801  0.65932334  1
  Al0+  Al69  1  0.74894433  0.75220585  -0.00083898  1
  Al0+  Al70  1  0.75007384  0.74908541  0.33806748  1
  Al0+  Al71  1  0.74823616  0.75180219  0.66276274  1
  Al0+  Al72  1  0.17693554  0.92766566  0.34845561  1
  Al0+  Al73  1  0.56953866  0.17851007  0.65164941  1
  Al0+  Al74  1  0.07209953  0.67900141  0.31671635  1
  Al0+  Al75  1  0.32015584  0.07256449  0.34577386  1
  Al0+  Al76  1  0.57295819  0.17916687  0.98349930  1
  Al0+  Al77  1  0.92601719  0.82246474  0.64874159  1
  Al0+  Al78  1  0.42770772  0.32206878  0.31784696  1
  Al0+  Al79  1  0.32131850  0.07114300  0.68151261  1
  Al0+  Al80  1  0.57179903  0.17632525  0.31608525  1
  Al0+  Al81  1  0.82171880  0.57079721  0.34942082  1
  Al0+  Al82  1  0.17808481  0.42520109  0.01840050  1
  Al0+  Al83  1  0.67881117  0.42714894  0.01553629  1
  Al0+  Al84  1  0.92905190  0.81982650  0.98742493  1
  Al0+  Al85  1  0.92774224  0.32210267  0.65309195  1
  Al0+  Al86  1  0.31885202  0.57197015  0.01404347  1
  Al0+  Al87  1  0.07417284  0.18042066  0.65347813  1
  Al0+  Al88  1  0.06817770  0.17779817  0.31983775  1
  Al0+  Al89  1  0.07147994  0.68018316  0.65207977  1
  Al0+  Al90  1  0.81928270  0.07188584  0.34905169  1
  Al0+  Al91  1  0.82188265  0.57404073  0.01389710  1
  Al0+  Al92  1  0.82178944  0.06933598  0.01077611  1
  Al0+  Al93  1  0.42832057  0.32276762  0.98124565  1
  Al0+  Al94  1  0.32116769  0.56898411  0.34777085  1
  Al0+  Al95  1  0.17961461  0.43215484  0.67964382  1
  Si0+  Si96  1  0.42703021  0.82141567  0.98424614  1
  Si0+  Si97  1  0.57083532  0.67976645  0.98573508  1
  Si0+  Si98  1  0.67837076  0.42921310  0.35238308  1
  Si0+  Si99  1  0.67738112  0.92629286  0.35072673  1
  Si0+  Si100  1  0.42889702  0.32304768  0.65099208  1
  Si0+  Si101  1  0.57214846  0.67893431  0.31849575  1
  Si0+  Si102  1  0.42926305  0.81896762  0.31848092  1
  Si0+  Si103  1  0.82084192  0.07182104  0.68025454  1
  Si0+  Si104  1  0.32333094  0.06945005  0.01414060  1
  Si0+  Si105  1  0.92583750  0.81987135  0.31558798  1
  Si0+  Si106  1  0.07105352  0.17676078  0.98661355  1
  Si0+  Si107  1  0.92767394  0.32248896  0.31490834  1
  Si0+  Si108  1  0.67568727  0.92790611  0.01594501  1
  Si0+  Si109  1  0.57007059  0.67786379  0.65179174  1
  Si0+  Si110  1  0.81929702  0.57166186  0.68053187  1
  Si0+  Si111  1  0.17998511  0.93072013  0.01264120  1
  Si0+  Si112  1  0.17711253  0.42735821  0.35151304  1
  Si0+  Si113  1  0.93084045  0.32132235  0.98879774  1
  Si0+  Si114  1  0.17762030  0.92655306  0.68551109  1
  Si0+  Si115  1  0.67888946  0.42868118  0.68129386  1
  Si0+  Si116  1  0.07203436  0.67682696  0.98429018  1
  Si0+  Si117  1  0.43020512  0.82133409  0.65125717  1
  Si0+  Si118  1  0.32494937  0.57453004  0.68304226  1
  Si0+  Si119  1  0.67921782  0.92867462  0.68267788  1
  O2-  O120  1  0.25082224  0.00055349  0.05625231  1
  O2-  O121  1  0.24333293  0.00596446  0.39718211  1
  O2-  O122  1  0.24246554  -0.00017301  0.72929499  1
  O2-  O123  1  0.25024027  0.49855785  0.06569205  1
  O2-  O124  1  0.24751462  0.49486460  0.39538604  1
  O2-  O125  1  0.25428363  0.50806796  0.72574654  1
  O2-  O126  1  0.74364928  -0.00233308  0.05784478  1
  O2-  O127  1  0.74160302  -0.00106986  0.39476098  1
  O2-  O128  1  0.75242159  -0.00204477  0.72348967  1
  O2-  O129  1  0.75034679  0.50123937  0.06353358  1
  O2-  O130  1  0.75021027  0.49402461  0.39819325  1
  O2-  O131  1  0.75134745  0.49838394  0.72379302  1
  O2-  O132  1  -0.00740218  0.25031936  0.27018842  1
  O2-  O133  1  -0.00114745  0.24896675  0.60376882  1
  O2-  O134  1  0.00334103  0.25183119  0.94601422  1
  O2-  O135  1  -0.00352921  0.75353073  0.27102366  1
  O2-  O136  1  0.00114954  0.75323810  0.60051757  1
  O2-  O137  1  -0.00266606  0.73939216  0.94056961  1
  O2-  O138  1  0.49735525  0.24688202  0.26878764  1
  O2-  O139  1  0.49296447  0.25102692  0.60574262  1
  O2-  O140  1  0.50125884  0.25067427  0.93214311  1
  O2-  O141  1  0.49977466  0.74779845  0.27533037  1
  O2-  O142  1  0.49576633  0.74500112  0.60907928  1
  O2-  O143  1  0.49768260  0.74908228  0.94290112  1
  O2-  O144  1  0.06845583  0.17246719  0.09153265  1
  O2-  O145  1  0.06935139  0.18192153  0.43250326  1
  O2-  O146  1  0.07137237  0.18231326  0.76791198  1
  O2-  O147  1  0.07595334  0.68224401  0.08947365  1
  O2-  O148  1  0.07222953  0.67986732  0.42973423  1
  O2-  O149  1  0.06814599  0.67955484  0.76613063  1
  O2-  O150  1  0.56986080  0.17736292  0.09633938  1
  O2-  O151  1  0.56954644  0.17802626  0.43019818  1
  O2-  O152  1  0.57214016  0.17996689  0.76449433  1
  O2-  O153  1  0.57246509  0.68363224  0.09072478  1
  O2-  O154  1  0.57176529  0.68122681  0.42412462  1
  O2-  O155  1  0.57160889  0.67927775  0.75685505  1
  O2-  O156  1  0.17646322  0.42897091  0.24615419  1
  O2-  O157  1  0.18200476  0.43165775  0.56680063  1
  O2-  O158  1  0.17527607  0.42735376  0.90446958  1
  O2-  O159  1  0.18100461  0.92729223  0.23382454  1
  O2-  O160  1  0.18282452  0.92126938  0.58080840  1
  O2-  O161  1  0.18144000  0.93128757  0.90758350  1
  O2-  O162  1  0.67840771  0.43288062  0.24707954  1
  O2-  O163  1  0.67557480  0.43275328  0.57663334  1
  O2-  O164  1  0.68275931  0.42876383  0.90086757  1
  O2-  O165  1  0.67913903  0.91996098  0.24540931  1
  O2-  O166  1  0.67603171  0.92639151  0.57795896  1
  O2-  O167  1  0.67457917  0.92526463  0.91015419  1
  O2-  O168  1  0.42795454  0.32004160  0.09444078  1
  O2-  O169  1  0.43037714  0.32368345  0.43208691  1
  O2-  O170  1  0.43266621  0.32442630  0.75621191  1
  O2-  O171  1  0.42732117  0.82316082  0.08912665  1
  O2-  O172  1  0.43206542  0.81820862  0.42381078  1
  O2-  O173  1  0.43238572  0.82167238  0.75675833  1
  O2-  O174  1  0.93007772  0.31986447  0.09361089  1
  O2-  O175  1  0.92981959  0.32272546  0.42057970  1
  O2-  O176  1  0.92524660  0.32122609  0.76741660  1
  O2-  O177  1  0.93319899  0.82321943  0.09999722  1
  O2-  O178  1  0.92342347  0.81638934  0.42090633  1
  O2-  O179  1  0.92392437  0.81888689  0.76292253  1
  O2-  O180  1  0.32018814  0.06729482  0.23173765  1
  O2-  O181  1  0.32326705  0.06845855  0.56893329  1
  O2-  O182  1  0.32288887  0.06683716  0.90876765  1
  O2-  O183  1  0.32039236  0.57086897  0.23528581  1
  O2-  O184  1  0.32844481  0.57321014  0.57764263  1
  O2-  O185  1  0.31497969  0.57523903  0.90013332  1
  O2-  O186  1  0.82034181  0.06812279  0.23568553  1
  O2-  O187  1  0.81705206  0.07155782  0.57554092  1
  O2-  O188  1  0.82367583  0.06779599  0.89730193  1
  O2-  O189  1  0.81760740  0.57215509  0.23660604  1
  O2-  O190  1  0.81627463  0.57139076  0.57557292  1
  O2-  O191  1  0.81923381  0.57365017  0.89947056  1
  O2-  O192  1  0.03799645  0.07891851  0.26873150  1
  O2-  O193  1  0.05310368  0.08025546  0.60250439  1
  O2-  O194  1  0.04067046  0.08735391  0.93605504  1
  O2-  O195  1  0.04124494  0.58235317  0.26353370  1
  O2-  O196  1  0.04153964  0.58375970  0.59720916  1
  O2-  O197  1  0.05178739  0.57994327  0.94368513  1
  O2-  O198  1  0.55098567  0.07467818  0.26628182  1
  O2-  O199  1  0.54213349  0.07982242  0.60045544  1
  O2-  O200  1  0.54567706  0.07913421  0.93087977  1
  O2-  O201  1  0.54652701  0.58709162  0.27193024  1
  O2-  O202  1  0.54650353  0.58538317  0.60356041  1
  O2-  O203  1  0.54522562  0.58821315  0.93725572  1
  O2-  O204  1  0.16426787  0.20713233  0.26399987  1
  O2-  O205  1  0.17225797  0.21347911  0.60277804  1
  O2-  O206  1  0.16475905  0.20081802  0.94182051  1
  O2-  O207  1  0.16877979  0.71203626  0.26404117  1
  O2-  O208  1  0.17201624  0.70660282  0.60152266  1
  O2-  O209  1  0.16238312  0.70939289  0.93502979  1
  O2-  O210  1  0.67041043  0.20840010  0.26607170  1
  O2-  O211  1  0.66405495  0.21144861  0.59595319  1
  O2-  O212  1  0.67335032  0.20769776  0.93341863  1
  O2-  O213  1  0.66279995  0.71039087  0.27122200  1
  O2-  O214  1  0.65903428  0.71020524  0.60162620  1
  O2-  O215  1  0.66034328  0.71066239  0.93494777  1
  O2-  O216  1  0.08084461  0.45054783  0.07436918  1
  O2-  O217  1  0.08404001  0.45501942  0.39676815  1
  O2-  O218  1  0.08231374  0.46347858  0.73408257  1
  O2-  O219  1  0.08917864  0.95879055  0.06074270  1
  O2-  O220  1  0.07646258  0.94511771  0.39923264  1
  O2-  O221  1  0.08123134  0.94746232  0.72796450  1
  O2-  O222  1  0.58079363  0.45687499  0.06655764  1
  O2-  O223  1  0.58715688  0.46029488  0.40016129  1
  O2-  O224  1  0.58845398  0.45906437  0.73091754  1
  O2-  O225  1  0.58120015  0.95027580  0.06215880  1
  O2-  O226  1  0.58205338  0.94649900  0.39583740  1
  O2-  O227  1  0.58854781  0.95656871  0.73258525  1
  O2-  O228  1  0.20718855  0.32630074  0.07008895  1
  O2-  O229  1  0.20214353  0.33330553  0.39597461  1
  O2-  O230  1  0.20946465  0.33765154  0.73830686  1
  O2-  O231  1  0.20775698  0.83885538  0.05955778  1
  O2-  O232  1  0.21516624  0.83353720  0.40324239  1
  O2-  O233  1  0.20992426  0.83557175  0.73499887  1
  O2-  O234  1  0.70914551  0.33131265  0.07084350  1
  O2-  O235  1  0.70012052  0.33464913  0.39743880  1
  O2-  O236  1  0.70626831  0.33609673  0.72691647  1
  O2-  O237  1  0.70105863  0.83514352  0.06344731  1
  O2-  O238  1  0.70577231  0.83484504  0.40089699  1
  O2-  O239  1  0.70403516  0.83524891  0.73024110  1
  O2-  O240  1  0.46085152  0.42004960  0.26559344  1
  O2-  O241  1  0.45793737  0.41610089  0.60452005  1
  O2-  O242  1  0.45416820  0.42274887  0.92972808  1
  O2-  O243  1  0.45788542  0.90910646  0.26834905  1
  O2-  O244  1  0.46555981  0.90954076  0.60295276  1
  O2-  O245  1  0.45725615  0.91095176  0.93329234  1
  O2-  O246  1  0.95567572  0.41506113  0.26855283  1
  O2-  O247  1  0.95647887  0.42007525  0.60048015  1
  O2-  O248  1  0.95678827  0.41433623  0.94177375  1
  O2-  O249  1  0.94797415  0.91521448  0.27269516  1
  O2-  O250  1  0.94957513  0.92226290  0.59835329  1
  O2-  O251  1  0.96620812  0.91327657  0.92979617  1
  O2-  O252  1  0.32881642  0.29875884  0.26447959  1
  O2-  O253  1  0.33361432  0.30154306  0.60882717  1
  O2-  O254  1  0.32965055  0.29112692  0.92924681  1
  O2-  O255  1  0.33821932  0.79054622  0.27105620  1
  O2-  O256  1  0.33760459  0.79953196  0.60375533  1
  O2-  O257  1  0.33596991  0.79408704  0.93448513  1
  O2-  O258  1  0.83193531  0.30105100  0.27250953  1
  O2-  O259  1  0.83070374  0.29604395  0.59647695  1
  O2-  O260  1  0.83958027  0.29295936  0.94086913  1
  O2-  O261  1  0.83240122  0.79122122  0.27004787  1
  O2-  O262  1  0.82739099  0.79380228  0.59602651  1
  O2-  O263  1  0.82979984  0.79703652  0.93366765  1
  O2-  O264  1  0.41439907  0.03809846  0.06006557  1
  O2-  O265  1  0.41770095  0.03763941  0.39736706  1
  O2-  O266  1  0.41601429  0.03305481  0.73639685  1
  O2-  O267  1  0.41972460  0.55042591  0.06396009  1
  O2-  O268  1  0.41963137  0.54312556  0.40191523  1
  O2-  O269  1  0.41897225  0.54834468  0.72948849  1
  O2-  O270  1  0.91683916  0.03328446  0.06563859  1
  O2-  O271  1  0.91354046  0.03881049  0.40559408  1
  O2-  O272  1  0.91475374  0.04780502  0.72576628  1
  O2-  O273  1  0.91969579  0.54795680  0.06724000  1
  O2-  O274  1  0.91911208  0.54085303  0.40186157  1
  O2-  O275  1  0.91206671  0.54817971  0.72663903  1
  O2-  O276  1  0.29851343  0.16190350  0.05940632  1
  O2-  O277  1  0.29517295  0.17234374  0.39706742  1
  O2-  O278  1  0.29401445  0.16762198  0.73774716  1
  O2-  O279  1  0.29133228  0.67172496  0.06644420  1
  O2-  O280  1  0.29169688  0.66565264  0.40228793  1
  O2-  O281  1  0.30395154  0.67040960  0.72669375  1
  O2-  O282  1  0.79627296  0.16510835  0.06755795  1
  O2-  O283  1  0.79133332  0.16960570  0.40269369  1
  O2-  O284  1  0.78967419  0.16379611  0.72605633  1
  O2-  O285  1  0.79022194  0.67188304  0.06640485  1
  O2-  O286  1  0.78601162  0.66514269  0.40500376  1
  O2-  O287  1  0.78649204  0.66316659  0.72618462  1
