# generated using pymatgen
data_Ca2Al2SiO7
_symmetry_space_group_name_H-M   'P 1'
_cell_length_a   15.45303810
_cell_length_b   15.45292811
_cell_length_c   15.27967749
_cell_angle_alpha   90.00280762
_cell_angle_beta   89.98357348
_cell_angle_gamma   89.99673579
_symmetry_Int_Tables_number   1
_chemical_formula_structural   Ca2Al2SiO7
_chemical_formula_sum   'Ca48 Al48 Si24 O168'
_cell_volume   3648.70564208
_cell_formula_units_Z   24
loop_
 _symmetry_equiv_pos_site_id
 _symmetry_equiv_pos_as_xyz
  1  'x, y, z'
loop_
 _atom_type_symbol
 _atom_type_oxidation_number
  Ca2+  2.0
  Al0+  0.0
  Si0+  0.0
  O2-  -2.0
loop_
 _atom_site_type_symbol
 _atom_site_label
 _atom_site_symmetry_multiplicity
 _atom_site_fract_x
 _atom_site_fract_y
 _atom_site_fract_z
 _atom_site_occupancy
  Ca2+  Ca0  1  0.17302740  0.08231493  0.17081642  1
  Ca2+  Ca1  1  0.16980993  0.08652831  0.49792310  1
  Ca2+  Ca2  1  0.17222158  0.07368938  0.84439247  1
  Ca2+  Ca3  1  0.16958544  0.57781068  0.17222900  1
  Ca2+  Ca4  1  0.15721247  0.57988078  0.50098561  1
  Ca2+  Ca5  1  0.17398777  0.58587230  0.83778019  1
  Ca2+  Ca6  1  0.66885541  0.08175280  0.17070607  1
  Ca2+  Ca7  1  0.67371259  0.07642569  0.50974299  1
  Ca2+  Ca8  1  0.66860312  0.07795658  0.83000926  1
  Ca2+  Ca9  1  0.67443700  0.58239879  0.17112427  1
  Ca2+  Ca10  1  0.67876092  0.58067544  0.50096275  1
  Ca2+  Ca11  1  0.67759010  0.58817509  0.84028706  1
  Ca2+  Ca12  1  0.08550985  0.33077704  0.16682583  1
  Ca2+  Ca13  1  0.07833211  0.33029945  0.49313328  1
  Ca2+  Ca14  1  0.07058924  0.33704037  0.83069088  1
  Ca2+  Ca15  1  0.07335841  0.83146051  0.16387772  1
  Ca2+  Ca16  1  0.07718232  0.81794819  0.49019146  1
  Ca2+  Ca17  1  0.08271606  0.82887118  0.83079486  1
  Ca2+  Ca18  1  0.57403627  0.34151362  0.16389379  1
  Ca2+  Ca19  1  0.57391745  0.33902731  0.49446810  1
  Ca2+  Ca20  1  0.57018687  0.33526940  0.82960597  1
  Ca2+  Ca21  1  0.57748865  0.82617656  0.16276926  1
  Ca2+  Ca22  1  0.57671811  0.84046726  0.49761150  1
  Ca2+  Ca23  1  0.57991340  0.82935168  0.82928519  1
  Ca2+  Ca24  1  0.33476021  0.41968047  0.17353617  1
  Ca2+  Ca25  1  0.32736538  0.40969099  0.50005364  1
  Ca2+  Ca26  1  0.33499538  0.41882071  0.84146807  1
  Ca2+  Ca27  1  0.32991375  0.92548695  0.17286919  1
  Ca2+  Ca28  1  0.34101358  0.92136462  0.50399483  1
  Ca2+  Ca29  1  0.32761563  0.91861236  0.84348205  1
  Ca2+  Ca30  1  0.83189847  0.42753947  0.17462841  1
  Ca2+  Ca31  1  0.83576366  0.42571081  0.50549833  1
  Ca2+  Ca32  1  0.84006858  0.42575968  0.83910327  1
  Ca2+  Ca33  1  0.83596933  0.90956980  0.17092594  1
  Ca2+  Ca34  1  0.83118085  0.91976084  0.50765037  1
  Ca2+  Ca35  1  0.83209005  0.91748907  0.83687403  1
  Ca2+  Ca36  1  0.40685946  0.17560237  0.16531615  1
  Ca2+  Ca37  1  0.41506260  0.17536525  0.49176225  1
  Ca2+  Ca38  1  0.40947542  0.17583404  0.83164034  1
  Ca2+  Ca39  1  0.42231568  0.66486149  0.15918555  1
  Ca2+  Ca40  1  0.41683264  0.68301252  0.49312102  1
  Ca2+  Ca41  1  0.42393126  0.66594917  0.82885957  1
  Ca2+  Ca42  1  0.92496585  0.17357911  0.16014791  1
  Ca2+  Ca43  1  0.91915882  0.16848121  0.49551205  1
  Ca2+  Ca44  1  0.91120863  0.17857077  0.82742920  1
  Ca2+  Ca45  1  0.91483892  0.66987756  0.16354917  1
  Ca2+  Ca46  1  0.92095082  0.66426003  0.49400696  1
  Ca2+  Ca47  1  0.91923414  0.66680184  0.82939173  1
  Al0+  Al48  1  -0.00092234  -0.00118642  -0.00076064  1
  Al0+  Al49  1  0.00189419  -0.00008253  0.32655653  1
  Al0+  Al50  1  0.00162157  0.00074292  0.67215722  1
  Al0+  Al51  1  0.00080024  0.50090719  0.00130350  1
  Al0+  Al52  1  0.00186463  0.49967277  0.33667530  1
  Al0+  Al53  1  0.00047924  0.49793685  0.66440858  1
  Al0+  Al54  1  0.50110697  0.00089303  0.00451128  1
  Al0+  Al55  1  0.49981889  0.00200657  0.33261879  1
  Al0+  Al56  1  0.50049669  0.00120981  0.67024307  1
  Al0+  Al57  1  0.50099177  0.49997762  -0.00627289  1
  Al0+  Al58  1  0.50001890  0.50194693  0.33546869  1
  Al0+  Al59  1  0.49988824  0.50096642  0.65983753  1
  Al0+  Al60  1  0.24926227  0.24862108  -0.00301829  1
  Al0+  Al61  1  0.25010723  0.25023826  0.33427388  1
  Al0+  Al62  1  0.24831390  0.25045768  0.66558973  1
  Al0+  Al63  1  0.24896751  0.74967765  0.01086610  1
  Al0+  Al64  1  0.24834930  0.75159431  0.32405113  1
  Al0+  Al65  1  0.25073111  0.74901623  0.65799361  1
  Al0+  Al66  1  0.74815243  0.24928175  -0.00422947  1
  Al0+  Al67  1  0.74798499  0.24941430  0.33768376  1
  Al0+  Al68  1  0.74806412  0.25115673  0.66604466  1
  Al0+  Al69  1  0.75036466  0.74993600  -0.00418037  1
  Al0+  Al70  1  0.74877633  0.75037439  0.33663368  1
  Al0+  Al71  1  0.74996205  0.74902289  0.67472108  1
  Al0+  Al72  1  0.07073084  0.67985849  0.65392360  1
  Al0+  Al73  1  0.67666691  0.42756799  0.34883390  1
  Al0+  Al74  1  0.82138165  0.57094774  0.01407232  1
  Al0+  Al75  1  0.32165325  0.07176834  0.01599819  1
  Al0+  Al76  1  0.42767746  0.32144883  0.65094081  1
  Al0+  Al77  1  0.92742924  0.81973305  0.32046942  1
  Al0+  Al78  1  0.17613127  0.92733332  0.01767617  1
  Al0+  Al79  1  0.82099702  0.57136013  0.34921264  1
  Al0+  Al80  1  0.82359635  0.07256046  0.68252757  1
  Al0+  Al81  1  0.07077653  0.18006788  0.31951078  1
  Al0+  Al82  1  0.43057603  0.82082813  0.65549232  1
  Al0+  Al83  1  0.32366196  0.56935788  0.01186057  1
  Al0+  Al84  1  0.92797955  0.31993068  0.65188247  1
  Al0+  Al85  1  0.67800984  0.92869315  0.68380652  1
  Al0+  Al86  1  0.82214973  0.56775962  0.68311851  1
  Al0+  Al87  1  0.92892730  0.32172670  0.98851046  1
  Al0+  Al88  1  0.07042557  0.67468642  0.31494272  1
  Al0+  Al89  1  0.57009201  0.67957851  0.98619544  1
  Al0+  Al90  1  0.43073991  0.32083784  0.31980554  1
  Al0+  Al91  1  0.31965610  0.06942713  0.34939118  1
  Al0+  Al92  1  0.18194636  0.42982266  0.34717160  1
  Al0+  Al93  1  0.42931244  0.31891219  0.98652870  1
  Al0+  Al94  1  0.42910840  0.82448314  0.31743323  1
  Al0+  Al95  1  0.92950201  0.82038088  0.98355652  1
  Si0+  Si96  1  0.07169436  0.17647093  0.65094869  1
  Si0+  Si97  1  0.92759858  0.82303576  0.65280288  1
  Si0+  Si98  1  0.42739242  0.82252460  0.98630107  1
  Si0+  Si99  1  0.57507947  0.67838073  0.64820648  1
  Si0+  Si100  1  0.67459042  0.42886689  0.68483058  1
  Si0+  Si101  1  0.81980655  0.07284187  0.01556384  1
  Si0+  Si102  1  0.57371410  0.17453677  0.98119903  1
  Si0+  Si103  1  0.57025421  0.17818461  0.64950518  1
  Si0+  Si104  1  0.17813105  0.42835545  0.01484312  1
  Si0+  Si105  1  0.92581757  0.32126819  0.31803633  1
  Si0+  Si106  1  0.31978183  0.07197422  0.68161777  1
  Si0+  Si107  1  0.68046078  0.92864216  0.01661737  1
  Si0+  Si108  1  0.82374098  0.07089650  0.34573517  1
  Si0+  Si109  1  0.67812596  0.42682984  0.01399057  1
  Si0+  Si110  1  0.07115290  0.17790567  0.98195488  1
  Si0+  Si111  1  0.07361813  0.67764445  0.98356307  1
  Si0+  Si112  1  0.17680661  0.92773682  0.35169837  1
  Si0+  Si113  1  0.67924120  0.93027511  0.34683145  1
  Si0+  Si114  1  0.57057544  0.67968118  0.31768473  1
  Si0+  Si115  1  0.32076026  0.57202249  0.67823697  1
  Si0+  Si116  1  0.57360417  0.17781454  0.31694080  1
  Si0+  Si117  1  0.18032470  0.42821120  0.68264821  1
  Si0+  Si118  1  0.18116622  0.92603483  0.67909909  1
  Si0+  Si119  1  0.32270563  0.57560645  0.35071100  1
  O2-  O120  1  0.25040984  -0.00125770  0.06530978  1
  O2-  O121  1  0.24870604  -0.00795347  0.39849607  1
  O2-  O122  1  0.25061318  -0.00136141  0.72237357  1
  O2-  O123  1  0.25006855  0.49373982  0.05832689  1
  O2-  O124  1  0.25327970  0.50779207  0.39562525  1
  O2-  O125  1  0.25319986  0.49844160  0.72276103  1
  O2-  O126  1  0.75076694  0.00051231  0.05930244  1
  O2-  O127  1  0.75305726  -0.00071722  0.38754466  1
  O2-  O128  1  0.75413726  -0.00232422  0.73280194  1
  O2-  O129  1  0.74949913  0.49228911  0.05837377  1
  O2-  O130  1  0.75249091  0.49533935  0.39896578  1
  O2-  O131  1  0.74515623  0.49471467  0.73022516  1
  O2-  O132  1  -0.00595909  0.25277952  0.27297476  1
  O2-  O133  1  -0.00143789  0.24042929  0.60706964  1
  O2-  O134  1  0.00215675  0.24655347  0.93867227  1
  O2-  O135  1  -0.00364632  0.74623739  0.26803562  1
  O2-  O136  1  -0.00597762  0.75333522  0.60814093  1
  O2-  O137  1  0.00600148  0.74689150  0.93820415  1
  O2-  O138  1  0.50880895  0.24978966  0.27270287  1
  O2-  O139  1  0.50295618  0.24743379  0.60460800  1
  O2-  O140  1  0.50189559  0.24172185  0.93952989  1
  O2-  O141  1  0.49942762  0.74536643  0.27227291  1
  O2-  O142  1  0.50789123  0.74985784  0.60609368  1
  O2-  O143  1  0.49239290  0.75205626  0.93977718  1
  O2-  O144  1  0.07091535  0.17952183  0.08758947  1
  O2-  O145  1  0.06788931  0.17993352  0.43302435  1
  O2-  O146  1  0.07538781  0.17887264  0.75635521  1
  O2-  O147  1  0.07129404  0.67544633  0.08849077  1
  O2-  O148  1  0.06910801  0.67716888  0.42911851  1
  O2-  O149  1  0.07526462  0.68219633  0.76705350  1
  O2-  O150  1  0.57886865  0.17441415  0.08645310  1
  O2-  O151  1  0.57217843  0.17408935  0.42238669  1
  O2-  O152  1  0.56746250  0.17769438  0.75526697  1
  O2-  O153  1  0.57017878  0.68143834  0.09940106  1
  O2-  O154  1  0.57078452  0.68272508  0.42334890  1
  O2-  O155  1  0.57184819  0.67660806  0.75400814  1
  O2-  O156  1  0.18499668  0.42826510  0.23391930  1
  O2-  O157  1  0.18035057  0.42615921  0.57774442  1
  O2-  O158  1  0.17744967  0.43046567  0.90866844  1
  O2-  O159  1  0.17631963  0.93225023  0.24653003  1
  O2-  O160  1  0.18137053  0.92661661  0.57436975  1
  O2-  O161  1  0.17915651  0.92767961  0.90255171  1
  O2-  O162  1  0.67704263  0.42933663  0.23481825  1
  O2-  O163  1  0.67397611  0.43170264  0.57947562  1
  O2-  O164  1  0.67751057  0.42759283  0.90829413  1
  O2-  O165  1  0.67884881  0.93096820  0.24144783  1
  O2-  O166  1  0.67726569  0.93216962  0.56961436  1
  O2-  O167  1  0.67982601  0.93020536  0.91180578  1
  O2-  O168  1  0.43070103  0.32047485  0.09934279  1
  O2-  O169  1  0.43022676  0.31719647  0.43301780  1
  O2-  O170  1  0.42641993  0.32019591  0.76432338  1
  O2-  O171  1  0.43273165  0.82268723  0.09164326  1
  O2-  O172  1  0.43381620  0.82598175  0.43107617  1
  O2-  O173  1  0.42766942  0.81753101  0.76864734  1
  O2-  O174  1  0.92939910  0.31917422  0.10150710  1
  O2-  O175  1  0.92675973  0.31827527  0.42380240  1
  O2-  O176  1  0.93224329  0.32160863  0.76529139  1
  O2-  O177  1  0.92727150  0.81887824  0.09629003  1
  O2-  O178  1  0.92810931  0.82241487  0.43444718  1
  O2-  O179  1  0.93114163  0.82274300  0.75841153  1
  O2-  O180  1  0.31815717  0.07012728  0.23685468  1
  O2-  O181  1  0.31934457  0.07285449  0.57653928  1
  O2-  O182  1  0.31932836  0.07098248  0.90135562  1
  O2-  O183  1  0.32490831  0.57126823  0.24496103  1
  O2-  O184  1  0.31874160  0.57322611  0.57357540  1
  O2-  O185  1  0.32243869  0.56914406  0.89778093  1
  O2-  O186  1  0.82142584  0.07273845  0.24041950  1
  O2-  O187  1  0.82328690  0.06987780  0.56820397  1
  O2-  O188  1  0.81744321  0.07347156  0.91075873  1
  O2-  O189  1  0.81763732  0.57229696  0.23541005  1
  O2-  O190  1  0.82227127  0.56741009  0.57033205  1
  O2-  O191  1  0.82156390  0.56974620  0.90079263  1
  O2-  O192  1  0.04203741  0.08477626  0.26270827  1
  O2-  O193  1  0.05151256  0.08079695  0.60604543  1
  O2-  O194  1  0.04541015  0.08421662  0.93668048  1
  O2-  O195  1  0.04543223  0.57487776  0.26363322  1
  O2-  O196  1  0.04084891  0.58290452  0.60112622  1
  O2-  O197  1  0.04830723  0.58431998  0.93643292  1
  O2-  O198  1  0.54550707  0.08616493  0.26827392  1
  O2-  O199  1  0.54398107  0.08476381  0.60356443  1
  O2-  O200  1  0.54931977  0.07999070  0.93588521  1
  O2-  O201  1  0.54733585  0.58568983  0.27171212  1
  O2-  O202  1  0.54774990  0.58640047  0.60040753  1
  O2-  O203  1  0.54150250  0.58431909  0.92832588  1
  O2-  O204  1  0.16540282  0.21481365  0.26525677  1
  O2-  O205  1  0.16287840  0.20745023  0.60273974  1
  O2-  O206  1  0.16421941  0.20233192  0.93406439  1
  O2-  O207  1  0.16857372  0.70237736  0.26184024  1
  O2-  O208  1  0.16484931  0.71072901  0.59526786  1
  O2-  O209  1  0.16883664  0.70377568  0.93986082  1
  O2-  O210  1  0.66892407  0.19863239  0.27112377  1
  O2-  O211  1  0.66464540  0.20079113  0.60385795  1
  O2-  O212  1  0.66516814  0.20198453  0.93131020  1
  O2-  O213  1  0.66275043  0.70919129  0.27137246  1
  O2-  O214  1  0.66983355  0.70307639  0.60472267  1
  O2-  O215  1  0.66392314  0.71461061  0.92998964  1
  O2-  O216  1  0.08680914  0.45620320  0.06377511  1
  O2-  O217  1  0.08450662  0.45584403  0.40271669  1
  O2-  O218  1  0.08954403  0.45816400  0.73020503  1
  O2-  O219  1  0.07765997  0.95815045  0.06913681  1
  O2-  O220  1  0.08411018  0.95813311  0.39760815  1
  O2-  O221  1  0.08959781  0.95162151  0.72875593  1
  O2-  O222  1  0.58594713  0.45720489  0.05967518  1
  O2-  O223  1  0.57992402  0.46023434  0.40373535  1
  O2-  O224  1  0.58027924  0.45684782  0.72981454  1
  O2-  O225  1  0.58884870  0.95552172  0.06548092  1
  O2-  O226  1  0.58935530  0.96227949  0.39546100  1
  O2-  O227  1  0.58135307  0.96194659  0.73954528  1
  O2-  O228  1  0.19983693  0.33272828  0.05737442  1
  O2-  O229  1  0.21508131  0.33508206  0.40385175  1
  O2-  O230  1  0.20734181  0.33645006  0.73139795  1
  O2-  O231  1  0.20022665  0.82972351  0.07304059  1
  O2-  O232  1  0.19882911  0.83127154  0.39293306  1
  O2-  O233  1  0.21217894  0.83511578  0.72654309  1
  O2-  O234  1  0.69836524  0.33118063  0.05866086  1
  O2-  O235  1  0.69775771  0.32679656  0.40163786  1
  O2-  O236  1  0.69479354  0.33299083  0.72800146  1
  O2-  O237  1  0.71017289  0.83763219  0.06346364  1
  O2-  O238  1  0.70281063  0.83891846  0.39655692  1
  O2-  O239  1  0.70101831  0.82964024  0.73733556  1
  O2-  O240  1  0.45799787  0.41989915  0.26851156  1
  O2-  O241  1  0.45591509  0.41838464  0.59637636  1
  O2-  O242  1  0.46223259  0.41352061  0.92934778  1
  O2-  O243  1  0.46499171  0.91912248  0.26321672  1
  O2-  O244  1  0.45963031  0.91917860  0.60321303  1
  O2-  O245  1  0.45571779  0.91606344  0.94078088  1
  O2-  O246  1  0.95293016  0.41472378  0.27441398  1
  O2-  O247  1  0.96563367  0.41300830  0.59651311  1
  O2-  O248  1  0.96291947  0.41725869  0.93343405  1
  O2-  O249  1  0.95676487  0.91702439  0.26477792  1
  O2-  O250  1  0.95336628  0.91776740  0.60877323  1
  O2-  O251  1  0.95751060  0.91857468  0.93028374  1
  O2-  O252  1  0.33561579  0.28629873  0.26671227  1
  O2-  O253  1  0.33083711  0.28853195  0.59871106  1
  O2-  O254  1  0.33213871  0.29020256  0.93083716  1
  O2-  O255  1  0.33109894  0.80075607  0.26471426  1
  O2-  O256  1  0.33733225  0.78841400  0.59600799  1
  O2-  O257  1  0.33092098  0.80034182  0.94545568  1
  O2-  O258  1  0.83144361  0.29580048  0.27352421  1
  O2-  O259  1  0.82908475  0.29535880  0.59967853  1
  O2-  O260  1  0.83235373  0.29159221  0.93333444  1
  O2-  O261  1  0.82710531  0.79513206  0.26867400  1
  O2-  O262  1  0.83164734  0.80030108  0.61098946  1
  O2-  O263  1  0.83378182  0.78933229  0.92859757  1
  O2-  O264  1  0.42153084  0.04794500  0.06827066  1
  O2-  O265  1  0.41813102  0.04094209  0.40223744  1
  O2-  O266  1  0.41191893  0.04759609  0.72908645  1
  O2-  O267  1  0.42036487  0.53796062  0.06521021  1
  O2-  O268  1  0.41623083  0.55191464  0.39752550  1
  O2-  O269  1  0.41454872  0.54669157  0.72358344  1
  O2-  O270  1  0.91264698  0.04717961  0.06092554  1
  O2-  O271  1  0.91563582  0.04328959  0.39248223  1
  O2-  O272  1  0.92296203  0.04926914  0.73707108  1
  O2-  O273  1  0.91854412  0.54207260  0.06739156  1
  O2-  O274  1  0.92003522  0.54471668  0.40101973  1
  O2-  O275  1  0.91887092  0.53391258  0.73590302  1
  O2-  O276  1  0.29015599  0.17030719  0.06725206  1
  O2-  O277  1  0.28507333  0.16455050  0.40382799  1
  O2-  O278  1  0.28830010  0.16283883  0.72952874  1
  O2-  O279  1  0.29618156  0.66475555  0.06891140  1
  O2-  O280  1  0.29774209  0.67146193  0.39258167  1
  O2-  O281  1  0.28997500  0.66274450  0.72644315  1
  O2-  O282  1  0.78983764  0.16400460  0.06380145  1
  O2-  O283  1  0.79613659  0.16163556  0.39568479  1
  O2-  O284  1  0.79052130  0.17070772  0.73449428  1
  O2-  O285  1  0.78588042  0.66698445  0.06563462  1
  O2-  O286  1  0.78841300  0.66852225  0.40398057  1
  O2-  O287  1  0.79428130  0.66528995  0.73693791  1
