# generated using pymatgen
data_Ca2Al2SiO7
_symmetry_space_group_name_H-M   'P 1'
_cell_length_a   15.46117449
_cell_length_b   15.46044834
_cell_length_c   15.28510984
_cell_angle_alpha   89.98193223
_cell_angle_beta   89.98875114
_cell_angle_gamma   90.00384587
_symmetry_Int_Tables_number   1
_chemical_formula_structural   Ca2Al2SiO7
_chemical_formula_sum   'Ca48 Al48 Si24 O168'
_cell_volume   3653.70179359
_cell_formula_units_Z   24
loop_
 _symmetry_equiv_pos_site_id
 _symmetry_equiv_pos_as_xyz
  1  'x, y, z'
loop_
 _atom_type_symbol
 _atom_type_oxidation_number
  Ca2+  2.0
  Al0+  0.0
  Si0+  0.0
  O2-  -2.0
loop_
 _atom_site_type_symbol
 _atom_site_label
 _atom_site_symmetry_multiplicity
 _atom_site_fract_x
 _atom_site_fract_y
 _atom_site_fract_z
 _atom_site_occupancy
  Ca2+  Ca0  1  0.16574473  0.07182350  0.17304719  1
  Ca2+  Ca1  1  0.16789410  0.07740633  0.50044368  1
  Ca2+  Ca2  1  0.15866410  0.07658066  0.84096880  1
  Ca2+  Ca3  1  0.17395658  0.58930397  0.17136802  1
  Ca2+  Ca4  1  0.17204347  0.58429201  0.50595097  1
  Ca2+  Ca5  1  0.17282322  0.58684090  0.83668833  1
  Ca2+  Ca6  1  0.67600836  0.08245510  0.17814686  1
  Ca2+  Ca7  1  0.67245441  0.08175789  0.49991223  1
  Ca2+  Ca8  1  0.67909198  0.08364512  0.83768642  1
  Ca2+  Ca9  1  0.67276968  0.58458928  0.16838618  1
  Ca2+  Ca10  1  0.67391666  0.58433824  0.50470446  1
  Ca2+  Ca11  1  0.68088333  0.58787976  0.83772394  1
  Ca2+  Ca12  1  0.08402424  0.32244134  0.16103338  1
  Ca2+  Ca13  1  0.08741108  0.33013852  0.50161884  1
  Ca2+  Ca14  1  0.08864261  0.32107111  0.82643583  1
  Ca2+  Ca15  1  0.08873667  0.82852111  0.16676053  1
  Ca2+  Ca16  1  0.08155280  0.82197814  0.49079238  1
  Ca2+  Ca17  1  0.08774607  0.82247362  0.83147428  1
  Ca2+  Ca18  1  0.57246464  0.32865080  0.16622069  1
  Ca2+  Ca19  1  0.57686202  0.32666581  0.48791343  1
  Ca2+  Ca20  1  0.57718651  0.33674317  0.83373222  1
  Ca2+  Ca21  1  0.57693397  0.84253419  0.17037487  1
  Ca2+  Ca22  1  0.57352179  0.83663891  0.49254231  1
  Ca2+  Ca23  1  0.57372792  0.83208901  0.82683655  1
  Ca2+  Ca24  1  0.34075109  0.42478510  0.17139167  1
  Ca2+  Ca25  1  0.33127388  0.42738576  0.50496514  1
  Ca2+  Ca26  1  0.32844353  0.42582816  0.83796009  1
  Ca2+  Ca27  1  0.32187303  0.91836590  0.17779503  1
  Ca2+  Ca28  1  0.33376079  0.91468114  0.49807208  1
  Ca2+  Ca29  1  0.32662879  0.91549946  0.83794505  1
  Ca2+  Ca30  1  0.83849864  0.42448070  0.16803085  1
  Ca2+  Ca31  1  0.83134292  0.42227916  0.50675022  1
  Ca2+  Ca32  1  0.83751693  0.42817920  0.83529255  1
  Ca2+  Ca33  1  0.83161002  0.92556784  0.17805651  1
  Ca2+  Ca34  1  0.83434706  0.92115952  0.49761234  1
  Ca2+  Ca35  1  0.83914385  0.92714563  0.83725773  1
  Ca2+  Ca36  1  0.41183462  0.17458672  0.16567491  1
  Ca2+  Ca37  1  0.42072585  0.17240260  0.48389979  1
  Ca2+  Ca38  1  0.41211507  0.17739358  0.82946223  1
  Ca2+  Ca39  1  0.40760657  0.67081864  0.16598733  1
  Ca2+  Ca40  1  0.40726407  0.67504586  0.49506869  1
  Ca2+  Ca41  1  0.40936218  0.67026712  0.82711933  1
  Ca2+  Ca42  1  0.91874824  0.16029195  0.16030796  1
  Ca2+  Ca43  1  0.91869013  0.15924242  0.49869285  1
  Ca2+  Ca44  1  0.92494202  0.15932952  0.82948697  1
  Ca2+  Ca45  1  0.92784317  0.67329608  0.16057951  1
  Ca2+  Ca46  1  0.92736304  0.66754034  0.49101874  1
  Ca2+  Ca47  1  0.92694589  0.65969904  0.82691595  1
  Al0+  Al48  1  -0.00091618  -0.00190580  0.00473328  1
  Al0+  Al49  1  0.00014354  -0.00169957  0.33871770  1
  Al0+  Al50  1  0.00046659  -0.00087423  0.66573529  1
  Al0+  Al51  1  0.00128817  0.49925322  0.00118215  1
  Al0+  Al52  1  0.00252066  0.49864197  0.32891749  1
  Al0+  Al53  1  0.00055756  0.49583681  0.66920479  1
  Al0+  Al54  1  0.50028893  0.00157272  -0.00337651  1
  Al0+  Al55  1  0.50193355  -0.00006822  0.33057639  1
  Al0+  Al56  1  0.49967614  0.00072956  0.66501469  1
  Al0+  Al57  1  0.50044606  0.50102845  -0.00212458  1
  Al0+  Al58  1  0.50108936  0.50054719  0.33487263  1
  Al0+  Al59  1  0.50006474  0.50122921  0.66933733  1
  Al0+  Al60  1  0.25014309  0.25072985  -0.00996753  1
  Al0+  Al61  1  0.24831002  0.25122425  0.33132525  1
  Al0+  Al62  1  0.25025117  0.24974957  0.66343212  1
  Al0+  Al63  1  0.24889747  0.75020067  0.00289933  1
  Al0+  Al64  1  0.25115767  0.74889946  0.33377898  1
  Al0+  Al65  1  0.24892174  0.75154129  0.66192280  1
  Al0+  Al66  1  0.74880405  0.25135983  0.00231453  1
  Al0+  Al67  1  0.75036430  0.25172167  0.33284200  1
  Al0+  Al68  1  0.75005186  0.24930998  0.67259073  1
  Al0+  Al69  1  0.74924016  0.75126419  0.00357620  1
  Al0+  Al70  1  0.75124949  0.75169027  0.33400044  1
  Al0+  Al71  1  0.74801474  0.75131912  0.67143498  1
  Al0+  Al72  1  0.31912795  0.57306626  0.68228530  1
  Al0+  Al73  1  0.07113624  0.17709452  0.65072276  1
  Al0+  Al74  1  0.67843775  0.92764201  0.34942730  1
  Al0+  Al75  1  0.43040510  0.82001081  0.31841902  1
  Al0+  Al76  1  0.07106838  0.67941245  0.98466600  1
  Al0+  Al77  1  0.32067670  0.07288569  0.34605408  1
  Al0+  Al78  1  0.06882693  0.67695933  0.65326414  1
  Al0+  Al79  1  0.32027587  0.56957218  0.01458525  1
  Al0+  Al80  1  0.82094551  0.57164131  0.67823901  1
  Al0+  Al81  1  0.42932427  0.82076104  0.65274956  1
  Al0+  Al82  1  0.17943963  0.42604798  0.68254246  1
  Al0+  Al83  1  0.06818529  0.17747641  0.98756018  1
  Al0+  Al84  1  0.82351070  0.57142074  0.01562292  1
  Al0+  Al85  1  0.17976103  0.92790868  0.35153916  1
  Al0+  Al86  1  0.07210623  0.67764385  0.31673782  1
  Al0+  Al87  1  0.82087456  0.06920264  0.68239260  1
  Al0+  Al88  1  0.42983234  0.32223161  0.98325576  1
  Al0+  Al89  1  0.42708592  0.32260164  0.31878465  1
  Al0+  Al90  1  0.82161020  0.07355395  0.35022488  1
  Al0+  Al91  1  0.81926093  0.07021561  0.01416662  1
  Al0+  Al92  1  0.32123867  0.56911427  0.34728183  1
  Al0+  Al93  1  0.18066429  0.92965511  0.01299729  1
  Al0+  Al94  1  0.57239205  0.17858814  0.31808801  1
  Al0+  Al95  1  0.92866595  0.82166857  0.31816181  1
  Si0+  Si96  1  0.42983156  0.32220999  0.65037617  1
  Si0+  Si97  1  0.18002307  0.93062177  0.68162790  1
  Si0+  Si98  1  0.92802217  0.32204725  0.31875252  1
  Si0+  Si99  1  0.57259331  0.67949222  0.98491208  1
  Si0+  Si100  1  0.68015887  0.43064722  0.34742098  1
  Si0+  Si101  1  0.17900807  0.42490119  0.01686982  1
  Si0+  Si102  1  0.57352796  0.67751757  0.65086974  1
  Si0+  Si103  1  0.67759972  0.42984348  0.01799549  1
  Si0+  Si104  1  0.92622106  0.82177571  0.65156409  1
  Si0+  Si105  1  0.67471202  0.92941018  0.68535616  1
  Si0+  Si106  1  0.06958041  0.17868706  0.31943967  1
  Si0+  Si107  1  0.82303959  0.57045332  0.34663223  1
  Si0+  Si108  1  0.57305328  0.17832395  0.98081498  1
  Si0+  Si109  1  0.42888882  0.82074321  0.98579671  1
  Si0+  Si110  1  0.17536284  0.42669051  0.34932388  1
  Si0+  Si111  1  0.92625997  0.32237419  0.98290674  1
  Si0+  Si112  1  0.92616268  0.82063138  0.98303362  1
  Si0+  Si113  1  0.67462974  0.92815200  0.01672942  1
  Si0+  Si114  1  0.32327946  0.07424507  0.01341963  1
  Si0+  Si115  1  0.92667649  0.31989092  0.65070113  1
  Si0+  Si116  1  0.32299201  0.07134507  0.68086464  1
  Si0+  Si117  1  0.57165613  0.18087048  0.65265895  1
  Si0+  Si118  1  0.57436056  0.67699612  0.31689067  1
  Si0+  Si119  1  0.67752900  0.42729775  0.68392559  1
  O2-  O120  1  0.25477451  0.00619047  0.05716568  1
  O2-  O121  1  0.25217090  0.00041249  0.40077904  1
  O2-  O122  1  0.25036703  0.00262604  0.72423015  1
  O2-  O123  1  0.24654319  0.49403150  0.06161475  1
  O2-  O124  1  0.24578112  0.49426350  0.39169587  1
  O2-  O125  1  0.24740291  0.50147097  0.73347319  1
  O2-  O126  1  0.74274875  -0.00254863  0.05934053  1
  O2-  O127  1  0.74947900  0.00088317  0.39910427  1
  O2-  O128  1  0.74729859  -0.00640103  0.72996396  1
  O2-  O129  1  0.74914857  0.49581298  0.06227473  1
  O2-  O130  1  0.75100282  0.50138209  0.39027613  1
  O2-  O131  1  0.74476288  0.49833367  0.72643341  1
  O2-  O132  1  -0.00411049  0.24757755  0.27769268  1
  O2-  O133  1  -0.00500203  0.25150102  0.60545797  1
  O2-  O134  1  -0.00647241  0.25212913  0.93932150  1
  O2-  O135  1  0.00091954  0.75082403  0.26731684  1
  O2-  O136  1  -0.01095964  0.74738484  0.60859460  1
  O2-  O137  1  -0.00803298  0.74982495  0.93753439  1
  O2-  O138  1  0.49513172  0.24611411  0.26925723  1
  O2-  O139  1  0.50173636  0.25192331  0.60936204  1
  O2-  O140  1  0.50252652  0.24491919  0.93569508  1
  O2-  O141  1  0.50591245  0.74544855  0.27184265  1
  O2-  O142  1  0.50319936  0.74412833  0.60746026  1
  O2-  O143  1  0.50125332  0.75091459  0.94336608  1
  O2-  O144  1  0.06761782  0.17864451  0.10082929  1
  O2-  O145  1  0.07035128  0.18126697  0.42446187  1
  O2-  O146  1  0.06909627  0.17552276  0.76403038  1
  O2-  O147  1  0.07201431  0.68162371  0.09702036  1
  O2-  O148  1  0.06795116  0.67435997  0.43055144  1
  O2-  O149  1  0.07024223  0.68105799  0.76673293  1
  O2-  O150  1  0.57349963  0.17864089  0.08566007  1
  O2-  O151  1  0.57439751  0.18465179  0.43242884  1
  O2-  O152  1  0.57007150  0.18210883  0.75804464  1
  O2-  O153  1  0.57419249  0.67855040  0.08952965  1
  O2-  O154  1  0.57539545  0.67558162  0.42255856  1
  O2-  O155  1  0.57586635  0.67927136  0.75676255  1
  O2-  O156  1  0.17191058  0.42528091  0.24380954  1
  O2-  O157  1  0.18364680  0.42436164  0.56896852  1
  O2-  O158  1  0.18072760  0.42401754  0.91150291  1
  O2-  O159  1  0.18032103  0.93031326  0.23768310  1
  O2-  O160  1  0.18000152  0.93102311  0.57726770  1
  O2-  O161  1  0.18280688  0.92901182  0.89901389  1
  O2-  O162  1  0.68112737  0.43193415  0.24255768  1
  O2-  O163  1  0.67832978  0.42556159  0.57819218  1
  O2-  O164  1  0.67737125  0.43164651  0.91207398  1
  O2-  O165  1  0.68074797  0.92842610  0.23548044  1
  O2-  O166  1  0.67134728  0.93122155  0.58068767  1
  O2-  O167  1  0.67253819  0.92825886  0.91070147  1
  O2-  O168  1  0.43170146  0.32215658  0.09584908  1
  O2-  O169  1  0.43178922  0.32391813  0.43277029  1
  O2-  O170  1  0.43118653  0.32103400  0.75580268  1
  O2-  O171  1  0.42973381  0.82114298  0.09033877  1
  O2-  O172  1  0.43078419  0.81731263  0.43154849  1
  O2-  O173  1  0.43065683  0.82158092  0.76684028  1
  O2-  O174  1  0.92710390  0.32238767  0.08888211  1
  O2-  O175  1  0.92790171  0.32657942  0.42353638  1
  O2-  O176  1  0.92486235  0.31895184  0.75619299  1
  O2-  O177  1  0.92547411  0.82002522  0.08798986  1
  O2-  O178  1  0.92792886  0.81663196  0.43227710  1
  O2-  O179  1  0.92889313  0.82391804  0.75754145  1
  O2-  O180  1  0.31494569  0.07423033  0.23212486  1
  O2-  O181  1  0.32502757  0.07093102  0.57642384  1
  O2-  O182  1  0.32468337  0.07164014  0.90715797  1
  O2-  O183  1  0.32166252  0.56752900  0.23393155  1
  O2-  O184  1  0.31988579  0.57124049  0.56903382  1
  O2-  O185  1  0.31964078  0.57128288  0.90161587  1
  O2-  O186  1  0.82061900  0.07434754  0.23655478  1
  O2-  O187  1  0.81826910  0.07035515  0.57021803  1
  O2-  O188  1  0.81903969  0.06805799  0.90064312  1
  O2-  O189  1  0.82203503  0.56741273  0.24155583  1
  O2-  O190  1  0.81843619  0.56870584  0.56479857  1
  O2-  O191  1  0.82113965  0.57008713  0.90226612  1
  O2-  O192  1  0.04345364  0.08596792  0.27422058  1
  O2-  O193  1  0.03916038  0.08097373  0.59688577  1
  O2-  O194  1  0.03567998  0.08068244  0.93393755  1
  O2-  O195  1  0.04356081  0.57928017  0.26292795  1
  O2-  O196  1  0.04265917  0.57781880  0.60234104  1
  O2-  O197  1  0.04349979  0.58026987  0.93363285  1
  O2-  O198  1  0.55227551  0.07912003  0.26569616  1
  O2-  O199  1  0.54423553  0.08898359  0.60645451  1
  O2-  O200  1  0.55032220  0.08385397  0.93375503  1
  O2-  O201  1  0.54944322  0.58345091  0.27052522  1
  O2-  O202  1  0.55239573  0.58200067  0.60638007  1
  O2-  O203  1  0.54640769  0.58834955  0.93593874  1
  O2-  O204  1  0.15931305  0.20861902  0.26936789  1
  O2-  O205  1  0.16789741  0.20802771  0.59687584  1
  O2-  O206  1  0.16456146  0.20536264  0.93082733  1
  O2-  O207  1  0.17021221  0.70722745  0.26542013  1
  O2-  O208  1  0.16299152  0.71280197  0.59865627  1
  O2-  O209  1  0.16671371  0.71574596  0.93105381  1
  O2-  O210  1  0.66853162  0.21474609  0.26412775  1
  O2-  O211  1  0.66410681  0.20878206  0.60697300  1
  O2-  O212  1  0.66585584  0.20808177  0.93389689  1
  O2-  O213  1  0.66812821  0.70149740  0.27062084  1
  O2-  O214  1  0.66695459  0.70418722  0.60415357  1
  O2-  O215  1  0.66403562  0.70886584  0.93598512  1
  O2-  O216  1  0.08420044  0.44686418  0.06168348  1
  O2-  O217  1  0.08238920  0.45319627  0.39733610  1
  O2-  O218  1  0.07842181  0.44480067  0.73349154  1
  O2-  O219  1  0.08466193  0.95883762  0.06768345  1
  O2-  O220  1  0.08211347  0.95616622  0.40507035  1
  O2-  O221  1  0.08834640  0.95778912  0.72971241  1
  O2-  O222  1  0.58600598  0.46008062  0.06445766  1
  O2-  O223  1  0.58984494  0.45815129  0.39779137  1
  O2-  O224  1  0.58402484  0.45186402  0.73064007  1
  O2-  O225  1  0.58041191  0.95400754  0.06187583  1
  O2-  O226  1  0.57962478  0.95471438  0.40143710  1
  O2-  O227  1  0.58321365  0.96041403  0.73419410  1
  O2-  O228  1  0.20590781  0.33052824  0.06123548  1
  O2-  O229  1  0.19903034  0.33299652  0.39546414  1
  O2-  O230  1  0.21192540  0.32798218  0.73548122  1
  O2-  O231  1  0.21443594  0.83573726  0.06871683  1
  O2-  O232  1  0.20966194  0.82977388  0.40285511  1
  O2-  O233  1  0.21052865  0.83966132  0.72904540  1
  O2-  O234  1  0.69942107  0.33525985  0.06316728  1
  O2-  O235  1  0.70919850  0.34028359  0.39666602  1
  O2-  O236  1  0.70425423  0.33565017  0.73361943  1
  O2-  O237  1  0.69794618  0.83451756  0.06263109  1
  O2-  O238  1  0.70641935  0.82892072  0.40376490  1
  O2-  O239  1  0.69502204  0.83424719  0.73112697  1
  O2-  O240  1  0.46376875  0.41873961  0.26581925  1
  O2-  O241  1  0.45754142  0.41509035  0.60516137  1
  O2-  O242  1  0.46494753  0.41756675  0.92819886  1
  O2-  O243  1  0.45931788  0.91637121  0.26299331  1
  O2-  O244  1  0.46126427  0.91754449  0.59954358  1
  O2-  O245  1  0.45467668  0.91337371  0.93697118  1
  O2-  O246  1  0.95922005  0.41098816  0.26701603  1
  O2-  O247  1  0.95182804  0.41284061  0.60300093  1
  O2-  O248  1  0.95308081  0.41564750  0.93703116  1
  O2-  O249  1  0.95605845  0.92151737  0.26780426  1
  O2-  O250  1  0.95748944  0.91254762  0.60398571  1
  O2-  O251  1  0.95625975  0.91331226  0.93741348  1
  O2-  O252  1  0.32738262  0.29915969  0.26563753  1
  O2-  O253  1  0.33908780  0.29340347  0.60324009  1
  O2-  O254  1  0.33458581  0.29251265  0.92565254  1
  O2-  O255  1  0.33478277  0.78734144  0.26432850  1
  O2-  O256  1  0.33347355  0.79204113  0.59756411  1
  O2-  O257  1  0.33830678  0.79035569  0.93792077  1
  O2-  O258  1  0.83582932  0.29934651  0.27008638  1
  O2-  O259  1  0.83188917  0.29498158  0.60558696  1
  O2-  O260  1  0.83098766  0.30054346  0.93828984  1
  O2-  O261  1  0.83015947  0.79372885  0.26504219  1
  O2-  O262  1  0.82912468  0.80320997  0.60993684  1
  O2-  O263  1  0.83058652  0.79966999  0.93772526  1
  O2-  O264  1  0.41787295  0.05031462  0.05790707  1
  O2-  O265  1  0.42122788  0.04858316  0.39526195  1
  O2-  O266  1  0.41384954  0.04292461  0.73068408  1
  O2-  O267  1  0.41883717  0.54105153  0.06558161  1
  O2-  O268  1  0.41871112  0.54045691  0.40157254  1
  O2-  O269  1  0.41973196  0.54686558  0.73344259  1
  O2-  O270  1  0.91427657  0.03808980  0.06894869  1
  O2-  O271  1  0.91898303  0.04407293  0.40372448  1
  O2-  O272  1  0.91800756  0.03670462  0.73531770  1
  O2-  O273  1  0.91910910  0.53883210  0.07032720  1
  O2-  O274  1  0.91407410  0.53844816  0.39268539  1
  O2-  O275  1  0.91533624  0.53719712  0.73368392  1
  O2-  O276  1  0.29838857  0.16920953  0.05552308  1
  O2-  O277  1  0.29167818  0.17169675  0.39913695  1
  O2-  O278  1  0.29667212  0.16401510  0.72695007  1
  O2-  O279  1  0.28873168  0.66585972  0.06784527  1
  O2-  O280  1  0.29002467  0.66486653  0.40085828  1
  O2-  O281  1  0.28968839  0.67250038  0.73336750  1
  O2-  O282  1  0.79248023  0.16908224  0.06568086  1
  O2-  O283  1  0.79413002  0.17338840  0.40175510  1
  O2-  O284  1  0.78949445  0.16545393  0.73762198  1
  O2-  O285  1  0.79008079  0.66761933  0.06837039  1
  O2-  O286  1  0.79673747  0.66193844  0.39382637  1
  O2-  O287  1  0.79158740  0.66793518  0.73478144  1
