# generated using pymatgen
data_Ca2Al2SiO7
_symmetry_space_group_name_H-M   'P 1'
_cell_length_a   15.46391981
_cell_length_b   15.46358815
_cell_length_c   15.28767469
_cell_angle_alpha   89.99294596
_cell_angle_beta   89.98323175
_cell_angle_gamma   89.97770254
_symmetry_Int_Tables_number   1
_chemical_formula_structural   Ca2Al2SiO7
_chemical_formula_sum   'Ca48 Al48 Si24 O168'
_cell_volume   3655.70582992
_cell_formula_units_Z   24
loop_
 _symmetry_equiv_pos_site_id
 _symmetry_equiv_pos_as_xyz
  1  'x, y, z'
loop_
 _atom_type_symbol
 _atom_type_oxidation_number
  Ca2+  2.0
  Al0+  0.0
  Si0+  0.0
  O2-  -2.0
loop_
 _atom_site_type_symbol
 _atom_site_label
 _atom_site_symmetry_multiplicity
 _atom_site_fract_x
 _atom_site_fract_y
 _atom_site_fract_z
 _atom_site_occupancy
  Ca2+  Ca0  1  0.17019731  0.07552810  0.17347818  1
  Ca2+  Ca1  1  0.17601275  0.07313829  0.50652843  1
  Ca2+  Ca2  1  0.16555637  0.08316070  0.83133109  1
  Ca2+  Ca3  1  0.16505275  0.58224849  0.16918427  1
  Ca2+  Ca4  1  0.17769925  0.57974680  0.50918731  1
  Ca2+  Ca5  1  0.17276608  0.58521089  0.83616102  1
  Ca2+  Ca6  1  0.67391692  0.08310032  0.16680133  1
  Ca2+  Ca7  1  0.67133703  0.08297761  0.50878998  1
  Ca2+  Ca8  1  0.68037773  0.08698649  0.83739795  1
  Ca2+  Ca9  1  0.67373442  0.59737628  0.16842580  1
  Ca2+  Ca10  1  0.66278798  0.58258632  0.50514754  1
  Ca2+  Ca11  1  0.66232115  0.58143434  0.83746540  1
  Ca2+  Ca12  1  0.08236262  0.32392822  0.15772012  1
  Ca2+  Ca13  1  0.08159689  0.32619091  0.50266285  1
  Ca2+  Ca14  1  0.07471866  0.31938516  0.82517083  1
  Ca2+  Ca15  1  0.08030645  0.82894370  0.15856547  1
  Ca2+  Ca16  1  0.08714521  0.84081488  0.50036143  1
  Ca2+  Ca17  1  0.08016050  0.83384954  0.83277039  1
  Ca2+  Ca18  1  0.57143632  0.33282034  0.16494009  1
  Ca2+  Ca19  1  0.57588576  0.33502087  0.50166811  1
  Ca2+  Ca20  1  0.57645417  0.33753709  0.82674022  1
  Ca2+  Ca21  1  0.57436225  0.82816575  0.16131677  1
  Ca2+  Ca22  1  0.57219560  0.82594042  0.49460539  1
  Ca2+  Ca23  1  0.57610814  0.82301017  0.82812620  1
  Ca2+  Ca24  1  0.33676670  0.41427041  0.16944606  1
  Ca2+  Ca25  1  0.34331618  0.42168875  0.50842980  1
  Ca2+  Ca26  1  0.34270519  0.42173829  0.83469255  1
  Ca2+  Ca27  1  0.33052214  0.91706389  0.17770077  1
  Ca2+  Ca28  1  0.32922052  0.91786419  0.51031470  1
  Ca2+  Ca29  1  0.33396297  0.91555783  0.83409338  1
  Ca2+  Ca30  1  0.83278878  0.43307020  0.17222818  1
  Ca2+  Ca31  1  0.82564304  0.42102133  0.51009752  1
  Ca2+  Ca32  1  0.82616657  0.41660600  0.83761165  1
  Ca2+  Ca33  1  0.83740711  0.91688911  0.16489821  1
  Ca2+  Ca34  1  0.82833106  0.92245013  0.50794176  1
  Ca2+  Ca35  1  0.83799725  0.92475268  0.83911755  1
  Ca2+  Ca36  1  0.40732975  0.17511478  0.16450642  1
  Ca2+  Ca37  1  0.40064243  0.17539631  0.49789844  1
  Ca2+  Ca38  1  0.41194020  0.17789691  0.82586478  1
  Ca2+  Ca39  1  0.42627567  0.67874536  0.15957045  1
  Ca2+  Ca40  1  0.42305042  0.67265595  0.49901691  1
  Ca2+  Ca41  1  0.42266825  0.67423001  0.82489651  1
  Ca2+  Ca42  1  0.92539833  0.16384189  0.15562534  1
  Ca2+  Ca43  1  0.91821285  0.16717917  0.50423312  1
  Ca2+  Ca44  1  0.92347105  0.16182287  0.82290111  1
  Ca2+  Ca45  1  0.91887642  0.66959705  0.15550481  1
  Ca2+  Ca46  1  0.91793569  0.66509994  0.49469753  1
  Ca2+  Ca47  1  0.91893442  0.66549727  0.83578835  1
  Al0+  Al48  1  0.00259435  -0.00084384  -0.00178267  1
  Al0+  Al49  1  0.00141281  0.00057021  0.33691003  1
  Al0+  Al50  1  0.00106492  -0.00100216  0.66752686  1
  Al0+  Al51  1  -0.00004898  0.49819574  0.00074733  1
  Al0+  Al52  1  -0.00129898  0.50003282  0.33822500  1
  Al0+  Al53  1  -0.00016067  0.50010186  0.66283388  1
  Al0+  Al54  1  0.50117412  0.00308495  -0.00157443  1
  Al0+  Al55  1  0.50220181  0.00374232  0.33406692  1
  Al0+  Al56  1  0.49952954  -0.00023867  0.66920172  1
  Al0+  Al57  1  0.49886372  0.49982567  -0.00207857  1
  Al0+  Al58  1  0.50213552  0.49826805  0.32392966  1
  Al0+  Al59  1  0.50181798  0.49979362  0.66830275  1
  Al0+  Al60  1  0.24829777  0.25059782  -0.00794577  1
  Al0+  Al61  1  0.24657691  0.24879389  0.33173157  1
  Al0+  Al62  1  0.24686555  0.24874692  0.66122423  1
  Al0+  Al63  1  0.24998836  0.74952059  -0.00370212  1
  Al0+  Al64  1  0.24821565  0.74727985  0.33384632  1
  Al0+  Al65  1  0.24906864  0.74879194  0.67234591  1
  Al0+  Al66  1  0.74874747  0.25107044  0.01027821  1
  Al0+  Al67  1  0.74973849  0.25362854  0.33175507  1
  Al0+  Al68  1  0.74932409  0.25256491  0.67132134  1
  Al0+  Al69  1  0.74952433  0.75120170  -0.00383797  1
  Al0+  Al70  1  0.75276037  0.75233287  0.33585192  1
  Al0+  Al71  1  0.75160974  0.74915299  0.66304163  1
  Al0+  Al72  1  0.32225564  0.07183870  0.34661815  1
  Al0+  Al73  1  0.82034349  0.57279329  0.34850533  1
  Al0+  Al74  1  0.92633322  0.32171444  0.65179583  1
  Al0+  Al75  1  0.81812393  0.06941813  0.67888292  1
  Al0+  Al76  1  0.07140896  0.67522095  0.98483960  1
  Al0+  Al77  1  0.42753196  0.82499572  0.98474721  1
  Al0+  Al78  1  0.17980997  0.92615053  0.34747856  1
  Al0+  Al79  1  0.68020422  0.43169372  0.68079238  1
  Al0+  Al80  1  0.17967003  0.92803376  0.68588557  1
  Al0+  Al81  1  0.32099113  0.56804081  0.68016082  1
  Al0+  Al82  1  0.57264184  0.68011474  0.31724388  1
  Al0+  Al83  1  0.42969236  0.31864918  0.98515802  1
  Al0+  Al84  1  0.57121062  0.68010719  0.98411324  1
  Al0+  Al85  1  0.32203163  0.07271894  0.68394493  1
  Al0+  Al86  1  0.42837905  0.31774111  0.31968950  1
  Al0+  Al87  1  0.42676284  0.82302961  0.31989647  1
  Al0+  Al88  1  0.42963019  0.31909367  0.65367966  1
  Al0+  Al89  1  0.57199734  0.67846236  0.65065000  1
  Al0+  Al90  1  0.42712949  0.82211549  0.65129563  1
  Al0+  Al91  1  0.92969178  0.82074180  0.98501325  1
  Al0+  Al92  1  0.82354846  0.07010099  0.01457022  1
  Al0+  Al93  1  0.82001973  0.57001074  0.01268013  1
  Al0+  Al94  1  0.06940357  0.17851366  0.98616381  1
  Al0+  Al95  1  0.06984383  0.17607434  0.64711039  1
  Si0+  Si96  1  0.18032181  0.42829851  0.01408996  1
  Si0+  Si97  1  0.57527892  0.17882057  0.98365263  1
  Si0+  Si98  1  0.93122658  0.82247971  0.32009099  1
  Si0+  Si99  1  0.18134431  0.92838482  0.01559432  1
  Si0+  Si100  1  0.32071565  0.07370748  0.01365000  1
  Si0+  Si101  1  0.67788104  0.42862158  0.35071420  1
  Si0+  Si102  1  0.82184061  0.07327425  0.34773674  1
  Si0+  Si103  1  0.67438441  0.42842419  0.02131353  1
  Si0+  Si104  1  0.32106945  0.57122225  0.01671668  1
  Si0+  Si105  1  0.68036970  0.93046221  0.34799850  1
  Si0+  Si106  1  0.06674378  0.18002880  0.31679985  1
  Si0+  Si107  1  0.93018851  0.82059742  0.65022691  1
  Si0+  Si108  1  0.67770548  0.92920679  0.01688990  1
  Si0+  Si109  1  0.07001222  0.67610051  0.32008717  1
  Si0+  Si110  1  0.82477751  0.57399219  0.68418897  1
  Si0+  Si111  1  0.92778077  0.32297858  0.31692061  1
  Si0+  Si112  1  0.92637911  0.32134686  0.98686833  1
  Si0+  Si113  1  0.57309745  0.17786224  0.65288323  1
  Si0+  Si114  1  0.17751575  0.42805191  0.34800903  1
  Si0+  Si115  1  0.32193557  0.56766261  0.34530075  1
  Si0+  Si116  1  0.07109906  0.67800563  0.65050359  1
  Si0+  Si117  1  0.57754248  0.17781194  0.31579598  1
  Si0+  Si118  1  0.17539869  0.42756559  0.68323933  1
  Si0+  Si119  1  0.67737531  0.92492396  0.68336293  1
  O2-  O120  1  0.25582513  -0.00306996  0.05635642  1
  O2-  O121  1  0.25933319  -0.00894562  0.39523573  1
  O2-  O122  1  0.25291491  -0.00110761  0.73570033  1
  O2-  O123  1  0.24897360  0.50051094  0.05915536  1
  O2-  O124  1  0.25204603  0.49563412  0.38889287  1
  O2-  O125  1  0.24751504  0.49182750  0.72809931  1
  O2-  O126  1  0.74842114  -0.00365730  0.06260912  1
  O2-  O127  1  0.74810321  0.00559345  0.38958584  1
  O2-  O128  1  0.74356102  -0.00392192  0.72755920  1
  O2-  O129  1  0.74362544  0.49825190  0.06308882  1
  O2-  O130  1  0.74399147  0.50005945  0.39426209  1
  O2-  O131  1  0.75553642  0.50599971  0.72721620  1
  O2-  O132  1  -0.00436918  0.25013464  0.27277626  1
  O2-  O133  1  -0.00233674  0.25012686  0.59939024  1
  O2-  O134  1  -0.01236966  0.24687661  0.94238332  1
  O2-  O135  1  0.00172518  0.75033503  0.27923782  1
  O2-  O136  1  -0.00000612  0.74858666  0.60741537  1
  O2-  O137  1  -0.00071424  0.74666026  0.93463268  1
  O2-  O138  1  0.50154318  0.24042389  0.27405312  1
  O2-  O139  1  0.49858949  0.23907048  0.60664292  1
  O2-  O140  1  0.50640933  0.24643506  0.93936693  1
  O2-  O141  1  0.49930398  0.75188374  0.26906914  1
  O2-  O142  1  0.50129110  0.75210647  0.60192314  1
  O2-  O143  1  0.49805708  0.75128207  0.93597571  1
  O2-  O144  1  0.07075992  0.18082948  0.10021427  1
  O2-  O145  1  0.06472471  0.18074731  0.42104281  1
  O2-  O146  1  0.06678371  0.17714537  0.76083026  1
  O2-  O147  1  0.07101381  0.67635927  0.09933818  1
  O2-  O148  1  0.06856261  0.67212971  0.42496918  1
  O2-  O149  1  0.06876464  0.67547595  0.75516207  1
  O2-  O150  1  0.57534179  0.17882432  0.08957948  1
  O2-  O151  1  0.58814022  0.18134975  0.42038197  1
  O2-  O152  1  0.57633024  0.18285412  0.75827951  1
  O2-  O153  1  0.57037110  0.68324673  0.09798194  1
  O2-  O154  1  0.57088479  0.68006219  0.43038201  1
  O2-  O155  1  0.57147967  0.67937294  0.76388681  1
  O2-  O156  1  0.17470697  0.42883224  0.24249657  1
  O2-  O157  1  0.17393971  0.43233071  0.57704677  1
  O2-  O158  1  0.18115695  0.42782670  0.90967992  1
  O2-  O159  1  0.17382272  0.92965951  0.23362806  1
  O2-  O160  1  0.17945979  0.92877117  0.57203230  1
  O2-  O161  1  0.17880718  0.92894751  0.91129050  1
  O2-  O162  1  0.68102268  0.42487004  0.24538666  1
  O2-  O163  1  0.68010182  0.43173927  0.56738688  1
  O2-  O164  1  0.67526148  0.42588058  0.91593622  1
  O2-  O165  1  0.68338312  0.92941353  0.24295298  1
  O2-  O166  1  0.68157349  0.92571875  0.57709147  1
  O2-  O167  1  0.67748823  0.93201307  0.91175205  1
  O2-  O168  1  0.42765128  0.31618606  0.09875935  1
  O2-  O169  1  0.42946043  0.32006339  0.43227892  1
  O2-  O170  1  0.43273406  0.32054038  0.76655503  1
  O2-  O171  1  0.42721304  0.82432706  0.09890925  1
  O2-  O172  1  0.42722882  0.81991808  0.43285774  1
  O2-  O173  1  0.42876423  0.81940937  0.76456927  1
  O2-  O174  1  0.93187468  0.32222622  0.09312006  1
  O2-  O175  1  0.92827810  0.32224774  0.42144807  1
  O2-  O176  1  0.92790774  0.32079211  0.76556671  1
  O2-  O177  1  0.93345490  0.82130611  0.09957597  1
  O2-  O178  1  0.93088101  0.82357974  0.42525605  1
  O2-  O179  1  0.92954604  0.82053068  0.75481287  1
  O2-  O180  1  0.31482762  0.07536118  0.23233084  1
  O2-  O181  1  0.31904553  0.07299420  0.57036486  1
  O2-  O182  1  0.31794925  0.07653166  0.90933588  1
  O2-  O183  1  0.31782899  0.56682142  0.23998060  1
  O2-  O184  1  0.31925445  0.56653558  0.56609665  1
  O2-  O185  1  0.32115798  0.56918784  0.91195907  1
  O2-  O186  1  0.82382741  0.07106718  0.24258022  1
  O2-  O187  1  0.81600709  0.06751705  0.56487478  1
  O2-  O188  1  0.82202658  0.07034000  0.90199033  1
  O2-  O189  1  0.82398826  0.57173848  0.23539292  1
  O2-  O190  1  0.82551214  0.57320454  0.57827301  1
  O2-  O191  1  0.82245190  0.56470251  0.90017961  1
  O2-  O192  1  0.03794474  0.08782022  0.26989482  1
  O2-  O193  1  0.03765918  0.07868332  0.59454639  1
  O2-  O194  1  0.04365228  0.08178783  0.93278868  1
  O2-  O195  1  0.03953495  0.58513668  0.27155587  1
  O2-  O196  1  0.04446250  0.58700781  0.60016863  1
  O2-  O197  1  0.04398760  0.57652641  0.93242369  1
  O2-  O198  1  0.55998660  0.08231430  0.27081573  1
  O2-  O199  1  0.55742876  0.08108152  0.61004194  1
  O2-  O200  1  0.55347974  0.08520738  0.93763458  1
  O2-  O201  1  0.54831430  0.58127010  0.26349313  1
  O2-  O202  1  0.54039621  0.58110509  0.59831640  1
  O2-  O203  1  0.54324524  0.58069485  0.93466680  1
  O2-  O204  1  0.15736557  0.20962667  0.26822785  1
  O2-  O205  1  0.16629021  0.20691443  0.59219138  1
  O2-  O206  1  0.16124337  0.21592090  0.92940892  1
  O2-  O207  1  0.16224652  0.69911043  0.27154301  1
  O2-  O208  1  0.16282822  0.70582073  0.60379966  1
  O2-  O209  1  0.16930075  0.70300283  0.93272197  1
  O2-  O210  1  0.66758808  0.21059551  0.26424627  1
  O2-  O211  1  0.66361036  0.21031148  0.60426449  1
  O2-  O212  1  0.66983612  0.20589451  0.94022040  1
  O2-  O213  1  0.67207717  0.71287163  0.26776205  1
  O2-  O214  1  0.67200329  0.70398133  0.59821421  1
  O2-  O215  1  0.66913160  0.70630299  0.93076602  1
  O2-  O216  1  0.08825266  0.45328370  0.06375086  1
  O2-  O217  1  0.08802874  0.45885849  0.39789906  1
  O2-  O218  1  0.08324379  0.45776876  0.72973157  1
  O2-  O219  1  0.09084685  0.95961023  0.06421399  1
  O2-  O220  1  0.08371170  0.96218447  0.40231820  1
  O2-  O221  1  0.08084670  0.95822620  0.73690192  1
  O2-  O222  1  0.58031202  0.45419805  0.06665219  1
  O2-  O223  1  0.58248008  0.45231339  0.39371080  1
  O2-  O224  1  0.58542165  0.46258876  0.73735925  1
  O2-  O225  1  0.58536571  0.95855149  0.06536236  1
  O2-  O226  1  0.58847593  0.95528073  0.39637171  1
  O2-  O227  1  0.58326601  0.94610970  0.72851689  1
  O2-  O228  1  0.21107175  0.33702307  0.06265773  1
  O2-  O229  1  0.20144849  0.33522996  0.39399463  1
  O2-  O230  1  0.19517973  0.33156719  0.72446828  1
  O2-  O231  1  0.20508055  0.83483445  0.06268371  1
  O2-  O232  1  0.19643079  0.82400550  0.39823508  1
  O2-  O233  1  0.20268690  0.82847502  0.73835164  1
  O2-  O234  1  0.69874096  0.33545533  0.07027965  1
  O2-  O235  1  0.70687053  0.33614877  0.39807758  1
  O2-  O236  1  0.71024700  0.33641980  0.73816480  1
  O2-  O237  1  0.70338595  0.83572588  0.06291675  1
  O2-  O238  1  0.71394278  0.84212252  0.39834324  1
  O2-  O239  1  0.70816320  0.83259049  0.72852199  1
  O2-  O240  1  0.46054766  0.41221039  0.26163945  1
  O2-  O241  1  0.46636660  0.41372561  0.60007695  1
  O2-  O242  1  0.45823423  0.41615728  0.93360526  1
  O2-  O243  1  0.45446187  0.92358897  0.26986278  1
  O2-  O244  1  0.45342209  0.92240309  0.60062697  1
  O2-  O245  1  0.45517336  0.92420336  0.93380677  1
  O2-  O246  1  0.96017739  0.41422091  0.27057884  1
  O2-  O247  1  0.95542000  0.41993005  0.59730767  1
  O2-  O248  1  0.95750120  0.41138865  0.93886029  1
  O2-  O249  1  0.95925613  0.91439519  0.27233417  1
  O2-  O250  1  0.95907383  0.91117168  0.60130499  1
  O2-  O251  1  0.96222519  0.91715729  0.93161423  1
  O2-  O252  1  0.32994397  0.28966028  0.26555754  1
  O2-  O253  1  0.33077280  0.29666502  0.60007823  1
  O2-  O254  1  0.33441660  0.28863631  0.92984903  1
  O2-  O255  1  0.32764202  0.79283707  0.26782411  1
  O2-  O256  1  0.32824793  0.78938382  0.60185196  1
  O2-  O257  1  0.32944837  0.79663045  0.93328088  1
  O2-  O258  1  0.83522020  0.29928888  0.26931796  1
  O2-  O259  1  0.82820333  0.29223009  0.59867022  1
  O2-  O260  1  0.82887380  0.30326680  0.94772709  1
  O2-  O261  1  0.83983130  0.79599988  0.27208983  1
  O2-  O262  1  0.83866484  0.79458861  0.60068240  1
  O2-  O263  1  0.83069022  0.79857792  0.93264748  1
  O2-  O264  1  0.41585462  0.05479824  0.05899085  1
  O2-  O265  1  0.42633186  0.06204104  0.39396316  1
  O2-  O266  1  0.42316957  0.05135376  0.73532209  1
  O2-  O267  1  0.41186202  0.54064949  0.06475253  1
  O2-  O268  1  0.41464066  0.53877380  0.38943755  1
  O2-  O269  1  0.41617973  0.53679740  0.73516098  1
  O2-  O270  1  0.91998157  0.03741350  0.06915648  1
  O2-  O271  1  0.91168627  0.04242296  0.39643132  1
  O2-  O272  1  0.91412048  0.03650210  0.73094575  1
  O2-  O273  1  0.91664397  0.53716504  0.06856146  1
  O2-  O274  1  0.91580017  0.53885581  0.40385123  1
  O2-  O275  1  0.91906643  0.54836788  0.72836873  1
  O2-  O276  1  0.28530831  0.16381210  0.06096256  1
  O2-  O277  1  0.28246177  0.16706928  0.39972281  1
  O2-  O278  1  0.28920212  0.17204815  0.73386983  1
  O2-  O279  1  0.29288015  0.66328331  0.06379240  1
  O2-  O280  1  0.29236655  0.65811477  0.39376116  1
  O2-  O281  1  0.28697514  0.66191513  0.73612548  1
  O2-  O282  1  0.79401060  0.16657115  0.07174179  1
  O2-  O283  1  0.79657926  0.16715955  0.39188589  1
  O2-  O284  1  0.78927448  0.16564250  0.73370161  1
  O2-  O285  1  0.79287146  0.66934759  0.06471884  1
  O2-  O286  1  0.79579262  0.67096647  0.40247096  1
  O2-  O287  1  0.80159026  0.66885581  0.72809754  1
