# generated using pymatgen
data_Ca2Al2SiO7
_symmetry_space_group_name_H-M   'P 1'
_cell_length_a   15.46094712
_cell_length_b   15.46115027
_cell_length_c   15.28562397
_cell_angle_alpha   90.00140813
_cell_angle_beta   90.00692508
_cell_angle_gamma   89.98973822
_symmetry_Int_Tables_number   1
_chemical_formula_structural   Ca2Al2SiO7
_chemical_formula_sum   'Ca48 Al48 Si24 O168'
_cell_volume   3653.93701998
_cell_formula_units_Z   24
loop_
 _symmetry_equiv_pos_site_id
 _symmetry_equiv_pos_as_xyz
  1  'x, y, z'
loop_
 _atom_type_symbol
 _atom_type_oxidation_number
  Ca2+  2.0
  Al0+  0.0
  Si0+  0.0
  O2-  -2.0
loop_
 _atom_site_type_symbol
 _atom_site_label
 _atom_site_symmetry_multiplicity
 _atom_site_fract_x
 _atom_site_fract_y
 _atom_site_fract_z
 _atom_site_occupancy
  Ca2+  Ca0  1  0.17795274  0.09309640  0.16743874  1
  Ca2+  Ca1  1  0.17743551  0.08534517  0.50676115  1
  Ca2+  Ca2  1  0.17299660  0.08905700  0.84026243  1
  Ca2+  Ca3  1  0.16438448  0.58421242  0.16483531  1
  Ca2+  Ca4  1  0.16130697  0.57863823  0.50466593  1
  Ca2+  Ca5  1  0.17071036  0.57349557  0.84650056  1
  Ca2+  Ca6  1  0.66332518  0.07877349  0.17341848  1
  Ca2+  Ca7  1  0.66939167  0.06871194  0.50352663  1
  Ca2+  Ca8  1  0.65969133  0.07664335  0.83826575  1
  Ca2+  Ca9  1  0.66413085  0.57627413  0.16823605  1
  Ca2+  Ca10  1  0.66350278  0.58190622  0.49691449  1
  Ca2+  Ca11  1  0.67270254  0.57946349  0.84856076  1
  Ca2+  Ca12  1  0.07244651  0.33344751  0.15616847  1
  Ca2+  Ca13  1  0.08220181  0.33015800  0.49736499  1
  Ca2+  Ca14  1  0.09252562  0.32767425  0.83355508  1
  Ca2+  Ca15  1  0.08109147  0.82419766  0.16364547  1
  Ca2+  Ca16  1  0.07642476  0.82676816  0.48850568  1
  Ca2+  Ca17  1  0.08589373  0.82634575  0.83391315  1
  Ca2+  Ca18  1  0.58108531  0.33107807  0.15304730  1
  Ca2+  Ca19  1  0.58238631  0.33142813  0.49199141  1
  Ca2+  Ca20  1  0.57866308  0.33319769  0.83846829  1
  Ca2+  Ca21  1  0.58258788  0.82520986  0.16611974  1
  Ca2+  Ca22  1  0.57804592  0.83504582  0.49230358  1
  Ca2+  Ca23  1  0.57856885  0.82826743  0.82870082  1
  Ca2+  Ca24  1  0.33224711  0.41962547  0.16266242  1
  Ca2+  Ca25  1  0.32455185  0.42229213  0.50687391  1
  Ca2+  Ca26  1  0.32397390  0.41765262  0.84512417  1
  Ca2+  Ca27  1  0.33933543  0.92886434  0.17258287  1
  Ca2+  Ca28  1  0.34330091  0.92507235  0.50348652  1
  Ca2+  Ca29  1  0.33933723  0.92670104  0.83637340  1
  Ca2+  Ca30  1  0.82644784  0.41299734  0.16927117  1
  Ca2+  Ca31  1  0.83005964  0.41300591  0.49668366  1
  Ca2+  Ca32  1  0.82806366  0.41993114  0.84611159  1
  Ca2+  Ca33  1  0.82854061  0.91590939  0.17392887  1
  Ca2+  Ca34  1  0.82141500  0.90286101  0.50047852  1
  Ca2+  Ca35  1  0.82628052  0.91728582  0.83708486  1
  Ca2+  Ca36  1  0.41918860  0.16984370  0.15697273  1
  Ca2+  Ca37  1  0.41342305  0.16340949  0.49771515  1
  Ca2+  Ca38  1  0.41173915  0.16839610  0.83720790  1
  Ca2+  Ca39  1  0.42666874  0.66543002  0.15932316  1
  Ca2+  Ca40  1  0.42106335  0.68298399  0.48908769  1
  Ca2+  Ca41  1  0.42068419  0.66511423  0.83185692  1
  Ca2+  Ca42  1  0.91899961  0.17876447  0.15656076  1
  Ca2+  Ca43  1  0.92439731  0.17117518  0.49402560  1
  Ca2+  Ca44  1  0.92851989  0.17414205  0.83247540  1
  Ca2+  Ca45  1  0.92257856  0.66694173  0.16299341  1
  Ca2+  Ca46  1  0.92389571  0.67126291  0.48949441  1
  Ca2+  Ca47  1  0.92112746  0.65689514  0.83880882  1
  Al0+  Al48  1  -0.00181285  -0.00027151  -0.00338013  1
  Al0+  Al49  1  0.00364847  0.00088285  0.32909475  1
  Al0+  Al50  1  0.00031540  0.00026628  0.66105343  1
  Al0+  Al51  1  -0.00148778  0.50242810  -0.00005414  1
  Al0+  Al52  1  -0.00075365  0.49786286  0.32845597  1
  Al0+  Al53  1  -0.00188922  0.49813839  0.66956291  1
  Al0+  Al54  1  0.49900195  -0.00042230  0.00177573  1
  Al0+  Al55  1  0.50180913  0.00135195  0.33889289  1
  Al0+  Al56  1  0.50112293  -0.00003541  0.67186946  1
  Al0+  Al57  1  0.49943588  0.50004298  -0.00327870  1
  Al0+  Al58  1  0.49829004  0.49991560  0.33759263  1
  Al0+  Al59  1  0.50067403  0.49891827  0.66480225  1
  Al0+  Al60  1  0.25056519  0.25025829  0.00330141  1
  Al0+  Al61  1  0.25143505  0.25143269  0.33963394  1
  Al0+  Al62  1  0.25018513  0.25035838  0.66833037  1
  Al0+  Al63  1  0.24855078  0.75177392  -0.00102605  1
  Al0+  Al64  1  0.25117048  0.75304811  0.32638851  1
  Al0+  Al65  1  0.25124408  0.75165541  0.66092825  1
  Al0+  Al66  1  0.75003351  0.24703395  -0.00711786  1
  Al0+  Al67  1  0.75036532  0.24932136  0.33683683  1
  Al0+  Al68  1  0.75068913  0.24945306  0.66593279  1
  Al0+  Al69  1  0.74853632  0.74974145  -0.00032055  1
  Al0+  Al70  1  0.75050843  0.74809569  0.33140610  1
  Al0+  Al71  1  0.75009504  0.74822336  0.67217409  1
  Al0+  Al72  1  0.31979971  0.07077797  0.34903321  1
  Al0+  Al73  1  0.07252076  0.17984425  0.65102985  1
  Al0+  Al74  1  0.57009220  0.67940552  0.98555279  1
  Al0+  Al75  1  0.92792358  0.32304091  0.98359505  1
  Al0+  Al76  1  0.07142769  0.17920476  0.98615448  1
  Al0+  Al77  1  0.31930636  0.06919148  0.01480031  1
  Al0+  Al78  1  0.67739828  0.42766508  0.34766442  1
  Al0+  Al79  1  0.17930777  0.43147029  0.68021724  1
  Al0+  Al80  1  0.92800343  0.82284966  0.31852791  1
  Al0+  Al81  1  0.67970000  0.42699913  0.01335206  1
  Al0+  Al82  1  0.07235502  0.67756034  0.31801529  1
  Al0+  Al83  1  0.57116162  0.17579184  0.98524728  1
  Al0+  Al84  1  0.56978462  0.67670024  0.31808399  1
  Al0+  Al85  1  0.43095531  0.82149476  0.65298610  1
  Al0+  Al86  1  0.17875067  0.42881288  0.01723106  1
  Al0+  Al87  1  0.68088894  0.92923277  0.68245834  1
  Al0+  Al88  1  0.42890716  0.32148707  0.98571237  1
  Al0+  Al89  1  0.43088252  0.82573761  0.31648227  1
  Al0+  Al90  1  0.92838783  0.31771460  0.31978131  1
  Al0+  Al91  1  0.82102088  0.57279482  0.01768504  1
  Al0+  Al92  1  0.31964361  0.06934622  0.68262660  1
  Al0+  Al93  1  0.32155332  0.57386845  0.01450097  1
  Al0+  Al94  1  0.68280120  0.92807120  0.34608988  1
  Al0+  Al95  1  0.07098127  0.68042865  0.98462131  1
  Si0+  Si96  1  0.82181496  0.06951800  0.01352028  1
  Si0+  Si97  1  0.17862508  0.43149593  0.34926443  1
  Si0+  Si98  1  0.42938766  0.32083785  0.65014480  1
  Si0+  Si99  1  0.57015137  0.18087597  0.32266168  1
  Si0+  Si100  1  0.92776410  0.82034098  0.65292452  1
  Si0+  Si101  1  0.32166722  0.57354445  0.34872721  1
  Si0+  Si102  1  0.17747362  0.92661771  0.35013309  1
  Si0+  Si103  1  0.06966450  0.67794295  0.65340782  1
  Si0+  Si104  1  0.92677572  0.32240125  0.64785711  1
  Si0+  Si105  1  0.82383556  0.07321775  0.68357696  1
  Si0+  Si106  1  0.57207494  0.17936432  0.65013747  1
  Si0+  Si107  1  0.17484206  0.92612605  0.68193687  1
  Si0+  Si108  1  0.17438710  0.92787347  0.01702818  1
  Si0+  Si109  1  0.81927498  0.56946241  0.68120311  1
  Si0+  Si110  1  0.92625844  0.82233746  0.98109358  1
  Si0+  Si111  1  0.42777566  0.82294213  0.98354551  1
  Si0+  Si112  1  0.32214795  0.57455403  0.68055062  1
  Si0+  Si113  1  0.82506735  0.07283180  0.34900976  1
  Si0+  Si114  1  0.57375985  0.67695445  0.64969787  1
  Si0+  Si115  1  0.67741260  0.42647246  0.68164928  1
  Si0+  Si116  1  0.82268950  0.56933303  0.35062916  1
  Si0+  Si117  1  0.42781043  0.32156768  0.32134950  1
  Si0+  Si118  1  0.07575824  0.17979712  0.31744897  1
  Si0+  Si119  1  0.67853865  0.92948130  0.01586439  1
  O2-  O120  1  0.24231421  -0.00301926  0.06154005  1
  O2-  O121  1  0.24583819  -0.00498591  0.39573878  1
  O2-  O122  1  0.24307404  -0.00523466  0.72657288  1
  O2-  O123  1  0.24950954  0.50274611  0.06661112  1
  O2-  O124  1  0.24611794  0.50657468  0.39141310  1
  O2-  O125  1  0.25301076  0.50747899  0.72518263  1
  O2-  O126  1  0.74887221  0.00139178  0.05712108  1
  O2-  O127  1  0.76297557  -0.00202805  0.39364525  1
  O2-  O128  1  0.75551105  0.00453124  0.72871095  1
  O2-  O129  1  0.75144817  0.49754179  0.06586186  1
  O2-  O130  1  0.75170343  0.50288589  0.39581739  1
  O2-  O131  1  0.74652877  0.49952568  0.72155779  1
  O2-  O132  1  0.00157878  0.24181293  0.27401987  1
  O2-  O133  1  -0.00399351  0.25350367  0.60476119  1
  O2-  O134  1  0.00423458  0.25497098  0.93425533  1
  O2-  O135  1  0.00106486  0.75163943  0.27016764  1
  O2-  O136  1  0.00180684  0.75199874  0.61132369  1
  O2-  O137  1  -0.00477532  0.75403326  0.93654068  1
  O2-  O138  1  0.50262180  0.25446067  0.28073135  1
  O2-  O139  1  0.50204330  0.25140472  0.60703846  1
  O2-  O140  1  0.50078762  0.24919001  0.93479208  1
  O2-  O141  1  0.49820871  0.74903403  0.26783871  1
  O2-  O142  1  0.50394200  0.74451906  0.60633432  1
  O2-  O143  1  0.49234165  0.75074840  0.93861489  1
  O2-  O144  1  0.06719802  0.17777071  0.09987187  1
  O2-  O145  1  0.07680661  0.18321880  0.42348641  1
  O2-  O146  1  0.07202735  0.18097721  0.76338813  1
  O2-  O147  1  0.07070294  0.68409568  0.09701869  1
  O2-  O148  1  0.06927467  0.67672594  0.43316542  1
  O2-  O149  1  0.06850624  0.67759321  0.75800260  1
  O2-  O150  1  0.56959567  0.17323421  0.09937342  1
  O2-  O151  1  0.56903641  0.18145702  0.42835674  1
  O2-  O152  1  0.57325118  0.18059832  0.75458745  1
  O2-  O153  1  0.57170429  0.68181901  0.09812796  1
  O2-  O154  1  0.56713682  0.67699449  0.43254922  1
  O2-  O155  1  0.57417038  0.67657823  0.75506599  1
  O2-  O156  1  0.18003311  0.42802529  0.24508398  1
  O2-  O157  1  0.17930767  0.43388409  0.56613094  1
  O2-  O158  1  0.18161140  0.42984967  0.90314589  1
  O2-  O159  1  0.17594804  0.92805263  0.24502234  1
  O2-  O160  1  0.17315939  0.92545411  0.57649983  1
  O2-  O161  1  0.17462998  0.92786306  0.91100010  1
  O2-  O162  1  0.67679832  0.42396947  0.23590555  1
  O2-  O163  1  0.67712311  0.42570198  0.57629865  1
  O2-  O164  1  0.68065514  0.42985859  0.89884951  1
  O2-  O165  1  0.68095130  0.93286265  0.23320916  1
  O2-  O166  1  0.68283825  0.92863712  0.56928571  1
  O2-  O167  1  0.67970765  0.92969822  0.91038467  1
  O2-  O168  1  0.42994294  0.31929681  0.09990326  1
  O2-  O169  1  0.42694577  0.32027586  0.42718804  1
  O2-  O170  1  0.43029485  0.32263656  0.75447826  1
  O2-  O171  1  0.43225197  0.82585072  0.08874232  1
  O2-  O172  1  0.43428995  0.82558718  0.43067909  1
  O2-  O173  1  0.43238243  0.82003022  0.76585101  1
  O2-  O174  1  0.92596519  0.31762911  0.09731848  1
  O2-  O175  1  0.93068378  0.31716465  0.43361993  1
  O2-  O176  1  0.92368671  0.32307081  0.75248462  1
  O2-  O177  1  0.92632564  0.82461649  0.08626407  1
  O2-  O178  1  0.92871503  0.81830555  0.43324203  1
  O2-  O179  1  0.92675870  0.82035881  0.75772323  1
  O2-  O180  1  0.31938497  0.07388662  0.23649321  1
  O2-  O181  1  0.32009933  0.06878696  0.56919666  1
  O2-  O182  1  0.31995729  0.06639930  0.90163053  1
  O2-  O183  1  0.32524694  0.56904780  0.24447573  1
  O2-  O184  1  0.32098689  0.57282407  0.57450882  1
  O2-  O185  1  0.31926097  0.57374980  0.90011918  1
  O2-  O186  1  0.81957127  0.07595472  0.24367815  1
  O2-  O187  1  0.82150975  0.07441390  0.57788200  1
  O2-  O188  1  0.82355621  0.06516080  0.90829368  1
  O2-  O189  1  0.82451440  0.56775998  0.24606257  1
  O2-  O190  1  0.82085185  0.57084485  0.57604150  1
  O2-  O191  1  0.81706812  0.57345030  0.90287575  1
  O2-  O192  1  0.06035805  0.08363388  0.27422289  1
  O2-  O193  1  0.04347070  0.08261124  0.59568287  1
  O2-  O194  1  0.04003549  0.08165632  0.93170632  1
  O2-  O195  1  0.04295623  0.58008224  0.26583163  1
  O2-  O196  1  0.03718223  0.58727793  0.60568097  1
  O2-  O197  1  0.04009595  0.58467380  0.92951723  1
  O2-  O198  1  0.54054061  0.09047315  0.27541635  1
  O2-  O199  1  0.54261465  0.08737532  0.60448348  1
  O2-  O200  1  0.53896409  0.07849988  0.93125480  1
  O2-  O201  1  0.53936260  0.57777470  0.26765455  1
  O2-  O202  1  0.55081950  0.58190117  0.60425966  1
  O2-  O203  1  0.54226685  0.58335099  0.92949423  1
  O2-  O204  1  0.16733855  0.21314070  0.27251387  1
  O2-  O205  1  0.16834429  0.21391368  0.59662529  1
  O2-  O206  1  0.17085357  0.20502111  0.93519508  1
  O2-  O207  1  0.17070841  0.70350987  0.26536316  1
  O2-  O208  1  0.16241370  0.70131079  0.60542976  1
  O2-  O209  1  0.16668854  0.71285885  0.92845321  1
  O2-  O210  1  0.66326298  0.20389783  0.27676336  1
  O2-  O211  1  0.66452053  0.20588783  0.60212273  1
  O2-  O212  1  0.66925366  0.19838847  0.92939676  1
  O2-  O213  1  0.66937139  0.70159011  0.26836158  1
  O2-  O214  1  0.66792833  0.70368382  0.60516980  1
  O2-  O215  1  0.66529960  0.71420255  0.93022056  1
  O2-  O216  1  0.07943502  0.45726358  0.06669618  1
  O2-  O217  1  0.08572583  0.45654390  0.39681261  1
  O2-  O218  1  0.08173512  0.45886958  0.73321173  1
  O2-  O219  1  0.07957375  0.95153188  0.06155448  1
  O2-  O220  1  0.08296261  0.95140521  0.39696685  1
  O2-  O221  1  0.08017715  0.94965141  0.72720691  1
  O2-  O222  1  0.58036336  0.45458374  0.06321212  1
  O2-  O223  1  0.58094739  0.45769254  0.40483906  1
  O2-  O224  1  0.58405624  0.45139925  0.72730353  1
  O2-  O225  1  0.58733006  0.95678297  0.06336146  1
  O2-  O226  1  0.58970451  0.96581688  0.40320798  1
  O2-  O227  1  0.58622119  0.96184551  0.73781999  1
  O2-  O228  1  0.20731839  0.33134681  0.07121840  1
  O2-  O229  1  0.21173395  0.34224893  0.39990884  1
  O2-  O230  1  0.21297339  0.33598612  0.73252526  1
  O2-  O231  1  0.20019321  0.83484609  0.06290811  1
  O2-  O232  1  0.20111339  0.83191738  0.39592528  1
  O2-  O233  1  0.20139563  0.83173185  0.72688808  1
  O2-  O234  1  0.70549157  0.32563285  0.06186300  1
  O2-  O235  1  0.71053818  0.33213386  0.40501228  1
  O2-  O236  1  0.70605355  0.33474751  0.72799937  1
  O2-  O237  1  0.70826508  0.83865739  0.06258221  1
  O2-  O238  1  0.70971834  0.83023051  0.40135945  1
  O2-  O239  1  0.71193116  0.83272832  0.73707971  1
  O2-  O240  1  0.45094587  0.41451678  0.27635873  1
  O2-  O241  1  0.45568920  0.41337741  0.60129174  1
  O2-  O242  1  0.45584118  0.41844246  0.92907406  1
  O2-  O243  1  0.46478445  0.92323842  0.26566629  1
  O2-  O244  1  0.46556979  0.91809257  0.60082597  1
  O2-  O245  1  0.45996576  0.91373783  0.93559899  1
  O2-  O246  1  0.95841775  0.41331800  0.26622573  1
  O2-  O247  1  0.95351289  0.41616433  0.60166447  1
  O2-  O248  1  0.94930494  0.42370134  0.93381291  1
  O2-  O249  1  0.95306137  0.92258061  0.26604903  1
  O2-  O250  1  0.95001841  0.91256222  0.60392656  1
  O2-  O251  1  0.95181951  0.91510112  0.93279911  1
  O2-  O252  1  0.33746390  0.29014452  0.27440510  1
  O2-  O253  1  0.33848428  0.29154603  0.60203508  1
  O2-  O254  1  0.33135353  0.29059361  0.93290638  1
  O2-  O255  1  0.33019169  0.80613835  0.26666563  1
  O2-  O256  1  0.33337447  0.79541901  0.59643929  1
  O2-  O257  1  0.33221299  0.80457542  0.93919346  1
  O2-  O258  1  0.83111939  0.28714758  0.26769229  1
  O2-  O259  1  0.83316159  0.29549118  0.60060090  1
  O2-  O260  1  0.83282858  0.28885229  0.92730081  1
  O2-  O261  1  0.83024866  0.79514550  0.26587762  1
  O2-  O262  1  0.83710246  0.78669822  0.60599366  1
  O2-  O263  1  0.83315421  0.79569774  0.93451153  1
  O2-  O264  1  0.41549821  0.03636013  0.06922619  1
  O2-  O265  1  0.41663379  0.04107981  0.40415112  1
  O2-  O266  1  0.41600455  0.03882418  0.73640512  1
  O2-  O267  1  0.41966132  0.54365283  0.06606099  1
  O2-  O268  1  0.40966839  0.54142064  0.40161962  1
  O2-  O269  1  0.41690660  0.54793062  0.72406020  1
  O2-  O270  1  0.91208534  0.04006687  0.06310132  1
  O2-  O271  1  0.92250098  0.05535910  0.39080909  1
  O2-  O272  1  0.91787618  0.04619497  0.72752992  1
  O2-  O273  1  0.92105703  0.55086732  0.06766958  1
  O2-  O274  1  0.91527803  0.53961643  0.39865055  1
  O2-  O275  1  0.90994420  0.54010621  0.72993056  1
  O2-  O276  1  0.29174238  0.16584525  0.06960985  1
  O2-  O277  1  0.28834320  0.16708461  0.40584275  1
  O2-  O278  1  0.28994920  0.16680066  0.73416126  1
  O2-  O279  1  0.29487229  0.67337859  0.06597731  1
  O2-  O280  1  0.29797846  0.66826120  0.39277505  1
  O2-  O281  1  0.29948703  0.66931442  0.72465998  1
  O2-  O282  1  0.79583758  0.16200785  0.05908379  1
  O2-  O283  1  0.79317549  0.16228169  0.40053201  1
  O2-  O284  1  0.79812417  0.16705607  0.72906368  1
  O2-  O285  1  0.79062173  0.67139197  0.06875149  1
  O2-  O286  1  0.79878500  0.66353004  0.39702878  1
  O2-  O287  1  0.79400758  0.66038193  0.73132748  1
