# generated using pymatgen
data_Ca2Al2SiO7
_symmetry_space_group_name_H-M   'P 1'
_cell_length_a   15.45847686
_cell_length_b   15.45843221
_cell_length_c   15.28400112
_cell_angle_alpha   89.99531277
_cell_angle_beta   89.99795677
_cell_angle_gamma   90.00985917
_symmetry_Int_Tables_number   1
_chemical_formula_structural   Ca2Al2SiO7
_chemical_formula_sum   'Ca48 Al48 Si24 O168'
_cell_volume   3652.32317469
_cell_formula_units_Z   24
loop_
 _symmetry_equiv_pos_site_id
 _symmetry_equiv_pos_as_xyz
  1  'x, y, z'
loop_
 _atom_type_symbol
 _atom_type_oxidation_number
  Ca2+  2.0
  Al0+  0.0
  Si0+  0.0
  O2-  -2.0
loop_
 _atom_site_type_symbol
 _atom_site_label
 _atom_site_symmetry_multiplicity
 _atom_site_fract_x
 _atom_site_fract_y
 _atom_site_fract_z
 _atom_site_occupancy
  Ca2+  Ca0  1  0.17281385  0.08364999  0.17513069  1
  Ca2+  Ca1  1  0.17205450  0.08485104  0.50064617  1
  Ca2+  Ca2  1  0.16617730  0.07546358  0.83454980  1
  Ca2+  Ca3  1  0.17543636  0.57882567  0.17182636  1
  Ca2+  Ca4  1  0.17660326  0.58033477  0.50376817  1
  Ca2+  Ca5  1  0.17826141  0.57200990  0.83767827  1
  Ca2+  Ca6  1  0.66684812  0.07519346  0.17691029  1
  Ca2+  Ca7  1  0.66890377  0.08709188  0.50052342  1
  Ca2+  Ca8  1  0.67483153  0.08672430  0.83991603  1
  Ca2+  Ca9  1  0.66832390  0.57464860  0.17236985  1
  Ca2+  Ca10  1  0.67032444  0.58579954  0.50168432  1
  Ca2+  Ca11  1  0.66137392  0.57959518  0.83861756  1
  Ca2+  Ca12  1  0.07988081  0.33100174  0.16627904  1
  Ca2+  Ca13  1  0.07893336  0.33122769  0.48890248  1
  Ca2+  Ca14  1  0.08516702  0.33812027  0.83154846  1
  Ca2+  Ca15  1  0.08576005  0.82334094  0.16528154  1
  Ca2+  Ca16  1  0.08556399  0.82927579  0.49311252  1
  Ca2+  Ca17  1  0.08308499  0.83430878  0.82688230  1
  Ca2+  Ca18  1  0.57579001  0.33222288  0.16440432  1
  Ca2+  Ca19  1  0.57715240  0.32083341  0.49218321  1
  Ca2+  Ca20  1  0.57982948  0.33410960  0.83048370  1
  Ca2+  Ca21  1  0.57568381  0.84030900  0.16365836  1
  Ca2+  Ca22  1  0.58004060  0.82873578  0.49203941  1
  Ca2+  Ca23  1  0.58007337  0.82985580  0.83117351  1
  Ca2+  Ca24  1  0.33860229  0.42376312  0.17256233  1
  Ca2+  Ca25  1  0.33398083  0.42473175  0.50454389  1
  Ca2+  Ca26  1  0.33160313  0.42521802  0.84325796  1
  Ca2+  Ca27  1  0.34054451  0.92061121  0.17597308  1
  Ca2+  Ca28  1  0.33212570  0.91981165  0.49679105  1
  Ca2+  Ca29  1  0.33128265  0.91359374  0.83536507  1
  Ca2+  Ca30  1  0.82812232  0.41563827  0.17306064  1
  Ca2+  Ca31  1  0.83857977  0.41793227  0.49664169  1
  Ca2+  Ca32  1  0.82360729  0.41884191  0.84010554  1
  Ca2+  Ca33  1  0.81960270  0.92478579  0.17315529  1
  Ca2+  Ca34  1  0.82904952  0.92934357  0.50116222  1
  Ca2+  Ca35  1  0.82438946  0.92891620  0.84170708  1
  Ca2+  Ca36  1  0.41692937  0.17569231  0.16635165  1
  Ca2+  Ca37  1  0.42354790  0.16856261  0.48722052  1
  Ca2+  Ca38  1  0.42489139  0.17512092  0.82849718  1
  Ca2+  Ca39  1  0.40743899  0.67677467  0.16249445  1
  Ca2+  Ca40  1  0.41512609  0.66845833  0.49480911  1
  Ca2+  Ca41  1  0.41670388  0.66584126  0.83107735  1
  Ca2+  Ca42  1  0.91704564  0.16100795  0.16905849  1
  Ca2+  Ca43  1  0.92006417  0.16795207  0.48960815  1
  Ca2+  Ca44  1  0.91254478  0.16403086  0.82891605  1
  Ca2+  Ca45  1  0.92158824  0.65917346  0.16808060  1
  Ca2+  Ca46  1  0.92553064  0.66536148  0.48632414  1
  Ca2+  Ca47  1  0.91825273  0.67089316  0.82782308  1
  Al0+  Al48  1  0.00090639  -0.00100469  0.00255403  1
  Al0+  Al49  1  -0.00256358  -0.00257277  0.33117171  1
  Al0+  Al50  1  -0.00112328  0.00160727  0.67344735  1
  Al0+  Al51  1  0.00263123  0.49804177  -0.00109100  1
  Al0+  Al52  1  -0.00022173  0.49922427  0.32773451  1
  Al0+  Al53  1  0.00010080  0.50121253  0.67031592  1
  Al0+  Al54  1  0.49970056  -0.00024396  -0.00564944  1
  Al0+  Al55  1  0.49842237  -0.00189262  0.33628719  1
  Al0+  Al56  1  0.50027733  -0.00095262  0.66316169  1
  Al0+  Al57  1  0.50028542  0.50120275  0.00485428  1
  Al0+  Al58  1  0.50074304  0.50052090  0.33697406  1
  Al0+  Al59  1  0.50176561  0.50194510  0.66480001  1
  Al0+  Al60  1  0.24818230  0.24900427  -0.00441359  1
  Al0+  Al61  1  0.24897690  0.24943725  0.33072199  1
  Al0+  Al62  1  0.24866152  0.24943281  0.67031406  1
  Al0+  Al63  1  0.24962171  0.74884798  -0.00432617  1
  Al0+  Al64  1  0.24998999  0.74785795  0.32928585  1
  Al0+  Al65  1  0.24917862  0.74993658  0.67403874  1
  Al0+  Al66  1  0.75315497  0.25230650  0.00745170  1
  Al0+  Al67  1  0.74956083  0.24902015  0.32973109  1
  Al0+  Al68  1  0.75067714  0.25145413  0.66593425  1
  Al0+  Al69  1  0.75150526  0.75238740  0.00172902  1
  Al0+  Al70  1  0.75013209  0.74856142  0.34041770  1
  Al0+  Al71  1  0.74983135  0.75287869  0.66242821  1
  Al0+  Al72  1  0.82156565  0.56837215  0.34618755  1
  Al0+  Al73  1  0.32138737  0.57175791  0.34808340  1
  Al0+  Al74  1  0.42856971  0.82223809  0.98410474  1
  Al0+  Al75  1  0.32326747  0.56994721  0.68312084  1
  Al0+  Al76  1  0.92887050  0.32059358  0.31702313  1
  Al0+  Al77  1  0.32073117  0.57091354  0.01752727  1
  Al0+  Al78  1  0.31919372  0.07225066  0.34488364  1
  Al0+  Al79  1  0.67594128  0.92854662  0.35165220  1
  Al0+  Al80  1  0.82251482  0.07184196  0.01751893  1
  Al0+  Al81  1  0.43050043  0.81764386  0.32135333  1
  Al0+  Al82  1  0.81802217  0.07182867  0.68093749  1
  Al0+  Al83  1  0.67861937  0.43058049  0.01358564  1
  Al0+  Al84  1  0.07128047  0.67913587  0.31950035  1
  Al0+  Al85  1  0.42823738  0.32322559  0.31983258  1
  Al0+  Al86  1  0.57171422  0.17997601  0.65406927  1
  Al0+  Al87  1  0.07119673  0.17562635  0.31880327  1
  Al0+  Al88  1  0.18003387  0.93106004  0.67886678  1
  Al0+  Al89  1  0.42893942  0.32227416  0.98568766  1
  Al0+  Al90  1  0.67669214  0.92954567  0.01437243  1
  Al0+  Al91  1  0.82074657  0.07175183  0.35007298  1
  Al0+  Al92  1  0.57014605  0.17720095  0.31745649  1
  Al0+  Al93  1  0.17869904  0.42594342  0.01820269  1
  Al0+  Al94  1  0.57158619  0.67916360  0.65225845  1
  Al0+  Al95  1  0.17727302  0.42732524  0.68082084  1
  Si0+  Si96  1  0.92993575  0.82341493  0.65157740  1
  Si0+  Si97  1  0.82379566  0.57337961  0.01370144  1
  Si0+  Si98  1  0.17939046  0.92806374  0.01509993  1
  Si0+  Si99  1  0.67681238  0.92654662  0.68414753  1
  Si0+  Si100  1  0.17759279  0.92632391  0.34598160  1
  Si0+  Si101  1  0.92935071  0.32122649  0.98252356  1
  Si0+  Si102  1  0.82218122  0.57406190  0.68077641  1
  Si0+  Si103  1  0.06909995  0.68003887  0.65270282  1
  Si0+  Si104  1  0.42525720  0.82079268  0.64880304  1
  Si0+  Si105  1  0.17828368  0.42840928  0.34848579  1
  Si0+  Si106  1  0.07045796  0.67792524  0.98103321  1
  Si0+  Si107  1  0.07033336  0.17748433  0.65397655  1
  Si0+  Si108  1  0.57403148  0.67904800  0.98609670  1
  Si0+  Si109  1  0.32488369  0.07267360  0.68396952  1
  Si0+  Si110  1  0.92583750  0.82051517  0.31570168  1
  Si0+  Si111  1  0.57480245  0.67737037  0.31659669  1
  Si0+  Si112  1  0.07014793  0.17660300  0.98189699  1
  Si0+  Si113  1  0.68195903  0.43087609  0.67939857  1
  Si0+  Si114  1  0.32036032  0.06989944  0.01162541  1
  Si0+  Si115  1  0.42691075  0.32183920  0.65145768  1
  Si0+  Si116  1  0.93026438  0.82130258  0.98400537  1
  Si0+  Si117  1  0.57328456  0.18009647  0.98429150  1
  Si0+  Si118  1  0.93004949  0.32213124  0.65376397  1
  Si0+  Si119  1  0.67732639  0.42714466  0.35268273  1
  O2-  O120  1  0.25321904  -0.00428179  0.05563916  1
  O2-  O121  1  0.24067424  -0.00005598  0.39017972  1
  O2-  O122  1  0.25592240  0.00357335  0.72783226  1
  O2-  O123  1  0.25271916  0.49528372  0.06765879  1
  O2-  O124  1  0.24967502  0.49357961  0.39371408  1
  O2-  O125  1  0.25435862  0.49367140  0.73099263  1
  O2-  O126  1  0.74530130  0.00435355  0.06434774  1
  O2-  O127  1  0.74678886  0.00243219  0.40103531  1
  O2-  O128  1  0.74088400  -0.00020927  0.72788771  1
  O2-  O129  1  0.75323173  0.50706442  0.05710054  1
  O2-  O130  1  0.74770773  0.49506366  0.39649211  1
  O2-  O131  1  0.74897888  0.50587748  0.72311276  1
  O2-  O132  1  -0.00181689  0.24577302  0.26715552  1
  O2-  O133  1  0.00514448  0.25453011  0.61366165  1
  O2-  O134  1  -0.00143936  0.24809754  0.94010068  1
  O2-  O135  1  -0.00467728  0.75241296  0.27122629  1
  O2-  O136  1  -0.00115793  0.75074695  0.60851829  1
  O2-  O137  1  -0.00197444  0.74814805  0.93871350  1
  O2-  O138  1  0.49953834  0.25105145  0.26868947  1
  O2-  O139  1  0.49114880  0.24886040  0.60804492  1
  O2-  O140  1  0.50594792  0.24964218  0.93831308  1
  O2-  O141  1  0.50579037  0.74480552  0.27217158  1
  O2-  O142  1  0.49545546  0.75276755  0.60650774  1
  O2-  O143  1  0.50539376  0.74766845  0.94091855  1
  O2-  O144  1  0.07061015  0.17365182  0.08628079  1
  O2-  O145  1  0.07170295  0.17782835  0.43325985  1
  O2-  O146  1  0.06728657  0.17437842  0.75917900  1
  O2-  O147  1  0.06964566  0.67927707  0.08598813  1
  O2-  O148  1  0.07119095  0.68147128  0.43333734  1
  O2-  O149  1  0.06476499  0.68122002  0.75793641  1
  O2-  O150  1  0.56976651  0.17895435  0.08911962  1
  O2-  O151  1  0.56837881  0.18002442  0.43169369  1
  O2-  O152  1  0.57302419  0.18496596  0.76760033  1
  O2-  O153  1  0.57710348  0.67967574  0.09111419  1
  O2-  O154  1  0.57421542  0.67885919  0.42257306  1
  O2-  O155  1  0.57460975  0.68026695  0.76558822  1
  O2-  O156  1  0.17744000  0.43083416  0.24320975  1
  O2-  O157  1  0.17265878  0.43067479  0.56757436  1
  O2-  O158  1  0.17766759  0.43005240  0.90433870  1
  O2-  O159  1  0.18072011  0.92458155  0.24011696  1
  O2-  O160  1  0.17847083  0.93177404  0.56609498  1
  O2-  O161  1  0.17685714  0.93043207  0.90963593  1
  O2-  O162  1  0.67649349  0.43038075  0.24704404  1
  O2-  O163  1  0.68571243  0.42993038  0.57494606  1
  O2-  O164  1  0.68088216  0.43091024  0.89931290  1
  O2-  O165  1  0.67715082  0.92794762  0.23802149  1
  O2-  O166  1  0.68019690  0.92352082  0.57932372  1
  O2-  O167  1  0.67980764  0.92820547  0.90021590  1
  O2-  O168  1  0.42928021  0.31998902  0.09801149  1
  O2-  O169  1  0.42966217  0.32248682  0.43409794  1
  O2-  O170  1  0.43006901  0.32217876  0.75739468  1
  O2-  O171  1  0.42619444  0.82284106  0.09671519  1
  O2-  O172  1  0.42781973  0.81537392  0.43456808  1
  O2-  O173  1  0.42599667  0.82103683  0.75461909  1
  O2-  O174  1  0.93049979  0.32466647  0.08663443  1
  O2-  O175  1  0.93342075  0.32335904  0.43164397  1
  O2-  O176  1  0.92733094  0.32207103  0.75901256  1
  O2-  O177  1  0.93309312  0.82039319  0.08849272  1
  O2-  O178  1  0.92884340  0.81978367  0.42188266  1
  O2-  O179  1  0.93085285  0.82083487  0.75712309  1
  O2-  O180  1  0.31921257  0.07019632  0.23133114  1
  O2-  O181  1  0.32327833  0.07401346  0.57867798  1
  O2-  O182  1  0.31715179  0.06882666  0.90613591  1
  O2-  O183  1  0.31849913  0.57432505  0.23558426  1
  O2-  O184  1  0.32015443  0.57121563  0.56951167  1
  O2-  O185  1  0.31936142  0.57120727  0.90363899  1
  O2-  O186  1  0.82155469  0.06669314  0.23706533  1
  O2-  O187  1  0.82146091  0.07122717  0.56891644  1
  O2-  O188  1  0.82197088  0.07025294  0.90296262  1
  O2-  O189  1  0.81962177  0.56738079  0.23293455  1
  O2-  O190  1  0.82618708  0.57178810  0.57629881  1
  O2-  O191  1  0.82375610  0.57270052  0.90719680  1
  O2-  O192  1  0.04585137  0.07593352  0.26558533  1
  O2-  O193  1  0.03732084  0.08777914  0.60614696  1
  O2-  O194  1  0.04143761  0.08409686  0.93427911  1
  O2-  O195  1  0.03901115  0.58485454  0.26302781  1
  O2-  O196  1  0.03976275  0.58846605  0.60590841  1
  O2-  O197  1  0.04268963  0.58593833  0.93344271  1
  O2-  O198  1  0.53922010  0.07915879  0.26722497  1
  O2-  O199  1  0.54775107  0.08076961  0.60212570  1
  O2-  O200  1  0.54693058  0.08765462  0.93533761  1
  O2-  O201  1  0.55115273  0.58254915  0.27363342  1
  O2-  O202  1  0.54580884  0.58164066  0.59700294  1
  O2-  O203  1  0.54759100  0.58572058  0.93953182  1
  O2-  O204  1  0.16840168  0.20431383  0.26411494  1
  O2-  O205  1  0.16525575  0.19769373  0.60889822  1
  O2-  O206  1  0.16095784  0.20310602  0.93138099  1
  O2-  O207  1  0.16437182  0.71307799  0.26156607  1
  O2-  O208  1  0.16194811  0.70836977  0.60855035  1
  O2-  O209  1  0.16022909  0.70898656  0.93197826  1
  O2-  O210  1  0.66877692  0.20284848  0.26534171  1
  O2-  O211  1  0.66610184  0.21680222  0.59935203  1
  O2-  O212  1  0.66872602  0.20699224  0.94174884  1
  O2-  O213  1  0.66949828  0.70106817  0.27232377  1
  O2-  O214  1  0.66872315  0.70955748  0.59731825  1
  O2-  O215  1  0.66840796  0.70333896  0.93827557  1
  O2-  O216  1  0.08016602  0.45749509  0.06870161  1
  O2-  O217  1  0.08558001  0.45819112  0.39384996  1
  O2-  O218  1  0.08075346  0.46130344  0.73700372  1
  O2-  O219  1  0.08919354  0.95740713  0.06366806  1
  O2-  O220  1  0.08165303  0.94404318  0.38983661  1
  O2-  O221  1  0.08537439  0.96372939  0.73740469  1
  O2-  O222  1  0.58442012  0.46086555  0.07050659  1
  O2-  O223  1  0.58575681  0.45483930  0.40154582  1
  O2-  O224  1  0.58932518  0.45591926  0.72639411  1
  O2-  O225  1  0.57634175  0.95512382  0.06381879  1
  O2-  O226  1  0.57798766  0.95460310  0.40574142  1
  O2-  O227  1  0.58041542  0.94633852  0.72670041  1
  O2-  O228  1  0.19981926  0.32376867  0.06473394  1
  O2-  O229  1  0.19894340  0.33337438  0.39314700  1
  O2-  O230  1  0.19634249  0.32611759  0.73297329  1
  O2-  O231  1  0.20293493  0.83425023  0.05891011  1
  O2-  O232  1  0.20893733  0.83549325  0.39418249  1
  O2-  O233  1  0.20683198  0.83507399  0.73681209  1
  O2-  O234  1  0.71131049  0.33672955  0.06982976  1
  O2-  O235  1  0.70305140  0.33316751  0.39672965  1
  O2-  O236  1  0.71451895  0.34205595  0.72979304  1
  O2-  O237  1  0.70827494  0.83204371  0.06745341  1
  O2-  O238  1  0.70664030  0.83048388  0.40451864  1
  O2-  O239  1  0.70851107  0.83481829  0.73173160  1
  O2-  O240  1  0.45898354  0.42170860  0.26802242  1
  O2-  O241  1  0.45658938  0.41412151  0.60567787  1
  O2-  O242  1  0.46088561  0.41990277  0.93348619  1
  O2-  O243  1  0.45912306  0.91465817  0.26802220  1
  O2-  O244  1  0.44818203  0.91553748  0.60383491  1
  O2-  O245  1  0.45705226  0.91833968  0.92616538  1
  O2-  O246  1  0.95886696  0.41718819  0.26130839  1
  O2-  O247  1  0.95493397  0.41571721  0.60758988  1
  O2-  O248  1  0.95837512  0.41260721  0.93269241  1
  O2-  O249  1  0.94991696  0.91311394  0.26811494  1
  O2-  O250  1  0.96166299  0.91455523  0.60591290  1
  O2-  O251  1  0.96261456  0.91175745  0.93547754  1
  O2-  O252  1  0.32998209  0.29645726  0.26723062  1
  O2-  O253  1  0.33067926  0.30089459  0.60879948  1
  O2-  O254  1  0.33306706  0.28892781  0.93032388  1
  O2-  O255  1  0.33481320  0.78767017  0.26512602  1
  O2-  O256  1  0.33089347  0.79396111  0.60512098  1
  O2-  O257  1  0.33171201  0.79076642  0.92907448  1
  O2-  O258  1  0.82928671  0.29764484  0.26535241  1
  O2-  O259  1  0.84022738  0.29240507  0.60453095  1
  O2-  O260  1  0.83622242  0.29557997  0.93516161  1
  O2-  O261  1  0.83283880  0.79123861  0.27135326  1
  O2-  O262  1  0.83790001  0.79887273  0.60417701  1
  O2-  O263  1  0.83778039  0.79609030  0.93535488  1
  O2-  O264  1  0.41349574  0.04568926  0.05634983  1
  O2-  O265  1  0.41197738  0.03682914  0.40230336  1
  O2-  O266  1  0.41839472  0.04628795  0.73023431  1
  O2-  O267  1  0.42064522  0.54983603  0.06863515  1
  O2-  O268  1  0.41916032  0.54526556  0.40215984  1
  O2-  O269  1  0.42380117  0.54534294  0.73424902  1
  O2-  O270  1  0.91962585  0.03705316  0.06849332  1
  O2-  O271  1  0.91968551  0.03968161  0.40219514  1
  O2-  O272  1  0.91283546  0.03843365  0.73738435  1
  O2-  O273  1  0.91671120  0.54484329  0.05810017  1
  O2-  O274  1  0.91882005  0.53738005  0.40023620  1
  O2-  O275  1  0.91180334  0.54469201  0.73199641  1
  O2-  O276  1  0.28855408  0.16014706  0.05804734  1
  O2-  O277  1  0.28992987  0.16834820  0.40135804  1
  O2-  O278  1  0.29898164  0.16570227  0.73140267  1
  O2-  O279  1  0.28527809  0.66924575  0.06662762  1
  O2-  O280  1  0.28441287  0.66660809  0.40197024  1
  O2-  O281  1  0.29098457  0.66663571  0.73720954  1
  O2-  O282  1  0.80450161  0.17275433  0.06685311  1
  O2-  O283  1  0.79689770  0.17261993  0.40006278  1
  O2-  O284  1  0.78916136  0.16958662  0.73508060  1
  O2-  O285  1  0.80396467  0.66803711  0.05892727  1
  O2-  O286  1  0.79450284  0.66434359  0.40354365  1
  O2-  O287  1  0.79729069  0.66774101  0.72636933  1
