# generated using pymatgen
data_Ca2Al2SiO7
_symmetry_space_group_name_H-M   'P 1'
_cell_length_a   15.45125149
_cell_length_b   15.45158792
_cell_length_c   15.27887725
_cell_angle_alpha   90.00263518
_cell_angle_beta   89.99610748
_cell_angle_gamma   90.00349984
_symmetry_Int_Tables_number   1
_chemical_formula_structural   Ca2Al2SiO7
_chemical_formula_sum   'Ca48 Al48 Si24 O168'
_cell_volume   3647.77647627
_cell_formula_units_Z   24
loop_
 _symmetry_equiv_pos_site_id
 _symmetry_equiv_pos_as_xyz
  1  'x, y, z'
loop_
 _atom_type_symbol
 _atom_type_oxidation_number
  Ca2+  2.0
  Al0+  0.0
  Si0+  0.0
  O2-  -2.0
loop_
 _atom_site_type_symbol
 _atom_site_label
 _atom_site_symmetry_multiplicity
 _atom_site_fract_x
 _atom_site_fract_y
 _atom_site_fract_z
 _atom_site_occupancy
  Ca2+  Ca0  1  0.16214326  0.06897392  0.17103685  1
  Ca2+  Ca1  1  0.17203091  0.07999406  0.50748455  1
  Ca2+  Ca2  1  0.17015654  0.08253724  0.83557100  1
  Ca2+  Ca3  1  0.17974647  0.58600574  0.17449161  1
  Ca2+  Ca4  1  0.16664651  0.58218579  0.50159737  1
  Ca2+  Ca5  1  0.16875939  0.58032589  0.83556825  1
  Ca2+  Ca6  1  0.66809257  0.09245761  0.16395494  1
  Ca2+  Ca7  1  0.67291914  0.07752670  0.51118413  1
  Ca2+  Ca8  1  0.67314459  0.08197474  0.83604388  1
  Ca2+  Ca9  1  0.67740384  0.57954627  0.17920084  1
  Ca2+  Ca10  1  0.66253900  0.57380131  0.49985756  1
  Ca2+  Ca11  1  0.67180711  0.57702493  0.83848374  1
  Ca2+  Ca12  1  0.06867548  0.33818968  0.16318575  1
  Ca2+  Ca13  1  0.08173787  0.32893423  0.49677714  1
  Ca2+  Ca14  1  0.07624745  0.33251055  0.82439616  1
  Ca2+  Ca15  1  0.09075487  0.83038073  0.16757208  1
  Ca2+  Ca16  1  0.08745940  0.82154918  0.49352498  1
  Ca2+  Ca17  1  0.08580124  0.82807940  0.82841157  1
  Ca2+  Ca18  1  0.57519941  0.33737976  0.16234545  1
  Ca2+  Ca19  1  0.58233921  0.33698267  0.49303964  1
  Ca2+  Ca20  1  0.58098311  0.33129592  0.83385327  1
  Ca2+  Ca21  1  0.57916155  0.82677404  0.16698189  1
  Ca2+  Ca22  1  0.57377217  0.83306013  0.49332052  1
  Ca2+  Ca23  1  0.57872933  0.83382425  0.82316352  1
  Ca2+  Ca24  1  0.34229061  0.42411041  0.17216233  1
  Ca2+  Ca25  1  0.33301528  0.42396547  0.50419650  1
  Ca2+  Ca26  1  0.32526854  0.41893846  0.83903569  1
  Ca2+  Ca27  1  0.32315221  0.91226934  0.17323052  1
  Ca2+  Ca28  1  0.33432144  0.91692447  0.50364888  1
  Ca2+  Ca29  1  0.33172697  0.92127751  0.83463004  1
  Ca2+  Ca30  1  0.83237794  0.42153743  0.17535620  1
  Ca2+  Ca31  1  0.82511802  0.41604265  0.49891044  1
  Ca2+  Ca32  1  0.82942048  0.41762346  0.83887118  1
  Ca2+  Ca33  1  0.83400307  0.92634477  0.16947187  1
  Ca2+  Ca34  1  0.82488202  0.92144304  0.50911728  1
  Ca2+  Ca35  1  0.83293540  0.92827055  0.83606857  1
  Ca2+  Ca36  1  0.42305894  0.18145345  0.15885444  1
  Ca2+  Ca37  1  0.41556081  0.17265775  0.49476792  1
  Ca2+  Ca38  1  0.41831610  0.16789199  0.82942324  1
  Ca2+  Ca39  1  0.41843527  0.66205269  0.16807931  1
  Ca2+  Ca40  1  0.41881063  0.67746258  0.48862617  1
  Ca2+  Ca41  1  0.41297665  0.67323217  0.82892208  1
  Ca2+  Ca42  1  0.91017050  0.18021033  0.15994842  1
  Ca2+  Ca43  1  0.91972339  0.16847660  0.49764403  1
  Ca2+  Ca44  1  0.91763414  0.16639992  0.82922539  1
  Ca2+  Ca45  1  0.92205803  0.65743684  0.16399529  1
  Ca2+  Ca46  1  0.92755658  0.65910542  0.49369409  1
  Ca2+  Ca47  1  0.92166822  0.66581211  0.82799265  1
  Al0+  Al48  1  -0.00193487  -0.00103741  0.00893530  1
  Al0+  Al49  1  0.00147491  -0.00259834  0.33977439  1
  Al0+  Al50  1  0.00075436  -0.00008763  0.66494685  1
  Al0+  Al51  1  0.00058668  0.49956112  -0.00347357  1
  Al0+  Al52  1  0.00123531  0.49939015  0.32799548  1
  Al0+  Al53  1  0.00017682  0.49915700  0.66545028  1
  Al0+  Al54  1  0.49955096  -0.00047718  -0.00243515  1
  Al0+  Al55  1  0.49934827  0.00034596  0.32672246  1
  Al0+  Al56  1  0.49940845  0.00117533  0.66981890  1
  Al0+  Al57  1  0.49931348  0.50107343  -0.00356763  1
  Al0+  Al58  1  0.50078357  0.50089180  0.33488589  1
  Al0+  Al59  1  0.50034455  0.50098575  0.67306059  1
  Al0+  Al60  1  0.24871375  0.24953306  -0.00126087  1
  Al0+  Al61  1  0.25034545  0.24791967  0.32543228  1
  Al0+  Al62  1  0.24824351  0.25068557  0.67079228  1
  Al0+  Al63  1  0.25039082  0.74873971  0.00612940  1
  Al0+  Al64  1  0.24873228  0.75000389  0.33454167  1
  Al0+  Al65  1  0.25082615  0.75037460  0.65747346  1
  Al0+  Al66  1  0.74883965  0.24957575  -0.00540130  1
  Al0+  Al67  1  0.75154977  0.24995511  0.33458443  1
  Al0+  Al68  1  0.74877466  0.25160162  0.67406888  1
  Al0+  Al69  1  0.75097081  0.75026871  0.00244058  1
  Al0+  Al70  1  0.75203674  0.75201820  0.33435825  1
  Al0+  Al71  1  0.74953421  0.74882452  0.66966546  1
  Al0+  Al72  1  0.06909455  0.67947028  0.31752204  1
  Al0+  Al73  1  0.32095973  0.56912878  0.34829475  1
  Al0+  Al74  1  0.56979285  0.17839524  0.98189669  1
  Al0+  Al75  1  0.93019352  0.31809423  0.32097989  1
  Al0+  Al76  1  0.42883430  0.32135854  0.32248483  1
  Al0+  Al77  1  0.43138209  0.82205181  0.65329384  1
  Al0+  Al78  1  0.67709565  0.42975493  0.68346385  1
  Al0+  Al79  1  0.67791311  0.92758855  0.68093888  1
  Al0+  Al80  1  0.17864125  0.42957990  0.67864197  1
  Al0+  Al81  1  0.57288629  0.67910493  0.31889919  1
  Al0+  Al82  1  0.31977803  0.56910670  0.01334089  1
  Al0+  Al83  1  0.81854593  0.07110550  0.01539104  1
  Al0+  Al84  1  0.93027678  0.32192602  0.98409581  1
  Al0+  Al85  1  0.42699634  0.32394951  0.98137259  1
  Al0+  Al86  1  0.32018642  0.07199432  0.67951041  1
  Al0+  Al87  1  0.18070769  0.93027378  0.01282131  1
  Al0+  Al88  1  0.82188282  0.57133327  0.01310842  1
  Al0+  Al89  1  0.06959455  0.67863708  0.65313875  1
  Al0+  Al90  1  0.42826963  0.82190782  0.31531152  1
  Al0+  Al91  1  0.07164254  0.17863162  0.65359753  1
  Al0+  Al92  1  0.18012871  0.92927197  0.35106400  1
  Al0+  Al93  1  0.82431079  0.57285693  0.34928442  1
  Al0+  Al94  1  0.67954191  0.42881507  0.34708752  1
  Al0+  Al95  1  0.82311264  0.07075799  0.68162632  1
  Si0+  Si96  1  0.17767344  0.42546408  0.34747402  1
  Si0+  Si97  1  0.32061927  0.57359018  0.68238489  1
  Si0+  Si98  1  0.17710744  0.42590073  0.01689515  1
  Si0+  Si99  1  0.32277962  0.07277196  0.34795717  1
  Si0+  Si100  1  0.67876964  0.42915504  0.01616748  1
  Si0+  Si101  1  0.32408146  0.07364286  0.01810694  1
  Si0+  Si102  1  0.06955612  0.17451790  0.98509039  1
  Si0+  Si103  1  0.57352263  0.68037856  0.98412924  1
  Si0+  Si104  1  0.42782030  0.81853469  0.98506432  1
  Si0+  Si105  1  0.17943904  0.92615010  0.68179697  1
  Si0+  Si106  1  0.92623543  0.32128243  0.64917109  1
  Si0+  Si107  1  0.57352654  0.67611797  0.65100011  1
  Si0+  Si108  1  0.07240052  0.17466145  0.31594832  1
  Si0+  Si109  1  0.57087117  0.18097887  0.65196342  1
  Si0+  Si110  1  0.67736253  0.92971188  0.34664085  1
  Si0+  Si111  1  0.92645223  0.82222726  0.65084603  1
  Si0+  Si112  1  0.92770524  0.82440472  0.31626055  1
  Si0+  Si113  1  0.42852074  0.32194526  0.65282855  1
  Si0+  Si114  1  0.67571860  0.92705942  0.01842732  1
  Si0+  Si115  1  0.82044565  0.07132610  0.34881441  1
  Si0+  Si116  1  0.07183049  0.68130378  0.98525078  1
  Si0+  Si117  1  0.82322216  0.57085191  0.68323299  1
  Si0+  Si118  1  0.57334121  0.17721087  0.31862213  1
  Si0+  Si119  1  0.92819638  0.82233995  0.98582280  1
  O2-  O120  1  0.25348671  0.00641926  0.06132043  1
  O2-  O121  1  0.25544590  0.00442600  0.39474063  1
  O2-  O122  1  0.24559446  -0.00331261  0.72660774  1
  O2-  O123  1  0.25029023  0.48967209  0.06076492  1
  O2-  O124  1  0.24825090  0.49138823  0.39309822  1
  O2-  O125  1  0.25198414  0.50513321  0.72656149  1
  O2-  O126  1  0.74179144  -0.00155942  0.06295476  1
  O2-  O127  1  0.74845214  0.00067651  0.38924554  1
  O2-  O128  1  0.75203388  -0.00274116  0.73099364  1
  O2-  O129  1  0.74839007  0.49643583  0.06048413  1
  O2-  O130  1  0.74991121  0.50261334  0.39799762  1
  O2-  O131  1  0.75283819  0.50441109  0.72809119  1
  O2-  O132  1  0.00472364  0.24409803  0.27185830  1
  O2-  O133  1  -0.00574325  0.25079135  0.60661014  1
  O2-  O134  1  0.00602976  0.24714682  0.93936829  1
  O2-  O135  1  -0.00803750  0.75202334  0.27077399  1
  O2-  O136  1  -0.00585251  0.75288806  0.60648389  1
  O2-  O137  1  -0.00156164  0.75026266  0.94341401  1
  O2-  O138  1  0.50506605  0.24744993  0.27684030  1
  O2-  O139  1  0.50096493  0.25281762  0.60906763  1
  O2-  O140  1  0.49579951  0.24862179  0.93143731  1
  O2-  O141  1  0.49978140  0.74889299  0.26603119  1
  O2-  O142  1  0.50720011  0.74769074  0.60819471  1
  O2-  O143  1  0.50204004  0.75134282  0.94193254  1
  O2-  O144  1  0.06607916  0.17363177  0.09084980  1
  O2-  O145  1  0.07259324  0.17558805  0.42167290  1
  O2-  O146  1  0.07174349  0.18009687  0.76685839  1
  O2-  O147  1  0.07235403  0.68256272  0.09008090  1
  O2-  O148  1  0.06879739  0.68019420  0.43074032  1
  O2-  O149  1  0.06973292  0.68107934  0.76712852  1
  O2-  O150  1  0.56870607  0.18082620  0.09608242  1
  O2-  O151  1  0.57310852  0.17420775  0.42449329  1
  O2-  O152  1  0.56963875  0.18099375  0.75650480  1
  O2-  O153  1  0.57471306  0.68108692  0.08882440  1
  O2-  O154  1  0.57074722  0.68225776  0.43271954  1
  O2-  O155  1  0.57174491  0.67590960  0.75717051  1
  O2-  O156  1  0.17730252  0.42774062  0.24172093  1
  O2-  O157  1  0.18094323  0.42865282  0.56552964  1
  O2-  O158  1  0.17556021  0.42973269  0.91104252  1
  O2-  O159  1  0.17907089  0.93156618  0.23753087  1
  O2-  O160  1  0.18169534  0.92666711  0.57653496  1
  O2-  O161  1  0.18235840  0.92790020  0.89951383  1
  O2-  O162  1  0.68154081  0.42693620  0.23349431  1
  O2-  O163  1  0.67560070  0.42908980  0.57068553  1
  O2-  O164  1  0.67961908  0.43288898  0.91019369  1
  O2-  O165  1  0.67835949  0.93068025  0.24141126  1
  O2-  O166  1  0.67824629  0.93116000  0.56675031  1
  O2-  O167  1  0.67759490  0.92468946  0.91317739  1
  O2-  O168  1  0.43096029  0.32485344  0.09516584  1
  O2-  O169  1  0.42733634  0.31835531  0.43616481  1
  O2-  O170  1  0.42930294  0.32068179  0.75758171  1
  O2-  O171  1  0.42749661  0.81692457  0.08973068  1
  O2-  O172  1  0.43223169  0.82498381  0.42895472  1
  O2-  O173  1  0.42903750  0.81883895  0.76727515  1
  O2-  O174  1  0.93045619  0.32185991  0.09745331  1
  O2-  O175  1  0.92922187  0.31431261  0.43405156  1
  O2-  O176  1  0.92841507  0.32267025  0.75494880  1
  O2-  O177  1  0.92767394  0.82356443  0.09071971  1
  O2-  O178  1  0.92950073  0.82773591  0.42171386  1
  O2-  O179  1  0.92803923  0.82177040  0.75696722  1
  O2-  O180  1  0.32098540  0.07289256  0.24243286  1
  O2-  O181  1  0.32026853  0.07326837  0.56636144  1
  O2-  O182  1  0.32341514  0.07116907  0.91228455  1
  O2-  O183  1  0.32008201  0.56787887  0.23492910  1
  O2-  O184  1  0.32184749  0.57169872  0.57703443  1
  O2-  O185  1  0.31429976  0.57445005  0.90003638  1
  O2-  O186  1  0.81983748  0.07216234  0.24355478  1
  O2-  O187  1  0.81978419  0.07038048  0.56737154  1
  O2-  O188  1  0.82165168  0.06667820  0.90290793  1
  O2-  O189  1  0.82396039  0.56904874  0.23537171  1
  O2-  O190  1  0.82450545  0.56960625  0.57808939  1
  O2-  O191  1  0.82014101  0.57249504  0.89975762  1
  O2-  O192  1  0.04376909  0.08066869  0.27259846  1
  O2-  O193  1  0.04453567  0.08110587  0.59838335  1
  O2-  O194  1  0.03926582  0.08185779  0.93947538  1
  O2-  O195  1  0.04289384  0.58276014  0.26144204  1
  O2-  O196  1  0.03960121  0.58195358  0.59849896  1
  O2-  O197  1  0.04609730  0.58912154  0.93749368  1
  O2-  O198  1  0.54802981  0.08586373  0.26792290  1
  O2-  O199  1  0.54231369  0.08935213  0.60478527  1
  O2-  O200  1  0.54438327  0.07779832  0.93020725  1
  O2-  O201  1  0.54536969  0.58070118  0.26615407  1
  O2-  O202  1  0.54428805  0.58294165  0.60583406  1
  O2-  O203  1  0.54536509  0.58926646  0.93572840  1
  O2-  O204  1  0.16577582  0.19581903  0.26759877  1
  O2-  O205  1  0.16714272  0.21299346  0.59882088  1
  O2-  O206  1  0.16602943  0.19341657  0.94231572  1
  O2-  O207  1  0.16454549  0.71433996  0.26431107  1
  O2-  O208  1  0.16495949  0.70882270  0.59665936  1
  O2-  O209  1  0.16242669  0.71335444  0.93773620  1
  O2-  O210  1  0.66706194  0.20239564  0.27293096  1
  O2-  O211  1  0.66365388  0.20857157  0.60590861  1
  O2-  O212  1  0.66740119  0.20700842  0.92783190  1
  O2-  O213  1  0.67168905  0.70937381  0.26636120  1
  O2-  O214  1  0.66895029  0.69660674  0.60688438  1
  O2-  O215  1  0.66508923  0.70898979  0.93578043  1
  O2-  O216  1  0.08505069  0.45718402  0.06249642  1
  O2-  O217  1  0.08537225  0.45367670  0.39397781  1
  O2-  O218  1  0.08218724  0.46014069  0.73377255  1
  O2-  O219  1  0.08470538  0.95830398  0.07008746  1
  O2-  O220  1  0.08360631  0.95825907  0.40660853  1
  O2-  O221  1  0.08436643  0.94815947  0.72597839  1
  O2-  O222  1  0.58459061  0.45619112  0.05936066  1
  O2-  O223  1  0.58192983  0.45655636  0.40192400  1
  O2-  O224  1  0.58186537  0.46131049  0.74065554  1
  O2-  O225  1  0.58070078  0.95004347  0.06303237  1
  O2-  O226  1  0.58503211  0.95841204  0.39265538  1
  O2-  O227  1  0.58163090  0.95887123  0.73574180  1
  O2-  O228  1  0.19416461  0.32963066  0.06080495  1
  O2-  O229  1  0.19993087  0.32909345  0.38959380  1
  O2-  O230  1  0.20960524  0.33555415  0.73661089  1
  O2-  O231  1  0.21420000  0.83566655  0.06912680  1
  O2-  O232  1  0.21079487  0.83299136  0.40398689  1
  O2-  O233  1  0.20818798  0.83285203  0.72718082  1
  O2-  O234  1  0.70147448  0.33401606  0.05824993  1
  O2-  O235  1  0.70987459  0.33067331  0.40177828  1
  O2-  O236  1  0.70731935  0.33446944  0.73952927  1
  O2-  O237  1  0.70547676  0.83512314  0.06562778  1
  O2-  O238  1  0.70469595  0.83904728  0.39575906  1
  O2-  O239  1  0.70176195  0.82780574  0.73429179  1
  O2-  O240  1  0.46027102  0.41692158  0.26815647  1
  O2-  O241  1  0.45585875  0.41562156  0.60848730  1
  O2-  O242  1  0.45669927  0.42189489  0.92715535  1
  O2-  O243  1  0.45654721  0.91988070  0.26025445  1
  O2-  O244  1  0.46099190  0.91943676  0.59990012  1
  O2-  O245  1  0.45120798  0.91199683  0.93886342  1
  O2-  O246  1  0.96123163  0.41329232  0.26456321  1
  O2-  O247  1  0.95387476  0.41394527  0.60304401  1
  O2-  O248  1  0.96177982  0.41775453  0.92758487  1
  O2-  O249  1  0.95922890  0.91663894  0.26920504  1
  O2-  O250  1  0.95077390  0.91560839  0.60395409  1
  O2-  O251  1  0.95918319  0.91344462  0.93881385  1
  O2-  O252  1  0.33396727  0.29170006  0.26333415  1
  O2-  O253  1  0.33717145  0.29256617  0.60647149  1
  O2-  O254  1  0.32562271  0.29825107  0.93198744  1
  O2-  O255  1  0.32950042  0.79227578  0.26562584  1
  O2-  O256  1  0.33647468  0.79138673  0.59636667  1
  O2-  O257  1  0.33732045  0.78560757  0.93766892  1
  O2-  O258  1  0.83425923  0.28606913  0.26561762  1
  O2-  O259  1  0.83145593  0.29560382  0.60573338  1
  O2-  O260  1  0.83374803  0.29177207  0.93092262  1
  O2-  O261  1  0.83246685  0.80637199  0.27084611  1
  O2-  O262  1  0.83155660  0.79841117  0.60603890  1
  O2-  O263  1  0.83639709  0.79531025  0.93756359  1
  O2-  O264  1  0.41741233  0.04640426  0.06323492  1
  O2-  O265  1  0.41779027  0.04853805  0.39234861  1
  O2-  O266  1  0.41516180  0.04074502  0.73592141  1
  O2-  O267  1  0.41911671  0.54346355  0.06467307  1
  O2-  O268  1  0.41731792  0.54115539  0.40319647  1
  O2-  O269  1  0.41354153  0.54937509  0.73046916  1
  O2-  O270  1  0.91242497  0.03781576  0.07324763  1
  O2-  O271  1  0.91173346  0.04250803  0.39631470  1
  O2-  O272  1  0.92205706  0.04259116  0.73439133  1
  O2-  O273  1  0.91997024  0.54109366  0.06409926  1
  O2-  O274  1  0.92242793  0.53942589  0.39976199  1
  O2-  O275  1  0.91581546  0.54339405  0.73062064  1
  O2-  O276  1  0.30092992  0.16875731  0.06234126  1
  O2-  O277  1  0.29616354  0.16672212  0.39366027  1
  O2-  O278  1  0.28820425  0.16635590  0.73670910  1
  O2-  O279  1  0.28512210  0.66264284  0.07064124  1
  O2-  O280  1  0.28757417  0.66504728  0.40104588  1
  O2-  O281  1  0.29287321  0.66755083  0.72667047  1
  O2-  O282  1  0.78699335  0.16872316  0.06741385  1
  O2-  O283  1  0.79327363  0.16194146  0.39803183  1
  O2-  O284  1  0.79372389  0.16811075  0.73493316  1
  O2-  O285  1  0.79347258  0.66849901  0.06729192  1
  O2-  O286  1  0.80232004  0.67410008  0.39943875  1
  O2-  O287  1  0.80094904  0.66539691  0.72952690  1
