# generated using pymatgen
data_Ca2Al2SiO7
_symmetry_space_group_name_H-M   'P 1'
_cell_length_a   15.45838179
_cell_length_b   15.45762643
_cell_length_c   15.28368540
_cell_angle_alpha   90.00163454
_cell_angle_beta   89.99767757
_cell_angle_gamma   89.99670851
_symmetry_Int_Tables_number   1
_chemical_formula_structural   Ca2Al2SiO7
_chemical_formula_sum   'Ca48 Al48 Si24 O168'
_cell_volume   3652.03494809
_cell_formula_units_Z   24
loop_
 _symmetry_equiv_pos_site_id
 _symmetry_equiv_pos_as_xyz
  1  'x, y, z'
loop_
 _atom_type_symbol
 _atom_type_oxidation_number
  Ca2+  2.0
  Al0+  0.0
  Si0+  0.0
  O2-  -2.0
loop_
 _atom_site_type_symbol
 _atom_site_label
 _atom_site_symmetry_multiplicity
 _atom_site_fract_x
 _atom_site_fract_y
 _atom_site_fract_z
 _atom_site_occupancy
  Ca2+  Ca0  1  0.16843284  0.08272693  0.16909346  1
  Ca2+  Ca1  1  0.17031285  0.08450718  0.50368732  1
  Ca2+  Ca2  1  0.18040332  0.07917887  0.84189054  1
  Ca2+  Ca3  1  0.16273856  0.57622378  0.16975080  1
  Ca2+  Ca4  1  0.17027444  0.57792514  0.50304905  1
  Ca2+  Ca5  1  0.17961761  0.58019721  0.84256085  1
  Ca2+  Ca6  1  0.66878340  0.07591539  0.17554110  1
  Ca2+  Ca7  1  0.66491355  0.07450030  0.50992811  1
  Ca2+  Ca8  1  0.66330555  0.08134101  0.82947814  1
  Ca2+  Ca9  1  0.66625332  0.58366622  0.17570482  1
  Ca2+  Ca10  1  0.65763079  0.57703283  0.49730901  1
  Ca2+  Ca11  1  0.66659788  0.58226989  0.83926524  1
  Ca2+  Ca12  1  0.07847809  0.33789846  0.16424005  1
  Ca2+  Ca13  1  0.07430170  0.32887371  0.48841239  1
  Ca2+  Ca14  1  0.07440841  0.34201958  0.83180482  1
  Ca2+  Ca15  1  0.09032062  0.82259214  0.16109169  1
  Ca2+  Ca16  1  0.08401295  0.82533253  0.49200784  1
  Ca2+  Ca17  1  0.09782084  0.82829879  0.83595777  1
  Ca2+  Ca18  1  0.57460092  0.34296662  0.16727588  1
  Ca2+  Ca19  1  0.57297794  0.33018124  0.49574516  1
  Ca2+  Ca20  1  0.57327074  0.32398164  0.82205617  1
  Ca2+  Ca21  1  0.58207915  0.82561807  0.16643550  1
  Ca2+  Ca22  1  0.57516500  0.83613553  0.49345382  1
  Ca2+  Ca23  1  0.57794424  0.82802955  0.82560907  1
  Ca2+  Ca24  1  0.32348778  0.42125801  0.17343296  1
  Ca2+  Ca25  1  0.33239680  0.41772645  0.50437482  1
  Ca2+  Ca26  1  0.33250308  0.42467705  0.84051378  1
  Ca2+  Ca27  1  0.33482105  0.92040568  0.16651661  1
  Ca2+  Ca28  1  0.33963263  0.92021265  0.50777825  1
  Ca2+  Ca29  1  0.33770258  0.92725576  0.83653435  1
  Ca2+  Ca30  1  0.82955147  0.41252132  0.17395347  1
  Ca2+  Ca31  1  0.83116498  0.40976229  0.50001753  1
  Ca2+  Ca32  1  0.83430345  0.41084113  0.83620477  1
  Ca2+  Ca33  1  0.82673032  0.91583742  0.17592241  1
  Ca2+  Ca34  1  0.81969053  0.92156439  0.50878249  1
  Ca2+  Ca35  1  0.82918076  0.92380225  0.83327260  1
  Ca2+  Ca36  1  0.41285570  0.17223432  0.16653708  1
  Ca2+  Ca37  1  0.41628476  0.17296344  0.49915905  1
  Ca2+  Ca38  1  0.41536764  0.16770435  0.82280434  1
  Ca2+  Ca39  1  0.42562819  0.66560636  0.16272167  1
  Ca2+  Ca40  1  0.41619600  0.67852260  0.49358041  1
  Ca2+  Ca41  1  0.41477320  0.66732343  0.82845347  1
  Ca2+  Ca42  1  0.92185776  0.17703776  0.16471837  1
  Ca2+  Ca43  1  0.91853697  0.17167500  0.49509123  1
  Ca2+  Ca44  1  0.91657339  0.17582655  0.82477459  1
  Ca2+  Ca45  1  0.93075433  0.66149863  0.16429402  1
  Ca2+  Ca46  1  0.92421796  0.66717116  0.49362780  1
  Ca2+  Ca47  1  0.92671355  0.66774953  0.83286327  1
  Al0+  Al48  1  -0.00079596  0.00152137  0.00344924  1
  Al0+  Al49  1  0.00180809  0.00099682  0.33113459  1
  Al0+  Al50  1  -0.00221146  -0.00240304  0.67149169  1
  Al0+  Al51  1  -0.00113284  0.50252018  -0.00668732  1
  Al0+  Al52  1  -0.00032677  0.49971983  0.33214034  1
  Al0+  Al53  1  -0.00127531  0.49968792  0.66250886  1
  Al0+  Al54  1  0.50200901  -0.00024975  0.00553288  1
  Al0+  Al55  1  0.49944119  0.00080014  0.33279271  1
  Al0+  Al56  1  0.49902604  -0.00211672  0.66870428  1
  Al0+  Al57  1  0.50110114  0.49951495  -0.00208883  1
  Al0+  Al58  1  0.50031094  0.50095183  0.33169224  1
  Al0+  Al59  1  0.50037251  0.49966461  0.66838032  1
  Al0+  Al60  1  0.24879525  0.25079254  0.00636649  1
  Al0+  Al61  1  0.24983678  0.25028244  0.33045444  1
  Al0+  Al62  1  0.24629492  0.24984690  0.66870513  1
  Al0+  Al63  1  0.25330703  0.75168652  0.00220717  1
  Al0+  Al64  1  0.25054620  0.75176704  0.32528245  1
  Al0+  Al65  1  0.25178619  0.74636647  0.66503727  1
  Al0+  Al66  1  0.74972111  0.24926621  -0.00318026  1
  Al0+  Al67  1  0.75000845  0.25027682  0.33464125  1
  Al0+  Al68  1  0.74982092  0.24908070  0.66235196  1
  Al0+  Al69  1  0.75027812  0.74922759  -0.00432894  1
  Al0+  Al70  1  0.74976785  0.75085879  0.33739518  1
  Al0+  Al71  1  0.75146693  0.74775608  0.67101069  1
  Al0+  Al72  1  0.56902497  0.17793320  0.65154057  1
  Al0+  Al73  1  0.42528130  0.32296633  0.65303716  1
  Al0+  Al74  1  0.92981776  0.32064516  0.65052261  1
  Al0+  Al75  1  0.32145410  0.56952257  0.67884940  1
  Al0+  Al76  1  0.17646305  0.43191426  0.01510077  1
  Al0+  Al77  1  0.57102079  0.68005465  0.31993840  1
  Al0+  Al78  1  0.07080085  0.67909122  0.32038198  1
  Al0+  Al79  1  0.17852924  0.42908170  0.34845596  1
  Al0+  Al80  1  0.67880235  0.92913346  0.34768125  1
  Al0+  Al81  1  0.67759379  0.42888862  0.34734605  1
  Al0+  Al82  1  0.57150638  0.67812389  0.98437095  1
  Al0+  Al83  1  0.07268940  0.68143656  0.98451454  1
  Al0+  Al84  1  0.92942159  0.31970133  0.98463006  1
  Al0+  Al85  1  0.42848063  0.82475845  0.31544187  1
  Al0+  Al86  1  0.42991183  0.81816781  0.65493195  1
  Al0+  Al87  1  0.42919743  0.32176707  0.31916455  1
  Al0+  Al88  1  0.17850009  0.92982465  0.01623683  1
  Al0+  Al89  1  0.07273786  0.17781049  0.31713401  1
  Al0+  Al90  1  0.32477434  0.57143065  0.01708027  1
  Al0+  Al91  1  0.67712092  0.92728527  0.68407065  1
  Al0+  Al92  1  0.92774917  0.32036812  0.31713156  1
  Al0+  Al93  1  0.31856664  0.07133490  0.67791093  1
  Al0+  Al94  1  0.32379140  0.07243437  0.01787608  1
  Al0+  Al95  1  0.82102698  0.07223889  0.68242807  1
  Si0+  Si96  1  0.82008241  0.07331778  0.01628196  1
  Si0+  Si97  1  0.32163782  0.57304580  0.34958869  1
  Si0+  Si98  1  0.81984466  0.57191153  0.01365656  1
  Si0+  Si99  1  0.92702780  0.82098432  0.65229079  1
  Si0+  Si100  1  0.07269960  0.17684101  0.98182759  1
  Si0+  Si101  1  0.32022498  0.07090836  0.34971220  1
  Si0+  Si102  1  0.57141809  0.17862052  0.31702815  1
  Si0+  Si103  1  0.82382985  0.57014878  0.68329212  1
  Si0+  Si104  1  0.43099153  0.82338350  0.98197701  1
  Si0+  Si105  1  0.92838615  0.82226045  0.31944814  1
  Si0+  Si106  1  0.17558780  0.42888258  0.68208398  1
  Si0+  Si107  1  0.07098451  0.17426479  0.65242887  1
  Si0+  Si108  1  0.57561879  0.67667303  0.65010857  1
  Si0+  Si109  1  0.17889001  0.92774404  0.34843277  1
  Si0+  Si110  1  0.68080902  0.42792255  0.01271849  1
  Si0+  Si111  1  0.57097834  0.17796113  0.98643261  1
  Si0+  Si112  1  0.17698946  0.92501744  0.68059272  1
  Si0+  Si113  1  0.82337324  0.07158045  0.34954999  1
  Si0+  Si114  1  0.67983907  0.42934333  0.68180243  1
  Si0+  Si115  1  0.07061310  0.68062283  0.65141387  1
  Si0+  Si116  1  0.68179786  0.92787648  0.01614292  1
  Si0+  Si117  1  0.42811887  0.31970610  0.98604836  1
  Si0+  Si118  1  0.92702486  0.82416289  0.98300955  1
  Si0+  Si119  1  0.82237888  0.57185688  0.35042095  1
  O2-  O120  1  0.24929829  0.00240850  0.06729994  1
  O2-  O121  1  0.24998880  -0.00194165  0.39113278  1
  O2-  O122  1  0.24249878  -0.00289758  0.72348383  1
  O2-  O123  1  0.24932532  0.50266592  0.06624762  1
  O2-  O124  1  0.25311540  0.50435472  0.39474181  1
  O2-  O125  1  0.25024430  0.49125324  0.72548365  1
  O2-  O126  1  0.75336639  -0.00170350  0.05889022  1
  O2-  O127  1  0.75397043  0.00370811  0.39343147  1
  O2-  O128  1  0.74808501  0.00122801  0.73367066  1
  O2-  O129  1  0.74978485  0.50037797  0.05555464  1
  O2-  O130  1  0.75250567  0.50397268  0.39436653  1
  O2-  O131  1  0.75135287  0.50006748  0.72477418  1
  O2-  O132  1  0.00175154  0.25090190  0.26721111  1
  O2-  O133  1  0.00302275  0.24324537  0.60743166  1
  O2-  O134  1  0.00602225  0.24732633  0.93693872  1
  O2-  O135  1  -0.00369306  0.75433790  0.27369345  1
  O2-  O136  1  0.00095699  0.75331333  0.60961710  1
  O2-  O137  1  0.00153738  0.76123294  0.93855682  1
  O2-  O138  1  0.50658753  0.24982229  0.27102747  1
  O2-  O139  1  0.49593911  0.24954389  0.60284467  1
  O2-  O140  1  0.49535627  0.24440822  0.94485268  1
  O2-  O141  1  0.49973133  0.75092721  0.26744963  1
  O2-  O142  1  0.50745334  0.74637029  0.60805728  1
  O2-  O143  1  0.49577563  0.75101428  0.93741671  1
  O2-  O144  1  0.06885084  0.17556258  0.08702450  1
  O2-  O145  1  0.07082250  0.17592847  0.43122996  1
  O2-  O146  1  0.07037340  0.17431813  0.75796844  1
  O2-  O147  1  0.06699739  0.67946669  0.09724754  1
  O2-  O148  1  0.06967233  0.68129764  0.43421897  1
  O2-  O149  1  0.06997673  0.68123121  0.75644166  1
  O2-  O150  1  0.57465819  0.17968851  0.09141604  1
  O2-  O151  1  0.56830012  0.17743823  0.42220438  1
  O2-  O152  1  0.56797878  0.18084043  0.76610506  1
  O2-  O153  1  0.57559188  0.68037302  0.09692281  1
  O2-  O154  1  0.56889406  0.68016687  0.43355831  1
  O2-  O155  1  0.57612135  0.67674736  0.75603862  1
  O2-  O156  1  0.17783588  0.43193960  0.23565159  1
  O2-  O157  1  0.17273188  0.43243076  0.57663575  1
  O2-  O158  1  0.17762734  0.43334445  0.90090245  1
  O2-  O159  1  0.17731445  0.92830615  0.24395964  1
  O2-  O160  1  0.17619464  0.92373689  0.57472251  1
  O2-  O161  1  0.18098009  0.93208209  0.90193525  1
  O2-  O162  1  0.67918933  0.43047875  0.23361332  1
  O2-  O163  1  0.67913040  0.43171736  0.57694901  1
  O2-  O164  1  0.68216344  0.42742897  0.90736058  1
  O2-  O165  1  0.68230928  0.93024516  0.23372465  1
  O2-  O166  1  0.67970548  0.92658549  0.57056921  1
  O2-  O167  1  0.68166525  0.92874050  0.91138287  1
  O2-  O168  1  0.43195126  0.32158166  0.09106664  1
  O2-  O169  1  0.42874942  0.31967772  0.43206019  1
  O2-  O170  1  0.42872623  0.32335696  0.76727768  1
  O2-  O171  1  0.43574824  0.82619658  0.08720115  1
  O2-  O172  1  0.42805100  0.82484672  0.42940165  1
  O2-  O173  1  0.42881426  0.81636911  0.76797475  1
  O2-  O174  1  0.92477505  0.31786734  0.09693549  1
  O2-  O175  1  0.92844155  0.31795930  0.43073676  1
  O2-  O176  1  0.93203268  0.32312288  0.76393763  1
  O2-  O177  1  0.92185108  0.82022403  0.08843799  1
  O2-  O178  1  0.93076112  0.82139187  0.42538910  1
  O2-  O179  1  0.92559299  0.81872990  0.75725290  1
  O2-  O180  1  0.32064638  0.07008264  0.24475873  1
  O2-  O181  1  0.31694187  0.07042741  0.56470435  1
  O2-  O182  1  0.32593915  0.07116120  0.90394199  1
  O2-  O183  1  0.32155929  0.57114440  0.24418881  1
  O2-  O184  1  0.31678491  0.57390165  0.56597000  1
  O2-  O185  1  0.32463701  0.56773054  0.90291585  1
  O2-  O186  1  0.82165740  0.06949179  0.24329650  1
  O2-  O187  1  0.82279989  0.06795529  0.56902982  1
  O2-  O188  1  0.81757752  0.07438392  0.91153811  1
  O2-  O189  1  0.82257789  0.57289151  0.24458669  1
  O2-  O190  1  0.82727657  0.57177336  0.57864293  1
  O2-  O191  1  0.81893851  0.57216260  0.90819055  1
  O2-  O192  1  0.04391668  0.07949147  0.26285383  1
  O2-  O193  1  0.04642507  0.07946696  0.60724383  1
  O2-  O194  1  0.04536057  0.08325116  0.93618679  1
  O2-  O195  1  0.03675945  0.58460792  0.26555063  1
  O2-  O196  1  0.03869747  0.59050552  0.60354274  1
  O2-  O197  1  0.03544325  0.58880558  0.92690305  1
  O2-  O198  1  0.54253111  0.08699098  0.26864844  1
  O2-  O199  1  0.54213271  0.07883383  0.60099129  1
  O2-  O200  1  0.54799684  0.08396757  0.94107849  1
  O2-  O201  1  0.54497033  0.58182088  0.26582202  1
  O2-  O202  1  0.54928528  0.58288977  0.60603462  1
  O2-  O203  1  0.54422202  0.58012681  0.93018584  1
  O2-  O204  1  0.17051655  0.20438070  0.26384785  1
  O2-  O205  1  0.16423227  0.19911127  0.60575806  1
  O2-  O206  1  0.16847958  0.20043692  0.93914323  1
  O2-  O207  1  0.16530838  0.70943627  0.26403061  1
  O2-  O208  1  0.16161452  0.70702601  0.60254712  1
  O2-  O209  1  0.17101165  0.71034638  0.93182631  1
  O2-  O210  1  0.66683034  0.19924229  0.27293747  1
  O2-  O211  1  0.66690302  0.20602415  0.59857497  1
  O2-  O212  1  0.66003306  0.21001532  0.93606893  1
  O2-  O213  1  0.67130407  0.70745608  0.26879526  1
  O2-  O214  1  0.67089652  0.69862527  0.60599793  1
  O2-  O215  1  0.66796952  0.70951032  0.92908784  1
  O2-  O216  1  0.07720771  0.46342912  0.06513039  1
  O2-  O217  1  0.08150409  0.46075042  0.40185716  1
  O2-  O218  1  0.08433004  0.46261720  0.72899551  1
  O2-  O219  1  0.07773894  0.95348789  0.06808893  1
  O2-  O220  1  0.08655494  0.95489511  0.39662118  1
  O2-  O221  1  0.08234319  0.94379018  0.72742951  1
  O2-  O222  1  0.58871790  0.45463289  0.05919445  1
  O2-  O223  1  0.58166784  0.46105217  0.40273259  1
  O2-  O224  1  0.58889246  0.45681753  0.73168198  1
  O2-  O225  1  0.59128359  0.95641678  0.06496879  1
  O2-  O226  1  0.58221174  0.96188503  0.40003810  1
  O2-  O227  1  0.57965434  0.95530446  0.73852893  1
  O2-  O228  1  0.20029063  0.33235147  0.06664069  1
  O2-  O229  1  0.20904856  0.33148691  0.40046274  1
  O2-  O230  1  0.19143953  0.33300571  0.72670032  1
  O2-  O231  1  0.20704221  0.83151265  0.06827521  1
  O2-  O232  1  0.20536413  0.83487697  0.39512254  1
  O2-  O233  1  0.20708475  0.83274856  0.72658788  1
  O2-  O234  1  0.70972782  0.33673104  0.06054714  1
  O2-  O235  1  0.70740394  0.33193082  0.40160328  1
  O2-  O236  1  0.70779566  0.33738111  0.72832553  1
  O2-  O237  1  0.71140871  0.83573972  0.06199682  1
  O2-  O238  1  0.70901373  0.83341907  0.40366219  1
  O2-  O239  1  0.70920633  0.82904370  0.73669169  1
  O2-  O240  1  0.46014588  0.41762957  0.26445214  1
  O2-  O241  1  0.45741726  0.42052742  0.60027900  1
  O2-  O242  1  0.46085667  0.40926543  0.93707646  1
  O2-  O243  1  0.45941450  0.92221259  0.26231136  1
  O2-  O244  1  0.45820938  0.91496431  0.60120287  1
  O2-  O245  1  0.46268060  0.91630188  0.93665672  1
  O2-  O246  1  0.95281752  0.42014117  0.26646664  1
  O2-  O247  1  0.95997083  0.41746204  0.59618205  1
  O2-  O248  1  0.95627033  0.41737808  0.92999481  1
  O2-  O249  1  0.95218783  0.91554810  0.27257551  1
  O2-  O250  1  0.95091448  0.91389431  0.60560647  1
  O2-  O251  1  0.94596819  0.92068638  0.94012189  1
  O2-  O252  1  0.33482275  0.28839543  0.26392817  1
  O2-  O253  1  0.32499242  0.29752463  0.60295655  1
  O2-  O254  1  0.33420977  0.29654713  0.94109997  1
  O2-  O255  1  0.33018253  0.79957336  0.26205216  1
  O2-  O256  1  0.33440797  0.78590302  0.59829477  1
  O2-  O257  1  0.33565039  0.80345196  0.93822619  1
  O2-  O258  1  0.82911580  0.29084354  0.26436849  1
  O2-  O259  1  0.83257381  0.29278554  0.59773857  1
  O2-  O260  1  0.83311505  0.28602076  0.92977851  1
  O2-  O261  1  0.83462626  0.79726253  0.27408615  1
  O2-  O262  1  0.83698154  0.78858635  0.60398133  1
  O2-  O263  1  0.83713668  0.79159860  0.93301078  1
  O2-  O264  1  0.42182415  0.04258032  0.07208180  1
  O2-  O265  1  0.41238542  0.04380971  0.39635446  1
  O2-  O266  1  0.41371603  0.03913394  0.73341449  1
  O2-  O267  1  0.42291023  0.53906046  0.06868123  1
  O2-  O268  1  0.41513318  0.54774686  0.39520466  1
  O2-  O269  1  0.41931184  0.54406216  0.73376569  1
  O2-  O270  1  0.91307788  0.05096258  0.06323176  1
  O2-  O271  1  0.91728156  0.04572391  0.39480751  1
  O2-  O272  1  0.91803649  0.04102028  0.73879071  1
  O2-  O273  1  0.91178659  0.54443812  0.05955860  1
  O2-  O274  1  0.91479182  0.54486261  0.39823391  1
  O2-  O275  1  0.91485492  0.54026231  0.73197320  1
  O2-  O276  1  0.29690512  0.17101312  0.07052858  1
  O2-  O277  1  0.29101886  0.16220298  0.39655467  1
  O2-  O278  1  0.28930273  0.16764242  0.73482938  1
  O2-  O279  1  0.30400545  0.67263192  0.06509001  1
  O2-  O280  1  0.29416835  0.66810351  0.39238315  1
  O2-  O281  1  0.28585044  0.66395380  0.73511847  1
  O2-  O282  1  0.78613077  0.16285870  0.06468922  1
  O2-  O283  1  0.79909311  0.16538409  0.39464387  1
  O2-  O284  1  0.79323137  0.17168685  0.73416156  1
  O2-  O285  1  0.79203594  0.66353284  0.06133893  1
  O2-  O286  1  0.79962488  0.66583597  0.39779762  1
  O2-  O287  1  0.79825247  0.66149041  0.73304686  1
