# generated using pymatgen
data_Ca2Al2SiO7
_symmetry_space_group_name_H-M   'P 1'
_cell_length_a   15.45464076
_cell_length_b   15.45431995
_cell_length_c   15.28201457
_cell_angle_alpha   90.00423656
_cell_angle_beta   90.00560480
_cell_angle_gamma   90.00125198
_symmetry_Int_Tables_number   1
_chemical_formula_structural   Ca2Al2SiO7
_chemical_formula_sum   'Ca48 Al48 Si24 O168'
_cell_volume   3649.97104945
_cell_formula_units_Z   24
loop_
 _symmetry_equiv_pos_site_id
 _symmetry_equiv_pos_as_xyz
  1  'x, y, z'
loop_
 _atom_type_symbol
 _atom_type_oxidation_number
  Ca2+  2.0
  Al0+  0.0
  Si0+  0.0
  O2-  -2.0
loop_
 _atom_site_type_symbol
 _atom_site_label
 _atom_site_symmetry_multiplicity
 _atom_site_fract_x
 _atom_site_fract_y
 _atom_site_fract_z
 _atom_site_occupancy
  Ca2+  Ca0  1  0.17459260  0.08469009  0.17202257  1
  Ca2+  Ca1  1  0.17132187  0.08021859  0.50600316  1
  Ca2+  Ca2  1  0.15952620  0.08168689  0.83397187  1
  Ca2+  Ca3  1  0.17367942  0.57661450  0.18029518  1
  Ca2+  Ca4  1  0.16831358  0.57845882  0.49934520  1
  Ca2+  Ca5  1  0.16652644  0.57396317  0.83593674  1
  Ca2+  Ca6  1  0.65860257  0.07786725  0.17271607  1
  Ca2+  Ca7  1  0.66985073  0.06757172  0.50690180  1
  Ca2+  Ca8  1  0.66855643  0.08371550  0.83577076  1
  Ca2+  Ca9  1  0.66896263  0.57893030  0.17030889  1
  Ca2+  Ca10  1  0.66729879  0.58135181  0.50038344  1
  Ca2+  Ca11  1  0.66849586  0.58187988  0.84362418  1
  Ca2+  Ca12  1  0.08658531  0.32936674  0.16273741  1
  Ca2+  Ca13  1  0.08330106  0.33598829  0.49978688  1
  Ca2+  Ca14  1  0.07886000  0.32366733  0.82213317  1
  Ca2+  Ca15  1  0.07912543  0.82465187  0.16840568  1
  Ca2+  Ca16  1  0.07834198  0.83085532  0.48989018  1
  Ca2+  Ca17  1  0.08270136  0.83296323  0.82623577  1
  Ca2+  Ca18  1  0.57554823  0.33887850  0.16072602  1
  Ca2+  Ca19  1  0.57843224  0.33113275  0.49051377  1
  Ca2+  Ca20  1  0.58245681  0.33555077  0.83409781  1
  Ca2+  Ca21  1  0.57461306  0.83062948  0.16248220  1
  Ca2+  Ca22  1  0.58690278  0.83005682  0.49358122  1
  Ca2+  Ca23  1  0.58629819  0.82256168  0.82877298  1
  Ca2+  Ca24  1  0.33374067  0.41897597  0.17884243  1
  Ca2+  Ca25  1  0.32401994  0.41715119  0.49779682  1
  Ca2+  Ca26  1  0.32979901  0.41149621  0.83556106  1
  Ca2+  Ca27  1  0.34276305  0.92238763  0.17525614  1
  Ca2+  Ca28  1  0.33250744  0.92034431  0.50210003  1
  Ca2+  Ca29  1  0.32880769  0.91360043  0.83620164  1
  Ca2+  Ca30  1  0.82025799  0.42562396  0.17300556  1
  Ca2+  Ca31  1  0.83327871  0.41999815  0.50120908  1
  Ca2+  Ca32  1  0.82960637  0.42127425  0.84277599  1
  Ca2+  Ca33  1  0.82553632  0.91663071  0.17576357  1
  Ca2+  Ca34  1  0.82584311  0.91519421  0.50484147  1
  Ca2+  Ca35  1  0.82940590  0.92293412  0.83161409  1
  Ca2+  Ca36  1  0.41968386  0.17724932  0.16261160  1
  Ca2+  Ca37  1  0.41337887  0.17064201  0.49129190  1
  Ca2+  Ca38  1  0.42311276  0.17203319  0.83708336  1
  Ca2+  Ca39  1  0.41781679  0.67482320  0.16097280  1
  Ca2+  Ca40  1  0.41974986  0.67207456  0.49197902  1
  Ca2+  Ca41  1  0.43080154  0.66741581  0.83145039  1
  Ca2+  Ca42  1  0.92551082  0.16860417  0.15940166  1
  Ca2+  Ca43  1  0.91841899  0.16638291  0.50209931  1
  Ca2+  Ca44  1  0.92302906  0.17106046  0.82140681  1
  Ca2+  Ca45  1  0.91223845  0.66292393  0.17129652  1
  Ca2+  Ca46  1  0.92258186  0.67087565  0.48704844  1
  Ca2+  Ca47  1  0.91331871  0.66542550  0.83028198  1
  Al0+  Al48  1  0.00008532  -0.00217516  -0.00161453  1
  Al0+  Al49  1  0.00028825  0.00015076  0.32692074  1
  Al0+  Al50  1  0.00085281  0.00047678  0.66927923  1
  Al0+  Al51  1  0.00032927  0.50079830  0.00518563  1
  Al0+  Al52  1  -0.00050764  0.49804840  0.33470595  1
  Al0+  Al53  1  0.00098753  0.49932177  0.66820355  1
  Al0+  Al54  1  0.49733551  0.00217669  -0.00823447  1
  Al0+  Al55  1  0.50103760  -0.00007603  0.34074310  1
  Al0+  Al56  1  0.49865112  -0.00069062  0.67309883  1
  Al0+  Al57  1  0.49753488  0.50178117  -0.00504128  1
  Al0+  Al58  1  0.49908008  0.49992833  0.33799042  1
  Al0+  Al59  1  0.50097282  0.50182058  0.66149065  1
  Al0+  Al60  1  0.24980989  0.24651638  -0.00868901  1
  Al0+  Al61  1  0.25162781  0.24915398  0.33744191  1
  Al0+  Al62  1  0.24972496  0.25012633  0.66802071  1
  Al0+  Al63  1  0.24642413  0.74943819  -0.00392783  1
  Al0+  Al64  1  0.24957947  0.75023938  0.32827075  1
  Al0+  Al65  1  0.25265677  0.75017011  0.67204044  1
  Al0+  Al66  1  0.75064138  0.25032820  0.00255222  1
  Al0+  Al67  1  0.75180006  0.24866800  0.33537098  1
  Al0+  Al68  1  0.74947442  0.25096189  0.66475763  1
  Al0+  Al69  1  0.75144473  0.75238005  0.00086021  1
  Al0+  Al70  1  0.75031116  0.75023562  0.33575709  1
  Al0+  Al71  1  0.74951803  0.74877947  0.66600772  1
  Al0+  Al72  1  0.67733013  0.42716594  0.35009767  1
  Al0+  Al73  1  0.07108626  0.67656643  0.31835292  1
  Al0+  Al74  1  0.92716868  0.82180766  0.31783125  1
  Al0+  Al75  1  0.32184503  0.57490199  0.34756433  1
  Al0+  Al76  1  0.57354560  0.17940573  0.98572585  1
  Al0+  Al77  1  0.42614941  0.82276297  0.98332333  1
  Al0+  Al78  1  0.42975739  0.32049496  0.32219782  1
  Al0+  Al79  1  0.67810904  0.92657440  0.68472922  1
  Al0+  Al80  1  0.57188738  0.68007565  0.64976617  1
  Al0+  Al81  1  0.92757168  0.32276212  0.65046090  1
  Al0+  Al82  1  0.07125365  0.17794903  0.64836732  1
  Al0+  Al83  1  0.81969445  0.07185935  0.68146165  1
  Al0+  Al84  1  0.82226411  0.57360410  0.01657218  1
  Al0+  Al85  1  0.17969685  0.43029478  0.68234089  1
  Al0+  Al86  1  0.06988097  0.17825735  0.98564088  1
  Al0+  Al87  1  0.32097019  0.06981011  0.34552452  1
  Al0+  Al88  1  0.18036057  0.92891942  0.67914570  1
  Al0+  Al89  1  0.42993363  0.82232093  0.32222446  1
  Al0+  Al90  1  0.67990292  0.93038277  0.34522813  1
  Al0+  Al91  1  0.57202167  0.68130315  0.98667667  1
  Al0+  Al92  1  0.81966606  0.57040761  0.35083058  1
  Al0+  Al93  1  0.17891232  0.42705414  0.34753191  1
  Al0+  Al94  1  0.42864965  0.32311868  0.98452282  1
  Al0+  Al95  1  0.67641756  0.42841727  0.01428327  1
  Si0+  Si96  1  0.57079435  0.17748071  0.65095696  1
  Si0+  Si97  1  0.82305205  0.07038919  0.01503385  1
  Si0+  Si98  1  0.42965156  0.32057303  0.64997628  1
  Si0+  Si99  1  0.67705330  0.42947519  0.68109235  1
  Si0+  Si100  1  0.31960220  0.06936392  0.01472234  1
  Si0+  Si101  1  0.18088621  0.42669902  0.01347682  1
  Si0+  Si102  1  0.67807245  0.93187274  0.01408378  1
  Si0+  Si103  1  0.92967514  0.32287206  0.98584760  1
  Si0+  Si104  1  0.92744195  0.32077842  0.31626995  1
  Si0+  Si105  1  0.57184609  0.67766726  0.31695973  1
  Si0+  Si106  1  0.32232766  0.07405213  0.68735738  1
  Si0+  Si107  1  0.82644928  0.07257150  0.34845691  1
  Si0+  Si108  1  0.17662775  0.92861305  0.34636068  1
  Si0+  Si109  1  0.32380916  0.57179948  0.68551525  1
  Si0+  Si110  1  0.92957669  0.82089722  0.98289966  1
  Si0+  Si111  1  0.42735310  0.82209023  0.64952810  1
  Si0+  Si112  1  0.07306621  0.67862518  0.65399068  1
  Si0+  Si113  1  0.07169255  0.17942727  0.31821721  1
  Si0+  Si114  1  0.82093918  0.56970875  0.68072004  1
  Si0+  Si115  1  0.31864361  0.57177105  0.01329437  1
  Si0+  Si116  1  0.17702967  0.92710431  0.01714094  1
  Si0+  Si117  1  0.57297037  0.17800191  0.32055074  1
  Si0+  Si118  1  0.93058876  0.81979750  0.65341647  1
  Si0+  Si119  1  0.07000536  0.67748590  0.98334823  1
  O2-  O120  1  0.25118015  -0.00445152  0.05797783  1
  O2-  O121  1  0.24696460  -0.00561366  0.39155794  1
  O2-  O122  1  0.25305293  0.00418988  0.72916312  1
  O2-  O123  1  0.25247720  0.49634425  0.05597399  1
  O2-  O124  1  0.24838734  0.50293861  0.39587327  1
  O2-  O125  1  0.25518739  0.50324776  0.73085445  1
  O2-  O126  1  0.74623928  0.00570488  0.05730519  1
  O2-  O127  1  0.75790224  0.00273013  0.39033005  1
  O2-  O128  1  0.74667468  0.00227003  0.73436777  1
  O2-  O129  1  0.74769532  0.50220192  0.06291756  1
  O2-  O130  1  0.74853751  0.49870600  0.40247571  1
  O2-  O131  1  0.75058314  0.49816763  0.72274377  1
  O2-  O132  1  0.00006997  0.24985367  0.27549614  1
  O2-  O133  1  -0.00062942  0.25046771  0.59922287  1
  O2-  O134  1  -0.00413384  0.25330640  0.93960490  1
  O2-  O135  1  -0.00267679  0.74746200  0.26793221  1
  O2-  O136  1  0.00388736  0.75102078  0.61193677  1
  O2-  O137  1  -0.00291560  0.74631690  0.94069146  1
  O2-  O138  1  0.50945888  0.25098656  0.27589568  1
  O2-  O139  1  0.49897581  0.24742500  0.60829883  1
  O2-  O140  1  0.50632803  0.25613447  0.93526249  1
  O2-  O141  1  0.50097428  0.74508018  0.27395480  1
  O2-  O142  1  0.49922471  0.75753257  0.60486272  1
  O2-  O143  1  0.50085145  0.75337655  0.93426725  1
  O2-  O144  1  0.07107848  0.17927272  0.09938488  1
  O2-  O145  1  0.07077158  0.17640760  0.42269168  1
  O2-  O146  1  0.06885912  0.17921540  0.76227899  1
  O2-  O147  1  0.07363373  0.67867762  0.08762204  1
  O2-  O148  1  0.07095725  0.68054356  0.43263406  1
  O2-  O149  1  0.07012613  0.67872603  0.75968649  1
  O2-  O150  1  0.56779585  0.17357725  0.09904053  1
  O2-  O151  1  0.57037813  0.17724278  0.42645615  1
  O2-  O152  1  0.57086904  0.18005484  0.75592165  1
  O2-  O153  1  0.57033135  0.68298034  0.10008600  1
  O2-  O154  1  0.57212688  0.68044910  0.42278849  1
  O2-  O155  1  0.57231920  0.67830097  0.76285824  1
  O2-  O156  1  0.18230550  0.42425789  0.23311125  1
  O2-  O157  1  0.18029697  0.43275864  0.56991928  1
  O2-  O158  1  0.17970133  0.42972210  0.90832222  1
  O2-  O159  1  0.17493701  0.93229439  0.24049477  1
  O2-  O160  1  0.18250922  0.92757190  0.56614254  1
  O2-  O161  1  0.17539307  0.92794528  0.91191940  1
  O2-  O162  1  0.67771492  0.42692795  0.23668985  1
  O2-  O163  1  0.67512942  0.43054194  0.57647015  1
  O2-  O164  1  0.68064227  0.42918460  0.89987216  1
  O2-  O165  1  0.67749688  0.93358808  0.23148110  1
  O2-  O166  1  0.68059812  0.92631003  0.57114497  1
  O2-  O167  1  0.68229136  0.93082656  0.90926909  1
  O2-  O168  1  0.42418461  0.32031448  0.09785804  1
  O2-  O169  1  0.42795136  0.31579572  0.43557529  1
  O2-  O170  1  0.43158089  0.32090827  0.75515614  1
  O2-  O171  1  0.42767164  0.82307508  0.09713776  1
  O2-  O172  1  0.43206505  0.82351183  0.43523740  1
  O2-  O173  1  0.42552384  0.81801666  0.75501761  1
  O2-  O174  1  0.93314457  0.32065879  0.09162253  1
  O2-  O175  1  0.92605083  0.31952504  0.42104952  1
  O2-  O176  1  0.92922550  0.32401273  0.76462810  1
  O2-  O177  1  0.93131968  0.82496029  0.08738688  1
  O2-  O178  1  0.93088840  0.82400178  0.43189059  1
  O2-  O179  1  0.93072622  0.81733658  0.75909057  1
  O2-  O180  1  0.31991933  0.07113458  0.23203909  1
  O2-  O181  1  0.32354641  0.07409347  0.58164226  1
  O2-  O182  1  0.31711401  0.07007725  0.90969981  1
  O2-  O183  1  0.32142048  0.57334926  0.23317886  1
  O2-  O184  1  0.32227325  0.57312635  0.58042665  1
  O2-  O185  1  0.31457920  0.57259001  0.90803462  1
  O2-  O186  1  0.82721959  0.07297936  0.24232883  1
  O2-  O187  1  0.81852698  0.06787425  0.56780698  1
  O2-  O188  1  0.82581602  0.06685694  0.91039782  1
  O2-  O189  1  0.81700497  0.56835026  0.23742443  1
  O2-  O190  1  0.82137207  0.57062659  0.57625470  1
  O2-  O191  1  0.82470296  0.57148258  0.90211832  1
  O2-  O192  1  0.04540653  0.08857968  0.26716851  1
  O2-  O193  1  0.04314866  0.07833561  0.59745231  1
  O2-  O194  1  0.03834145  0.08112158  0.93322673  1
  O2-  O195  1  0.04456252  0.57714038  0.26601343  1
  O2-  O196  1  0.04387829  0.58784453  0.60684910  1
  O2-  O197  1  0.04362962  0.58440735  0.93671798  1
  O2-  O198  1  0.54121376  0.08640716  0.27455218  1
  O2-  O199  1  0.54327463  0.08372990  0.60694554  1
  O2-  O200  1  0.53951337  0.08504922  0.92736627  1
  O2-  O201  1  0.54794755  0.58306989  0.27346704  1
  O2-  O202  1  0.53954618  0.58440050  0.59481822  1
  O2-  O203  1  0.54241170  0.58437619  0.93106749  1
  O2-  O204  1  0.16316777  0.20923377  0.27122308  1
  O2-  O205  1  0.17146392  0.20591687  0.59911383  1
  O2-  O206  1  0.16487541  0.20627852  0.92844904  1
  O2-  O207  1  0.16747585  0.70712163  0.26181730  1
  O2-  O208  1  0.16663164  0.70453347  0.61014447  1
  O2-  O209  1  0.15936258  0.70740462  0.93203063  1
  O2-  O210  1  0.66904258  0.19529877  0.27591187  1
  O2-  O211  1  0.66195617  0.20488046  0.60286043  1
  O2-  O212  1  0.67461010  0.20145850  0.93431803  1
  O2-  O213  1  0.66468802  0.70559358  0.27179391  1
  O2-  O214  1  0.66903891  0.70976806  0.59619405  1
  O2-  O215  1  0.67097226  0.71027409  0.93351699  1
  O2-  O216  1  0.08963520  0.45478382  0.06167869  1
  O2-  O217  1  0.07971665  0.45110146  0.39951517  1
  O2-  O218  1  0.08394423  0.46299894  0.73807898  1
  O2-  O219  1  0.08621044  0.95793350  0.06477646  1
  O2-  O220  1  0.08386676  0.95720110  0.39277662  1
  O2-  O221  1  0.08390410  0.95720341  0.73542093  1
  O2-  O222  1  0.57583047  0.45605746  0.06315808  1
  O2-  O223  1  0.57937468  0.45389151  0.40404851  1
  O2-  O224  1  0.58587262  0.46027407  0.72837521  1
  O2-  O225  1  0.58383902  0.95833858  0.05733875  1
  O2-  O226  1  0.58755281  0.96397758  0.40529898  1
  O2-  O227  1  0.57833966  0.95115645  0.73635192  1
  O2-  O228  1  0.20674159  0.33258846  0.05678097  1
  O2-  O229  1  0.21152105  0.33166567  0.40367377  1
  O2-  O230  1  0.21024274  0.33305769  0.73561298  1
  O2-  O231  1  0.20075464  0.83311198  0.06196205  1
  O2-  O232  1  0.19818617  0.83395233  0.39016391  1
  O2-  O233  1  0.21078814  0.83306802  0.73742431  1
  O2-  O234  1  0.70382745  0.32961461  0.06810397  1
  O2-  O235  1  0.70637563  0.32759106  0.40152197  1
  O2-  O236  1  0.70139169  0.33643796  0.72714205  1
  O2-  O237  1  0.70912929  0.84173346  0.06221314  1
  O2-  O238  1  0.70885507  0.83445231  0.40020511  1
  O2-  O239  1  0.71310445  0.82954489  0.73715757  1
  O2-  O240  1  0.45548857  0.41907902  0.26980145  1
  O2-  O241  1  0.45821807  0.41204009  0.60323386  1
  O2-  O242  1  0.44916499  0.42211932  0.92928294  1
  O2-  O243  1  0.46512008  0.91855408  0.26886091  1
  O2-  O244  1  0.44717448  0.91925419  0.60865588  1
  O2-  O245  1  0.44883759  0.92154439  0.92980109  1
  O2-  O246  1  0.95473046  0.41199195  0.26850053  1
  O2-  O247  1  0.95931133  0.42097289  0.59826846  1
  O2-  O248  1  0.95623637  0.41679312  0.94070384  1
  O2-  O249  1  0.95662068  0.91925240  0.26153974  1
  O2-  O250  1  0.95645968  0.91204921  0.60751869  1
  O2-  O251  1  0.96242960  0.91014734  0.93310486  1
  O2-  O252  1  0.33462268  0.28502530  0.26771315  1
  O2-  O253  1  0.33703714  0.29317601  0.60488224  1
  O2-  O254  1  0.33425826  0.28600836  0.92744149  1
  O2-  O255  1  0.33227879  0.79897886  0.26681388  1
  O2-  O256  1  0.33440132  0.79296382  0.60348504  1
  O2-  O257  1  0.32741196  0.79208810  0.93120644  1
  O2-  O258  1  0.83656428  0.29076421  0.26743812  1
  O2-  O259  1  0.82845986  0.29612444  0.59733234  1
  O2-  O260  1  0.83492933  0.30025266  0.94178224  1
  O2-  O261  1  0.82844440  0.79430743  0.26488824  1
  O2-  O262  1  0.83984498  0.78966581  0.60607767  1
  O2-  O263  1  0.83726556  0.79681052  0.93501068  1
  O2-  O264  1  0.41275025  0.04456162  0.06088410  1
  O2-  O265  1  0.41521068  0.04001444  0.40420845  1
  O2-  O266  1  0.41518571  0.04854678  0.73505076  1
  O2-  O267  1  0.41241217  0.55028000  0.05815201  1
  O2-  O268  1  0.41863181  0.54712590  0.40273503  1
  O2-  O269  1  0.41750155  0.54274771  0.73001517  1
  O2-  O270  1  0.91261553  0.03593924  0.06400400  1
  O2-  O271  1  0.92021814  0.04706008  0.39390785  1
  O2-  O272  1  0.91744739  0.04144006  0.73501088  1
  O2-  O273  1  0.92054781  0.54454776  0.07050946  1
  O2-  O274  1  0.91885225  0.54210343  0.40166301  1
  O2-  O275  1  0.91295818  0.54421073  0.72947464  1
  O2-  O276  1  0.28748794  0.16076378  0.06108665  1
  O2-  O277  1  0.28765270  0.16315624  0.40309478  1
  O2-  O278  1  0.29607459  0.16704015  0.73378039  1
  O2-  O279  1  0.28581268  0.66248939  0.06031685  1
  O2-  O280  1  0.29285765  0.67354603  0.40036910  1
  O2-  O281  1  0.29874237  0.66459584  0.73351795  1
  O2-  O282  1  0.80389275  0.16452678  0.06134632  1
  O2-  O283  1  0.80235159  0.16535633  0.39562292  1
  O2-  O284  1  0.79259930  0.17153230  0.73343761  1
  O2-  O285  1  0.79705327  0.67378567  0.06758190  1
  O2-  O286  1  0.79468392  0.66988667  0.40266592  1
  O2-  O287  1  0.79260652  0.66111913  0.72882443  1
