# generated using pymatgen
data_Ca2Al2SiO7
_symmetry_space_group_name_H-M   'P 1'
_cell_length_a   15.45386872
_cell_length_b   15.45380086
_cell_length_c   15.28084695
_cell_angle_alpha   89.99577632
_cell_angle_beta   89.99569109
_cell_angle_gamma   89.99964356
_symmetry_Int_Tables_number   1
_chemical_formula_structural   Ca2Al2SiO7
_chemical_formula_sum   'Ca48 Al48 Si24 O168'
_cell_volume   3649.38727734
_cell_formula_units_Z   24
loop_
 _symmetry_equiv_pos_site_id
 _symmetry_equiv_pos_as_xyz
  1  'x, y, z'
loop_
 _atom_type_symbol
 _atom_type_oxidation_number
  Ca2+  2.0
  Al0+  0.0
  Si0+  0.0
  O2-  -2.0
loop_
 _atom_site_type_symbol
 _atom_site_label
 _atom_site_symmetry_multiplicity
 _atom_site_fract_x
 _atom_site_fract_y
 _atom_site_fract_z
 _atom_site_occupancy
  Ca2+  Ca0  1  0.16556133  0.07904607  0.17384474  1
  Ca2+  Ca1  1  0.16749644  0.08691714  0.50625279  1
  Ca2+  Ca2  1  0.15495360  0.07198593  0.83180375  1
  Ca2+  Ca3  1  0.16573476  0.57699912  0.16839168  1
  Ca2+  Ca4  1  0.17049667  0.58452950  0.50558808  1
  Ca2+  Ca5  1  0.18029486  0.58171897  0.84067680  1
  Ca2+  Ca6  1  0.67295456  0.08102570  0.17452810  1
  Ca2+  Ca7  1  0.67791705  0.08368519  0.51144188  1
  Ca2+  Ca8  1  0.66933764  0.08289927  0.82810096  1
  Ca2+  Ca9  1  0.67924863  0.58731462  0.16897712  1
  Ca2+  Ca10  1  0.66943458  0.57603252  0.50745856  1
  Ca2+  Ca11  1  0.66733714  0.58273251  0.83568994  1
  Ca2+  Ca12  1  0.07517184  0.33124556  0.16215349  1
  Ca2+  Ca13  1  0.07308633  0.32290247  0.49391033  1
  Ca2+  Ca14  1  0.07409868  0.33443653  0.82788391  1
  Ca2+  Ca15  1  0.08505457  0.82917196  0.16564053  1
  Ca2+  Ca16  1  0.08072989  0.83107237  0.50091804  1
  Ca2+  Ca17  1  0.08162332  0.83624522  0.82432573  1
  Ca2+  Ca18  1  0.57665328  0.33522966  0.16730929  1
  Ca2+  Ca19  1  0.58195693  0.33135012  0.50148963  1
  Ca2+  Ca20  1  0.58528619  0.33066690  0.82328840  1
  Ca2+  Ca21  1  0.58121829  0.82732658  0.15851020  1
  Ca2+  Ca22  1  0.58352139  0.83392331  0.50423238  1
  Ca2+  Ca23  1  0.57929495  0.82141175  0.82004470  1
  Ca2+  Ca24  1  0.32932463  0.41722835  0.16952970  1
  Ca2+  Ca25  1  0.33452507  0.42076437  0.50647503  1
  Ca2+  Ca26  1  0.32874553  0.42738697  0.83894870  1
  Ca2+  Ca27  1  0.32658630  0.92267300  0.17121297  1
  Ca2+  Ca28  1  0.32750197  0.91934665  0.50804124  1
  Ca2+  Ca29  1  0.32232807  0.91012731  0.83347690  1
  Ca2+  Ca30  1  0.84242383  0.42344529  0.17004923  1
  Ca2+  Ca31  1  0.83586476  0.41765700  0.50519281  1
  Ca2+  Ca32  1  0.83112019  0.41632681  0.83649116  1
  Ca2+  Ca33  1  0.83045470  0.92433921  0.17460970  1
  Ca2+  Ca34  1  0.83391375  0.92791628  0.51083705  1
  Ca2+  Ca35  1  0.83507993  0.92088857  0.82904633  1
  Ca2+  Ca36  1  0.40944325  0.17120637  0.16995668  1
  Ca2+  Ca37  1  0.42225002  0.16669832  0.49289594  1
  Ca2+  Ca38  1  0.42434815  0.16849062  0.82530665  1
  Ca2+  Ca39  1  0.42474723  0.66415106  0.15767181  1
  Ca2+  Ca40  1  0.41860188  0.66940191  0.50452511  1
  Ca2+  Ca41  1  0.42238114  0.66418701  0.82433272  1
  Ca2+  Ca42  1  0.91530647  0.17604028  0.16555948  1
  Ca2+  Ca43  1  0.91971490  0.17010524  0.49624127  1
  Ca2+  Ca44  1  0.91939054  0.17791412  0.82054739  1
  Ca2+  Ca45  1  0.92106948  0.65765391  0.16400748  1
  Ca2+  Ca46  1  0.91718922  0.67274316  0.49388096  1
  Ca2+  Ca47  1  0.91581720  0.67222595  0.82819646  1
  Al0+  Al48  1  -0.00025921  -0.00003080  0.00708681  1
  Al0+  Al49  1  -0.00131073  -0.00210370  0.33329381  1
  Al0+  Al50  1  0.00106296  0.00015774  0.66708034  1
  Al0+  Al51  1  0.00058941  0.50031851  -0.00006545  1
  Al0+  Al52  1  0.00104501  0.50114944  0.33255923  1
  Al0+  Al53  1  0.00070929  0.50004537  0.66391213  1
  Al0+  Al54  1  0.49962516  -0.00028474  0.00030847  1
  Al0+  Al55  1  0.49725960  -0.00123012  0.33470019  1
  Al0+  Al56  1  0.50049155  -0.00036892  0.66260287  1
  Al0+  Al57  1  0.50145251  0.49868764  -0.00049716  1
  Al0+  Al58  1  0.50020852  0.50042417  0.32850802  1
  Al0+  Al59  1  0.50193577  0.50077631  0.67085877  1
  Al0+  Al60  1  0.24976843  0.24871600  0.00003777  1
  Al0+  Al61  1  0.25013542  0.24938516  0.33023721  1
  Al0+  Al62  1  0.24916968  0.25125849  0.66667921  1
  Al0+  Al63  1  0.25024569  0.75140373  0.01000088  1
  Al0+  Al64  1  0.25050738  0.74951330  0.32792066  1
  Al0+  Al65  1  0.25207596  0.75038729  0.67097857  1
  Al0+  Al66  1  0.75000066  0.25053585  -0.00242725  1
  Al0+  Al67  1  0.74818696  0.24984784  0.33210376  1
  Al0+  Al68  1  0.74895621  0.25225266  0.66710035  1
  Al0+  Al69  1  0.74927487  0.74996129  0.00012353  1
  Al0+  Al70  1  0.74927569  0.74865461  0.33709712  1
  Al0+  Al71  1  0.75037654  0.75019914  0.66030859  1
  Al0+  Al72  1  0.17760408  0.93009462  0.01626466  1
  Al0+  Al73  1  0.07143738  0.17853584  0.65258331  1
  Al0+  Al74  1  0.92931580  0.82040627  0.65410496  1
  Al0+  Al75  1  0.92723487  0.32082843  0.31706941  1
  Al0+  Al76  1  0.31862261  0.07155208  0.34809549  1
  Al0+  Al77  1  0.93025672  0.32192061  0.98421284  1
  Al0+  Al78  1  0.68091846  0.43046606  0.67980825  1
  Al0+  Al79  1  0.92768798  0.32305874  0.65079961  1
  Al0+  Al80  1  0.82171260  0.07172506  0.68291348  1
  Al0+  Al81  1  0.18054036  0.93085857  0.67838259  1
  Al0+  Al82  1  0.57003607  0.17888372  0.65327294  1
  Al0+  Al83  1  0.57132523  0.67943372  0.98589244  1
  Al0+  Al84  1  0.32005156  0.56997609  0.67900051  1
  Al0+  Al85  1  0.42939923  0.32176021  0.32029169  1
  Al0+  Al86  1  0.82007545  0.07128752  0.34702359  1
  Al0+  Al87  1  0.17884319  0.42831387  0.01546423  1
  Al0+  Al88  1  0.07102915  0.17671398  0.31662690  1
  Al0+  Al89  1  0.42717685  0.82064965  0.65171969  1
  Al0+  Al90  1  0.32339484  0.57031891  0.01781947  1
  Al0+  Al91  1  0.07147738  0.68000156  0.31908554  1
  Al0+  Al92  1  0.67787156  0.92759365  0.68180247  1
  Al0+  Al93  1  0.82278386  0.56943129  0.34861721  1
  Al0+  Al94  1  0.57182677  0.67688924  0.64939570  1
  Al0+  Al95  1  0.81898168  0.57125044  0.01183157  1
  Si0+  Si96  1  0.57142087  0.17782766  0.98555087  1
  Si0+  Si97  1  0.07354310  0.67838594  0.65327813  1
  Si0+  Si98  1  0.92927039  0.82260581  0.98685821  1
  Si0+  Si99  1  0.92610388  0.82042585  0.31573255  1
  Si0+  Si100  1  0.82448931  0.57317135  0.68204312  1
  Si0+  Si101  1  0.32290270  0.57134575  0.34807697  1
  Si0+  Si102  1  0.81961189  0.07213083  0.01519127  1
  Si0+  Si103  1  0.67843525  0.42480867  0.01816241  1
  Si0+  Si104  1  0.07194521  0.17591880  0.98330527  1
  Si0+  Si105  1  0.42880779  0.82147859  0.31597208  1
  Si0+  Si106  1  0.42803825  0.32254619  0.65277026  1
  Si0+  Si107  1  0.17888307  0.92596674  0.35117502  1
  Si0+  Si108  1  0.67633199  0.92698956  0.34989109  1
  Si0+  Si109  1  0.32513433  0.07158977  0.01652744  1
  Si0+  Si110  1  0.57079473  0.67947991  0.31701033  1
  Si0+  Si111  1  0.18011658  0.42960826  0.34885680  1
  Si0+  Si112  1  0.57047820  0.17615749  0.31615980  1
  Si0+  Si113  1  0.42834056  0.31995903  0.98405758  1
  Si0+  Si114  1  0.17665858  0.42688334  0.68228021  1
  Si0+  Si115  1  0.67866242  0.92951762  0.01397144  1
  Si0+  Si116  1  0.42741167  0.82271726  0.98417921  1
  Si0+  Si117  1  0.32335472  0.07489339  0.68269576  1
  Si0+  Si118  1  0.67557503  0.42972659  0.34886478  1
  Si0+  Si119  1  0.07187426  0.68051793  0.98542704  1
  O2-  O120  1  0.25337499  0.00537656  0.05967667  1
  O2-  O121  1  0.24211271  -0.00055560  0.39506661  1
  O2-  O122  1  0.25415007  0.00664415  0.72681552  1
  O2-  O123  1  0.25159072  0.49854237  0.06857033  1
  O2-  O124  1  0.25191427  0.50083098  0.39074385  1
  O2-  O125  1  0.24509409  0.49598831  0.72582866  1
  O2-  O126  1  0.74812766  0.00116545  0.05759633  1
  O2-  O127  1  0.74462934  -0.00357409  0.39186835  1
  O2-  O128  1  0.74967370  -0.00096762  0.73365568  1
  O2-  O129  1  0.74646519  0.49484341  0.06078663  1
  O2-  O130  1  0.74964037  0.49243691  0.39287791  1
  O2-  O131  1  0.75663103  0.50417959  0.72649443  1
  O2-  O132  1  -0.00202621  0.24752822  0.26614809  1
  O2-  O133  1  -0.00095208  0.24972741  0.60276844  1
  O2-  O134  1  0.00580412  0.24695487  0.93964805  1
  O2-  O135  1  -0.00583300  0.75172587  0.27044161  1
  O2-  O136  1  0.00183781  0.74314987  0.60824156  1
  O2-  O137  1  0.00176723  0.75296438  0.94412929  1
  O2-  O138  1  0.50216373  0.24524001  0.27158293  1
  O2-  O139  1  0.49146868  0.24992326  0.60733823  1
  O2-  O140  1  0.49991362  0.24865396  0.94381257  1
  O2-  O141  1  0.50148690  0.75199950  0.27413454  1
  O2-  O142  1  0.50182808  0.75172180  0.60020482  1
  O2-  O143  1  0.49246110  0.75059524  0.94101441  1
  O2-  O144  1  0.06972980  0.17437900  0.08882024  1
  O2-  O145  1  0.07218160  0.17939253  0.42965599  1
  O2-  O146  1  0.07035884  0.17991868  0.76669239  1
  O2-  O147  1  0.06990581  0.68064793  0.09071022  1
  O2-  O148  1  0.07448204  0.68307079  0.43213041  1
  O2-  O149  1  0.07338451  0.67947895  0.75921365  1
  O2-  O150  1  0.57195466  0.17679431  0.09078771  1
  O2-  O151  1  0.56968756  0.17573371  0.42121507  1
  O2-  O152  1  0.56831589  0.18130444  0.76726157  1
  O2-  O153  1  0.57307736  0.68460210  0.09987203  1
  O2-  O154  1  0.56913931  0.67776213  0.42139102  1
  O2-  O155  1  0.56937051  0.67628053  0.76321145  1
  O2-  O156  1  0.18128947  0.43128031  0.24367537  1
  O2-  O157  1  0.17822245  0.42719657  0.57647119  1
  O2-  O158  1  0.18100572  0.43143363  0.90180699  1
  O2-  O159  1  0.18279392  0.92509785  0.24515001  1
  O2-  O160  1  0.18224705  0.92868636  0.56558418  1
  O2-  O161  1  0.17572511  0.92980816  0.90337852  1
  O2-  O162  1  0.67112327  0.43404974  0.24313647  1
  O2-  O163  1  0.67839480  0.43177054  0.56661768  1
  O2-  O164  1  0.67884986  0.42249472  0.91286679  1
  O2-  O165  1  0.67666179  0.92680162  0.24306506  1
  O2-  O166  1  0.68049891  0.93064121  0.56806437  1
  O2-  O167  1  0.67783463  0.92962753  0.90987418  1
  O2-  O168  1  0.42867064  0.31911706  0.08941170  1
  O2-  O169  1  0.43241126  0.32419075  0.43303772  1
  O2-  O170  1  0.42948134  0.32134055  0.75878708  1
  O2-  O171  1  0.43219855  0.82577867  0.09037903  1
  O2-  O172  1  0.42677653  0.82102804  0.42039529  1
  O2-  O173  1  0.42466184  0.81678987  0.76554659  1
  O2-  O174  1  0.92891116  0.31933770  0.09718186  1
  O2-  O175  1  0.92900882  0.32104960  0.42998276  1
  O2-  O176  1  0.93029780  0.32462164  0.76487231  1
  O2-  O177  1  0.92867382  0.82305929  0.09206857  1
  O2-  O178  1  0.92686713  0.81977405  0.42100008  1
  O2-  O179  1  0.93142648  0.81923986  0.76815215  1
  O2-  O180  1  0.32022190  0.06703292  0.23451105  1
  O2-  O181  1  0.32198131  0.07550643  0.57710929  1
  O2-  O182  1  0.33123966  0.07053353  0.91151120  1
  O2-  O183  1  0.32411109  0.56989811  0.24313123  1
  O2-  O184  1  0.31824708  0.56872267  0.56508965  1
  O2-  O185  1  0.32231742  0.56963059  0.90432452  1
  O2-  O186  1  0.81627495  0.06885059  0.23266926  1
  O2-  O187  1  0.82100850  0.07071127  0.56936853  1
  O2-  O188  1  0.81994120  0.07171248  0.91077110  1
  O2-  O189  1  0.81987095  0.57122754  0.23506906  1
  O2-  O190  1  0.82493210  0.57166980  0.57639149  1
  O2-  O191  1  0.81747255  0.57389580  0.89916770  1
  O2-  O192  1  0.04459533  0.07616922  0.26569450  1
  O2-  O193  1  0.04634037  0.07987765  0.60026589  1
  O2-  O194  1  0.04170997  0.08231152  0.93927660  1
  O2-  O195  1  0.04181543  0.58371903  0.26424277  1
  O2-  O196  1  0.05313153  0.58411855  0.60647638  1
  O2-  O197  1  0.04417071  0.58968043  0.93717987  1
  O2-  O198  1  0.54361888  0.08239874  0.26939203  1
  O2-  O199  1  0.54420885  0.08260622  0.59740645  1
  O2-  O200  1  0.54339230  0.08582899  0.93826709  1
  O2-  O201  1  0.54108923  0.58953766  0.26709534  1
  O2-  O202  1  0.53838112  0.57963232  0.59675387  1
  O2-  O203  1  0.54605454  0.58007426  0.93495648  1
  O2-  O204  1  0.16945122  0.20538160  0.26341878  1
  O2-  O205  1  0.17077949  0.20682258  0.60020676  1
  O2-  O206  1  0.16791096  0.19545963  0.93939250  1
  O2-  O207  1  0.16693450  0.71165904  0.26167509  1
  O2-  O208  1  0.16533827  0.70792841  0.60661051  1
  O2-  O209  1  0.16549749  0.70875968  0.94198697  1
  O2-  O210  1  0.66299126  0.20211123  0.26794361  1
  O2-  O211  1  0.66430650  0.21404945  0.59902189  1
  O2-  O212  1  0.66242911  0.20563424  0.93724440  1
  O2-  O213  1  0.66345884  0.70740484  0.27046069  1
  O2-  O214  1  0.67014440  0.70220129  0.59552966  1
  O2-  O215  1  0.66642148  0.71418848  0.93176789  1
  O2-  O216  1  0.08176105  0.45999292  0.06894723  1
  O2-  O217  1  0.08962114  0.45957861  0.39647800  1
  O2-  O218  1  0.08322625  0.45318563  0.72826796  1
  O2-  O219  1  0.08191499  0.95986743  0.07394616  1
  O2-  O220  1  0.08192361  0.94334428  0.39197224  1
  O2-  O221  1  0.08490730  0.96001454  0.73544615  1
  O2-  O222  1  0.58418028  0.44929351  0.06310918  1
  O2-  O223  1  0.58444602  0.46233458  0.39646425  1
  O2-  O224  1  0.58559637  0.46089088  0.73728440  1
  O2-  O225  1  0.58679071  0.95693988  0.06328155  1
  O2-  O226  1  0.58183056  0.95054254  0.39389512  1
  O2-  O227  1  0.57835979  0.95526192  0.73352002  1
  O2-  O228  1  0.20578542  0.32826648  0.06668751  1
  O2-  O229  1  0.20901103  0.33798161  0.39472683  1
  O2-  O230  1  0.20224432  0.33431904  0.73074146  1
  O2-  O231  1  0.20809225  0.83531335  0.07406795  1
  O2-  O232  1  0.21166727  0.83377697  0.39573892  1
  O2-  O233  1  0.21188069  0.83554522  0.73558886  1
  O2-  O234  1  0.70345708  0.33124040  0.06548154  1
  O2-  O235  1  0.69318581  0.33283147  0.39030931  1
  O2-  O236  1  0.70877834  0.33466341  0.73660310  1
  O2-  O237  1  0.70840269  0.83933545  0.06384889  1
  O2-  O238  1  0.70061207  0.83341681  0.39558905  1
  O2-  O239  1  0.70666411  0.82772812  0.73187643  1
  O2-  O240  1  0.46241395  0.41652931  0.26211337  1
  O2-  O241  1  0.45896206  0.41400392  0.60652269  1
  O2-  O242  1  0.45668890  0.41141460  0.93685264  1
  O2-  O243  1  0.45604043  0.91337527  0.26729217  1
  O2-  O244  1  0.45157545  0.91961141  0.59827596  1
  O2-  O245  1  0.45479312  0.91566227  0.93788805  1
  O2-  O246  1  0.95959303  0.41911872  0.26580935  1
  O2-  O247  1  0.95691068  0.42139801  0.59729530  1
  O2-  O248  1  0.96056822  0.41895999  0.93076170  1
  O2-  O249  1  0.95182324  0.91343624  0.26825314  1
  O2-  O250  1  0.96321564  0.91515625  0.59974656  1
  O2-  O251  1  0.95670754  0.91530538  0.94102702  1
  O2-  O252  1  0.33433313  0.29073051  0.26365873  1
  O2-  O253  1  0.33270976  0.30370811  0.60791791  1
  O2-  O254  1  0.33674162  0.29256938  0.93587697  1
  O2-  O255  1  0.33870767  0.79200708  0.26603994  1
  O2-  O256  1  0.33075833  0.78696371  0.59693949  1
  O2-  O257  1  0.33084292  0.80049690  0.94364949  1
  O2-  O258  1  0.82695951  0.29544489  0.26449214  1
  O2-  O259  1  0.82887982  0.29688099  0.59993019  1
  O2-  O260  1  0.83244801  0.29065692  0.93227935  1
  O2-  O261  1  0.83105037  0.79612174  0.27084692  1
  O2-  O262  1  0.83434418  0.79318996  0.59627643  1
  O2-  O263  1  0.83800683  0.79373497  0.93969798  1
  O2-  O264  1  0.41711823  0.04362648  0.06671177  1
  O2-  O265  1  0.41554752  0.03920949  0.40096563  1
  O2-  O266  1  0.41718602  0.04941981  0.72758877  1
  O2-  O267  1  0.42250284  0.54033173  0.06934792  1
  O2-  O268  1  0.41488039  0.54278478  0.39440139  1
  O2-  O269  1  0.41515395  0.53817485  0.73435745  1
  O2-  O270  1  0.90983244  0.04325907  0.06490812  1
  O2-  O271  1  0.91665715  0.03918916  0.39962591  1
  O2-  O272  1  0.91909347  0.04106483  0.73641913  1
  O2-  O273  1  0.91639066  0.54203337  0.06491515  1
  O2-  O274  1  0.92071237  0.54357452  0.40187468  1
  O2-  O275  1  0.91922012  0.54993845  0.72789270  1
  O2-  O276  1  0.30125551  0.16608493  0.06136295  1
  O2-  O277  1  0.29391584  0.17024533  0.40041926  1
  O2-  O278  1  0.30005445  0.16916472  0.72963731  1
  O2-  O279  1  0.29745188  0.66911043  0.07107685  1
  O2-  O280  1  0.29429629  0.66413484  0.39265910  1
  O2-  O281  1  0.28939781  0.66467410  0.73601444  1
  O2-  O282  1  0.78917174  0.16320068  0.06282351  1
  O2-  O283  1  0.78894235  0.16823134  0.39940923  1
  O2-  O284  1  0.78990738  0.16930607  0.73521673  1
  O2-  O285  1  0.78721065  0.66725688  0.06853233  1
  O2-  O286  1  0.79026934  0.66605656  0.40177196  1
  O2-  O287  1  0.79852035  0.66711855  0.72634037  1
