# generated using pymatgen
data_Ca2Al2SiO7
_symmetry_space_group_name_H-M   'P 1'
_cell_length_a   15.46243067
_cell_length_b   15.46387696
_cell_length_c   15.28806301
_cell_angle_alpha   90.01391869
_cell_angle_beta   89.99662332
_cell_angle_gamma   90.00925512
_symmetry_Int_Tables_number   1
_chemical_formula_structural   Ca2Al2SiO7
_chemical_formula_sum   'Ca48 Al48 Si24 O168'
_cell_volume   3655.51521265
_cell_formula_units_Z   24
loop_
 _symmetry_equiv_pos_site_id
 _symmetry_equiv_pos_as_xyz
  1  'x, y, z'
loop_
 _atom_type_symbol
 _atom_type_oxidation_number
  Ca2+  2.0
  Al0+  0.0
  Si0+  0.0
  O2-  -2.0
loop_
 _atom_site_type_symbol
 _atom_site_label
 _atom_site_symmetry_multiplicity
 _atom_site_fract_x
 _atom_site_fract_y
 _atom_site_fract_z
 _atom_site_occupancy
  Ca2+  Ca0  1  0.17881558  0.08120106  0.17083607  1
  Ca2+  Ca1  1  0.17796458  0.07216086  0.50550993  1
  Ca2+  Ca2  1  0.17493402  0.07962215  0.84272525  1
  Ca2+  Ca3  1  0.16016860  0.57179271  0.17039049  1
  Ca2+  Ca4  1  0.15967867  0.57598960  0.50075757  1
  Ca2+  Ca5  1  0.16733159  0.56902093  0.83571374  1
  Ca2+  Ca6  1  0.67376361  0.08568677  0.17305882  1
  Ca2+  Ca7  1  0.65973521  0.08287409  0.49884238  1
  Ca2+  Ca8  1  0.67396320  0.09585412  0.83608383  1
  Ca2+  Ca9  1  0.66493301  0.57611033  0.16702514  1
  Ca2+  Ca10  1  0.67647969  0.58418827  0.50799505  1
  Ca2+  Ca11  1  0.67472821  0.57574123  0.84005464  1
  Ca2+  Ca12  1  0.08271388  0.32756679  0.15524308  1
  Ca2+  Ca13  1  0.08089477  0.34167786  0.49766423  1
  Ca2+  Ca14  1  0.08301859  0.32985253  0.83047793  1
  Ca2+  Ca15  1  0.09379417  0.83137337  0.16361271  1
  Ca2+  Ca16  1  0.08338791  0.83055223  0.48787370  1
  Ca2+  Ca17  1  0.08863277  0.83704962  0.83012718  1
  Ca2+  Ca18  1  0.57587615  0.32872842  0.15789556  1
  Ca2+  Ca19  1  0.57514218  0.32060686  0.49713773  1
  Ca2+  Ca20  1  0.57207941  0.33096232  0.82716321  1
  Ca2+  Ca21  1  0.57147391  0.84144555  0.16631129  1
  Ca2+  Ca22  1  0.57754266  0.83582420  0.48822910  1
  Ca2+  Ca23  1  0.57462363  0.83773010  0.83272826  1
  Ca2+  Ca24  1  0.32106301  0.40832332  0.16798808  1
  Ca2+  Ca25  1  0.32144656  0.41306052  0.50549418  1
  Ca2+  Ca26  1  0.32709653  0.40657527  0.83912348  1
  Ca2+  Ca27  1  0.32977984  0.92300322  0.17221409  1
  Ca2+  Ca28  1  0.33075054  0.92336444  0.50329817  1
  Ca2+  Ca29  1  0.32658424  0.92752568  0.84008228  1
  Ca2+  Ca30  1  0.82684082  0.40769689  0.16631107  1
  Ca2+  Ca31  1  0.83540849  0.42325711  0.50986202  1
  Ca2+  Ca32  1  0.83224591  0.41231180  0.83870534  1
  Ca2+  Ca33  1  0.83035462  0.92160102  0.17220280  1
  Ca2+  Ca34  1  0.82691584  0.90959515  0.50010546  1
  Ca2+  Ca35  1  0.82946505  0.92746410  0.84187652  1
  Ca2+  Ca36  1  0.41930133  0.16171817  0.16170566  1
  Ca2+  Ca37  1  0.41998514  0.15905212  0.49880275  1
  Ca2+  Ca38  1  0.41338771  0.17235543  0.82815431  1
  Ca2+  Ca39  1  0.40920687  0.68189045  0.16201719  1
  Ca2+  Ca40  1  0.41501978  0.67568836  0.49212690  1
  Ca2+  Ca41  1  0.41339961  0.67331172  0.83404289  1
  Ca2+  Ca42  1  0.92635006  0.16739480  0.15425865  1
  Ca2+  Ca43  1  0.91945883  0.17490556  0.49871650  1
  Ca2+  Ca44  1  0.92159499  0.17418158  0.83456208  1
  Ca2+  Ca45  1  0.92164211  0.67580688  0.16984335  1
  Ca2+  Ca46  1  0.92243243  0.67093496  0.49120440  1
  Ca2+  Ca47  1  0.91753392  0.66576547  0.82829397  1
  Al0+  Al48  1  -0.00082636  -0.00143828  0.00235743  1
  Al0+  Al49  1  -0.00113697  0.00380515  0.33455126  1
  Al0+  Al50  1  -0.00389959  -0.00037908  0.66774730  1
  Al0+  Al51  1  -0.00103367  0.50341917  0.00127313  1
  Al0+  Al52  1  -0.00243738  0.50218373  0.33117830  1
  Al0+  Al53  1  0.00014999  0.50209413  0.67130980  1
  Al0+  Al54  1  0.50080041  -0.00119284  -0.00490221  1
  Al0+  Al55  1  0.50386170  0.00060547  0.33162421  1
  Al0+  Al56  1  0.49925459  -0.00133290  0.66740395  1
  Al0+  Al57  1  0.50183074  0.50102298  0.00033232  1
  Al0+  Al58  1  0.49918357  0.49826554  0.33481346  1
  Al0+  Al59  1  0.50036032  0.50043851  0.66133421  1
  Al0+  Al60  1  0.25077429  0.24786383  0.00103841  1
  Al0+  Al61  1  0.24896624  0.25096839  0.34406729  1
  Al0+  Al62  1  0.24873220  0.24840385  0.66847317  1
  Al0+  Al63  1  0.25076310  0.74907198  -0.00552591  1
  Al0+  Al64  1  0.24956614  0.74721981  0.32668609  1
  Al0+  Al65  1  0.24926522  0.74755026  0.66827402  1
  Al0+  Al66  1  0.75115665  0.25126820  0.00633095  1
  Al0+  Al67  1  0.74751642  0.25024305  0.33273249  1
  Al0+  Al68  1  0.74978720  0.25030054  0.65726564  1
  Al0+  Al69  1  0.75125354  0.74874669  0.00024450  1
  Al0+  Al70  1  0.75079305  0.74927360  0.33187108  1
  Al0+  Al71  1  0.75054080  0.74962001  0.67298199  1
  Al0+  Al72  1  0.42998428  0.82027107  0.32034579  1
  Al0+  Al73  1  0.42483601  0.32261996  0.64976458  1
  Al0+  Al74  1  0.92816304  0.82414590  0.31857623  1
  Al0+  Al75  1  0.32204744  0.06935389  0.68391398  1
  Al0+  Al76  1  0.67949563  0.43008443  0.01338019  1
  Al0+  Al77  1  0.81988551  0.07144416  0.01310666  1
  Al0+  Al78  1  0.32329739  0.07003837  0.34963582  1
  Al0+  Al79  1  0.56933450  0.18018677  0.31669632  1
  Al0+  Al80  1  0.07207219  0.17718166  0.98572938  1
  Al0+  Al81  1  0.17931813  0.92684507  0.01531563  1
  Al0+  Al82  1  0.92859742  0.32242602  0.98645605  1
  Al0+  Al83  1  0.93209741  0.32189755  0.65300494  1
  Al0+  Al84  1  0.68283888  0.92991639  0.34542166  1
  Al0+  Al85  1  0.17946686  0.42926478  0.01277829  1
  Al0+  Al86  1  0.82060211  0.57103476  0.68098763  1
  Al0+  Al87  1  0.57037507  0.17835475  0.65085781  1
  Al0+  Al88  1  0.17780227  0.92690479  0.34708248  1
  Al0+  Al89  1  0.18002055  0.42981291  0.68073207  1
  Al0+  Al90  1  0.42935960  0.32112244  0.98846617  1
  Al0+  Al91  1  0.32293849  0.07131473  0.01552604  1
  Al0+  Al92  1  0.17737799  0.43083942  0.34701346  1
  Al0+  Al93  1  0.17679181  0.92675539  0.68085840  1
  Al0+  Al94  1  0.07077280  0.67943149  0.31654551  1
  Al0+  Al95  1  0.42922334  0.82149298  0.98346849  1
  Si0+  Si96  1  0.42602674  0.32257003  0.31660552  1
  Si0+  Si97  1  0.07103434  0.67954731  0.98160587  1
  Si0+  Si98  1  0.57323826  0.17847662  0.98466162  1
  Si0+  Si99  1  0.81948186  0.07329202  0.68066518  1
  Si0+  Si100  1  0.57368748  0.67803251  0.98221126  1
  Si0+  Si101  1  0.92897298  0.32210362  0.31902237  1
  Si0+  Si102  1  0.67922151  0.92812957  0.68190773  1
  Si0+  Si103  1  0.92751949  0.82038113  0.98335621  1
  Si0+  Si104  1  0.07183970  0.18108432  0.32077383  1
  Si0+  Si105  1  0.82258127  0.07571331  0.35258443  1
  Si0+  Si106  1  0.57322230  0.67522622  0.31710936  1
  Si0+  Si107  1  0.42989846  0.81765249  0.65142380  1
  Si0+  Si108  1  0.06974447  0.68074332  0.65277085  1
  Si0+  Si109  1  0.82280622  0.57462599  0.02091355  1
  Si0+  Si110  1  0.67902613  0.92576490  0.01579719  1
  Si0+  Si111  1  0.32507078  0.57222650  0.68278295  1
  Si0+  Si112  1  0.81759420  0.56905293  0.34815554  1
  Si0+  Si113  1  0.92666128  0.82174142  0.65343811  1
  Si0+  Si114  1  0.57409490  0.67987772  0.65247752  1
  Si0+  Si115  1  0.67846431  0.42764195  0.68127350  1
  Si0+  Si116  1  0.07123048  0.17531068  0.64888808  1
  Si0+  Si117  1  0.32314348  0.57187348  0.34843160  1
  Si0+  Si118  1  0.67679096  0.42697402  0.35091047  1
  Si0+  Si119  1  0.32277921  0.57181839  0.01560264  1
  O2-  O120  1  0.25056752  -0.00074093  0.06460422  1
  O2-  O121  1  0.25201903  -0.00429237  0.39784051  1
  O2-  O122  1  0.24574084  0.00050907  0.73151907  1
  O2-  O123  1  0.25669062  0.50123937  0.06030205  1
  O2-  O124  1  0.25350106  0.50471134  0.39315599  1
  O2-  O125  1  0.26238088  0.49767232  0.72584022  1
  O2-  O126  1  0.74457620  -0.00285012  0.05921655  1
  O2-  O127  1  0.75853756  0.00184866  0.39592065  1
  O2-  O128  1  0.74686473  0.00295489  0.72249192  1
  O2-  O129  1  0.75620772  0.50262266  0.06266828  1
  O2-  O130  1  0.74642822  0.49943828  0.39262486  1
  O2-  O131  1  0.74684939  0.49570434  0.72698132  1
  O2-  O132  1  -0.00045500  0.25112753  0.27797000  1
  O2-  O133  1  0.00750242  0.24921671  0.60387464  1
  O2-  O134  1  0.00279847  0.25313292  0.93623356  1
  O2-  O135  1  0.00669823  0.75967710  0.26726572  1
  O2-  O136  1  0.00291028  0.75642740  0.61178697  1
  O2-  O137  1  0.00066659  0.75201505  0.94027895  1
  O2-  O138  1  0.49291612  0.25309963  0.27122338  1
  O2-  O139  1  0.49513037  0.24768692  0.60129168  1
  O2-  O140  1  0.50257129  0.24493715  0.94124669  1
  O2-  O141  1  0.50287932  0.74216040  0.27382372  1
  O2-  O142  1  0.50130991  0.74722538  0.60827506  1
  O2-  O143  1  0.50593472  0.74723800  0.93742106  1
  O2-  O144  1  0.07084666  0.17904396  0.09997859  1
  O2-  O145  1  0.06918535  0.18249158  0.42598856  1
  O2-  O146  1  0.06692972  0.17366675  0.75412629  1
  O2-  O147  1  0.07025255  0.67823485  0.08637238  1
  O2-  O148  1  0.06511733  0.67463788  0.43052177  1
  O2-  O149  1  0.06818798  0.67993269  0.75791558  1
  O2-  O150  1  0.57368111  0.17968487  0.09029420  1
  O2-  O151  1  0.57120086  0.18228041  0.42944471  1
  O2-  O152  1  0.57583835  0.18246255  0.76426749  1
  O2-  O153  1  0.57464224  0.67760647  0.08762306  1
  O2-  O154  1  0.57446192  0.67612165  0.42322468  1
  O2-  O155  1  0.57587553  0.68224574  0.75723962  1
  O2-  O156  1  0.17660044  0.43020436  0.23408686  1
  O2-  O157  1  0.17616636  0.43714912  0.56763897  1
  O2-  O158  1  0.17942914  0.43217832  0.89980000  1
  O2-  O159  1  0.18015704  0.93010939  0.23408230  1
  O2-  O160  1  0.17862982  0.92393516  0.56741011  1
  O2-  O161  1  0.18098371  0.92735018  0.90158001  1
  O2-  O162  1  0.67773470  0.42750987  0.24584462  1
  O2-  O163  1  0.68065947  0.43145390  0.57537150  1
  O2-  O164  1  0.67978065  0.43259240  0.90023896  1
  O2-  O165  1  0.68351464  0.93132473  0.23262146  1
  O2-  O166  1  0.68141611  0.92312690  0.57701093  1
  O2-  O167  1  0.68253200  0.92273529  0.90969759  1
  O2-  O168  1  0.43150570  0.32262608  0.10162051  1
  O2-  O169  1  0.42921416  0.32562051  0.42186613  1
  O2-  O170  1  0.42980224  0.32505678  0.76338544  1
  O2-  O171  1  0.43099537  0.81963029  0.09643428  1
  O2-  O172  1  0.43304329  0.81758472  0.43414568  1
  O2-  O173  1  0.43214728  0.81549120  0.75636798  1
  O2-  O174  1  0.92873153  0.31933545  0.10063123  1
  O2-  O175  1  0.92951707  0.32385310  0.42448551  1
  O2-  O176  1  0.92996685  0.31978743  0.76536518  1
  O2-  O177  1  0.92269578  0.81752048  0.08782547  1
  O2-  O178  1  0.92444293  0.81634827  0.43262018  1
  O2-  O179  1  0.92323370  0.81965377  0.75848507  1
  O2-  O180  1  0.32243584  0.07163902  0.23639799  1
  O2-  O181  1  0.32459679  0.06327904  0.57040424  1
  O2-  O182  1  0.32328262  0.07025966  0.90211580  1
  O2-  O183  1  0.32627194  0.56985834  0.24318820  1
  O2-  O184  1  0.32268930  0.57818476  0.57739706  1
  O2-  O185  1  0.32073688  0.57265734  0.90970055  1
  O2-  O186  1  0.81979159  0.07911392  0.24723660  1
  O2-  O187  1  0.82160450  0.07147273  0.57578565  1
  O2-  O188  1  0.81761605  0.07079661  0.89919314  1
  O2-  O189  1  0.81657321  0.56798259  0.24336426  1
  O2-  O190  1  0.81881291  0.57257053  0.56748216  1
  O2-  O191  1  0.82048663  0.57858145  0.91528130  1
  O2-  O192  1  0.04552891  0.08967279  0.27258642  1
  O2-  O193  1  0.03787961  0.08404079  0.60135983  1
  O2-  O194  1  0.03893430  0.07967328  0.93311677  1
  O2-  O195  1  0.03093315  0.58484228  0.26143175  1
  O2-  O196  1  0.03611396  0.59139340  0.60459102  1
  O2-  O197  1  0.03954746  0.58920543  0.93312338  1
  O2-  O198  1  0.54483656  0.08272761  0.26273418  1
  O2-  O199  1  0.54471756  0.07725976  0.60007871  1
  O2-  O200  1  0.55487339  0.08345047  0.93846822  1
  O2-  O201  1  0.54954461  0.58023922  0.27250976  1
  O2-  O202  1  0.55242250  0.58722226  0.60391455  1
  O2-  O203  1  0.54730112  0.58559783  0.93429963  1
  O2-  O204  1  0.16376838  0.21131341  0.27562640  1
  O2-  O205  1  0.16650890  0.19538725  0.60554869  1
  O2-  O206  1  0.17020741  0.20423795  0.93300416  1
  O2-  O207  1  0.17105637  0.69516715  0.26284878  1
  O2-  O208  1  0.16314963  0.70241768  0.60522569  1
  O2-  O209  1  0.16259483  0.70444870  0.93247283  1
  O2-  O210  1  0.66613460  0.21395325  0.26362434  1
  O2-  O211  1  0.66711833  0.20743112  0.59350769  1
  O2-  O212  1  0.66610927  0.20868320  0.94017404  1
  O2-  O213  1  0.66580979  0.70116442  0.27017734  1
  O2-  O214  1  0.66524958  0.71131706  0.60473032  1
  O2-  O215  1  0.66782121  0.70349727  0.93601124  1
  O2-  O216  1  0.08321371  0.46358974  0.06599298  1
  O2-  O217  1  0.08035541  0.46513430  0.39959720  1
  O2-  O218  1  0.08702554  0.46847058  0.73617163  1
  O2-  O219  1  0.07806016  0.94732867  0.06450530  1
  O2-  O220  1  0.07846902  0.95615913  0.39914844  1
  O2-  O221  1  0.07484058  0.94979555  0.72997010  1
  O2-  O222  1  0.58480374  0.46448374  0.07009302  1
  O2-  O223  1  0.58447112  0.45292430  0.39803480  1
  O2-  O224  1  0.58440657  0.45446706  0.72557688  1
  O2-  O225  1  0.58384082  0.94844444  0.05768568  1
  O2-  O226  1  0.58773324  0.96145499  0.40132918  1
  O2-  O227  1  0.58656463  0.95169428  0.72860457  1
  O2-  O228  1  0.20836423  0.33273579  0.06671911  1
  O2-  O229  1  0.20560537  0.33633882  0.40570596  1
  O2-  O230  1  0.20090277  0.33025526  0.73184992  1
  O2-  O231  1  0.20981047  0.82708702  0.06416322  1
  O2-  O232  1  0.20116953  0.82429791  0.39424232  1
  O2-  O233  1  0.20649024  0.82803367  0.73323524  1
  O2-  O234  1  0.70941273  0.33547808  0.07153573  1
  O2-  O235  1  0.70767600  0.33667499  0.39879135  1
  O2-  O236  1  0.70570533  0.33374271  0.72429520  1
  O2-  O237  1  0.70689338  0.83318240  0.06240809  1
  O2-  O238  1  0.71056673  0.83146100  0.40014651  1
  O2-  O239  1  0.71060927  0.83926665  0.73305450  1
  O2-  O240  1  0.45340285  0.41601443  0.27036902  1
  O2-  O241  1  0.45383666  0.42163600  0.59587701  1
  O2-  O242  1  0.46040484  0.41837736  0.93484793  1
  O2-  O243  1  0.46648133  0.91411823  0.26617939  1
  O2-  O244  1  0.45892108  0.90891792  0.60503676  1
  O2-  O245  1  0.46227093  0.91596291  0.92605439  1
  O2-  O246  1  0.95396517  0.41377083  0.27117315  1
  O2-  O247  1  0.96207164  0.42026341  0.60040290  1
  O2-  O248  1  0.94995417  0.42433611  0.93769755  1
  O2-  O249  1  0.94357098  0.92744474  0.27182199  1
  O2-  O250  1  0.94514142  0.91547809  0.60609285  1
  O2-  O251  1  0.95164759  0.91283503  0.93601332  1
  O2-  O252  1  0.32992197  0.29856223  0.27596948  1
  O2-  O253  1  0.32453987  0.29762084  0.59933305  1
  O2-  O254  1  0.33324789  0.29133828  0.93441389  1
  O2-  O255  1  0.33475116  0.79014637  0.26420918  1
  O2-  O256  1  0.33826503  0.78749123  0.60510481  1
  O2-  O257  1  0.33516036  0.78593256  0.92696706  1
  O2-  O258  1  0.83596577  0.29458996  0.27431400  1
  O2-  O259  1  0.83654282  0.29158129  0.59573492  1
  O2-  O260  1  0.83013400  0.29112062  0.93485353  1
  O2-  O261  1  0.83312814  0.78607526  0.26354931  1
  O2-  O262  1  0.83639759  0.78745570  0.60590612  1
  O2-  O263  1  0.83672532  0.78939427  0.93407025  1
  O2-  O264  1  0.42329008  0.04189227  0.06445789  1
  O2-  O265  1  0.42242036  0.04082766  0.40007536  1
  O2-  O266  1  0.41999624  0.03792967  0.73672247  1
  O2-  O267  1  0.41801434  0.55299061  0.06009169  1
  O2-  O268  1  0.41688651  0.54779396  0.39692181  1
  O2-  O269  1  0.42187284  0.55488641  0.72598357  1
  O2-  O270  1  0.91460310  0.03842047  0.06834256  1
  O2-  O271  1  0.91749569  0.05729272  0.39817430  1
  O2-  O272  1  0.90940854  0.04397505  0.73039631  1
  O2-  O273  1  0.91719437  0.55375749  0.06584135  1
  O2-  O274  1  0.90859866  0.53980934  0.39609981  1
  O2-  O275  1  0.91601514  0.54261045  0.73674532  1
  O2-  O276  1  0.29556598  0.16892507  0.06998912  1
  O2-  O277  1  0.29355126  0.16723336  0.40466723  1
  O2-  O278  1  0.29758319  0.16972456  0.73307254  1
  O2-  O279  1  0.29265174  0.66426196  0.06070594  1
  O2-  O280  1  0.29848643  0.66571165  0.39411072  1
  O2-  O281  1  0.29263816  0.66230231  0.73257990  1
  O2-  O282  1  0.79086440  0.16619996  0.07079322  1
  O2-  O283  1  0.79009689  0.16723655  0.40017223  1
  O2-  O284  1  0.79049887  0.16545481  0.72640577  1
  O2-  O285  1  0.79210057  0.66631291  0.06852650  1
  O2-  O286  1  0.79055153  0.66063360  0.39658448  1
  O2-  O287  1  0.78777817  0.66574608  0.73856368  1
