# generated using pymatgen
data_Ca2Al2SiO7
_symmetry_space_group_name_H-M   'P 1'
_cell_length_a   15.46114316
_cell_length_b   15.46092256
_cell_length_c   15.28535417
_cell_angle_alpha   90.00585589
_cell_angle_beta   89.99330531
_cell_angle_gamma   90.01285008
_symmetry_Int_Tables_number   1
_chemical_formula_structural   Ca2Al2SiO7
_chemical_formula_sum   'Ca48 Al48 Si24 O168'
_cell_volume   3653.86499045
_cell_formula_units_Z   24
loop_
 _symmetry_equiv_pos_site_id
 _symmetry_equiv_pos_as_xyz
  1  'x, y, z'
loop_
 _atom_type_symbol
 _atom_type_oxidation_number
  Ca2+  2.0
  Al0+  0.0
  Si0+  0.0
  O2-  -2.0
loop_
 _atom_site_type_symbol
 _atom_site_label
 _atom_site_symmetry_multiplicity
 _atom_site_fract_x
 _atom_site_fract_y
 _atom_site_fract_z
 _atom_site_occupancy
  Ca2+  Ca0  1  0.16597029  0.08162917  0.16552191  1
  Ca2+  Ca1  1  0.16396796  0.08406400  0.50144721  1
  Ca2+  Ca2  1  0.17320021  0.07377072  0.84496932  1
  Ca2+  Ca3  1  0.16697000  0.58302797  0.16152247  1
  Ca2+  Ca4  1  0.17269674  0.57738326  0.51289024  1
  Ca2+  Ca5  1  0.17159011  0.58405691  0.84134704  1
  Ca2+  Ca6  1  0.67945856  0.08166878  0.16893623  1
  Ca2+  Ca7  1  0.68008165  0.07770040  0.50865525  1
  Ca2+  Ca8  1  0.67620119  0.07840849  0.83698503  1
  Ca2+  Ca9  1  0.67152931  0.57332076  0.17153100  1
  Ca2+  Ca10  1  0.66947767  0.57720905  0.50359819  1
  Ca2+  Ca11  1  0.66032787  0.57486284  0.83560404  1
  Ca2+  Ca12  1  0.07723947  0.32888985  0.15710325  1
  Ca2+  Ca13  1  0.08367133  0.32725663  0.49432786  1
  Ca2+  Ca14  1  0.07888752  0.34267893  0.83263028  1
  Ca2+  Ca15  1  0.07474370  0.82849652  0.15620281  1
  Ca2+  Ca16  1  0.07762984  0.82465096  0.49503006  1
  Ca2+  Ca17  1  0.08691370  0.82377430  0.83631683  1
  Ca2+  Ca18  1  0.57710230  0.34100707  0.16016746  1
  Ca2+  Ca19  1  0.57897473  0.34278674  0.49550565  1
  Ca2+  Ca20  1  0.57994143  0.34021624  0.83278938  1
  Ca2+  Ca21  1  0.57712041  0.82998075  0.15784608  1
  Ca2+  Ca22  1  0.59253880  0.82711448  0.50195778  1
  Ca2+  Ca23  1  0.57786601  0.83020633  0.82607105  1
  Ca2+  Ca24  1  0.33387642  0.41585339  0.16447065  1
  Ca2+  Ca25  1  0.32837655  0.41921004  0.50818021  1
  Ca2+  Ca26  1  0.32221369  0.42705537  0.84173553  1
  Ca2+  Ca27  1  0.32811302  0.91538450  0.16145912  1
  Ca2+  Ca28  1  0.33124417  0.92042171  0.50457015  1
  Ca2+  Ca29  1  0.32981403  0.91866362  0.84770797  1
  Ca2+  Ca30  1  0.82423459  0.41658719  0.17091020  1
  Ca2+  Ca31  1  0.82161149  0.41833874  0.50382570  1
  Ca2+  Ca32  1  0.82263264  0.41319395  0.84240365  1
  Ca2+  Ca33  1  0.84844298  0.92424419  0.16935234  1
  Ca2+  Ca34  1  0.83702223  0.92509269  0.50393905  1
  Ca2+  Ca35  1  0.83670246  0.92501310  0.83843691  1
  Ca2+  Ca36  1  0.41849900  0.17782873  0.15712052  1
  Ca2+  Ca37  1  0.42274818  0.17666580  0.48962866  1
  Ca2+  Ca38  1  0.41013795  0.17345385  0.83385266  1
  Ca2+  Ca39  1  0.41683161  0.66916887  0.15625328  1
  Ca2+  Ca40  1  0.42243527  0.65993047  0.50356948  1
  Ca2+  Ca41  1  0.41522301  0.66514362  0.83037371  1
  Ca2+  Ca42  1  0.91790540  0.16602144  0.16035956  1
  Ca2+  Ca43  1  0.91918099  0.16242743  0.49386816  1
  Ca2+  Ca44  1  0.90933598  0.16942748  0.83505764  1
  Ca2+  Ca45  1  0.91618872  0.67538207  0.15747003  1
  Ca2+  Ca46  1  0.91823264  0.66887643  0.49248605  1
  Ca2+  Ca47  1  0.93158917  0.66520363  0.82976222  1
  Al0+  Al48  1  0.00080764  -0.00026049  0.00229184  1
  Al0+  Al49  1  0.00231111  -0.00207745  0.33151954  1
  Al0+  Al50  1  0.00174350  0.00189741  0.67057878  1
  Al0+  Al51  1  -0.00068952  0.49952649  -0.00392843  1
  Al0+  Al52  1  0.00202935  0.49879656  0.33677170  1
  Al0+  Al53  1  -0.00170726  0.49858854  0.66072452  1
  Al0+  Al54  1  0.50201975  0.00038007  0.00015928  1
  Al0+  Al55  1  0.49929775  0.00071768  0.33310148  1
  Al0+  Al56  1  0.50134391  0.00247217  0.66694137  1
  Al0+  Al57  1  0.49853026  0.49838173  0.00312523  1
  Al0+  Al58  1  0.49837981  0.50162439  0.33218639  1
  Al0+  Al59  1  0.49888963  0.50256435  0.66857721  1
  Al0+  Al60  1  0.25073644  0.25028269  0.00108954  1
  Al0+  Al61  1  0.25119922  0.24914991  0.32541565  1
  Al0+  Al62  1  0.24810424  0.25104087  0.66796267  1
  Al0+  Al63  1  0.25110176  0.75061736  0.00188582  1
  Al0+  Al64  1  0.24983133  0.74989842  0.33572850  1
  Al0+  Al65  1  0.24997539  0.75128587  0.66248852  1
  Al0+  Al66  1  0.74971952  0.24808209  0.00507544  1
  Al0+  Al67  1  0.74906697  0.24815705  0.34262664  1
  Al0+  Al68  1  0.74916728  0.25023946  0.67208868  1
  Al0+  Al69  1  0.74913982  0.75032521  -0.00663430  1
  Al0+  Al70  1  0.74965959  0.74995241  0.33035023  1
  Al0+  Al71  1  0.74874705  0.75111870  0.66509900  1
  Al0+  Al72  1  0.07150505  0.67839513  0.65054350  1
  Al0+  Al73  1  0.67943764  0.43126756  0.68187838  1
  Al0+  Al74  1  0.67742717  0.43004768  0.34925191  1
  Al0+  Al75  1  0.43150717  0.32172424  0.31918414  1
  Al0+  Al76  1  0.43079388  0.82125694  0.98752508  1
  Al0+  Al77  1  0.82252739  0.06811270  0.34734151  1
  Al0+  Al78  1  0.17637294  0.42710538  0.68078284  1
  Al0+  Al79  1  0.92738332  0.82378754  0.98223227  1
  Al0+  Al80  1  0.32003495  0.57049289  0.01674724  1
  Al0+  Al81  1  0.07036284  0.67883081  0.98582178  1
  Al0+  Al82  1  0.31924783  0.57187565  0.68133458  1
  Al0+  Al83  1  0.67799527  0.92735207  0.68215857  1
  Al0+  Al84  1  0.92764844  0.31958009  0.98786525  1
  Al0+  Al85  1  0.82263797  0.57285994  0.34704457  1
  Al0+  Al86  1  0.82001654  0.06820810  0.01564350  1
  Al0+  Al87  1  0.67970818  0.42959965  0.01395970  1
  Al0+  Al88  1  0.17987105  0.92862615  0.01623074  1
  Al0+  Al89  1  0.17549314  0.42876247  0.01654880  1
  Al0+  Al90  1  0.42849055  0.32112744  0.98313963  1
  Al0+  Al91  1  0.82304105  0.07015174  0.68392500  1
  Al0+  Al92  1  0.92943695  0.81801522  0.32069597  1
  Al0+  Al93  1  0.32418192  0.07246869  0.01582915  1
  Al0+  Al94  1  0.07011968  0.17903520  0.31891175  1
  Al0+  Al95  1  0.57065463  0.67917542  0.65218025  1
  Si0+  Si96  1  0.18103002  0.93009331  0.67987319  1
  Si0+  Si97  1  0.57137061  0.67662252  0.98353655  1
  Si0+  Si98  1  0.67802172  0.92520206  0.01660396  1
  Si0+  Si99  1  0.67381612  0.92802918  0.34907455  1
  Si0+  Si100  1  0.57348182  0.17628070  0.31730339  1
  Si0+  Si101  1  0.82286021  0.57353905  0.68265774  1
  Si0+  Si102  1  0.18072875  0.92887063  0.35034107  1
  Si0+  Si103  1  0.42824378  0.82544796  0.64846493  1
  Si0+  Si104  1  0.07412030  0.67573303  0.31712850  1
  Si0+  Si105  1  0.57278999  0.17859919  0.98246880  1
  Si0+  Si106  1  0.92997871  0.82351112  0.65009112  1
  Si0+  Si107  1  0.07087903  0.17936540  0.65274184  1
  Si0+  Si108  1  0.42674347  0.82278880  0.31892042  1
  Si0+  Si109  1  0.56925014  0.68045043  0.31773305  1
  Si0+  Si110  1  0.32179333  0.07258217  0.67867123  1
  Si0+  Si111  1  0.92548053  0.31980781  0.65048715  1
  Si0+  Si112  1  0.31955102  0.57262057  0.34971601  1
  Si0+  Si113  1  0.57216951  0.17888538  0.65088859  1
  Si0+  Si114  1  0.07206470  0.17841451  0.98229339  1
  Si0+  Si115  1  0.92650897  0.32200379  0.31923948  1
  Si0+  Si116  1  0.42950385  0.31952882  0.65261764  1
  Si0+  Si117  1  0.18080519  0.42605128  0.34749012  1
  Si0+  Si118  1  0.32099863  0.07199414  0.34858377  1
  Si0+  Si119  1  0.82232959  0.57350560  0.01309704  1
  O2-  O120  1  0.25081423  0.00221389  0.06663332  1
  O2-  O121  1  0.25165716  0.00038209  0.39320684  1
  O2-  O122  1  0.25600562  -0.00262290  0.72033127  1
  O2-  O123  1  0.24863093  0.49864970  0.06832491  1
  O2-  O124  1  0.24845981  0.50057218  0.38998689  1
  O2-  O125  1  0.24277517  0.50427276  0.72952517  1
  O2-  O126  1  0.75055908  -0.01149584  0.06254496  1
  O2-  O127  1  0.74501600  -0.00502163  0.39201694  1
  O2-  O128  1  0.75255144  -0.00404707  0.73221708  1
  O2-  O129  1  0.75471631  0.50452597  0.05868043  1
  O2-  O130  1  0.75237694  0.49956886  0.39869123  1
  O2-  O131  1  0.75433421  0.50559127  0.72818501  1
  O2-  O132  1  -0.00655713  0.25218594  0.27434751  1
  O2-  O133  1  -0.00079785  0.24975022  0.61019674  1
  O2-  O134  1  0.00515870  0.24869272  0.93801123  1
  O2-  O135  1  -0.00076572  0.73817264  0.27514201  1
  O2-  O136  1  -0.00556414  0.75134701  0.60414147  1
  O2-  O137  1  -0.00232113  0.74958004  0.93403671  1
  O2-  O138  1  0.50948377  0.24941498  0.27381194  1
  O2-  O139  1  0.50106703  0.24999554  0.60810974  1
  O2-  O140  1  0.50168283  0.24441812  0.93670095  1
  O2-  O141  1  0.49945990  0.75362673  0.27748206  1
  O2-  O142  1  0.49769735  0.75691470  0.60456248  1
  O2-  O143  1  0.50482406  0.74743477  0.93972623  1
  O2-  O144  1  0.06927460  0.17823036  0.08818252  1
  O2-  O145  1  0.07168598  0.18052243  0.43306178  1
  O2-  O146  1  0.07395828  0.17740073  0.75690731  1
  O2-  O147  1  0.06802857  0.67953902  0.09983210  1
  O2-  O148  1  0.07796148  0.67967902  0.42292044  1
  O2-  O149  1  0.07350744  0.68082488  0.76282510  1
  O2-  O150  1  0.57276217  0.17993761  0.08833843  1
  O2-  O151  1  0.56870819  0.17224113  0.42315189  1
  O2-  O152  1  0.57048524  0.17757368  0.75546007  1
  O2-  O153  1  0.57153170  0.67858723  0.08972847  1
  O2-  O154  1  0.56806155  0.67985523  0.42292722  1
  O2-  O155  1  0.56645220  0.67778016  0.76466146  1
  O2-  O156  1  0.18065683  0.42551358  0.24319200  1
  O2-  O157  1  0.18232513  0.42248678  0.56625026  1
  O2-  O158  1  0.17659105  0.43103928  0.90311421  1
  O2-  O159  1  0.18262628  0.92691719  0.24624853  1
  O2-  O160  1  0.18046435  0.93267082  0.57403572  1
  O2-  O161  1  0.18236492  0.93007323  0.90184599  1
  O2-  O162  1  0.67662191  0.43230639  0.23594338  1
  O2-  O163  1  0.67956280  0.43129057  0.56876200  1
  O2-  O164  1  0.67979121  0.43089256  0.90068372  1
  O2-  O165  1  0.66730090  0.93023017  0.24399269  1
  O2-  O166  1  0.67834313  0.93117906  0.56792295  1
  O2-  O167  1  0.67576298  0.92821845  0.91139174  1
  O2-  O168  1  0.43248195  0.32142306  0.09644636  1
  O2-  O169  1  0.42977652  0.31934104  0.43332135  1
  O2-  O170  1  0.42888222  0.31633708  0.75708009  1
  O2-  O171  1  0.43340634  0.81966512  0.10146635  1
  O2-  O172  1  0.42460871  0.82352571  0.42400704  1
  O2-  O173  1  0.42729242  0.82786772  0.75348026  1
  O2-  O174  1  0.92637589  0.31655092  0.10119581  1
  O2-  O175  1  0.92951622  0.32139072  0.42529561  1
  O2-  O176  1  0.92350028  0.31922959  0.75531070  1
  O2-  O177  1  0.92920439  0.82113794  0.09620686  1
  O2-  O178  1  0.93365482  0.81974713  0.43427898  1
  O2-  O179  1  0.93392269  0.82488284  0.75496513  1
  O2-  O180  1  0.32172502  0.07070331  0.24457440  1
  O2-  O181  1  0.31959460  0.07372435  0.57287894  1
  O2-  O182  1  0.32154749  0.07015835  0.90115998  1
  O2-  O183  1  0.32004931  0.57651804  0.24541946  1
  O2-  O184  1  0.32037982  0.56732197  0.56660768  1
  O2-  O185  1  0.32051111  0.57068319  0.90349770  1
  O2-  O186  1  0.82225647  0.06721508  0.23464216  1
  O2-  O187  1  0.82454052  0.06879927  0.56982087  1
  O2-  O188  1  0.81701359  0.07003117  0.90292127  1
  O2-  O189  1  0.81937073  0.57318928  0.23355570  1
  O2-  O190  1  0.82187833  0.57094971  0.57674598  1
  O2-  O191  1  0.82076457  0.57206137  0.90742712  1
  O2-  O192  1  0.04240889  0.08171228  0.26619113  1
  O2-  O193  1  0.04379840  0.08739203  0.60344309  1
  O2-  O194  1  0.04476323  0.08527387  0.93676320  1
  O2-  O195  1  0.05699034  0.57893216  0.27530985  1
  O2-  O196  1  0.04350953  0.58072113  0.59565953  1
  O2-  O197  1  0.04345746  0.58120856  0.93052952  1
  O2-  O198  1  0.54347614  0.08458176  0.26932233  1
  O2-  O199  1  0.54402931  0.08795193  0.60080776  1
  O2-  O200  1  0.55068549  0.08390895  0.93722997  1
  O2-  O201  1  0.53802283  0.59052093  0.26932755  1
  O2-  O202  1  0.53548388  0.58403511  0.59564223  1
  O2-  O203  1  0.54199633  0.58414121  0.93854926  1
  O2-  O204  1  0.16571487  0.20895042  0.26371912  1
  O2-  O205  1  0.16228840  0.20763761  0.60242372  1
  O2-  O206  1  0.16711267  0.19962286  0.93798323  1
  O2-  O207  1  0.16570189  0.70878540  0.27108104  1
  O2-  O208  1  0.16713293  0.71217490  0.59434691  1
  O2-  O209  1  0.16826208  0.71107926  0.93435071  1
  O2-  O210  1  0.66974962  0.19708188  0.27549895  1
  O2-  O211  1  0.66431335  0.20729301  0.60432683  1
  O2-  O212  1  0.66482965  0.20804953  0.93622467  1
  O2-  O213  1  0.66066705  0.70590841  0.26898188  1
  O2-  O214  1  0.66775774  0.70777252  0.59571870  1
  O2-  O215  1  0.66476852  0.69822845  0.93571740  1
  O2-  O216  1  0.07637169  0.45675259  0.06896990  1
  O2-  O217  1  0.08794230  0.44820049  0.39606015  1
  O2-  O218  1  0.07407237  0.44814728  0.72653935  1
  O2-  O219  1  0.08223399  0.95759268  0.06961421  1
  O2-  O220  1  0.09045715  0.95841706  0.39925655  1
  O2-  O221  1  0.09207304  0.96172726  0.72878284  1
  O2-  O222  1  0.58439962  0.46155128  0.06848147  1
  O2-  O223  1  0.57944102  0.46378657  0.40153089  1
  O2-  O224  1  0.58283244  0.46260047  0.73419460  1
  O2-  O225  1  0.58665361  0.95508758  0.06505451  1
  O2-  O226  1  0.58102712  0.95405895  0.39821981  1
  O2-  O227  1  0.57975432  0.95904601  0.73408559  1
  O2-  O228  1  0.20261913  0.32922280  0.06683063  1
  O2-  O229  1  0.21308281  0.33497720  0.39460954  1
  O2-  O230  1  0.20778478  0.33047484  0.73509985  1
  O2-  O231  1  0.21113984  0.83278041  0.07150674  1
  O2-  O232  1  0.21036632  0.83787249  0.39996247  1
  O2-  O233  1  0.20625978  0.83766429  0.72536023  1
  O2-  O234  1  0.71000567  0.33379813  0.06880073  1
  O2-  O235  1  0.69986855  0.33027525  0.40296041  1
  O2-  O236  1  0.70820985  0.33451044  0.73540748  1
  O2-  O237  1  0.69686175  0.82883490  0.05995717  1
  O2-  O238  1  0.69894274  0.83333344  0.39225528  1
  O2-  O239  1  0.69869189  0.82665902  0.73241044  1
  O2-  O240  1  0.45828224  0.41951010  0.26575938  1
  O2-  O241  1  0.45721760  0.41167133  0.60615060  1
  O2-  O242  1  0.46194991  0.41737503  0.93050825  1
  O2-  O243  1  0.45204359  0.91546665  0.27214870  1
  O2-  O244  1  0.45287193  0.92000290  0.60160212  1
  O2-  O245  1  0.46025553  0.91824837  0.93321518  1
  O2-  O246  1  0.95323437  0.41558683  0.27390475  1
  O2-  O247  1  0.94987057  0.41117364  0.60028331  1
  O2-  O248  1  0.95324731  0.41636860  0.93187314  1
  O2-  O249  1  0.96758279  0.91171417  0.26672327  1
  O2-  O250  1  0.96193658  0.91636890  0.60415783  1
  O2-  O251  1  0.95934683  0.92174332  0.93098078  1
  O2-  O252  1  0.33752110  0.28726263  0.26376790  1
  O2-  O253  1  0.33780873  0.28963142  0.60458830  1
  O2-  O254  1  0.33134725  0.29061414  0.92967839  1
  O2-  O255  1  0.33548085  0.79222184  0.27218138  1
  O2-  O256  1  0.33541210  0.79973131  0.59998207  1
  O2-  O257  1  0.33419306  0.79243799  0.93411422  1
  O2-  O258  1  0.83067253  0.29797463  0.27769368  1
  O2-  O259  1  0.83458560  0.28878621  0.60233895  1
  O2-  O260  1  0.83218451  0.28399718  0.93372553  1
  O2-  O261  1  0.83075804  0.79621038  0.26620184  1
  O2-  O262  1  0.83412972  0.80370926  0.60623049  1
  O2-  O263  1  0.82737641  0.80050554  0.93026769  1
  O2-  O264  1  0.42271393  0.04406738  0.06828290  1
  O2-  O265  1  0.41297536  0.04455901  0.39738710  1
  O2-  O266  1  0.41509784  0.05169864  0.72461908  1
  O2-  O267  1  0.41773712  0.54101700  0.07081349  1
  O2-  O268  1  0.41137271  0.54405701  0.39648123  1
  O2-  O269  1  0.41576748  0.54121293  0.73416071  1
  O2-  O270  1  0.91798600  0.04197950  0.06852050  1
  O2-  O271  1  0.91909297  0.03464733  0.40109541  1
  O2-  O272  1  0.92220267  0.04497339  0.73677247  1
  O2-  O273  1  0.91571235  0.54979469  0.05872932  1
  O2-  O274  1  0.92289804  0.54843833  0.39981531  1
  O2-  O275  1  0.91680123  0.54661095  0.72611354  1
  O2-  O276  1  0.29685542  0.17077411  0.06806311  1
  O2-  O277  1  0.29122511  0.16358275  0.39594948  1
  O2-  O278  1  0.28945812  0.16185472  0.72727440  1
  O2-  O279  1  0.29283864  0.66880255  0.07025316  1
  O2-  O280  1  0.29232063  0.66399513  0.39944694  1
  O2-  O281  1  0.29661626  0.67367805  0.72883536  1
  O2-  O282  1  0.78488494  0.16214327  0.07172927  1
  O2-  O283  1  0.79497953  0.16438090  0.40420227  1
  O2-  O284  1  0.79088882  0.16733214  0.73581493  1
  O2-  O285  1  0.79533403  0.66750763  0.05829104  1
  O2-  O286  1  0.79179224  0.67115647  0.40017157  1
  O2-  O287  1  0.80026643  0.66822482  0.72592635  1
