# generated using pymatgen
data_Ca2Al2SiO7
_symmetry_space_group_name_H-M   'P 1'
_cell_length_a   15.45420063
_cell_length_b   15.45424166
_cell_length_c   15.28085052
_cell_angle_alpha   90.01572137
_cell_angle_beta   90.00346963
_cell_angle_gamma   89.99586194
_symmetry_Int_Tables_number   1
_chemical_formula_structural   Ca2Al2SiO7
_chemical_formula_sum   'Ca48 Al48 Si24 O168'
_cell_volume   3649.57047249
_cell_formula_units_Z   24
loop_
 _symmetry_equiv_pos_site_id
 _symmetry_equiv_pos_as_xyz
  1  'x, y, z'
loop_
 _atom_type_symbol
 _atom_type_oxidation_number
  Ca2+  2.0
  Al0+  0.0
  Si0+  0.0
  O2-  -2.0
loop_
 _atom_site_type_symbol
 _atom_site_label
 _atom_site_symmetry_multiplicity
 _atom_site_fract_x
 _atom_site_fract_y
 _atom_site_fract_z
 _atom_site_occupancy
  Ca2+  Ca0  1  0.16291768  0.07779346  0.17115454  1
  Ca2+  Ca1  1  0.17145925  0.06848577  0.50778512  1
  Ca2+  Ca2  1  0.17193394  0.08104744  0.83534393  1
  Ca2+  Ca3  1  0.16955938  0.57601664  0.17565756  1
  Ca2+  Ca4  1  0.16500612  0.58176643  0.50083055  1
  Ca2+  Ca5  1  0.15729314  0.57352555  0.83408244  1
  Ca2+  Ca6  1  0.66293619  0.08028966  0.16493279  1
  Ca2+  Ca7  1  0.66931343  0.08180076  0.50227953  1
  Ca2+  Ca8  1  0.66696613  0.07797940  0.84290084  1
  Ca2+  Ca9  1  0.67270836  0.57631504  0.16987927  1
  Ca2+  Ca10  1  0.66414765  0.57992381  0.50179282  1
  Ca2+  Ca11  1  0.67247689  0.58231965  0.84378559  1
  Ca2+  Ca12  1  0.08435430  0.33488623  0.16173506  1
  Ca2+  Ca13  1  0.07639226  0.34169830  0.49492300  1
  Ca2+  Ca14  1  0.08364599  0.33432615  0.82837513  1
  Ca2+  Ca15  1  0.07771154  0.82894717  0.16496101  1
  Ca2+  Ca16  1  0.09077583  0.82576643  0.49129818  1
  Ca2+  Ca17  1  0.07815618  0.82686408  0.82611436  1
  Ca2+  Ca18  1  0.58177398  0.33572633  0.16388020  1
  Ca2+  Ca19  1  0.57578490  0.33294284  0.48873351  1
  Ca2+  Ca20  1  0.59017198  0.32838629  0.83290713  1
  Ca2+  Ca21  1  0.57066340  0.83665669  0.15804069  1
  Ca2+  Ca22  1  0.57097454  0.82679651  0.49800673  1
  Ca2+  Ca23  1  0.57640132  0.83163791  0.82858424  1
  Ca2+  Ca24  1  0.32490890  0.42108025  0.17836816  1
  Ca2+  Ca25  1  0.32361846  0.41967537  0.50096017  1
  Ca2+  Ca26  1  0.32120586  0.41961447  0.83929920  1
  Ca2+  Ca27  1  0.33040561  0.91514352  0.17478353  1
  Ca2+  Ca28  1  0.32696445  0.91351099  0.50534755  1
  Ca2+  Ca29  1  0.33477146  0.91432381  0.83193473  1
  Ca2+  Ca30  1  0.82579677  0.41671317  0.17071646  1
  Ca2+  Ca31  1  0.83195002  0.41129273  0.50267798  1
  Ca2+  Ca32  1  0.83130698  0.42417447  0.84192450  1
  Ca2+  Ca33  1  0.83150496  0.91008894  0.16988746  1
  Ca2+  Ca34  1  0.83645734  0.91497979  0.50093201  1
  Ca2+  Ca35  1  0.82580371  0.91289619  0.84533821  1
  Ca2+  Ca36  1  0.41990010  0.17579626  0.16203873  1
  Ca2+  Ca37  1  0.41206463  0.17062092  0.49757942  1
  Ca2+  Ca38  1  0.42104759  0.16329011  0.83170989  1
  Ca2+  Ca39  1  0.40768904  0.67620072  0.16583960  1
  Ca2+  Ca40  1  0.41232235  0.67294451  0.49437022  1
  Ca2+  Ca41  1  0.42326109  0.67725278  0.82570741  1
  Ca2+  Ca42  1  0.92506578  0.17325822  0.16267963  1
  Ca2+  Ca43  1  0.91867328  0.17870557  0.49489560  1
  Ca2+  Ca44  1  0.92564423  0.17374973  0.83071506  1
  Ca2+  Ca45  1  0.91850071  0.67075355  0.16529961  1
  Ca2+  Ca46  1  0.93320750  0.67106486  0.49231350  1
  Ca2+  Ca47  1  0.91657877  0.66761530  0.83078534  1
  Al0+  Al48  1  0.00029564  0.00066520  -0.00963657  1
  Al0+  Al49  1  -0.00103780  0.00072628  0.33621253  1
  Al0+  Al50  1  0.00002054  0.00244685  0.67176207  1
  Al0+  Al51  1  -0.00004248  0.50083135  0.00934067  1
  Al0+  Al52  1  -0.00201076  0.50037852  0.32685640  1
  Al0+  Al53  1  -0.00243800  0.50113996  0.66292327  1
  Al0+  Al54  1  0.49949961  0.00260563  -0.00334641  1
  Al0+  Al55  1  0.50210384  -0.00086934  0.33176096  1
  Al0+  Al56  1  0.50134220  0.00019803  0.66453865  1
  Al0+  Al57  1  0.49819131  0.50194771  0.00263793  1
  Al0+  Al58  1  0.50042928  0.49937526  0.33693584  1
  Al0+  Al59  1  0.50021133  0.49754201  0.66636797  1
  Al0+  Al60  1  0.25031543  0.24878479  -0.00030183  1
  Al0+  Al61  1  0.25121890  0.24971412  0.33309200  1
  Al0+  Al62  1  0.25049881  0.24797910  0.67492974  1
  Al0+  Al63  1  0.24816821  0.75068968  -0.00707974  1
  Al0+  Al64  1  0.25065778  0.74972285  0.33098036  1
  Al0+  Al65  1  0.24952050  0.74936756  0.66590195  1
  Al0+  Al66  1  0.75042037  0.24928440  -0.00086028  1
  Al0+  Al67  1  0.75167215  0.24861023  0.33295080  1
  Al0+  Al68  1  0.75039755  0.24901687  0.66380483  1
  Al0+  Al69  1  0.74883525  0.75078692  0.00678289  1
  Al0+  Al70  1  0.74936926  0.74921312  0.33391907  1
  Al0+  Al71  1  0.74909714  0.74909718  0.66247008  1
  Al0+  Al72  1  0.92883317  0.32095512  0.31789641  1
  Al0+  Al73  1  0.17746487  0.43151225  0.68009463  1
  Al0+  Al74  1  0.32259917  0.06998396  0.68339093  1
  Al0+  Al75  1  0.07275123  0.67916924  0.31566560  1
  Al0+  Al76  1  0.32079488  0.57167737  0.34870936  1
  Al0+  Al77  1  0.42833471  0.32123815  0.32113019  1
  Al0+  Al78  1  0.82130643  0.57264459  0.01709490  1
  Al0+  Al79  1  0.17803928  0.92560560  0.68463381  1
  Al0+  Al80  1  0.93047661  0.31961393  0.65411926  1
  Al0+  Al81  1  0.07279711  0.17913803  0.98514246  1
  Al0+  Al82  1  0.67793358  0.93112245  0.01371972  1
  Al0+  Al83  1  0.68112651  0.42811285  0.34878060  1
  Al0+  Al84  1  0.18079838  0.42807053  0.01450047  1
  Al0+  Al85  1  0.43012758  0.82098478  0.64989540  1
  Al0+  Al86  1  0.67755495  0.42670095  0.01468121  1
  Al0+  Al87  1  0.17662754  0.42738967  0.34885415  1
  Al0+  Al88  1  0.42748612  0.82199425  0.98483552  1
  Al0+  Al89  1  0.92838789  0.82316412  0.31909513  1
  Al0+  Al90  1  0.57080430  0.18204371  0.98647660  1
  Al0+  Al91  1  0.92769114  0.81956756  0.98619747  1
  Al0+  Al92  1  0.17910680  0.93076291  0.34382102  1
  Al0+  Al93  1  0.57297801  0.67581724  0.65171043  1
  Al0+  Al94  1  0.06882048  0.67984943  0.65409991  1
  Al0+  Al95  1  0.43066338  0.82023580  0.31876913  1
  Si0+  Si96  1  0.07215754  0.17807660  0.31967271  1
  Si0+  Si97  1  0.81880309  0.56985543  0.67917775  1
  Si0+  Si98  1  0.82053396  0.07005666  0.34886249  1
  Si0+  Si99  1  0.82126203  0.57324302  0.35323892  1
  Si0+  Si100  1  0.57308452  0.17813838  0.31677392  1
  Si0+  Si101  1  0.32441901  0.57155660  0.68461545  1
  Si0+  Si102  1  0.42741947  0.32000835  0.65359315  1
  Si0+  Si103  1  0.32103830  0.57455398  0.01473119  1
  Si0+  Si104  1  0.67731604  0.92787092  0.34973806  1
  Si0+  Si105  1  0.57133704  0.67816897  0.98598318  1
  Si0+  Si106  1  0.17787940  0.92904489  0.01354912  1
  Si0+  Si107  1  0.92703775  0.82493095  0.65173163  1
  Si0+  Si108  1  0.32121734  0.06970033  0.01660627  1
  Si0+  Si109  1  0.82418121  0.07120516  0.01621686  1
  Si0+  Si110  1  0.07067287  0.67713458  0.98225854  1
  Si0+  Si111  1  0.57258586  0.67662625  0.31502529  1
  Si0+  Si112  1  0.42766974  0.32418064  0.98281580  1
  Si0+  Si113  1  0.57163583  0.17966708  0.65053408  1
  Si0+  Si114  1  0.82027602  0.07385625  0.68261001  1
  Si0+  Si115  1  0.67786633  0.42651359  0.68104906  1
  Si0+  Si116  1  0.07429410  0.17765602  0.64930247  1
  Si0+  Si117  1  0.68215051  0.92959003  0.68011076  1
  Si0+  Si118  1  0.92953288  0.32299221  0.98424491  1
  Si0+  Si119  1  0.32519146  0.07176686  0.34787514  1
  O2-  O120  1  0.24988546  -0.00149996  0.05763937  1
  O2-  O121  1  0.25578570  0.00369292  0.39080792  1
  O2-  O122  1  0.25146688  -0.00280441  0.73408484  1
  O2-  O123  1  0.25590678  0.50279058  0.05886280  1
  O2-  O124  1  0.24776538  0.50025069  0.39886337  1
  O2-  O125  1  0.25272590  0.50536224  0.72850363  1
  O2-  O126  1  0.75571575  0.00277343  0.06148749  1
  O2-  O127  1  0.75135958  -0.00344144  0.39121625  1
  O2-  O128  1  0.75611992  -0.00340612  0.72401952  1
  O2-  O129  1  0.74993367  0.49808020  0.06444146  1
  O2-  O130  1  0.75491031  0.50226194  0.39830204  1
  O2-  O131  1  0.74486164  0.50153011  0.72187032  1
  O2-  O132  1  0.01009084  0.25206540  0.27381794  1
  O2-  O133  1  0.00718661  0.24771751  0.60541091  1
  O2-  O134  1  0.00054353  0.25715854  0.93931485  1
  O2-  O135  1  -0.00067333  0.75157557  0.26801464  1
  O2-  O136  1  0.00103893  0.76225920  0.60866093  1
  O2-  O137  1  0.00014831  0.74410619  0.93805203  1
  O2-  O138  1  0.50369216  0.24665025  0.27455458  1
  O2-  O139  1  0.49976208  0.25004899  0.61029293  1
  O2-  O140  1  0.50088439  0.26033661  0.93767387  1
  O2-  O141  1  0.50464391  0.74569259  0.27034119  1
  O2-  O142  1  0.49759859  0.74376786  0.60120413  1
  O2-  O143  1  0.50277452  0.74640124  0.94084366  1
  O2-  O144  1  0.07031350  0.17732106  0.09845249  1
  O2-  O145  1  0.06809014  0.17522477  0.42512572  1
  O2-  O146  1  0.07163945  0.17824346  0.75506895  1
  O2-  O147  1  0.07410932  0.68024605  0.08719265  1
  O2-  O148  1  0.07168288  0.68103347  0.42970775  1
  O2-  O149  1  0.06127856  0.67636605  0.76730670  1
  O2-  O150  1  0.56653141  0.17950644  0.09930407  1
  O2-  O151  1  0.57397455  0.17732105  0.42291856  1
  O2-  O152  1  0.57515951  0.18021898  0.75545749  1
  O2-  O153  1  0.56995231  0.67849302  0.09130540  1
  O2-  O154  1  0.57311991  0.67972648  0.42080999  1
  O2-  O155  1  0.57588378  0.67883356  0.76562860  1
  O2-  O156  1  0.18085316  0.42617406  0.23523758  1
  O2-  O157  1  0.17766888  0.43174480  0.56768700  1
  O2-  O158  1  0.17985281  0.42968518  0.90073282  1
  O2-  O159  1  0.17837597  0.93397046  0.23011728  1
  O2-  O160  1  0.17733716  0.92849503  0.57077657  1
  O2-  O161  1  0.17887657  0.93015026  0.90883890  1
  O2-  O162  1  0.68255970  0.42765702  0.23605851  1
  O2-  O163  1  0.67930771  0.42276586  0.57624383  1
  O2-  O164  1  0.68060136  0.42761364  0.90015331  1
  O2-  O165  1  0.67413557  0.93097785  0.24492312  1
  O2-  O166  1  0.68320530  0.93241268  0.57475530  1
  O2-  O167  1  0.67921373  0.93267675  0.89993539  1
  O2-  O168  1  0.42645251  0.32061580  0.08827635  1
  O2-  O169  1  0.42915715  0.31735176  0.43485685  1
  O2-  O170  1  0.43037992  0.32036823  0.75871795  1
  O2-  O171  1  0.42682234  0.82212595  0.09799826  1
  O2-  O172  1  0.43302536  0.82290377  0.43143965  1
  O2-  O173  1  0.43570701  0.82192661  0.76370359  1
  O2-  O174  1  0.92886619  0.31927362  0.08964263  1
  O2-  O175  1  0.92572351  0.31611701  0.43126333  1
  O2-  O176  1  0.92829832  0.31800561  0.76726289  1
  O2-  O177  1  0.93109216  0.82200901  0.09867346  1
  O2-  O178  1  0.92904963  0.82283367  0.43308929  1
  O2-  O179  1  0.92222856  0.82106481  0.75732054  1
  O2-  O180  1  0.32679245  0.07074017  0.24200431  1
  O2-  O181  1  0.32133299  0.07167815  0.56961042  1
  O2-  O182  1  0.32204267  0.06993550  0.91177855  1
  O2-  O183  1  0.31983944  0.57038633  0.23459307  1
  O2-  O184  1  0.32683498  0.56836171  0.57950617  1
  O2-  O185  1  0.32124579  0.57331178  0.90892912  1
  O2-  O186  1  0.81998476  0.07144128  0.24410273  1
  O2-  O187  1  0.81705227  0.07628799  0.57730851  1
  O2-  O188  1  0.82159514  0.07073630  0.91015161  1
  O2-  O189  1  0.81747135  0.57470787  0.24794126  1
  O2-  O190  1  0.81876903  0.56833000  0.57450261  1
  O2-  O191  1  0.82048969  0.57127945  0.90220175  1
  O2-  O192  1  0.03839761  0.08786990  0.27125653  1
  O2-  O193  1  0.04511705  0.08426498  0.60416397  1
  O2-  O194  1  0.03942707  0.08589507  0.92606928  1
  O2-  O195  1  0.04326724  0.58168236  0.26228266  1
  O2-  O196  1  0.03124533  0.58740037  0.59697080  1
  O2-  O197  1  0.04401556  0.58211970  0.93934329  1
  O2-  O198  1  0.54798158  0.08461355  0.27057274  1
  O2-  O199  1  0.54565078  0.08823319  0.60164750  1
  O2-  O200  1  0.53622454  0.08795543  0.92947820  1
  O2-  O201  1  0.54873583  0.58221059  0.27132383  1
  O2-  O202  1  0.55022368  0.57457095  0.60177880  1
  O2-  O203  1  0.54722608  0.58423586  0.93843298  1
  O2-  O204  1  0.16800280  0.19495766  0.27489340  1
  O2-  O205  1  0.16970736  0.19995004  0.60702700  1
  O2-  O206  1  0.16997733  0.20736994  0.93094359  1
  O2-  O207  1  0.16984787  0.70827797  0.26175126  1
  O2-  O208  1  0.16800083  0.70202790  0.60244660  1
  O2-  O209  1  0.16241514  0.70376130  0.93261196  1
  O2-  O210  1  0.66601770  0.20347479  0.27039214  1
  O2-  O211  1  0.66225965  0.20848061  0.60083269  1
  O2-  O212  1  0.66918627  0.20663050  0.93082498  1
  O2-  O213  1  0.66649610  0.70246831  0.27034082  1
  O2-  O214  1  0.66915396  0.70777903  0.59512402  1
  O2-  O215  1  0.66496707  0.70470132  0.94090395  1
  O2-  O216  1  0.08460219  0.45629227  0.06909256  1
  O2-  O217  1  0.07552254  0.45444894  0.39661156  1
  O2-  O218  1  0.08035343  0.46418545  0.73340931  1
  O2-  O219  1  0.08595919  0.96022771  0.05849683  1
  O2-  O220  1  0.08373809  0.96204256  0.40070876  1
  O2-  O221  1  0.07867213  0.95552558  0.73692696  1
  O2-  O222  1  0.57785636  0.45380615  0.06594155  1
  O2-  O223  1  0.58458487  0.45761440  0.40352496  1
  O2-  O224  1  0.58464548  0.44777110  0.72866947  1
  O2-  O225  1  0.58277793  0.96782997  0.06740282  1
  O2-  O226  1  0.58818405  0.96080589  0.40007191  1
  O2-  O227  1  0.59174627  0.96153550  0.72690795  1
  O2-  O228  1  0.21090393  0.33059764  0.06694775  1
  O2-  O229  1  0.20558507  0.32798582  0.40092893  1
  O2-  O230  1  0.20723625  0.33455169  0.73428957  1
  O2-  O231  1  0.20426908  0.83576070  0.05842519  1
  O2-  O232  1  0.21054366  0.83470207  0.39657920  1
  O2-  O233  1  0.20395073  0.82622453  0.73720174  1
  O2-  O234  1  0.70485798  0.32737263  0.06661204  1
  O2-  O235  1  0.71154224  0.33012101  0.40181491  1
  O2-  O236  1  0.71029178  0.33556656  0.72847484  1
  O2-  O237  1  0.70399020  0.83507510  0.06954736  1
  O2-  O238  1  0.70266558  0.83551884  0.39713285  1
  O2-  O239  1  0.70641328  0.83625575  0.72655634  1
  O2-  O240  1  0.46007776  0.41733728  0.26770669  1
  O2-  O241  1  0.45403760  0.41131443  0.60545548  1
  O2-  O242  1  0.44673485  0.42021301  0.93885150  1
  O2-  O243  1  0.46321679  0.91710811  0.26479471  1
  O2-  O244  1  0.46427741  0.91798980  0.59670870  1
  O2-  O245  1  0.46077973  0.91774459  0.93169397  1
  O2-  O246  1  0.94988993  0.41859793  0.26357528  1
  O2-  O247  1  0.95719297  0.41593301  0.59886887  1
  O2-  O248  1  0.95365858  0.41837010  0.94141727  1
  O2-  O249  1  0.95377176  0.92303671  0.26779269  1
  O2-  O250  1  0.94515144  0.92243919  0.61043179  1
  O2-  O251  1  0.95688764  0.91534070  0.92938923  1
  O2-  O252  1  0.33319651  0.28942503  0.26427170  1
  O2-  O253  1  0.33600992  0.28939016  0.60747236  1
  O2-  O254  1  0.33675243  0.29167020  0.93548511  1
  O2-  O255  1  0.33467945  0.79102792  0.26376039  1
  O2-  O256  1  0.32955020  0.79705066  0.60087989  1
  O2-  O257  1  0.33170652  0.79180497  0.92871516  1
  O2-  O258  1  0.83518243  0.28150518  0.26349517  1
  O2-  O259  1  0.83511123  0.28426544  0.59861985  1
  O2-  O260  1  0.83674106  0.29536959  0.93734790  1
  O2-  O261  1  0.82809537  0.79591209  0.26882247  1
  O2-  O262  1  0.83532376  0.79626777  0.60343574  1
  O2-  O263  1  0.82891317  0.79048296  0.93463096  1
  O2-  O264  1  0.41266653  0.04250333  0.06412384  1
  O2-  O265  1  0.41909666  0.04689334  0.39451950  1
  O2-  O266  1  0.42337067  0.04334945  0.73433606  1
  O2-  O267  1  0.41559678  0.55503560  0.06124362  1
  O2-  O268  1  0.41919692  0.54418907  0.40211846  1
  O2-  O269  1  0.41700536  0.54208530  0.73256905  1
  O2-  O270  1  0.91860780  0.04572974  0.05992850  1
  O2-  O271  1  0.91114464  0.04452682  0.40012768  1
  O2-  O272  1  0.91430068  0.05509976  0.72905452  1
  O2-  O273  1  0.91871612  0.54647747  0.07201160  1
  O2-  O274  1  0.91626015  0.54834664  0.39537510  1
  O2-  O275  1  0.90815879  0.53878273  0.72892392  1
  O2-  O276  1  0.29307998  0.16153022  0.06391154  1
  O2-  O277  1  0.30068429  0.16522212  0.39415646  1
  O2-  O278  1  0.29510365  0.16712577  0.74068607  1
  O2-  O279  1  0.29100684  0.66774974  0.05969858  1
  O2-  O280  1  0.29272574  0.67018634  0.40112138  1
  O2-  O281  1  0.30227360  0.66649433  0.72840373  1
  O2-  O282  1  0.79801554  0.16460186  0.06199374  1
  O2-  O283  1  0.78833287  0.15937129  0.39928483  1
  O2-  O284  1  0.78482898  0.16231240  0.73200273  1
  O2-  O285  1  0.79125779  0.66901012  0.07253594  1
  O2-  O286  1  0.79384042  0.66626185  0.40077084  1
  O2-  O287  1  0.79327336  0.66310090  0.72623502  1
