# generated using pymatgen
data_Ca2Al2SiO7
_symmetry_space_group_name_H-M   'P 1'
_cell_length_a   15.46807499
_cell_length_b   15.46976673
_cell_length_c   15.29259262
_cell_angle_alpha   89.99119571
_cell_angle_beta   90.02087211
_cell_angle_gamma   89.99394863
_symmetry_Int_Tables_number   1
_chemical_formula_structural   Ca2Al2SiO7
_chemical_formula_sum   'Ca48 Al48 Si24 O168'
_cell_volume   3659.32613236
_cell_formula_units_Z   24
loop_
 _symmetry_equiv_pos_site_id
 _symmetry_equiv_pos_as_xyz
  1  'x, y, z'
loop_
 _atom_type_symbol
 _atom_type_oxidation_number
  Ca2+  2.0
  Al0+  0.0
  Si0+  0.0
  O2-  -2.0
loop_
 _atom_site_type_symbol
 _atom_site_label
 _atom_site_symmetry_multiplicity
 _atom_site_fract_x
 _atom_site_fract_y
 _atom_site_fract_z
 _atom_site_occupancy
  Ca2+  Ca0  1  0.16652933  0.07171655  0.16805954  1
  Ca2+  Ca1  1  0.16564223  0.08044297  0.50643199  1
  Ca2+  Ca2  1  0.16597086  0.07602996  0.83982174  1
  Ca2+  Ca3  1  0.16809440  0.58083551  0.17360607  1
  Ca2+  Ca4  1  0.16335439  0.58202420  0.50367847  1
  Ca2+  Ca5  1  0.15937066  0.57682910  0.83834285  1
  Ca2+  Ca6  1  0.66478651  0.07691527  0.16221095  1
  Ca2+  Ca7  1  0.66882952  0.07806915  0.50371091  1
  Ca2+  Ca8  1  0.67235098  0.07849510  0.84769301  1
  Ca2+  Ca9  1  0.66320630  0.57994323  0.17704563  1
  Ca2+  Ca10  1  0.67492227  0.59446748  0.50275256  1
  Ca2+  Ca11  1  0.67073385  0.58648474  0.83837460  1
  Ca2+  Ca12  1  0.08517162  0.33831333  0.16157893  1
  Ca2+  Ca13  1  0.08252935  0.34015060  0.49997061  1
  Ca2+  Ca14  1  0.07885942  0.33290469  0.82086162  1
  Ca2+  Ca15  1  0.08156402  0.82103245  0.16188009  1
  Ca2+  Ca16  1  0.07658984  0.81722205  0.49174693  1
  Ca2+  Ca17  1  0.08793742  0.82156957  0.83223506  1
  Ca2+  Ca18  1  0.59061884  0.33287719  0.15711408  1
  Ca2+  Ca19  1  0.58798597  0.33191668  0.49306351  1
  Ca2+  Ca20  1  0.59344415  0.32790244  0.83559022  1
  Ca2+  Ca21  1  0.57499026  0.82158567  0.15906149  1
  Ca2+  Ca22  1  0.57550348  0.82010252  0.49550393  1
  Ca2+  Ca23  1  0.57842484  0.83027332  0.83011988  1
  Ca2+  Ca24  1  0.32319162  0.42629352  0.17454993  1
  Ca2+  Ca25  1  0.32434328  0.42952316  0.50037803  1
  Ca2+  Ca26  1  0.31914681  0.41823569  0.83904477  1
  Ca2+  Ca27  1  0.33340574  0.90587553  0.16562700  1
  Ca2+  Ca28  1  0.33893471  0.91264749  0.50319670  1
  Ca2+  Ca29  1  0.33289242  0.91071455  0.84016349  1
  Ca2+  Ca30  1  0.82102309  0.42619412  0.17096449  1
  Ca2+  Ca31  1  0.83122387  0.42917659  0.50208758  1
  Ca2+  Ca32  1  0.83331913  0.42195493  0.83435531  1
  Ca2+  Ca33  1  0.83320782  0.91832890  0.16871223  1
  Ca2+  Ca34  1  0.83551723  0.91132093  0.50267593  1
  Ca2+  Ca35  1  0.82717657  0.92552124  0.84525935  1
  Ca2+  Ca36  1  0.42415627  0.17300817  0.16002467  1
  Ca2+  Ca37  1  0.41593617  0.17195944  0.49678965  1
  Ca2+  Ca38  1  0.42293787  0.16670029  0.83427776  1
  Ca2+  Ca39  1  0.42329846  0.66603327  0.16183503  1
  Ca2+  Ca40  1  0.42061242  0.67236427  0.49103925  1
  Ca2+  Ca41  1  0.42877455  0.67563092  0.82966143  1
  Ca2+  Ca42  1  0.91405200  0.16960764  0.16010912  1
  Ca2+  Ca43  1  0.92182398  0.17583163  0.50078000  1
  Ca2+  Ca44  1  0.92047003  0.17322127  0.82659352  1
  Ca2+  Ca45  1  0.92604510  0.65778905  0.16846986  1
  Ca2+  Ca46  1  0.92215422  0.65947782  0.49425703  1
  Ca2+  Ca47  1  0.92603565  0.65997860  0.82842873  1
  Al0+  Al48  1  0.00209651  0.00095909  0.00806012  1
  Al0+  Al49  1  0.00063646  0.00157618  0.33235116  1
  Al0+  Al50  1  0.00125955  0.00153086  0.66558401  1
  Al0+  Al51  1  -0.00156760  0.49843714  0.00010503  1
  Al0+  Al52  1  -0.00466650  0.49640829  0.33362520  1
  Al0+  Al53  1  -0.00283840  0.49907211  0.66646800  1
  Al0+  Al54  1  0.50118144  0.00304869  -0.00311812  1
  Al0+  Al55  1  0.50062872  0.00180239  0.33128334  1
  Al0+  Al56  1  0.50002841  0.00073762  0.66437156  1
  Al0+  Al57  1  0.49793341  0.49989148  -0.00350148  1
  Al0+  Al58  1  0.49480171  0.49647798  0.33822753  1
  Al0+  Al59  1  0.50106766  0.49793262  0.66561674  1
  Al0+  Al60  1  0.24959660  0.24876249  0.00357029  1
  Al0+  Al61  1  0.25058548  0.24719676  0.33581711  1
  Al0+  Al62  1  0.25217770  0.24763887  0.66822270  1
  Al0+  Al63  1  0.24944933  0.74895486  -0.00432235  1
  Al0+  Al64  1  0.24774769  0.75117679  0.33193698  1
  Al0+  Al65  1  0.25039551  0.75033227  0.66056289  1
  Al0+  Al66  1  0.75166942  0.25221771  0.00190780  1
  Al0+  Al67  1  0.75217566  0.24764379  0.33669423  1
  Al0+  Al68  1  0.75195840  0.24967025  0.66118878  1
  Al0+  Al69  1  0.75289839  0.75181811  0.00240887  1
  Al0+  Al70  1  0.74829980  0.75239678  0.33053529  1
  Al0+  Al71  1  0.74958448  0.75085224  0.67164685  1
  Al0+  Al72  1  0.06815449  0.67589951  0.31750620  1
  Al0+  Al73  1  0.06920135  0.67854060  0.65381177  1
  Al0+  Al74  1  0.82157745  0.07216149  0.01530358  1
  Al0+  Al75  1  0.31879095  0.57428422  0.34839487  1
  Al0+  Al76  1  0.17736978  0.42742137  0.34838465  1
  Al0+  Al77  1  0.81673352  0.57314641  0.34780129  1
  Al0+  Al78  1  0.17708299  0.42801478  0.01270476  1
  Al0+  Al79  1  0.18142773  0.92732144  0.01342538  1
  Al0+  Al80  1  0.18075530  0.43087368  0.68036919  1
  Al0+  Al81  1  0.67893967  0.43288757  0.01011724  1
  Al0+  Al82  1  0.67654290  0.42681196  0.34786292  1
  Al0+  Al83  1  0.92903079  0.32111406  0.64921924  1
  Al0+  Al84  1  0.06828611  0.67834076  0.98568386  1
  Al0+  Al85  1  0.43004466  0.82063519  0.98452795  1
  Al0+  Al86  1  0.43000911  0.82140849  0.65078391  1
  Al0+  Al87  1  0.57494486  0.67595242  0.98491384  1
  Al0+  Al88  1  0.67744136  0.92777367  0.01646477  1
  Al0+  Al89  1  0.56860117  0.67603405  0.31895229  1
  Al0+  Al90  1  0.57351154  0.67726553  0.65185835  1
  Al0+  Al91  1  0.81900685  0.57122153  0.68186094  1
  Al0+  Al92  1  0.57163580  0.18279290  0.98681659  1
  Al0+  Al93  1  0.07354393  0.17802093  0.65231077  1
  Al0+  Al94  1  0.92784672  0.82402348  0.31772234  1
  Al0+  Al95  1  0.42852662  0.82361305  0.31706273  1
  Si0+  Si96  1  0.93003703  0.82611953  0.98355526  1
  Si0+  Si97  1  0.42692710  0.31834432  0.31923045  1
  Si0+  Si98  1  0.67911305  0.93189874  0.68136206  1
  Si0+  Si99  1  0.17931048  0.92884435  0.68050089  1
  Si0+  Si100  1  0.92815330  0.31800477  0.31540474  1
  Si0+  Si101  1  0.57128074  0.18029445  0.65128106  1
  Si0+  Si102  1  0.42751160  0.32024169  0.65165718  1
  Si0+  Si103  1  0.32161655  0.06936851  0.34904638  1
  Si0+  Si104  1  0.82281887  0.57324742  0.01599015  1
  Si0+  Si105  1  0.92809722  0.82371523  0.65466411  1
  Si0+  Si106  1  0.07270203  0.17951076  0.31631971  1
  Si0+  Si107  1  0.32299223  0.07289908  0.01763649  1
  Si0+  Si108  1  0.67783842  0.93171581  0.34942294  1
  Si0+  Si109  1  0.57271897  0.18091682  0.31820740  1
  Si0+  Si110  1  0.93074699  0.31920106  0.98517441  1
  Si0+  Si111  1  0.17773603  0.93002691  0.34980364  1
  Si0+  Si112  1  0.67724263  0.42442395  0.68351416  1
  Si0+  Si113  1  0.32367673  0.57440366  0.68479768  1
  Si0+  Si114  1  0.32013841  0.57087827  0.01386440  1
  Si0+  Si115  1  0.07272678  0.17756752  0.98651760  1
  Si0+  Si116  1  0.82319487  0.07035696  0.35189706  1
  Si0+  Si117  1  0.42499628  0.32218890  0.98273356  1
  Si0+  Si118  1  0.32321340  0.07040317  0.68327216  1
  Si0+  Si119  1  0.82178197  0.07181741  0.68092419  1
  O2-  O120  1  0.25841916  0.00015969  0.06101161  1
  O2-  O121  1  0.25399120  -0.00402602  0.39217585  1
  O2-  O122  1  0.25211002  -0.00130603  0.72316590  1
  O2-  O123  1  0.25176061  0.50179727  0.05825091  1
  O2-  O124  1  0.24225267  0.50586896  0.39791370  1
  O2-  O125  1  0.25315554  0.50699050  0.72923881  1
  O2-  O126  1  0.75212106  -0.00179207  0.06613165  1
  O2-  O127  1  0.75451382  -0.00307612  0.39359890  1
  O2-  O128  1  0.75188476  0.00108774  0.72355363  1
  O2-  O129  1  0.74383042  0.51518284  0.05785166  1
  O2-  O130  1  0.74058302  0.50501780  0.39862161  1
  O2-  O131  1  0.74120254  0.49777444  0.72626612  1
  O2-  O132  1  0.00377778  0.25152941  0.27302378  1
  O2-  O133  1  0.00567029  0.25238032  0.60026451  1
  O2-  O134  1  0.00414972  0.24994516  0.94380731  1
  O2-  O135  1  -0.00409068  0.74845884  0.26791101  1
  O2-  O136  1  -0.00559580  0.75411896  0.60940656  1
  O2-  O137  1  -0.00598004  0.75381169  0.93842422  1
  O2-  O138  1  0.50619398  0.25626071  0.27713533  1
  O2-  O139  1  0.50361520  0.25384957  0.60882665  1
  O2-  O140  1  0.49745921  0.25713930  0.93806844  1
  O2-  O141  1  0.49533887  0.74662702  0.26871261  1
  O2-  O142  1  0.49686274  0.74453518  0.60239021  1
  O2-  O143  1  0.50656821  0.75264627  0.93606754  1
  O2-  O144  1  0.07285911  0.17825403  0.09176953  1
  O2-  O145  1  0.07182729  0.17751693  0.42120639  1
  O2-  O146  1  0.07042256  0.17543270  0.76607249  1
  O2-  O147  1  0.06775000  0.67654507  0.09823985  1
  O2-  O148  1  0.06714690  0.67786819  0.43128987  1
  O2-  O149  1  0.06918548  0.67995534  0.76708510  1
  O2-  O150  1  0.57004038  0.18481334  0.10004370  1
  O2-  O151  1  0.57096017  0.17862582  0.42399070  1
  O2-  O152  1  0.57182913  0.17942628  0.75606469  1
  O2-  O153  1  0.56952972  0.67211196  0.09803238  1
  O2-  O154  1  0.56945239  0.68060005  0.43246540  1
  O2-  O155  1  0.57444886  0.68199929  0.76517854  1
  O2-  O156  1  0.18241549  0.42413834  0.23472386  1
  O2-  O157  1  0.18337845  0.43086416  0.56776355  1
  O2-  O158  1  0.17710575  0.42666223  0.89946008  1
  O2-  O159  1  0.17605091  0.93405376  0.24492337  1
  O2-  O160  1  0.17816157  0.93240987  0.57547858  1
  O2-  O161  1  0.18054796  0.93102861  0.89985920  1
  O2-  O162  1  0.68184444  0.42264547  0.23434577  1
  O2-  O163  1  0.67939652  0.41838308  0.57855243  1
  O2-  O164  1  0.68544644  0.42804166  0.89728757  1
  O2-  O165  1  0.67527827  0.93797896  0.24520483  1
  O2-  O166  1  0.67945840  0.93535003  0.57596460  1
  O2-  O167  1  0.67927975  0.93305036  0.90204958  1
  O2-  O168  1  0.42290969  0.31857178  0.08827821  1
  O2-  O169  1  0.42428846  0.31143242  0.42437962  1
  O2-  O170  1  0.42502673  0.31600054  0.75649817  1
  O2-  O171  1  0.42884493  0.81702462  0.09762119  1
  O2-  O172  1  0.43466018  0.82838325  0.43039151  1
  O2-  O173  1  0.43279914  0.82591944  0.76384118  1
  O2-  O174  1  0.93108857  0.31807743  0.09036930  1
  O2-  O175  1  0.92630590  0.31454941  0.42011456  1
  O2-  O176  1  0.92741970  0.31711206  0.76331456  1
  O2-  O177  1  0.93370215  0.82853794  0.08863379  1
  O2-  O178  1  0.93360068  0.82869155  0.43173199  1
  O2-  O179  1  0.93076613  0.82734796  0.75998734  1
  O2-  O180  1  0.32032827  0.07335684  0.24448866  1
  O2-  O181  1  0.32566595  0.07137963  0.57800490  1
  O2-  O182  1  0.31967969  0.07728137  0.91194776  1
  O2-  O183  1  0.32041995  0.56940572  0.23454078  1
  O2-  O184  1  0.32304917  0.57247088  0.57942645  1
  O2-  O185  1  0.31926524  0.56844184  0.90813976  1
  O2-  O186  1  0.82273189  0.07397294  0.24738906  1
  O2-  O187  1  0.82016028  0.07113910  0.57560795  1
  O2-  O188  1  0.82120462  0.07252760  0.90101757  1
  O2-  O189  1  0.81934394  0.56774922  0.23414112  1
  O2-  O190  1  0.81883947  0.57174504  0.56926860  1
  O2-  O191  1  0.82751247  0.56762079  0.91048270  1
  O2-  O192  1  0.04228238  0.08889146  0.26855206  1
  O2-  O193  1  0.04111226  0.08143327  0.59672768  1
  O2-  O194  1  0.04357348  0.08606844  0.93963855  1
  O2-  O195  1  0.03907876  0.57665738  0.26568192  1
  O2-  O196  1  0.03708363  0.58317044  0.60062294  1
  O2-  O197  1  0.03494132  0.58170005  0.93205745  1
  O2-  O198  1  0.53897465  0.09205960  0.26988677  1
  O2-  O199  1  0.53979943  0.09044527  0.60202085  1
  O2-  O200  1  0.54093222  0.08788663  0.92987767  1
  O2-  O201  1  0.54156342  0.57473804  0.27082236  1
  O2-  O202  1  0.55471563  0.57472956  0.60395064  1
  O2-  O203  1  0.54316983  0.57889708  0.92943792  1
  O2-  O204  1  0.16570623  0.20406676  0.26976980  1
  O2-  O205  1  0.17461506  0.19911545  0.60186474  1
  O2-  O206  1  0.16580568  0.20162720  0.93989195  1
  O2-  O207  1  0.16664975  0.70595938  0.26644776  1
  O2-  O208  1  0.16514328  0.70867799  0.59904810  1
  O2-  O209  1  0.16413467  0.70892827  0.93068397  1
  O2-  O210  1  0.66639390  0.20346615  0.27293653  1
  O2-  O211  1  0.66332878  0.20361564  0.60194656  1
  O2-  O212  1  0.66809793  0.21479425  0.93227127  1
  O2-  O213  1  0.66696390  0.70533769  0.26724693  1
  O2-  O214  1  0.67025904  0.71390186  0.60011963  1
  O2-  O215  1  0.67681394  0.70011384  0.93683563  1
  O2-  O216  1  0.08048178  0.45749953  0.06646238  1
  O2-  O217  1  0.07547222  0.44646850  0.39620517  1
  O2-  O218  1  0.08217103  0.45754891  0.73195543  1
  O2-  O219  1  0.08834846  0.96251295  0.07098184  1
  O2-  O220  1  0.08891060  0.96579594  0.39837971  1
  O2-  O221  1  0.08835302  0.95895463  0.72883048  1
  O2-  O222  1  0.57727652  0.44932799  0.06012408  1
  O2-  O223  1  0.57377942  0.43960232  0.39632653  1
  O2-  O224  1  0.58077860  0.44094540  0.72748974  1
  O2-  O225  1  0.58076177  0.96377715  0.06804111  1
  O2-  O226  1  0.58950570  0.96893832  0.39878939  1
  O2-  O227  1  0.58850686  0.96448874  0.72795222  1
  O2-  O228  1  0.20642536  0.33092719  0.06676513  1
  O2-  O229  1  0.21217440  0.32994241  0.40094008  1
  O2-  O230  1  0.21325913  0.33269530  0.73239316  1
  O2-  O231  1  0.21009899  0.83022576  0.06676243  1
  O2-  O232  1  0.19916315  0.83701966  0.39643471  1
  O2-  O233  1  0.20594603  0.83626565  0.72670755  1
  O2-  O234  1  0.71652862  0.33925413  0.06593794  1
  O2-  O235  1  0.71196706  0.32959005  0.40174813  1
  O2-  O236  1  0.70910432  0.33141241  0.72935753  1
  O2-  O237  1  0.70315193  0.82895196  0.06917026  1
  O2-  O238  1  0.70055458  0.83887441  0.39617967  1
  O2-  O239  1  0.70455187  0.84094507  0.72997793  1
  O2-  O240  1  0.44365212  0.41236981  0.27376287  1
  O2-  O241  1  0.44946366  0.41325909  0.60493683  1
  O2-  O242  1  0.44465144  0.41593192  0.93609056  1
  O2-  O243  1  0.46022618  0.92185800  0.26443927  1
  O2-  O244  1  0.46124050  0.91995046  0.59756938  1
  O2-  O245  1  0.45221862  0.92229367  0.93479122  1
  O2-  O246  1  0.95015381  0.41017625  0.26737271  1
  O2-  O247  1  0.95514248  0.41903573  0.59662506  1
  O2-  O248  1  0.95747415  0.41039525  0.93670606  1
  O2-  O249  1  0.95960167  0.92230408  0.26509416  1
  O2-  O250  1  0.95336453  0.91667858  0.60653355  1
  O2-  O251  1  0.95953938  0.91935602  0.93782893  1
  O2-  O252  1  0.33962960  0.28000028  0.26956637  1
  O2-  O253  1  0.33999233  0.28449246  0.60159920  1
  O2-  O254  1  0.33337283  0.28919635  0.93549946  1
  O2-  O255  1  0.32608729  0.80429942  0.27042144  1
  O2-  O256  1  0.33022742  0.79942445  0.59830486  1
  O2-  O257  1  0.33273479  0.79010819  0.93015946  1
  O2-  O258  1  0.83862583  0.28213312  0.26810919  1
  O2-  O259  1  0.83360445  0.28613515  0.59338660  1
  O2-  O260  1  0.84091155  0.28865712  0.93643404  1
  O2-  O261  1  0.82661613  0.80533467  0.26813589  1
  O2-  O262  1  0.83333311  0.80114644  0.61054146  1
  O2-  O263  1  0.83402668  0.80701416  0.94029143  1
  O2-  O264  1  0.41839792  0.05375443  0.06139379  1
  O2-  O265  1  0.41487273  0.04584594  0.39692972  1
  O2-  O266  1  0.41547012  0.04325066  0.73100355  1
  O2-  O267  1  0.41326151  0.54457847  0.06026949  1
  O2-  O268  1  0.41335839  0.53875611  0.40553945  1
  O2-  O269  1  0.41737141  0.54586008  0.72959229  1
  O2-  O270  1  0.92004596  0.04770099  0.07002255  1
  O2-  O271  1  0.91607153  0.04558835  0.39905215  1
  O2-  O272  1  0.91430028  0.04613750  0.72804663  1
  O2-  O273  1  0.91047126  0.53393301  0.06509738  1
  O2-  O274  1  0.91315550  0.53694729  0.40057136  1
  O2-  O275  1  0.91374953  0.53569047  0.73697350  1
  O2-  O276  1  0.29315892  0.16380390  0.06744952  1
  O2-  O277  1  0.29011014  0.15861775  0.40002852  1
  O2-  O278  1  0.29649323  0.16107201  0.73305986  1
  O2-  O279  1  0.29320523  0.66344947  0.05936121  1
  O2-  O280  1  0.29544581  0.67437237  0.40047737  1
  O2-  O281  1  0.29925123  0.66956573  0.72776706  1
  O2-  O282  1  0.79002951  0.16908282  0.06924140  1
  O2-  O283  1  0.79060537  0.15951273  0.40177646  1
  O2-  O284  1  0.79217468  0.16347048  0.72703705  1
  O2-  O285  1  0.81324667  0.67060721  0.05776771  1
  O2-  O286  1  0.79567846  0.67447022  0.39926627  1
  O2-  O287  1  0.79278330  0.66868242  0.73772088  1
