# generated using pymatgen
data_Ca2Al2SiO7
_symmetry_space_group_name_H-M   'P 1'
_cell_length_a   15.46089162
_cell_length_b   15.46124995
_cell_length_c   15.28514818
_cell_angle_alpha   89.99510353
_cell_angle_beta   90.00806432
_cell_angle_gamma   89.99456216
_symmetry_Int_Tables_number   1
_chemical_formula_structural   Ca2Al2SiO7
_chemical_formula_sum   'Ca48 Al48 Si24 O168'
_cell_volume   3653.83374451
_cell_formula_units_Z   24
loop_
 _symmetry_equiv_pos_site_id
 _symmetry_equiv_pos_as_xyz
  1  'x, y, z'
loop_
 _atom_type_symbol
 _atom_type_oxidation_number
  Ca2+  2.0
  Al0+  0.0
  Si0+  0.0
  O2-  -2.0
loop_
 _atom_site_type_symbol
 _atom_site_label
 _atom_site_symmetry_multiplicity
 _atom_site_fract_x
 _atom_site_fract_y
 _atom_site_fract_z
 _atom_site_occupancy
  Ca2+  Ca0  1  0.15982575  0.07274474  0.17464999  1
  Ca2+  Ca1  1  0.16715594  0.07714213  0.50689604  1
  Ca2+  Ca2  1  0.17259424  0.07249334  0.83459397  1
  Ca2+  Ca3  1  0.17581727  0.58456801  0.17444270  1
  Ca2+  Ca4  1  0.17267458  0.57943935  0.50434625  1
  Ca2+  Ca5  1  0.16373907  0.57800105  0.83147766  1
  Ca2+  Ca6  1  0.66902221  0.08521310  0.17479897  1
  Ca2+  Ca7  1  0.67007680  0.09181039  0.50375878  1
  Ca2+  Ca8  1  0.66292007  0.08385073  0.83544390  1
  Ca2+  Ca9  1  0.67314772  0.58306087  0.17703101  1
  Ca2+  Ca10  1  0.67180818  0.57630481  0.50530820  1
  Ca2+  Ca11  1  0.67347373  0.58967901  0.83536501  1
  Ca2+  Ca12  1  0.07718525  0.32963813  0.16697532  1
  Ca2+  Ca13  1  0.07292323  0.33468426  0.49375566  1
  Ca2+  Ca14  1  0.07697679  0.33641067  0.82085324  1
  Ca2+  Ca15  1  0.07918992  0.83709726  0.16246178  1
  Ca2+  Ca16  1  0.08061296  0.84199791  0.49864243  1
  Ca2+  Ca17  1  0.07556586  0.83947273  0.82946254  1
  Ca2+  Ca18  1  0.59413374  0.32450329  0.16868888  1
  Ca2+  Ca19  1  0.59411826  0.32743552  0.49576837  1
  Ca2+  Ca20  1  0.58986251  0.32272321  0.82645110  1
  Ca2+  Ca21  1  0.58738196  0.81840159  0.16314912  1
  Ca2+  Ca22  1  0.57815496  0.82077112  0.50017409  1
  Ca2+  Ca23  1  0.58127205  0.82135667  0.82290362  1
  Ca2+  Ca24  1  0.33362877  0.42264430  0.17308217  1
  Ca2+  Ca25  1  0.32946997  0.42017392  0.50353910  1
  Ca2+  Ca26  1  0.32670111  0.41273778  0.83129348  1
  Ca2+  Ca27  1  0.31969364  0.91308808  0.17352666  1
  Ca2+  Ca28  1  0.32405519  0.91983693  0.51141132  1
  Ca2+  Ca29  1  0.32942040  0.91368665  0.83246487  1
  Ca2+  Ca30  1  0.82822920  0.42805685  0.17726575  1
  Ca2+  Ca31  1  0.82769855  0.41997897  0.50648423  1
  Ca2+  Ca32  1  0.83083964  0.42806802  0.83104415  1
  Ca2+  Ca33  1  0.83392243  0.92223324  0.17227374  1
  Ca2+  Ca34  1  0.83481252  0.92372889  0.50318479  1
  Ca2+  Ca35  1  0.83657116  0.91337047  0.83680898  1
  Ca2+  Ca36  1  0.42827564  0.16743855  0.16372799  1
  Ca2+  Ca37  1  0.42541750  0.16270259  0.49823422  1
  Ca2+  Ca38  1  0.42620667  0.16111294  0.82525880  1
  Ca2+  Ca39  1  0.42870223  0.65899968  0.16541792  1
  Ca2+  Ca40  1  0.42435201  0.66324242  0.49455883  1
  Ca2+  Ca41  1  0.42955665  0.67109292  0.82380446  1
  Ca2+  Ca42  1  0.91455363  0.17076057  0.17295600  1
  Ca2+  Ca43  1  0.91752982  0.18010021  0.49007868  1
  Ca2+  Ca44  1  0.91921147  0.17714597  0.82398394  1
  Ca2+  Ca45  1  0.91036486  0.67129713  0.15996797  1
  Ca2+  Ca46  1  0.91091422  0.66839155  0.49956281  1
  Ca2+  Ca47  1  0.91016880  0.67482110  0.82650661  1
  Al0+  Al48  1  0.00025981  0.00128937  0.00007608  1
  Al0+  Al49  1  -0.00208711  0.00065520  0.33774883  1
  Al0+  Al50  1  0.00052036  0.00067936  0.66770280  1
  Al0+  Al51  1  -0.00055315  0.50066901  0.00501708  1
  Al0+  Al52  1  0.00036598  0.50265319  0.32991240  1
  Al0+  Al53  1  -0.00117797  0.50246642  0.66984144  1
  Al0+  Al54  1  0.49971053  -0.00019927  -0.00099407  1
  Al0+  Al55  1  0.49718900  -0.00216524  0.32711607  1
  Al0+  Al56  1  0.50169050  -0.00116484  0.66177385  1
  Al0+  Al57  1  0.49979938  0.49642184  -0.00564307  1
  Al0+  Al58  1  0.50026086  0.49957327  0.33663597  1
  Al0+  Al59  1  0.50089340  0.49547986  0.66840924  1
  Al0+  Al60  1  0.25031091  0.24843500  0.00202877  1
  Al0+  Al61  1  0.25008763  0.24746660  0.32702831  1
  Al0+  Al62  1  0.25236696  0.24816300  0.67563821  1
  Al0+  Al63  1  0.24888036  0.74847154  0.00421834  1
  Al0+  Al64  1  0.24816505  0.75033714  0.34245704  1
  Al0+  Al65  1  0.24845107  0.74994072  0.67012751  1
  Al0+  Al66  1  0.75132099  0.25092938  -0.00457071  1
  Al0+  Al67  1  0.75135591  0.25020987  0.33031333  1
  Al0+  Al68  1  0.75209465  0.25197702  0.66459398  1
  Al0+  Al69  1  0.75050752  0.75171326  -0.00340517  1
  Al0+  Al70  1  0.74879811  0.75154916  0.33318121  1
  Al0+  Al71  1  0.75098564  0.75206634  0.65971147  1
  Al0+  Al72  1  0.57118337  0.17951271  0.98540192  1
  Al0+  Al73  1  0.93149489  0.82109493  0.98787012  1
  Al0+  Al74  1  0.81755776  0.06958768  0.34672664  1
  Al0+  Al75  1  0.17925661  0.93020853  0.01578452  1
  Al0+  Al76  1  0.57100118  0.67821680  0.98621282  1
  Al0+  Al77  1  0.93046742  0.82281434  0.65086497  1
  Al0+  Al78  1  0.81882413  0.57352793  0.68238966  1
  Al0+  Al79  1  0.93129503  0.32305769  0.65345074  1
  Al0+  Al80  1  0.57070885  0.17827722  0.31962981  1
  Al0+  Al81  1  0.92873104  0.32440429  0.31612174  1
  Al0+  Al82  1  0.42738623  0.82013208  0.65197720  1
  Al0+  Al83  1  0.56973002  0.67902397  0.31948636  1
  Al0+  Al84  1  0.17858556  0.93093990  0.34908495  1
  Al0+  Al85  1  0.67836940  0.42654589  0.68384531  1
  Al0+  Al86  1  0.57145320  0.67551371  0.64966691  1
  Al0+  Al87  1  0.81856283  0.57265282  0.01439540  1
  Al0+  Al88  1  0.82312228  0.57491353  0.34902959  1
  Al0+  Al89  1  0.07079824  0.17766399  0.31902156  1
  Al0+  Al90  1  0.17718160  0.92774633  0.68472646  1
  Al0+  Al91  1  0.17919417  0.42996529  0.67774419  1
  Al0+  Al92  1  0.68045874  0.42907235  0.34754650  1
  Al0+  Al93  1  0.57077104  0.18014876  0.65210228  1
  Al0+  Al94  1  0.32096810  0.56964192  0.34652514  1
  Al0+  Al95  1  0.32449025  0.06930920  0.68221496  1
  Si0+  Si96  1  0.42670756  0.32225267  0.31668235  1
  Si0+  Si97  1  0.82056850  0.07285323  0.01373176  1
  Si0+  Si98  1  0.07358961  0.17934216  0.65295489  1
  Si0+  Si99  1  0.32176822  0.56863047  0.01354516  1
  Si0+  Si100  1  0.42567746  0.82021972  0.98555221  1
  Si0+  Si101  1  0.67822999  0.42673711  0.01632606  1
  Si0+  Si102  1  0.42488200  0.32057715  0.64995018  1
  Si0+  Si103  1  0.93128563  0.32256160  0.98357012  1
  Si0+  Si104  1  0.17788160  0.42736467  0.01643562  1
  Si0+  Si105  1  0.07137608  0.17930267  0.98396594  1
  Si0+  Si106  1  0.68105922  0.93024038  0.68020971  1
  Si0+  Si107  1  0.82115219  0.07214379  0.68197635  1
  Si0+  Si108  1  0.42452210  0.81981260  0.31595882  1
  Si0+  Si109  1  0.42510532  0.32080219  0.98127775  1
  Si0+  Si110  1  0.92965796  0.82091124  0.31867415  1
  Si0+  Si111  1  0.32351904  0.57190436  0.68475221  1
  Si0+  Si112  1  0.07377249  0.67622975  0.98442672  1
  Si0+  Si113  1  0.32380886  0.07273234  0.34851435  1
  Si0+  Si114  1  0.67829447  0.92983089  0.01351948  1
  Si0+  Si115  1  0.07155944  0.67771516  0.65010679  1
  Si0+  Si116  1  0.32365433  0.07193032  0.01999781  1
  Si0+  Si117  1  0.07314428  0.67997364  0.31917928  1
  Si0+  Si118  1  0.17806766  0.42582580  0.34669648  1
  Si0+  Si119  1  0.67466220  0.92737152  0.34955984  1
  O2-  O120  1  0.25497257  0.00333163  0.06415667  1
  O2-  O121  1  0.25341351  0.00642263  0.39265421  1
  O2-  O122  1  0.25325385  -0.00338623  0.73302429  1
  O2-  O123  1  0.24997169  0.49810903  0.05687656  1
  O2-  O124  1  0.24721973  0.49320306  0.39138495  1
  O2-  O125  1  0.25417613  0.50299744  0.72836528  1
  O2-  O126  1  0.74756897  0.00310527  0.05515127  1
  O2-  O127  1  0.73825292  0.00042617  0.39420959  1
  O2-  O128  1  0.75151500  0.00066686  0.72530541  1
  O2-  O129  1  0.74181993  0.49980043  0.06049700  1
  O2-  O130  1  0.75345729  0.50021097  0.39694966  1
  O2-  O131  1  0.74394876  0.50471010  0.73345575  1
  O2-  O132  1  0.00200194  0.25207788  0.26691256  1
  O2-  O133  1  0.00869832  0.25053432  0.60832379  1
  O2-  O134  1  0.00434727  0.25344998  0.94087199  1
  O2-  O135  1  -0.00194454  0.74697003  0.27697858  1
  O2-  O136  1  0.00706846  0.74981762  0.60502580  1
  O2-  O137  1  0.00486013  0.74482966  0.94136143  1
  O2-  O138  1  0.49626134  0.25373201  0.27297979  1
  O2-  O139  1  0.49614171  0.25500268  0.60590450  1
  O2-  O140  1  0.49445636  0.25203176  0.93901765  1
  O2-  O141  1  0.49491315  0.75344575  0.27056618  1
  O2-  O142  1  0.49301087  0.74243168  0.60192957  1
  O2-  O143  1  0.49535487  0.75294971  0.94136721  1
  O2-  O144  1  0.06972193  0.17943208  0.08882758  1
  O2-  O145  1  0.07017544  0.17926056  0.43237805  1
  O2-  O146  1  0.06947036  0.18028480  0.75937583  1
  O2-  O147  1  0.07599983  0.67614352  0.09015178  1
  O2-  O148  1  0.07640005  0.68049537  0.42381166  1
  O2-  O149  1  0.06971256  0.67574657  0.75600183  1
  O2-  O150  1  0.57204668  0.18095264  0.09844587  1
  O2-  O151  1  0.56911728  0.17843503  0.43216749  1
  O2-  O152  1  0.57070130  0.17982671  0.76563970  1
  O2-  O153  1  0.56999042  0.67858469  0.09956216  1
  O2-  O154  1  0.56845473  0.67987180  0.43165958  1
  O2-  O155  1  0.57189700  0.68089161  0.76398099  1
  O2-  O156  1  0.18004223  0.42845707  0.24042910  1
  O2-  O157  1  0.18067086  0.43140238  0.56476943  1
  O2-  O158  1  0.17688001  0.42726111  0.91141824  1
  O2-  O159  1  0.17850854  0.92985425  0.23535777  1
  O2-  O160  1  0.17519277  0.93330330  0.57137934  1
  O2-  O161  1  0.17872596  0.93220043  0.90357405  1
  O2-  O162  1  0.68059439  0.43078025  0.23304521  1
  O2-  O163  1  0.68317408  0.42315628  0.57094945  1
  O2-  O164  1  0.68167051  0.42368145  0.91127038  1
  O2-  O165  1  0.67886263  0.92571369  0.24321779  1
  O2-  O166  1  0.68238938  0.93156516  0.57526556  1
  O2-  O167  1  0.67868167  0.93000647  0.90834903  1
  O2-  O168  1  0.42218740  0.32209778  0.08680764  1
  O2-  O169  1  0.42162980  0.32112299  0.42164184  1
  O2-  O170  1  0.42266013  0.31817031  0.75575037  1
  O2-  O171  1  0.42501906  0.81831256  0.09121401  1
  O2-  O172  1  0.42500224  0.81902027  0.42097342  1
  O2-  O173  1  0.43175223  0.81897313  0.76645747  1
  O2-  O174  1  0.93159220  0.32148955  0.08826805  1
  O2-  O175  1  0.93078938  0.32374970  0.42949888  1
  O2-  O176  1  0.93266328  0.32052452  0.76758200  1
  O2-  O177  1  0.93196316  0.82245511  0.10127414  1
  O2-  O178  1  0.93106326  0.82278093  0.42344215  1
  O2-  O179  1  0.93076544  0.82334311  0.76430306  1
  O2-  O180  1  0.32504690  0.07022420  0.24269290  1
  O2-  O181  1  0.32279792  0.07019773  0.56857661  1
  O2-  O182  1  0.32360015  0.07239172  0.91480447  1
  O2-  O183  1  0.31935271  0.56876277  0.23248800  1
  O2-  O184  1  0.32201002  0.57078420  0.57921442  1
  O2-  O185  1  0.32002160  0.56800435  0.90881855  1
  O2-  O186  1  0.81773563  0.06644739  0.23267656  1
  O2-  O187  1  0.82044310  0.07180935  0.57711912  1
  O2-  O188  1  0.82141302  0.07342980  0.90850637  1
  O2-  O189  1  0.81970375  0.57644234  0.23470728  1
  O2-  O190  1  0.82045490  0.57193648  0.56945320  1
  O2-  O191  1  0.82047651  0.57246082  0.90190218  1
  O2-  O192  1  0.03491540  0.08090891  0.26542273  1
  O2-  O193  1  0.04499325  0.08717493  0.60730477  1
  O2-  O194  1  0.03970655  0.08953387  0.93579997  1
  O2-  O195  1  0.05262107  0.58749589  0.26935487  1
  O2-  O196  1  0.04300789  0.58605417  0.60234452  1
  O2-  O197  1  0.04868241  0.58159628  0.93975673  1
  O2-  O198  1  0.54105851  0.08122040  0.26356809  1
  O2-  O199  1  0.54313805  0.08353726  0.59756806  1
  O2-  O200  1  0.54268193  0.08105295  0.93293636  1
  O2-  O201  1  0.53743096  0.58235121  0.26573293  1
  O2-  O202  1  0.54765529  0.57402429  0.60221790  1
  O2-  O203  1  0.54189954  0.58098040  0.93279609  1
  O2-  O204  1  0.16983295  0.20060884  0.26267390  1
  O2-  O205  1  0.16946313  0.20061776  0.61135901  1
  O2-  O206  1  0.16552123  0.20321530  0.93929431  1
  O2-  O207  1  0.16355222  0.71238877  0.27047371  1
  O2-  O208  1  0.16746754  0.69772631  0.60672032  1
  O2-  O209  1  0.16765101  0.70061514  0.93811726  1
  O2-  O210  1  0.66667114  0.20859551  0.26386839  1
  O2-  O211  1  0.66783148  0.21119278  0.59998342  1
  O2-  O212  1  0.66804090  0.20975816  0.93081727  1
  O2-  O213  1  0.66557792  0.71391817  0.26455723  1
  O2-  O214  1  0.66621677  0.71216191  0.59617321  1
  O2-  O215  1  0.66528940  0.71388438  0.93182643  1
  O2-  O216  1  0.08742562  0.45555085  0.06586561  1
  O2-  O217  1  0.08512950  0.45365583  0.39120031  1
  O2-  O218  1  0.08517842  0.46357083  0.73580313  1
  O2-  O219  1  0.08283420  0.96458103  0.06923414  1
  O2-  O220  1  0.08265522  0.96218720  0.40256419  1
  O2-  O221  1  0.08021632  0.96227924  0.73842168  1
  O2-  O222  1  0.58087436  0.44490327  0.05777995  1
  O2-  O223  1  0.58155059  0.45399261  0.39986477  1
  O2-  O224  1  0.57619365  0.44311881  0.73454150  1
  O2-  O225  1  0.58580124  0.95427354  0.06173927  1
  O2-  O226  1  0.57806688  0.94708058  0.39053007  1
  O2-  O227  1  0.58982438  0.95793498  0.72828928  1
  O2-  O228  1  0.20548303  0.33520080  0.06371483  1
  O2-  O229  1  0.20209238  0.33105501  0.39005157  1
  O2-  O230  1  0.20830510  0.33458801  0.73642268  1
  O2-  O231  1  0.20657035  0.83150413  0.06912115  1
  O2-  O232  1  0.20769814  0.83537447  0.40460628  1
  O2-  O233  1  0.19957300  0.82733808  0.73702672  1
  O2-  O234  1  0.71041335  0.33449862  0.06272707  1
  O2-  O235  1  0.70834001  0.32993885  0.39770031  1
  O2-  O236  1  0.71573207  0.33065087  0.73827969  1
  O2-  O237  1  0.70958307  0.83982191  0.06224780  1
  O2-  O238  1  0.70578745  0.83696572  0.39751214  1
  O2-  O239  1  0.71015000  0.83905973  0.72773884  1
  O2-  O240  1  0.45257688  0.41572973  0.27041172  1
  O2-  O241  1  0.44523562  0.41582319  0.60589886  1
  O2-  O242  1  0.44851561  0.41378789  0.93319743  1
  O2-  O243  1  0.44586621  0.91369502  0.26781450  1
  O2-  O244  1  0.46128225  0.91516877  0.59674222  1
  O2-  O245  1  0.44920490  0.91501881  0.94150022  1
  O2-  O246  1  0.95809026  0.42247169  0.26127045  1
  O2-  O247  1  0.96156220  0.41975795  0.60118763  1
  O2-  O248  1  0.95970837  0.41514107  0.93813174  1
  O2-  O249  1  0.96061829  0.91151424  0.27073256  1
  O2-  O250  1  0.96052732  0.92051456  0.59780941  1
  O2-  O251  1  0.96190821  0.91805146  0.93347203  1
  O2-  O252  1  0.33458620  0.29692155  0.26564106  1
  O2-  O253  1  0.33171680  0.29276627  0.60374455  1
  O2-  O254  1  0.33082391  0.29482676  0.93551423  1
  O2-  O255  1  0.33072312  0.79083959  0.27149104  1
  O2-  O256  1  0.32514012  0.79944495  0.60407723  1
  O2-  O257  1  0.33240337  0.79287120  0.93952296  1
  O2-  O258  1  0.83291098  0.29114263  0.26080759  1
  O2-  O259  1  0.83761694  0.28745065  0.59909700  1
  O2-  O260  1  0.84088231  0.29197772  0.93560199  1
  O2-  O261  1  0.83674009  0.79711648  0.27104417  1
  O2-  O262  1  0.83485871  0.79456787  0.59482351  1
  O2-  O263  1  0.83475776  0.79360798  0.93281954  1
  O2-  O264  1  0.41802240  0.04666697  0.06546920  1
  O2-  O265  1  0.41708315  0.04516991  0.39414316  1
  O2-  O266  1  0.42338485  0.03931156  0.73436209  1
  O2-  O267  1  0.41339094  0.53831611  0.06084285  1
  O2-  O268  1  0.41559731  0.53910347  0.40232268  1
  O2-  O269  1  0.41625129  0.54500874  0.73152569  1
  O2-  O270  1  0.91127022  0.04311905  0.06179552  1
  O2-  O271  1  0.91118760  0.03510198  0.40274510  1
  O2-  O272  1  0.91288625  0.04536910  0.73020959  1
  O2-  O273  1  0.91624694  0.54264499  0.06818043  1
  O2-  O274  1  0.92513308  0.55278620  0.39661101  1
  O2-  O275  1  0.91656058  0.54352878  0.73661330  1
  O2-  O276  1  0.29837331  0.16627086  0.06539603  1
  O2-  O277  1  0.30149135  0.16810933  0.39186536  1
  O2-  O278  1  0.29709203  0.16630205  0.73973235  1
  O2-  O279  1  0.29474424  0.65962269  0.06308088  1
  O2-  O280  1  0.28767821  0.66335423  0.40321446  1
  O2-  O281  1  0.29727324  0.66459762  0.73210514  1
  O2-  O282  1  0.79340880  0.16511348  0.06075425  1
  O2-  O283  1  0.79170589  0.16751703  0.39878033  1
  O2-  O284  1  0.79264539  0.16306011  0.73040807  1
  O2-  O285  1  0.78938088  0.67085882  0.06663294  1
  O2-  O286  1  0.79331363  0.67332731  0.40021650  1
  O2-  O287  1  0.79160888  0.67432026  0.73237990  1
