# generated using pymatgen
data_Ca2Al2SiO7
_symmetry_space_group_name_H-M   'P 1'
_cell_length_a   15.47495798
_cell_length_b   15.46966288
_cell_length_c   15.29377565
_cell_angle_alpha   89.99684454
_cell_angle_beta   89.97792933
_cell_angle_gamma   90.00828506
_symmetry_Int_Tables_number   1
_chemical_formula_structural   Ca2Al2SiO7
_chemical_formula_sum   'Ca48 Al48 Si24 O168'
_cell_volume   3661.21308408
_cell_formula_units_Z   24
loop_
 _symmetry_equiv_pos_site_id
 _symmetry_equiv_pos_as_xyz
  1  'x, y, z'
loop_
 _atom_type_symbol
 _atom_type_oxidation_number
  Ca2+  2.0
  Al0+  0.0
  Si0+  0.0
  O2-  -2.0
loop_
 _atom_site_type_symbol
 _atom_site_label
 _atom_site_symmetry_multiplicity
 _atom_site_fract_x
 _atom_site_fract_y
 _atom_site_fract_z
 _atom_site_occupancy
  Ca2+  Ca0  1  0.17210540  0.08185518  0.17301304  1
  Ca2+  Ca1  1  0.17552288  0.09493195  0.50694646  1
  Ca2+  Ca2  1  0.16904288  0.09325200  0.83189845  1
  Ca2+  Ca3  1  0.15422583  0.57205680  0.16600686  1
  Ca2+  Ca4  1  0.15693152  0.57230754  0.50562337  1
  Ca2+  Ca5  1  0.16101085  0.57553110  0.84116489  1
  Ca2+  Ca6  1  0.67993984  0.08139704  0.16954761  1
  Ca2+  Ca7  1  0.68193473  0.07762974  0.50664425  1
  Ca2+  Ca8  1  0.68114334  0.07693727  0.83307409  1
  Ca2+  Ca9  1  0.67720915  0.58212270  0.16972786  1
  Ca2+  Ca10  1  0.67453839  0.57856468  0.49712546  1
  Ca2+  Ca11  1  0.67489058  0.58346067  0.84092733  1
  Ca2+  Ca12  1  0.07597273  0.33715513  0.16473896  1
  Ca2+  Ca13  1  0.07640960  0.33266012  0.50232238  1
  Ca2+  Ca14  1  0.07550886  0.33590660  0.82671049  1
  Ca2+  Ca15  1  0.07231803  0.82553580  0.15937244  1
  Ca2+  Ca16  1  0.07300131  0.83122051  0.49801595  1
  Ca2+  Ca17  1  0.07564146  0.82066894  0.82964816  1
  Ca2+  Ca18  1  0.58556278  0.33693217  0.16363346  1
  Ca2+  Ca19  1  0.57545873  0.33839567  0.49365661  1
  Ca2+  Ca20  1  0.57358952  0.33294067  0.82531080  1
  Ca2+  Ca21  1  0.57962452  0.82609733  0.15951397  1
  Ca2+  Ca22  1  0.58654956  0.83853012  0.49989011  1
  Ca2+  Ca23  1  0.58725876  0.83070654  0.83043770  1
  Ca2+  Ca24  1  0.31798197  0.42216268  0.16789219  1
  Ca2+  Ca25  1  0.31848762  0.41090913  0.50741071  1
  Ca2+  Ca26  1  0.31915048  0.41694952  0.83765094  1
  Ca2+  Ca27  1  0.32989032  0.92091702  0.17353075  1
  Ca2+  Ca28  1  0.33059279  0.92858324  0.50690575  1
  Ca2+  Ca29  1  0.33105841  0.92250842  0.83358231  1
  Ca2+  Ca30  1  0.83917959  0.42896798  0.17333058  1
  Ca2+  Ca31  1  0.84150959  0.41937674  0.50089976  1
  Ca2+  Ca32  1  0.84066581  0.41961487  0.84116446  1
  Ca2+  Ca33  1  0.84547235  0.92559103  0.17010919  1
  Ca2+  Ca34  1  0.83787238  0.92305274  0.50877796  1
  Ca2+  Ca35  1  0.84947806  0.92570823  0.83428353  1
  Ca2+  Ca36  1  0.41901322  0.16565805  0.16407263  1
  Ca2+  Ca37  1  0.41313204  0.16731671  0.49863438  1
  Ca2+  Ca38  1  0.41681168  0.17252531  0.82150983  1
  Ca2+  Ca39  1  0.42455617  0.65760265  0.15763930  1
  Ca2+  Ca40  1  0.42055034  0.66714808  0.49618415  1
  Ca2+  Ca41  1  0.42402090  0.65545979  0.83340359  1
  Ca2+  Ca42  1  0.90484387  0.17872276  0.16346581  1
  Ca2+  Ca43  1  0.91214537  0.17335660  0.49512800  1
  Ca2+  Ca44  1  0.91799151  0.17592690  0.82554940  1
  Ca2+  Ca45  1  0.91186054  0.67480648  0.15773802  1
  Ca2+  Ca46  1  0.91604154  0.67639596  0.49739784  1
  Ca2+  Ca47  1  0.92585624  0.66826645  0.82834198  1
  Al0+  Al48  1  0.00379096  0.00258738  0.00308424  1
  Al0+  Al49  1  0.00249545  -0.00037582  0.33356509  1
  Al0+  Al50  1  0.00474160  -0.00093994  0.66499145  1
  Al0+  Al51  1  -0.00230538  0.49948145  0.00273010  1
  Al0+  Al52  1  -0.00034481  0.49961737  0.34009852  1
  Al0+  Al53  1  0.00024555  0.49904393  0.66434258  1
  Al0+  Al54  1  0.50232691  0.00025553  -0.00078017  1
  Al0+  Al55  1  0.49950696  0.00097469  0.33486163  1
  Al0+  Al56  1  0.50083981  -0.00048869  0.67476896  1
  Al0+  Al57  1  0.49784012  0.49893335  -0.00278915  1
  Al0+  Al58  1  0.49869626  0.50006047  0.33365757  1
  Al0+  Al59  1  0.50024746  0.49951119  0.65949688  1
  Al0+  Al60  1  0.25095821  0.25159328  0.00658206  1
  Al0+  Al61  1  0.25095314  0.25153316  0.33760467  1
  Al0+  Al62  1  0.24990814  0.25327162  0.66897020  1
  Al0+  Al63  1  0.25197628  0.75215771  0.00070000  1
  Al0+  Al64  1  0.25019879  0.75053803  0.33221511  1
  Al0+  Al65  1  0.25463168  0.74930263  0.66263623  1
  Al0+  Al66  1  0.74817794  0.24735108  -0.00254249  1
  Al0+  Al67  1  0.74627066  0.24800422  0.33531989  1
  Al0+  Al68  1  0.74748259  0.24866479  0.66693571  1
  Al0+  Al69  1  0.74637527  0.75273639  -0.00547056  1
  Al0+  Al70  1  0.74825842  0.74915425  0.33169390  1
  Al0+  Al71  1  0.74872396  0.74751741  0.66557650  1
  Al0+  Al72  1  0.82583013  0.07120982  0.68233465  1
  Al0+  Al73  1  0.68119016  0.92660835  0.68256940  1
  Al0+  Al74  1  0.67721787  0.42847247  0.34702524  1
  Al0+  Al75  1  0.17872746  0.43048845  0.35026774  1
  Al0+  Al76  1  0.92730403  0.31926254  0.31906804  1
  Al0+  Al77  1  0.92817725  0.82458251  0.98520208  1
  Al0+  Al78  1  0.32195091  0.57238810  0.01352698  1
  Al0+  Al79  1  0.31806107  0.07087422  0.68179859  1
  Al0+  Al80  1  0.56896356  0.67888938  0.98550538  1
  Al0+  Al81  1  0.82273777  0.07011643  0.01440758  1
  Al0+  Al82  1  0.92807270  0.82145889  0.31888857  1
  Al0+  Al83  1  0.32081767  0.06963651  0.34713827  1
  Al0+  Al84  1  0.07189166  0.17937157  0.65368993  1
  Al0+  Al85  1  0.92552545  0.31956315  0.65142622  1
  Al0+  Al86  1  0.81940863  0.57212839  0.01057378  1
  Al0+  Al87  1  0.92904797  0.81993393  0.65193218  1
  Al0+  Al88  1  0.17674161  0.42952185  0.01674599  1
  Al0+  Al89  1  0.43030103  0.32034809  0.65181681  1
  Al0+  Al90  1  0.07382427  0.67756497  0.65123382  1
  Al0+  Al91  1  0.82233456  0.06964973  0.34647845  1
  Al0+  Al92  1  0.82091256  0.57247704  0.34965995  1
  Al0+  Al93  1  0.07077687  0.67809736  0.98733409  1
  Al0+  Al94  1  0.17889123  0.43243294  0.68201412  1
  Al0+  Al95  1  0.92844560  0.31950901  0.98920217  1
  Si0+  Si96  1  0.67534886  0.42848966  0.68059473  1
  Si0+  Si97  1  0.67675793  0.42708900  0.01249518  1
  Si0+  Si98  1  0.18051700  0.92918188  0.01609455  1
  Si0+  Si99  1  0.07602842  0.17959058  0.98663250  1
  Si0+  Si100  1  0.17903711  0.92676386  0.35136595  1
  Si0+  Si101  1  0.67601458  0.92952259  0.01841484  1
  Si0+  Si102  1  0.67741865  0.92801984  0.34699871  1
  Si0+  Si103  1  0.57054976  0.17730350  0.98273524  1
  Si0+  Si104  1  0.42776287  0.32119463  0.31544185  1
  Si0+  Si105  1  0.56856952  0.67801895  0.31709883  1
  Si0+  Si106  1  0.56854632  0.17773162  0.31690653  1
  Si0+  Si107  1  0.42805026  0.82567033  0.98216154  1
  Si0+  Si108  1  0.81893855  0.56760825  0.68158388  1
  Si0+  Si109  1  0.42926805  0.82228505  0.31916552  1
  Si0+  Si110  1  0.32300120  0.07129433  0.01503534  1
  Si0+  Si111  1  0.32537033  0.57327022  0.68149715  1
  Si0+  Si112  1  0.43141102  0.82321799  0.65095017  1
  Si0+  Si113  1  0.32234287  0.57322494  0.35038375  1
  Si0+  Si114  1  0.57001882  0.17605988  0.64873133  1
  Si0+  Si115  1  0.07424655  0.17938521  0.31673544  1
  Si0+  Si116  1  0.07227159  0.67810464  0.31711781  1
  Si0+  Si117  1  0.42892145  0.31896806  0.98543883  1
  Si0+  Si118  1  0.57112113  0.67776938  0.64845091  1
  Si0+  Si119  1  0.17981158  0.92294444  0.68449314  1
  O2-  O120  1  0.25305430  0.00023146  0.05764570  1
  O2-  O121  1  0.24497299  -0.00201248  0.39544646  1
  O2-  O122  1  0.24258266  -0.00231771  0.72938310  1
  O2-  O123  1  0.24509470  0.50702841  0.06505993  1
  O2-  O124  1  0.25181903  0.50827632  0.39540575  1
  O2-  O125  1  0.25143941  0.51124285  0.72546664  1
  O2-  O126  1  0.75105762  -0.00847118  0.06134684  1
  O2-  O127  1  0.75219916  -0.01056773  0.39053320  1
  O2-  O128  1  0.75793684  -0.00611538  0.73182225  1
  O2-  O129  1  0.74599269  0.49481460  0.05615686  1
  O2-  O130  1  0.75327990  0.49478749  0.39877708  1
  O2-  O131  1  0.75113724  0.49293365  0.72366431  1
  O2-  O132  1  0.00164936  0.24331063  0.27187523  1
  O2-  O133  1  -0.00746985  0.24207803  0.60243900  1
  O2-  O134  1  0.00520358  0.24626610  0.94443420  1
  O2-  O135  1  0.00145693  0.74471121  0.27344225  1
  O2-  O136  1  0.00299482  0.75042926  0.60089963  1
  O2-  O137  1  -0.00427150  0.74722180  0.93740905  1
  O2-  O138  1  0.50046266  0.25168794  0.27308518  1
  O2-  O139  1  0.50452449  0.24657320  0.60244766  1
  O2-  O140  1  0.49907060  0.24814267  0.94173576  1
  O2-  O141  1  0.49671755  0.74907756  0.27579847  1
  O2-  O142  1  0.50163466  0.75154848  0.60809792  1
  O2-  O143  1  0.49245164  0.75254787  0.93888903  1
  O2-  O144  1  0.08022537  0.17917263  0.09219524  1
  O2-  O145  1  0.07699360  0.18146636  0.42175467  1
  O2-  O146  1  0.07374057  0.18541043  0.76757141  1
  O2-  O147  1  0.06955637  0.68075012  0.10110839  1
  O2-  O148  1  0.07571593  0.68213336  0.42237187  1
  O2-  O149  1  0.07254354  0.67725241  0.76480927  1
  O2-  O150  1  0.56924557  0.17635870  0.08813621  1
  O2-  O151  1  0.56483183  0.17466831  0.42135942  1
  O2-  O152  1  0.56732878  0.17845018  0.75474261  1
  O2-  O153  1  0.56726100  0.68008636  0.09896234  1
  O2-  O154  1  0.56688819  0.67815520  0.42227323  1
  O2-  O155  1  0.56918813  0.67384283  0.75324830  1
  O2-  O156  1  0.18030243  0.42961436  0.23719218  1
  O2-  O157  1  0.18109366  0.43163429  0.56895105  1
  O2-  O158  1  0.18035242  0.42507802  0.90373957  1
  O2-  O159  1  0.18310077  0.92616343  0.24541065  1
  O2-  O160  1  0.18588598  0.91915665  0.57913598  1
  O2-  O161  1  0.18206215  0.92943442  0.91140245  1
  O2-  O162  1  0.67344366  0.43364419  0.23334833  1
  O2-  O163  1  0.67048927  0.43345688  0.57608461  1
  O2-  O164  1  0.67481976  0.42795450  0.90666390  1
  O2-  O165  1  0.67150891  0.93107915  0.24170404  1
  O2-  O166  1  0.67878186  0.93003748  0.56845225  1
  O2-  O167  1  0.66662203  0.93500452  0.91406935  1
  O2-  O168  1  0.42980288  0.31650954  0.09074417  1
  O2-  O169  1  0.42817724  0.32032586  0.42032116  1
  O2-  O170  1  0.43269671  0.31940783  0.76539468  1
  O2-  O171  1  0.43210052  0.83212505  0.08792054  1
  O2-  O172  1  0.43133950  0.82297945  0.42413760  1
  O2-  O173  1  0.43107561  0.82427478  0.75571621  1
  O2-  O174  1  0.92666133  0.31913807  0.10245718  1
  O2-  O175  1  0.92796534  0.31751719  0.43157587  1
  O2-  O176  1  0.92710446  0.32239367  0.76523650  1
  O2-  O177  1  0.93183326  0.82448292  0.09920749  1
  O2-  O178  1  0.92906301  0.82138556  0.43159362  1
  O2-  O179  1  0.92965604  0.81578186  0.76522474  1
  O2-  O180  1  0.32204522  0.06671519  0.23336110  1
  O2-  O181  1  0.31955491  0.06853654  0.56880533  1
  O2-  O182  1  0.32308615  0.07264451  0.91033929  1
  O2-  O183  1  0.32575340  0.57131210  0.24511017  1
  O2-  O184  1  0.32920854  0.57143822  0.57588700  1
  O2-  O185  1  0.32622687  0.56553238  0.90040986  1
  O2-  O186  1  0.81805677  0.07086525  0.23314501  1
  O2-  O187  1  0.82081819  0.07213584  0.56862121  1
  O2-  O188  1  0.82084796  0.07187440  0.90202249  1
  O2-  O189  1  0.81743931  0.57542162  0.23588317  1
  O2-  O190  1  0.81588917  0.56916510  0.57661118  1
  O2-  O191  1  0.81821048  0.56973905  0.89725400  1
  O2-  O192  1  0.05603290  0.08282069  0.27343812  1
  O2-  O193  1  0.06135376  0.07622113  0.60443098  1
  O2-  O194  1  0.05442366  0.08526363  0.94139900  1
  O2-  O195  1  0.04824956  0.58285379  0.27555765  1
  O2-  O196  1  0.04069483  0.58143246  0.59799496  1
  O2-  O197  1  0.04379073  0.57917709  0.93596415  1
  O2-  O198  1  0.53560828  0.08786502  0.26710299  1
  O2-  O199  1  0.54000316  0.08300777  0.60494205  1
  O2-  O200  1  0.54080439  0.08669130  0.93489169  1
  O2-  O201  1  0.53889929  0.58718782  0.26879430  1
  O2-  O202  1  0.53974725  0.58889256  0.59732886  1
  O2-  O203  1  0.53810460  0.58207454  0.93032446  1
  O2-  O204  1  0.16733022  0.20885686  0.26993039  1
  O2-  O205  1  0.16743466  0.21636314  0.59977748  1
  O2-  O206  1  0.16986116  0.20604303  0.94056070  1
  O2-  O207  1  0.16604830  0.70482086  0.27025187  1
  O2-  O208  1  0.17467689  0.70136245  0.59998178  1
  O2-  O209  1  0.17045198  0.70767667  0.93667473  1
  O2-  O210  1  0.66005179  0.20296427  0.26794235  1
  O2-  O211  1  0.66426603  0.19864364  0.60407510  1
  O2-  O212  1  0.66071934  0.20524961  0.93333884  1
  O2-  O213  1  0.65941799  0.70612975  0.26893276  1
  O2-  O214  1  0.66203288  0.70423243  0.59954266  1
  O2-  O215  1  0.66299379  0.71046076  0.92764257  1
  O2-  O216  1  0.07867136  0.45585018  0.07093451  1
  O2-  O217  1  0.08300436  0.45845714  0.40580236  1
  O2-  O218  1  0.08142439  0.46115510  0.73520172  1
  O2-  O219  1  0.09152710  0.95957472  0.06730091  1
  O2-  O220  1  0.08522465  0.94954139  0.39628614  1
  O2-  O221  1  0.08460249  0.94162687  0.72806100  1
  O2-  O222  1  0.58336439  0.45287405  0.05867186  1
  O2-  O223  1  0.58001317  0.46239707  0.40119385  1
  O2-  O224  1  0.58541126  0.46246188  0.72904996  1
  O2-  O225  1  0.58510248  0.96198386  0.06849248  1
  O2-  O226  1  0.58666223  0.95986686  0.39603092  1
  O2-  O227  1  0.58452190  0.95834542  0.73789526  1
  O2-  O228  1  0.21262726  0.33387612  0.07280808  1
  O2-  O229  1  0.21534314  0.33588823  0.40333433  1
  O2-  O230  1  0.21563635  0.33866143  0.73667581  1
  O2-  O231  1  0.20871016  0.83888101  0.06640291  1
  O2-  O232  1  0.20846925  0.83443163  0.39774395  1
  O2-  O233  1  0.21496372  0.83266658  0.73238663  1
  O2-  O234  1  0.69826631  0.33218190  0.05731658  1
  O2-  O235  1  0.69367217  0.32702309  0.39689000  1
  O2-  O236  1  0.69321934  0.33369834  0.72571398  1
  O2-  O237  1  0.69277789  0.83285933  0.06036822  1
  O2-  O238  1  0.69400104  0.83196147  0.39050968  1
  O2-  O239  1  0.69983361  0.82448460  0.73196064  1
  O2-  O240  1  0.45508401  0.41377198  0.26916323  1
  O2-  O241  1  0.46146952  0.41556530  0.59478962  1
  O2-  O242  1  0.45654903  0.40933265  0.93630889  1
  O2-  O243  1  0.45959765  0.91294535  0.27021578  1
  O2-  O244  1  0.46162264  0.91463914  0.60364823  1
  O2-  O245  1  0.45876208  0.91731754  0.93379020  1
  O2-  O246  1  0.95901649  0.41843548  0.27003149  1
  O2-  O247  1  0.95966803  0.41601036  0.59864318  1
  O2-  O248  1  0.95707774  0.41626532  0.93575008  1
  O2-  O249  1  0.96253884  0.91778954  0.26524022  1
  O2-  O250  1  0.95591365  0.91932833  0.60027643  1
  O2-  O251  1  0.96575772  0.92138756  0.93462447  1
  O2-  O252  1  0.33737664  0.28969825  0.26773578  1
  O2-  O253  1  0.33481288  0.28762595  0.59890522  1
  O2-  O254  1  0.33717622  0.28934059  0.93954090  1
  O2-  O255  1  0.33638065  0.79886270  0.27142067  1
  O2-  O256  1  0.34109890  0.79684167  0.60015483  1
  O2-  O257  1  0.33292690  0.80703671  0.93795101  1
  O2-  O258  1  0.82893352  0.28866865  0.26730915  1
  O2-  O259  1  0.82390905  0.29885113  0.60095459  1
  O2-  O260  1  0.83183866  0.28912377  0.93438611  1
  O2-  O261  1  0.82945479  0.79406990  0.26633490  1
  O2-  O262  1  0.83048807  0.78877386  0.59968895  1
  O2-  O263  1  0.82598599  0.80808203  0.93702001  1
  O2-  O264  1  0.41521892  0.04308415  0.06188036  1
  O2-  O265  1  0.41610828  0.03647407  0.40191497  1
  O2-  O266  1  0.41355438  0.03834856  0.73707442  1
  O2-  O267  1  0.41793400  0.53566107  0.06842843  1
  O2-  O268  1  0.41515150  0.54636452  0.39708583  1
  O2-  O269  1  0.41761660  0.54097185  0.72715347  1
  O2-  O270  1  0.92086878  0.04532585  0.06866944  1
  O2-  O271  1  0.92135345  0.04532908  0.39759910  1
  O2-  O272  1  0.92665626  0.04754332  0.73293033  1
  O2-  O273  1  0.91404961  0.54297941  0.06783179  1
  O2-  O274  1  0.91920704  0.54872888  0.40338791  1
  O2-  O275  1  0.91154626  0.54199912  0.72707806  1
  O2-  O276  1  0.29640196  0.16207715  0.06513843  1
  O2-  O277  1  0.29369789  0.16699762  0.39993972  1
  O2-  O278  1  0.28885705  0.16741154  0.73624131  1
  O2-  O279  1  0.30821255  0.67569554  0.06235174  1
  O2-  O280  1  0.30215448  0.66954431  0.39385368  1
  O2-  O281  1  0.31031273  0.67003138  0.72474385  1
  O2-  O282  1  0.78269382  0.16471270  0.06794038  1
  O2-  O283  1  0.78385284  0.16282200  0.40085343  1
  O2-  O284  1  0.78994846  0.16849782  0.73500295  1
  O2-  O285  1  0.78542419  0.66926173  0.06228191  1
  O2-  O286  1  0.78396122  0.66852624  0.40316134  1
  O2-  O287  1  0.78611798  0.65757338  0.72862618  1
