# generated using pymatgen
data_Ca2Al2SiO7
_symmetry_space_group_name_H-M   'P 1'
_cell_length_a   15.46750472
_cell_length_b   15.46373971
_cell_length_c   15.28964692
_cell_angle_alpha   89.99796628
_cell_angle_beta   89.99695982
_cell_angle_gamma   89.98652150
_symmetry_Int_Tables_number   1
_chemical_formula_structural   Ca2Al2SiO7
_chemical_formula_sum   'Ca48 Al48 Si24 O168'
_cell_volume   3657.06123237
_cell_formula_units_Z   24
loop_
 _symmetry_equiv_pos_site_id
 _symmetry_equiv_pos_as_xyz
  1  'x, y, z'
loop_
 _atom_type_symbol
 _atom_type_oxidation_number
  Ca2+  2.0
  Al0+  0.0
  Si0+  0.0
  O2-  -2.0
loop_
 _atom_site_type_symbol
 _atom_site_label
 _atom_site_symmetry_multiplicity
 _atom_site_fract_x
 _atom_site_fract_y
 _atom_site_fract_z
 _atom_site_occupancy
  Ca2+  Ca0  1  0.16856801  0.08821687  0.17075241  1
  Ca2+  Ca1  1  0.17351067  0.07958532  0.51011052  1
  Ca2+  Ca2  1  0.17470218  0.08094891  0.83200430  1
  Ca2+  Ca3  1  0.16967824  0.58247210  0.17011216  1
  Ca2+  Ca4  1  0.17363810  0.58354386  0.50723096  1
  Ca2+  Ca5  1  0.17639649  0.58606837  0.83465237  1
  Ca2+  Ca6  1  0.66527288  0.07867482  0.16836960  1
  Ca2+  Ca7  1  0.66610647  0.08106165  0.50457482  1
  Ca2+  Ca8  1  0.67038165  0.08158852  0.83911315  1
  Ca2+  Ca9  1  0.67382028  0.57835263  0.17230065  1
  Ca2+  Ca10  1  0.66497311  0.57093871  0.50260936  1
  Ca2+  Ca11  1  0.66208238  0.58065543  0.83945450  1
  Ca2+  Ca12  1  0.07175931  0.32979543  0.16507194  1
  Ca2+  Ca13  1  0.07608673  0.32441766  0.48905042  1
  Ca2+  Ca14  1  0.07378929  0.33370008  0.83338904  1
  Ca2+  Ca15  1  0.06575636  0.83270206  0.16386767  1
  Ca2+  Ca16  1  0.07761983  0.83675639  0.49547322  1
  Ca2+  Ca17  1  0.07735745  0.84062842  0.83126706  1
  Ca2+  Ca18  1  0.58917268  0.32315546  0.16285056  1
  Ca2+  Ca19  1  0.59299999  0.32401572  0.49751585  1
  Ca2+  Ca20  1  0.58861247  0.32272646  0.82901429  1
  Ca2+  Ca21  1  0.58655769  0.83335370  0.16102605  1
  Ca2+  Ca22  1  0.57175180  0.83661557  0.49438931  1
  Ca2+  Ca23  1  0.58827582  0.82179200  0.82796436  1
  Ca2+  Ca24  1  0.33660423  0.41274390  0.16834478  1
  Ca2+  Ca25  1  0.33270973  0.42342998  0.50865453  1
  Ca2+  Ca26  1  0.34016317  0.42015032  0.83725448  1
  Ca2+  Ca27  1  0.33358094  0.91642116  0.17375139  1
  Ca2+  Ca28  1  0.32991570  0.91603498  0.51068411  1
  Ca2+  Ca29  1  0.33423196  0.91526709  0.82936710  1
  Ca2+  Ca30  1  0.83603046  0.42495589  0.17444470  1
  Ca2+  Ca31  1  0.82410632  0.41266048  0.50037689  1
  Ca2+  Ca32  1  0.82573994  0.42203522  0.83989284  1
  Ca2+  Ca33  1  0.82101337  0.91315473  0.16918804  1
  Ca2+  Ca34  1  0.82830754  0.92125828  0.50193416  1
  Ca2+  Ca35  1  0.82871496  0.92874127  0.84513978  1
  Ca2+  Ca36  1  0.43249424  0.17125579  0.16069780  1
  Ca2+  Ca37  1  0.42929396  0.15691733  0.49790145  1
  Ca2+  Ca38  1  0.42910638  0.16643841  0.82859873  1
  Ca2+  Ca39  1  0.42700923  0.67374843  0.16154829  1
  Ca2+  Ca40  1  0.41873835  0.67371005  0.50138342  1
  Ca2+  Ca41  1  0.42938116  0.66912365  0.82328969  1
  Ca2+  Ca42  1  0.91131202  0.17788481  0.16200054  1
  Ca2+  Ca43  1  0.92044779  0.16817542  0.49167538  1
  Ca2+  Ca44  1  0.90311808  0.16979006  0.83043176  1
  Ca2+  Ca45  1  0.89906530  0.67614375  0.16360331  1
  Ca2+  Ca46  1  0.91556871  0.67165941  0.49161417  1
  Ca2+  Ca47  1  0.90899508  0.67451738  0.83552439  1
  Al0+  Al48  1  0.00195368  0.00129506  0.00076568  1
  Al0+  Al49  1  0.00152836  -0.00273803  0.32446875  1
  Al0+  Al50  1  -0.00012509  0.00207177  0.67371943  1
  Al0+  Al51  1  0.00249489  0.49972703  -0.00051523  1
  Al0+  Al52  1  0.00382659  0.50047235  0.33563885  1
  Al0+  Al53  1  -0.00178249  0.50108726  0.66544006  1
  Al0+  Al54  1  0.49711036  0.00085682  -0.00017584  1
  Al0+  Al55  1  0.49916219  0.00031973  0.32802946  1
  Al0+  Al56  1  0.49982595  -0.00079241  0.66414472  1
  Al0+  Al57  1  0.49907840  0.50237978  -0.00249091  1
  Al0+  Al58  1  0.50021217  0.50105600  0.33854054  1
  Al0+  Al59  1  0.49989839  0.49835274  0.67105176  1
  Al0+  Al60  1  0.24864037  0.25112825  -0.00271485  1
  Al0+  Al61  1  0.25143092  0.24999458  0.33238569  1
  Al0+  Al62  1  0.24808947  0.24959725  0.67164038  1
  Al0+  Al63  1  0.24936222  0.74945598  0.00336829  1
  Al0+  Al64  1  0.25018964  0.75132277  0.32932779  1
  Al0+  Al65  1  0.24784834  0.74833510  0.67267496  1
  Al0+  Al66  1  0.75026149  0.25038120  -0.00497446  1
  Al0+  Al67  1  0.75162457  0.24993485  0.32789791  1
  Al0+  Al68  1  0.74873685  0.25197729  0.66915734  1
  Al0+  Al69  1  0.74979591  0.75075872  -0.00359225  1
  Al0+  Al70  1  0.74826936  0.75003360  0.34072889  1
  Al0+  Al71  1  0.75119941  0.74782285  0.65862880  1
  Al0+  Al72  1  0.67934649  0.42657248  0.34763772  1
  Al0+  Al73  1  0.82211927  0.07390606  0.01725534  1
  Al0+  Al74  1  0.82135307  0.56981351  0.01176930  1
  Al0+  Al75  1  0.57108255  0.68224078  0.98812920  1
  Al0+  Al76  1  0.57134715  0.17824963  0.98280469  1
  Al0+  Al77  1  0.31984364  0.56901074  0.68119894  1
  Al0+  Al78  1  0.17802898  0.92836190  0.68208010  1
  Al0+  Al79  1  0.68025566  0.43053680  0.68235669  1
  Al0+  Al80  1  0.92971882  0.32185100  0.98456874  1
  Al0+  Al81  1  0.57160927  0.17929180  0.31987676  1
  Al0+  Al82  1  0.57341035  0.67477284  0.64795163  1
  Al0+  Al83  1  0.42798286  0.32143706  0.98528146  1
  Al0+  Al84  1  0.92985369  0.32142435  0.31885493  1
  Al0+  Al85  1  0.32389760  0.07167843  0.68233683  1
  Al0+  Al86  1  0.82301722  0.57177259  0.34981868  1
  Al0+  Al87  1  0.67689611  0.93045157  0.34823683  1
  Al0+  Al88  1  0.57101799  0.17999732  0.65173045  1
  Al0+  Al89  1  0.92963444  0.82082241  0.98563644  1
  Al0+  Al90  1  0.67794589  0.92961982  0.01306186  1
  Al0+  Al91  1  0.81924989  0.07004419  0.67747054  1
  Al0+  Al92  1  0.07368295  0.17711326  0.31909130  1
  Al0+  Al93  1  0.42889371  0.81898648  0.65265108  1
  Al0+  Al94  1  0.92648090  0.81877426  0.32057470  1
  Al0+  Al95  1  0.42880675  0.82037873  0.31892134  1
  Si0+  Si96  1  0.92941150  0.32132018  0.65141229  1
  Si0+  Si97  1  0.17979880  0.42885163  0.01673594  1
  Si0+  Si98  1  0.42833653  0.32479424  0.32030473  1
  Si0+  Si99  1  0.07345483  0.67831441  0.31758471  1
  Si0+  Si100  1  0.67792335  0.92560201  0.68048454  1
  Si0+  Si101  1  0.32005396  0.07083752  0.34674168  1
  Si0+  Si102  1  0.17944288  0.92750494  0.01892333  1
  Si0+  Si103  1  0.82376669  0.07061355  0.34684427  1
  Si0+  Si104  1  0.93024707  0.82394577  0.65205917  1
  Si0+  Si105  1  0.32015123  0.57329432  0.34814385  1
  Si0+  Si106  1  0.18130625  0.42819235  0.34887369  1
  Si0+  Si107  1  0.42538055  0.32070194  0.65049106  1
  Si0+  Si108  1  0.31865347  0.07217123  0.01678385  1
  Si0+  Si109  1  0.07279243  0.17827510  0.98032807  1
  Si0+  Si110  1  0.82420397  0.57318429  0.68386538  1
  Si0+  Si111  1  0.57062243  0.67677035  0.31739676  1
  Si0+  Si112  1  0.07468324  0.67838497  0.98262564  1
  Si0+  Si113  1  0.67654813  0.42909324  0.01604291  1
  Si0+  Si114  1  0.07109711  0.17911126  0.65299173  1
  Si0+  Si115  1  0.32194411  0.57123555  0.01761442  1
  Si0+  Si116  1  0.42438625  0.82232250  0.98343964  1
  Si0+  Si117  1  0.17489799  0.42758854  0.68405524  1
  Si0+  Si118  1  0.17897052  0.92858771  0.34652668  1
  Si0+  Si119  1  0.06953232  0.67873485  0.65264444  1
  O2-  O120  1  0.25047930  -0.00130956  0.06063731  1
  O2-  O121  1  0.24732748  0.00151728  0.38883096  1
  O2-  O122  1  0.25327164  -0.00260751  0.73174091  1
  O2-  O123  1  0.25279841  0.49807954  0.05958487  1
  O2-  O124  1  0.25160583  0.49980542  0.39086039  1
  O2-  O125  1  0.24682249  0.49228347  0.72877809  1
  O2-  O126  1  0.74894201  0.00203268  0.06524089  1
  O2-  O127  1  0.75325516  0.00496573  0.39308577  1
  O2-  O128  1  0.74663818  -0.00620091  0.72445455  1
  O2-  O129  1  0.74879234  0.49402474  0.05982431  1
  O2-  O130  1  0.75297358  0.49723402  0.39845079  1
  O2-  O131  1  0.75067582  0.51013595  0.72749079  1
  O2-  O132  1  -0.00052918  0.24645230  0.26915989  1
  O2-  O133  1  0.00124490  0.25053925  0.61031021  1
  O2-  O134  1  -0.00173538  0.24109426  0.93666361  1
  O2-  O135  1  -0.00243249  0.73904242  0.27459865  1
  O2-  O136  1  -0.00057337  0.75024217  0.61041576  1
  O2-  O137  1  0.00523542  0.74616938  0.93868359  1
  O2-  O138  1  0.50038871  0.25981015  0.27719617  1
  O2-  O139  1  0.49159286  0.25090933  0.60491430  1
  O2-  O140  1  0.50096246  0.25267221  0.93355227  1
  O2-  O141  1  0.50521830  0.74820562  0.27226825  1
  O2-  O142  1  0.50335930  0.75059287  0.60033773  1
  O2-  O143  1  0.49727035  0.75807774  0.94130339  1
  O2-  O144  1  0.07780397  0.18269964  0.08559406  1
  O2-  O145  1  0.07523213  0.17892246  0.43329406  1
  O2-  O146  1  0.07182767  0.18045216  0.75792199  1
  O2-  O147  1  0.08016492  0.68042137  0.08798137  1
  O2-  O148  1  0.07893751  0.68221406  0.42326598  1
  O2-  O149  1  0.06826413  0.67553480  0.75753840  1
  O2-  O150  1  0.56899059  0.17809423  0.09665059  1
  O2-  O151  1  0.56920287  0.17728891  0.43302928  1
  O2-  O152  1  0.57259543  0.18153002  0.76415457  1
  O2-  O153  1  0.56798370  0.68045772  0.10139873  1
  O2-  O154  1  0.56534334  0.67458184  0.42250674  1
  O2-  O155  1  0.57254416  0.67675094  0.76186541  1
  O2-  O156  1  0.18249842  0.42862823  0.24374871  1
  O2-  O157  1  0.17407252  0.42946935  0.57822378  1
  O2-  O158  1  0.17879168  0.43076911  0.91164290  1
  O2-  O159  1  0.18177506  0.92675942  0.24149711  1
  O2-  O160  1  0.17507858  0.93108620  0.56795605  1
  O2-  O161  1  0.18044962  0.92580657  0.91403955  1
  O2-  O162  1  0.67619959  0.42920094  0.23419385  1
  O2-  O163  1  0.68435084  0.42656920  0.56949740  1
  O2-  O164  1  0.67661418  0.43193544  0.91028158  1
  O2-  O165  1  0.67678180  0.92992427  0.23547110  1
  O2-  O166  1  0.67931844  0.92803015  0.57463546  1
  O2-  O167  1  0.68074610  0.92794967  0.89921568  1
  O2-  O168  1  0.42697917  0.31830916  0.09941962  1
  O2-  O169  1  0.42284803  0.32423621  0.42551151  1
  O2-  O170  1  0.42599719  0.31964797  0.75584765  1
  O2-  O171  1  0.42041375  0.81840702  0.08923858  1
  O2-  O172  1  0.42383811  0.81840024  0.43143852  1
  O2-  O173  1  0.42922326  0.81634012  0.76625547  1
  O2-  O174  1  0.93463883  0.32507549  0.09712979  1
  O2-  O175  1  0.93289048  0.31927734  0.43312648  1
  O2-  O176  1  0.93171186  0.32279525  0.75655478  1
  O2-  O177  1  0.92951614  0.81747610  0.09859557  1
  O2-  O178  1  0.93278587  0.82200184  0.43403839  1
  O2-  O179  1  0.93091756  0.82318765  0.75712224  1
  O2-  O180  1  0.31848093  0.07054963  0.24143841  1
  O2-  O181  1  0.31959441  0.07286787  0.56822642  1
  O2-  O182  1  0.31674177  0.07194746  0.91200101  1
  O2-  O183  1  0.31837852  0.57314045  0.24291216  1
  O2-  O184  1  0.31515955  0.56855187  0.56744602  1
  O2-  O185  1  0.31904043  0.57312255  0.91289045  1
  O2-  O186  1  0.82332726  0.06919509  0.24175074  1
  O2-  O187  1  0.82305428  0.06849094  0.56411524  1
  O2-  O188  1  0.82065278  0.07101858  0.90327280  1
  O2-  O189  1  0.81988162  0.57118518  0.23597183  1
  O2-  O190  1  0.83111285  0.56940328  0.57897964  1
  O2-  O191  1  0.82027110  0.56885030  0.89851598  1
  O2-  O192  1  0.05284148  0.07810855  0.26516090  1
  O2-  O193  1  0.04247696  0.08721686  0.60647364  1
  O2-  O194  1  0.05638469  0.08169895  0.93787720  1
  O2-  O195  1  0.05876921  0.58153713  0.27471166  1
  O2-  O196  1  0.04253394  0.58729570  0.60252720  1
  O2-  O197  1  0.05251849  0.58409589  0.93751604  1
  O2-  O198  1  0.53388689  0.08688646  0.26301133  1
  O2-  O199  1  0.54284620  0.08234966  0.59819294  1
  O2-  O200  1  0.53825667  0.08040712  0.93100783  1
  O2-  O201  1  0.54106572  0.58436440  0.27033958  1
  O2-  O202  1  0.53903557  0.57672001  0.59815525  1
  O2-  O203  1  0.53741617  0.58707670  0.93343575  1
  O2-  O204  1  0.17079823  0.21028448  0.26484714  1
  O2-  O205  1  0.16330916  0.20600605  0.60530793  1
  O2-  O206  1  0.16281739  0.21181651  0.93149481  1
  O2-  O207  1  0.16299590  0.71050689  0.26672970  1
  O2-  O208  1  0.16133566  0.70540931  0.60520233  1
  O2-  O209  1  0.16764294  0.70673423  0.93556212  1
  O2-  O210  1  0.66818611  0.20543379  0.26481608  1
  O2-  O211  1  0.66661674  0.21584507  0.59824793  1
  O2-  O212  1  0.66960304  0.20490813  0.92959183  1
  O2-  O213  1  0.66578459  0.70049467  0.27581713  1
  O2-  O214  1  0.67385701  0.69603105  0.59580453  1
  O2-  O215  1  0.66566059  0.71089988  0.93004564  1
  O2-  O216  1  0.09042578  0.46034448  0.06639112  1
  O2-  O217  1  0.09079723  0.45492295  0.39902570  1
  O2-  O218  1  0.08287256  0.45874921  0.73053098  1
  O2-  O219  1  0.08793103  0.95565409  0.06608160  1
  O2-  O220  1  0.08579690  0.95298786  0.39259456  1
  O2-  O221  1  0.08323610  0.96243577  0.73907727  1
  O2-  O222  1  0.58362183  0.45776726  0.06187484  1
  O2-  O223  1  0.58083508  0.45538863  0.40243744  1
  O2-  O224  1  0.58242622  0.45479342  0.73601417  1
  O2-  O225  1  0.57684068  0.95353371  0.06429773  1
  O2-  O226  1  0.57960775  0.96340843  0.40031528  1
  O2-  O227  1  0.58400282  0.94877940  0.72514205  1
  O2-  O228  1  0.20643820  0.33670283  0.06416913  1
  O2-  O229  1  0.20974856  0.33685038  0.39752654  1
  O2-  O230  1  0.19473351  0.33318990  0.73024793  1
  O2-  O231  1  0.20714424  0.83570460  0.06712124  1
  O2-  O232  1  0.20861936  0.83719219  0.39435093  1
  O2-  O233  1  0.20050953  0.82946290  0.73639785  1
  O2-  O234  1  0.69951256  0.33361083  0.05739894  1
  O2-  O235  1  0.70913668  0.32747754  0.39993877  1
  O2-  O236  1  0.71702828  0.33703951  0.73824348  1
  O2-  O237  1  0.70969311  0.83189286  0.06600129  1
  O2-  O238  1  0.70510512  0.83443395  0.40394678  1
  O2-  O239  1  0.70423211  0.83035640  0.72271482  1
  O2-  O240  1  0.44839794  0.42026892  0.27519657  1
  O2-  O241  1  0.45107462  0.41464926  0.60619946  1
  O2-  O242  1  0.45035799  0.42231489  0.93559376  1
  O2-  O243  1  0.45615499  0.91668727  0.26363849  1
  O2-  O244  1  0.45245864  0.91852637  0.59926587  1
  O2-  O245  1  0.44206316  0.91841976  0.94127460  1
  O2-  O246  1  0.96426328  0.41940219  0.26796421  1
  O2-  O247  1  0.95767279  0.41297308  0.60380968  1
  O2-  O248  1  0.96837375  0.41601050  0.92958898  1
  O2-  O249  1  0.96165428  0.91135475  0.26238711  1
  O2-  O250  1  0.96224640  0.91494369  0.60575594  1
  O2-  O251  1  0.96347206  0.91757767  0.93329364  1
  O2-  O252  1  0.33659582  0.29605263  0.27157130  1
  O2-  O253  1  0.32875376  0.30000520  0.60700664  1
  O2-  O254  1  0.32884028  0.29502232  0.93257307  1
  O2-  O255  1  0.33343749  0.78761977  0.26246641  1
  O2-  O256  1  0.32851122  0.78811603  0.60313586  1
  O2-  O257  1  0.33206051  0.79151943  0.93771184  1
  O2-  O258  1  0.83225945  0.29744592  0.26370738  1
  O2-  O259  1  0.83861728  0.29136501  0.60514394  1
  O2-  O260  1  0.83235534  0.29693627  0.92996644  1
  O2-  O261  1  0.82846497  0.78969009  0.26870985  1
  O2-  O262  1  0.83888523  0.79895034  0.60280902  1
  O2-  O263  1  0.83541136  0.78902627  0.92894146  1
  O2-  O264  1  0.41071676  0.04688592  0.06459652  1
  O2-  O265  1  0.41071208  0.04024263  0.39333799  1
  O2-  O266  1  0.42217249  0.04354062  0.73499979  1
  O2-  O267  1  0.41339840  0.54505814  0.06625363  1
  O2-  O268  1  0.41158931  0.54864482  0.39670569  1
  O2-  O269  1  0.41536831  0.53951866  0.73666232  1
  O2-  O270  1  0.92372140  0.04972607  0.06562291  1
  O2-  O271  1  0.91812403  0.04194602  0.39115078  1
  O2-  O272  1  0.91498264  0.04327291  0.73491826  1
  O2-  O273  1  0.92029082  0.54336105  0.06396693  1
  O2-  O274  1  0.92522050  0.54946643  0.39957962  1
  O2-  O275  1  0.91605020  0.54352257  0.73226169  1
  O2-  O276  1  0.28628408  0.16319658  0.06342772  1
  O2-  O277  1  0.29490690  0.16323603  0.39458401  1
  O2-  O278  1  0.29132155  0.16867344  0.73685074  1
  O2-  O279  1  0.29024469  0.66156445  0.06677768  1
  O2-  O280  1  0.28691382  0.66359808  0.39530820  1
  O2-  O281  1  0.28483508  0.66231432  0.73808584  1
  O2-  O282  1  0.79446481  0.17411053  0.06668018  1
  O2-  O283  1  0.80252498  0.16601223  0.39057786  1
  O2-  O284  1  0.78792245  0.16589830  0.73165912  1
  O2-  O285  1  0.78774377  0.66597556  0.06375462  1
  O2-  O286  1  0.79438829  0.66871387  0.40505442  1
  O2-  O287  1  0.80394689  0.67015875  0.72514622  1
