# generated using pymatgen
data_Ca2Al2SiO7
_symmetry_space_group_name_H-M   'P 1'
_cell_length_a   15.45318526
_cell_length_b   15.45345603
_cell_length_c   15.28020934
_cell_angle_alpha   90.00884351
_cell_angle_beta   89.99949364
_cell_angle_gamma   90.00059515
_symmetry_Int_Tables_number   1
_chemical_formula_structural   Ca2Al2SiO7
_chemical_formula_sum   'Ca48 Al48 Si24 O168'
_cell_volume   3648.99216495
_cell_formula_units_Z   24
loop_
 _symmetry_equiv_pos_site_id
 _symmetry_equiv_pos_as_xyz
  1  'x, y, z'
loop_
 _atom_type_symbol
 _atom_type_oxidation_number
  Ca2+  2.0
  Al0+  0.0
  Si0+  0.0
  O2-  -2.0
loop_
 _atom_site_type_symbol
 _atom_site_label
 _atom_site_symmetry_multiplicity
 _atom_site_fract_x
 _atom_site_fract_y
 _atom_site_fract_z
 _atom_site_occupancy
  Ca2+  Ca0  1  0.16336644  0.08246526  0.17070006  1
  Ca2+  Ca1  1  0.17153876  0.07836978  0.50992224  1
  Ca2+  Ca2  1  0.16972673  0.07249821  0.83607799  1
  Ca2+  Ca3  1  0.17157633  0.57741317  0.16373416  1
  Ca2+  Ca4  1  0.16174107  0.57906120  0.50730383  1
  Ca2+  Ca5  1  0.16807511  0.57539061  0.83745739  1
  Ca2+  Ca6  1  0.66347118  0.07997952  0.16962175  1
  Ca2+  Ca7  1  0.67087334  0.09022975  0.50750123  1
  Ca2+  Ca8  1  0.66818394  0.08302695  0.83196104  1
  Ca2+  Ca9  1  0.67337388  0.57214239  0.17575799  1
  Ca2+  Ca10  1  0.66933526  0.58328607  0.49542307  1
  Ca2+  Ca11  1  0.67578089  0.57635667  0.84628854  1
  Ca2+  Ca12  1  0.07494981  0.33545408  0.16076754  1
  Ca2+  Ca13  1  0.07354690  0.33116454  0.49478825  1
  Ca2+  Ca14  1  0.07321545  0.34549696  0.82845407  1
  Ca2+  Ca15  1  0.07580342  0.83520911  0.16313929  1
  Ca2+  Ca16  1  0.08267335  0.82946332  0.49659587  1
  Ca2+  Ca17  1  0.09379700  0.82632825  0.82740657  1
  Ca2+  Ca18  1  0.58780026  0.33315932  0.16090856  1
  Ca2+  Ca19  1  0.58759274  0.32188772  0.49396162  1
  Ca2+  Ca20  1  0.57768953  0.33438203  0.83060954  1
  Ca2+  Ca21  1  0.58216072  0.82761783  0.16404331  1
  Ca2+  Ca22  1  0.57001249  0.83128763  0.49109726  1
  Ca2+  Ca23  1  0.57872288  0.83440657  0.82779934  1
  Ca2+  Ca24  1  0.33492166  0.41620322  0.16541448  1
  Ca2+  Ca25  1  0.32334097  0.41820502  0.50746477  1
  Ca2+  Ca26  1  0.32200587  0.41793345  0.84449726  1
  Ca2+  Ca27  1  0.32729037  0.91366914  0.16961936  1
  Ca2+  Ca28  1  0.33304532  0.91885912  0.50969729  1
  Ca2+  Ca29  1  0.32790968  0.91761874  0.83248179  1
  Ca2+  Ca30  1  0.83145485  0.42154422  0.17220634  1
  Ca2+  Ca31  1  0.83354811  0.41265655  0.49928431  1
  Ca2+  Ca32  1  0.83183939  0.41849786  0.84245003  1
  Ca2+  Ca33  1  0.82717874  0.91353146  0.17217270  1
  Ca2+  Ca34  1  0.83483829  0.92402984  0.50465625  1
  Ca2+  Ca35  1  0.82903138  0.92741041  0.83962702  1
  Ca2+  Ca36  1  0.42420645  0.17489356  0.16233687  1
  Ca2+  Ca37  1  0.42719014  0.15915993  0.49713252  1
  Ca2+  Ca38  1  0.42085382  0.16772378  0.82867387  1
  Ca2+  Ca39  1  0.42093401  0.66398661  0.16447671  1
  Ca2+  Ca40  1  0.41828150  0.68030618  0.49280516  1
  Ca2+  Ca41  1  0.41313780  0.67022313  0.82893280  1
  Ca2+  Ca42  1  0.92032166  0.17961647  0.16518136  1
  Ca2+  Ca43  1  0.91847976  0.17586515  0.49385373  1
  Ca2+  Ca44  1  0.91252575  0.17938860  0.82730420  1
  Ca2+  Ca45  1  0.90655219  0.66706712  0.16540665  1
  Ca2+  Ca46  1  0.92073979  0.67077318  0.49466812  1
  Ca2+  Ca47  1  0.92253452  0.66503104  0.82882146  1
  Al0+  Al48  1  -0.00008999  0.00052844  0.00269866  1
  Al0+  Al49  1  -0.00016546  -0.00170595  0.32680719  1
  Al0+  Al50  1  -0.00144089  0.00115059  0.67813283  1
  Al0+  Al51  1  0.00178997  0.50195442  0.00384495  1
  Al0+  Al52  1  -0.00000355  0.50133238  0.33390452  1
  Al0+  Al53  1  -0.00128607  0.50182927  0.66040986  1
  Al0+  Al54  1  0.49998034  -0.00073505  0.00297770  1
  Al0+  Al55  1  0.49800769  0.00037681  0.32369272  1
  Al0+  Al56  1  0.50014407  -0.00015006  0.66287831  1
  Al0+  Al57  1  0.50103910  0.49986347  -0.00005189  1
  Al0+  Al58  1  0.49936251  0.50037284  0.33868884  1
  Al0+  Al59  1  0.50066437  0.49944242  0.66498440  1
  Al0+  Al60  1  0.25076900  0.24806168  -0.00066154  1
  Al0+  Al61  1  0.25135421  0.24758017  0.33294451  1
  Al0+  Al62  1  0.24845560  0.25015397  0.67677221  1
  Al0+  Al63  1  0.24988887  0.75118198  0.00831052  1
  Al0+  Al64  1  0.24844019  0.75016158  0.33000967  1
  Al0+  Al65  1  0.25074407  0.74844085  0.65919683  1
  Al0+  Al66  1  0.75226719  0.24806005  -0.00195048  1
  Al0+  Al67  1  0.75016669  0.24926228  0.32732052  1
  Al0+  Al68  1  0.74918721  0.25113280  0.66439358  1
  Al0+  Al69  1  0.74944287  0.75216680  0.00327859  1
  Al0+  Al70  1  0.74887983  0.74920416  0.33305387  1
  Al0+  Al71  1  0.75082704  0.74913824  0.66708716  1
  Al0+  Al72  1  0.07337955  0.17804418  0.32029150  1
  Al0+  Al73  1  0.67966066  0.42686180  0.01302130  1
  Al0+  Al74  1  0.82171591  0.57206084  0.35244447  1
  Al0+  Al75  1  0.57006841  0.67812091  0.31753306  1
  Al0+  Al76  1  0.82247320  0.57151112  0.01402246  1
  Al0+  Al77  1  0.17705537  0.43038821  0.67871606  1
  Al0+  Al78  1  0.93195824  0.32145804  0.98493112  1
  Al0+  Al79  1  0.32420648  0.07117433  0.68213247  1
  Al0+  Al80  1  0.17946086  0.92970605  0.01615497  1
  Al0+  Al81  1  0.56820390  0.18177347  0.65420295  1
  Al0+  Al82  1  0.42984453  0.32204498  0.98570680  1
  Al0+  Al83  1  0.92953451  0.81998052  0.32092749  1
  Al0+  Al84  1  0.93029303  0.32196992  0.31669923  1
  Al0+  Al85  1  0.17895028  0.92669994  0.68004176  1
  Al0+  Al86  1  0.06959952  0.68106226  0.65409804  1
  Al0+  Al87  1  0.57142544  0.18005412  0.31829141  1
  Al0+  Al88  1  0.42713661  0.82142937  0.31426088  1
  Al0+  Al89  1  0.43100917  0.81867259  0.65445983  1
  Al0+  Al90  1  0.67841981  0.42652264  0.35120324  1
  Al0+  Al91  1  0.82038063  0.07328132  0.67930198  1
  Al0+  Al92  1  0.17895442  0.42695914  0.01604235  1
  Al0+  Al93  1  0.67843619  0.93066363  0.01375139  1
  Al0+  Al94  1  0.32193703  0.57141923  0.01436135  1
  Al0+  Al95  1  0.92984279  0.32056430  0.65239556  1
  Si0+  Si96  1  0.07278920  0.17557175  0.65403533  1
  Si0+  Si97  1  0.32312608  0.57090068  0.68048290  1
  Si0+  Si98  1  0.32004642  0.57245542  0.35060193  1
  Si0+  Si99  1  0.42824232  0.82056961  0.98433314  1
  Si0+  Si100  1  0.17993518  0.42798762  0.34844143  1
  Si0+  Si101  1  0.67672120  0.92965308  0.34831994  1
  Si0+  Si102  1  0.07270010  0.17570653  0.98043797  1
  Si0+  Si103  1  0.42695808  0.32258766  0.31974140  1
  Si0+  Si104  1  0.67863358  0.92696743  0.68017596  1
  Si0+  Si105  1  0.57568993  0.67522684  0.65053170  1
  Si0+  Si106  1  0.82073204  0.06885404  0.34637072  1
  Si0+  Si107  1  0.32135674  0.07017516  0.34765309  1
  Si0+  Si108  1  0.57182761  0.17604476  0.98181242  1
  Si0+  Si109  1  0.82019737  0.57179114  0.68126298  1
  Si0+  Si110  1  0.67907551  0.42872175  0.68156241  1
  Si0+  Si111  1  0.07149044  0.68278498  0.98635188  1
  Si0+  Si112  1  0.57181020  0.68006647  0.98441385  1
  Si0+  Si113  1  0.82222991  0.07213564  0.01939271  1
  Si0+  Si114  1  0.17772672  0.92931776  0.34853244  1
  Si0+  Si115  1  0.92603141  0.82482684  0.65350474  1
  Si0+  Si116  1  0.42428557  0.32333325  0.65083570  1
  Si0+  Si117  1  0.92684042  0.82258314  0.98368935  1
  Si0+  Si118  1  0.32278995  0.07156121  0.01922156  1
  Si0+  Si119  1  0.07229047  0.67714604  0.31384499  1
  O2-  O120  1  0.25152946  0.00595483  0.06408512  1
  O2-  O121  1  0.24989451  -0.00070939  0.38998486  1
  O2-  O122  1  0.24985451  0.00003858  0.73030893  1
  O2-  O123  1  0.25518808  0.49491381  0.06568122  1
  O2-  O124  1  0.24944378  0.50043027  0.39192648  1
  O2-  O125  1  0.25741022  0.49987003  0.72459802  1
  O2-  O126  1  0.75270661  0.00404200  0.06297195  1
  O2-  O127  1  0.74724352  0.00092163  0.39094835  1
  O2-  O128  1  0.74842649  -0.00553867  0.72444472  1
  O2-  O129  1  0.75265804  0.49734312  0.06293443  1
  O2-  O130  1  0.75166494  0.49750753  0.40235714  1
  O2-  O131  1  0.74638221  0.50371127  0.72272822  1
  O2-  O132  1  0.00596522  0.25279941  0.26837167  1
  O2-  O133  1  0.00559646  0.24490425  0.60862673  1
  O2-  O134  1  0.00817130  0.24838449  0.93635694  1
  O2-  O135  1  0.00027829  0.74295430  0.27126771  1
  O2-  O136  1  -0.00195027  0.75996765  0.60926711  1
  O2-  O137  1  -0.00100608  0.75236819  0.94260753  1
  O2-  O138  1  0.50053472  0.25960825  0.27494617  1
  O2-  O139  1  0.49065574  0.25309621  0.60586727  1
  O2-  O140  1  0.50574865  0.24786999  0.93887948  1
  O2-  O141  1  0.49826377  0.74876420  0.26452067  1
  O2-  O142  1  0.50659040  0.74436060  0.60845631  1
  O2-  O143  1  0.49918225  0.74970493  0.94139291  1
  O2-  O144  1  0.06931155  0.17402113  0.08599179  1
  O2-  O145  1  0.07323143  0.17726260  0.43431152  1
  O2-  O146  1  0.07031219  0.17512181  0.75941972  1
  O2-  O147  1  0.07221938  0.68532333  0.09119306  1
  O2-  O148  1  0.07478899  0.67987861  0.41981668  1
  O2-  O149  1  0.06832800  0.67954653  0.76755545  1
  O2-  O150  1  0.56927572  0.17401341  0.08732272  1
  O2-  O151  1  0.56959150  0.17681282  0.43158444  1
  O2-  O152  1  0.56939210  0.18384228  0.76725771  1
  O2-  O153  1  0.57190434  0.68186381  0.08888671  1
  O2-  O154  1  0.56692857  0.68255899  0.43175069  1
  O2-  O155  1  0.57710810  0.67514262  0.75638375  1
  O2-  O156  1  0.18229590  0.42822007  0.24375046  1
  O2-  O157  1  0.17780013  0.43242484  0.56496545  1
  O2-  O158  1  0.17674681  0.43302342  0.90237738  1
  O2-  O159  1  0.17784931  0.93039007  0.24342655  1
  O2-  O160  1  0.17902734  0.92788342  0.56605533  1
  O2-  O161  1  0.18308946  0.92684742  0.90321083  1
  O2-  O162  1  0.67864924  0.42698805  0.23792870  1
  O2-  O163  1  0.67908213  0.42726103  0.57691628  1
  O2-  O164  1  0.68003079  0.43029801  0.89845036  1
  O2-  O165  1  0.67833747  0.93091114  0.24304440  1
  O2-  O166  1  0.67972399  0.92620738  0.57461807  1
  O2-  O167  1  0.67918302  0.93116121  0.90011315  1
  O2-  O168  1  0.43091585  0.31892261  0.09906908  1
  O2-  O169  1  0.42258184  0.31808763  0.42535178  1
  O2-  O170  1  0.42828571  0.32621438  0.75618360  1
  O2-  O171  1  0.42933157  0.82036523  0.08893075  1
  O2-  O172  1  0.42710865  0.82222433  0.42822884  1
  O2-  O173  1  0.43167074  0.81701384  0.76815981  1
  O2-  O174  1  0.93210499  0.31977301  0.09748024  1
  O2-  O175  1  0.93128886  0.31863328  0.43070016  1
  O2-  O176  1  0.92866966  0.32251937  0.76560497  1
  O2-  O177  1  0.92693181  0.82248426  0.08878598  1
  O2-  O178  1  0.93427618  0.82406988  0.43429655  1
  O2-  O179  1  0.92115861  0.82060567  0.75892659  1
  O2-  O180  1  0.32052708  0.07082726  0.24273470  1
  O2-  O181  1  0.32470289  0.06851356  0.56795978  1
  O2-  O182  1  0.32507225  0.06820043  0.91367100  1
  O2-  O183  1  0.31980609  0.57218961  0.24575132  1
  O2-  O184  1  0.32254003  0.57001101  0.57467501  1
  O2-  O185  1  0.31753863  0.57504709  0.90041635  1
  O2-  O186  1  0.82012388  0.06557303  0.24140677  1
  O2-  O187  1  0.81953685  0.07243295  0.56572484  1
  O2-  O188  1  0.82138928  0.07119562  0.91337728  1
  O2-  O189  1  0.81962972  0.57185100  0.23920585  1
  O2-  O190  1  0.81973916  0.57460398  0.57678091  1
  O2-  O191  1  0.82100605  0.57264494  0.89936078  1
  O2-  O192  1  0.04205805  0.08193609  0.26446549  1
  O2-  O193  1  0.04672902  0.08100583  0.60959564  1
  O2-  O194  1  0.04276900  0.08246301  0.93462603  1
  O2-  O195  1  0.05134083  0.58237458  0.26974139  1
  O2-  O196  1  0.03415581  0.58862070  0.59518976  1
  O2-  O197  1  0.04559051  0.59035582  0.93950897  1
  O2-  O198  1  0.53653697  0.08657831  0.26104462  1
  O2-  O199  1  0.54275503  0.08410063  0.59899262  1
  O2-  O200  1  0.54148924  0.08321924  0.93544410  1
  O2-  O201  1  0.54093326  0.57846628  0.26787540  1
  O2-  O202  1  0.55082451  0.58168194  0.60373717  1
  O2-  O203  1  0.54617782  0.58823101  0.93606905  1
  O2-  O204  1  0.17305162  0.20158229  0.26710874  1
  O2-  O205  1  0.16832871  0.19897494  0.61059995  1
  O2-  O206  1  0.16931842  0.19355793  0.93811897  1
  O2-  O207  1  0.16396351  0.70623653  0.26640836  1
  O2-  O208  1  0.16559218  0.70671645  0.59591183  1
  O2-  O209  1  0.16294018  0.71422467  0.93955727  1
  O2-  O210  1  0.66791948  0.20450174  0.26214194  1
  O2-  O211  1  0.66299290  0.21567514  0.59851030  1
  O2-  O212  1  0.66748711  0.19629866  0.93808318  1
  O2-  O213  1  0.66794832  0.70720409  0.26555984  1
  O2-  O214  1  0.66909802  0.70102286  0.60398108  1
  O2-  O215  1  0.66274011  0.71170267  0.93610939  1
  O2-  O216  1  0.08446649  0.46257381  0.07136925  1
  O2-  O217  1  0.08805536  0.45553612  0.39542393  1
  O2-  O218  1  0.08210816  0.46894036  0.73115736  1
  O2-  O219  1  0.08128614  0.95803594  0.06869755  1
  O2-  O220  1  0.08566407  0.95742654  0.39499610  1
  O2-  O221  1  0.08076731  0.94997782  0.73646581  1
  O2-  O222  1  0.58176673  0.45517470  0.06515465  1
  O2-  O223  1  0.57913496  0.45396326  0.40514589  1
  O2-  O224  1  0.58509205  0.45324208  0.72773606  1
  O2-  O225  1  0.58235084  0.95988730  0.06949203  1
  O2-  O226  1  0.58318888  0.95825072  0.39176606  1
  O2-  O227  1  0.58619876  0.95470657  0.72669800  1
  O2-  O228  1  0.20261837  0.32615349  0.06574147  1
  O2-  O229  1  0.20938556  0.33616322  0.39582273  1
  O2-  O230  1  0.19954071  0.33362834  0.73546607  1
  O2-  O231  1  0.21160360  0.83589334  0.07363356  1
  O2-  O232  1  0.20421041  0.83590946  0.39391651  1
  O2-  O233  1  0.21194197  0.82804012  0.73071875  1
  O2-  O234  1  0.70452785  0.32652454  0.06257655  1
  O2-  O235  1  0.70837982  0.32608067  0.40099543  1
  O2-  O236  1  0.71005385  0.33917720  0.73006845  1
  O2-  O237  1  0.70985396  0.83550316  0.06925295  1
  O2-  O238  1  0.70381226  0.83830757  0.39591047  1
  O2-  O239  1  0.70193307  0.83285794  0.72780788  1
  O2-  O240  1  0.44554690  0.41878366  0.27763421  1
  O2-  O241  1  0.45070681  0.41673797  0.60345226  1
  O2-  O242  1  0.45848288  0.41910575  0.93020766  1
  O2-  O243  1  0.45505386  0.91841188  0.25942233  1
  O2-  O244  1  0.46141880  0.91426414  0.59835053  1
  O2-  O245  1  0.45736955  0.91277969  0.93804441  1
  O2-  O246  1  0.95700346  0.42181540  0.26689727  1
  O2-  O247  1  0.96071489  0.41583472  0.59656197  1
  O2-  O248  1  0.96176987  0.42036550  0.93337998  1
  O2-  O249  1  0.96213221  0.91325158  0.26153646  1
  O2-  O250  1  0.94766086  0.92093519  0.61132382  1
  O2-  O251  1  0.95374849  0.91572803  0.93824215  1
  O2-  O252  1  0.33660794  0.29138922  0.27008135  1
  O2-  O253  1  0.32833579  0.30071854  0.60858849  1
  O2-  O254  1  0.33255727  0.29068107  0.93222173  1
  O2-  O255  1  0.32802465  0.79264906  0.26340268  1
  O2-  O256  1  0.33680026  0.78764580  0.59581905  1
  O2-  O257  1  0.33572190  0.79146583  0.93920170  1
  O2-  O258  1  0.83415419  0.28959457  0.26312065  1
  O2-  O259  1  0.83427950  0.28774038  0.59829902  1
  O2-  O260  1  0.83516395  0.28823528  0.93070512  1
  O2-  O261  1  0.83167875  0.79343854  0.26785676  1
  O2-  O262  1  0.83401058  0.79637647  0.60446554  1
  O2-  O263  1  0.83510622  0.79503340  0.93573411  1
  O2-  O264  1  0.41503159  0.04304609  0.06626726  1
  O2-  O265  1  0.41360922  0.04009855  0.39329155  1
  O2-  O266  1  0.42181115  0.03947100  0.73537580  1
  O2-  O267  1  0.42130273  0.54659579  0.06593566  1
  O2-  O268  1  0.41118829  0.54747780  0.40034813  1
  O2-  O269  1  0.41863977  0.55052739  0.72614445  1
  O2-  O270  1  0.91518722  0.04544225  0.06509483  1
  O2-  O271  1  0.91209785  0.03732463  0.39316792  1
  O2-  O272  1  0.91465245  0.04675491  0.73973425  1
  O2-  O273  1  0.92107484  0.54880068  0.06729153  1
  O2-  O274  1  0.92288073  0.54755973  0.40311462  1
  O2-  O275  1  0.91123123  0.54110985  0.72734889  1
  O2-  O276  1  0.29991866  0.16579808  0.06450296  1
  O2-  O277  1  0.29630684  0.16192814  0.39718976  1
  O2-  O278  1  0.29948031  0.16939372  0.73713694  1
  O2-  O279  1  0.28926802  0.66645982  0.07147720  1
  O2-  O280  1  0.28906461  0.66449950  0.39691363  1
  O2-  O281  1  0.29477367  0.66386057  0.72524680  1
  O2-  O282  1  0.79675867  0.16522458  0.06518421  1
  O2-  O283  1  0.79467802  0.16158713  0.39190401  1
  O2-  O284  1  0.78327197  0.16736666  0.73468071  1
  O2-  O285  1  0.79251840  0.66976591  0.06555636  1
  O2-  O286  1  0.79081651  0.67100666  0.40521667  1
  O2-  O287  1  0.79606191  0.66449137  0.73053667  1
