# generated using pymatgen
data_Ca2Al2SiO7
_symmetry_space_group_name_H-M   'P 1'
_cell_length_a   15.46380038
_cell_length_b   15.46485270
_cell_length_c   15.28715553
_cell_angle_alpha   90.01291244
_cell_angle_beta   89.99475514
_cell_angle_gamma   90.00898870
_symmetry_Int_Tables_number   1
_chemical_formula_structural   Ca2Al2SiO7
_chemical_formula_sum   'Ca48 Al48 Si24 O168'
_cell_volume   3655.85269431
_cell_formula_units_Z   24
loop_
 _symmetry_equiv_pos_site_id
 _symmetry_equiv_pos_as_xyz
  1  'x, y, z'
loop_
 _atom_type_symbol
 _atom_type_oxidation_number
  Ca2+  2.0
  Al0+  0.0
  Si0+  0.0
  O2-  -2.0
loop_
 _atom_site_type_symbol
 _atom_site_label
 _atom_site_symmetry_multiplicity
 _atom_site_fract_x
 _atom_site_fract_y
 _atom_site_fract_z
 _atom_site_occupancy
  Ca2+  Ca0  1  0.17109529  0.07603855  0.16908454  1
  Ca2+  Ca1  1  0.16363935  0.07362294  0.50023065  1
  Ca2+  Ca2  1  0.17260481  0.06889634  0.84016255  1
  Ca2+  Ca3  1  0.17324834  0.57860219  0.16460591  1
  Ca2+  Ca4  1  0.17471232  0.58659125  0.50889077  1
  Ca2+  Ca5  1  0.17862344  0.58537104  0.83857901  1
  Ca2+  Ca6  1  0.66778576  0.07802958  0.16420083  1
  Ca2+  Ca7  1  0.67394286  0.07448002  0.51070470  1
  Ca2+  Ca8  1  0.67355592  0.07354607  0.83879082  1
  Ca2+  Ca9  1  0.66538774  0.58027196  0.17390675  1
  Ca2+  Ca10  1  0.66688840  0.59173280  0.49920863  1
  Ca2+  Ca11  1  0.66008650  0.57949630  0.83757763  1
  Ca2+  Ca12  1  0.08155939  0.33025142  0.16245308  1
  Ca2+  Ca13  1  0.07635739  0.32251271  0.48727741  1
  Ca2+  Ca14  1  0.08652568  0.33300252  0.83192090  1
  Ca2+  Ca15  1  0.07945666  0.84369584  0.16488752  1
  Ca2+  Ca16  1  0.08227512  0.83350454  0.49629593  1
  Ca2+  Ca17  1  0.08991386  0.83197354  0.82697994  1
  Ca2+  Ca18  1  0.57428710  0.33557193  0.15978755  1
  Ca2+  Ca19  1  0.57684050  0.32991603  0.49352618  1
  Ca2+  Ca20  1  0.58006002  0.33522379  0.83529303  1
  Ca2+  Ca21  1  0.57564845  0.82974333  0.15918276  1
  Ca2+  Ca22  1  0.57648108  0.82830988  0.49272551  1
  Ca2+  Ca23  1  0.57362305  0.83705927  0.82664930  1
  Ca2+  Ca24  1  0.33945574  0.41969347  0.16868364  1
  Ca2+  Ca25  1  0.33586420  0.42293176  0.50460690  1
  Ca2+  Ca26  1  0.33264189  0.43110263  0.84452932  1
  Ca2+  Ca27  1  0.32599209  0.90991684  0.17039542  1
  Ca2+  Ca28  1  0.32447301  0.90235429  0.50296649  1
  Ca2+  Ca29  1  0.32795470  0.91241886  0.84218126  1
  Ca2+  Ca30  1  0.82838405  0.42133634  0.17318647  1
  Ca2+  Ca31  1  0.83806220  0.42193238  0.49827495  1
  Ca2+  Ca32  1  0.82448841  0.42061738  0.84183414  1
  Ca2+  Ca33  1  0.83007979  0.91632666  0.16942845  1
  Ca2+  Ca34  1  0.82929463  0.91799138  0.50724204  1
  Ca2+  Ca35  1  0.82192243  0.92373274  0.83832432  1
  Ca2+  Ca36  1  0.40898319  0.17686292  0.15861703  1
  Ca2+  Ca37  1  0.41704939  0.17354053  0.49262879  1
  Ca2+  Ca38  1  0.40514653  0.17340887  0.83699533  1
  Ca2+  Ca39  1  0.41604653  0.67558730  0.16318970  1
  Ca2+  Ca40  1  0.42439361  0.67497630  0.50074668  1
  Ca2+  Ca41  1  0.41540917  0.67488729  0.82652688  1
  Ca2+  Ca42  1  0.92319569  0.16289254  0.16346689  1
  Ca2+  Ca43  1  0.92024335  0.16815656  0.49081963  1
  Ca2+  Ca44  1  0.91106261  0.16228724  0.83094214  1
  Ca2+  Ca45  1  0.91427436  0.67051033  0.16797750  1
  Ca2+  Ca46  1  0.92313645  0.67065358  0.49080596  1
  Ca2+  Ca47  1  0.92827128  0.66851839  0.82683181  1
  Al0+  Al48  1  -0.00019605  0.00126665  0.00245378  1
  Al0+  Al49  1  0.00108928  -0.00120685  0.33027555  1
  Al0+  Al50  1  0.00183490  0.00137355  0.67402477  1
  Al0+  Al51  1  0.00053886  0.50009998  0.00071746  1
  Al0+  Al52  1  -0.00074515  0.49893737  0.33389436  1
  Al0+  Al53  1  -0.00039952  0.49882402  0.66240445  1
  Al0+  Al54  1  0.50134299  0.00191281  0.00267344  1
  Al0+  Al55  1  0.49875711  0.00020896  0.33171761  1
  Al0+  Al56  1  0.49753973  0.00407528  0.66474161  1
  Al0+  Al57  1  0.50023185  0.50018244  0.00415383  1
  Al0+  Al58  1  0.50081211  0.49893012  0.33006481  1
  Al0+  Al59  1  0.49983045  0.50191907  0.66667479  1
  Al0+  Al60  1  0.24678301  0.24892638  -0.00184928  1
  Al0+  Al61  1  0.24963506  0.24860333  0.32764135  1
  Al0+  Al62  1  0.24696653  0.24952467  0.66349398  1
  Al0+  Al63  1  0.24942541  0.74792373  0.00532456  1
  Al0+  Al64  1  0.25019413  0.74715067  0.33542550  1
  Al0+  Al65  1  0.25007498  0.74774641  0.66669765  1
  Al0+  Al66  1  0.75064022  0.25189930  0.00714124  1
  Al0+  Al67  1  0.74910527  0.25061354  0.33172817  1
  Al0+  Al68  1  0.74927390  0.25210644  0.66824663  1
  Al0+  Al69  1  0.75158674  0.75093177  -0.00064325  1
  Al0+  Al70  1  0.75208558  0.74802013  0.33071452  1
  Al0+  Al71  1  0.75079038  0.74930591  0.67040119  1
  Al0+  Al72  1  0.42802388  0.32097211  0.98441015  1
  Al0+  Al73  1  0.92779715  0.32226290  0.31633198  1
  Al0+  Al74  1  0.32078714  0.56864124  0.67950126  1
  Al0+  Al75  1  0.42887219  0.82124457  0.98658793  1
  Al0+  Al76  1  0.67572499  0.92683051  0.67989278  1
  Al0+  Al77  1  0.18264118  0.92945437  0.67923818  1
  Al0+  Al78  1  0.17776756  0.42849407  0.01412783  1
  Al0+  Al79  1  0.17976247  0.92868739  0.34920203  1
  Al0+  Al80  1  0.82059027  0.07115233  0.01754699  1
  Al0+  Al81  1  0.57173432  0.68040443  0.31716977  1
  Al0+  Al82  1  0.93075169  0.81975629  0.32090291  1
  Al0+  Al83  1  0.82104838  0.57072265  0.34807482  1
  Al0+  Al84  1  0.32192380  0.07162727  0.01402550  1
  Al0+  Al85  1  0.43025572  0.31914247  0.32041229  1
  Al0+  Al86  1  0.07072472  0.67834016  0.65337268  1
  Al0+  Al87  1  0.42718828  0.82095604  0.31700289  1
  Al0+  Al88  1  0.06976111  0.17765602  0.31586191  1
  Al0+  Al89  1  0.67920073  0.43116801  0.01406828  1
  Al0+  Al90  1  0.42863756  0.82426553  0.65281425  1
  Al0+  Al91  1  0.18046284  0.92718727  0.01590496  1
  Al0+  Al92  1  0.67799331  0.92725446  0.01659337  1
  Al0+  Al93  1  0.82090987  0.07229580  0.68001176  1
  Al0+  Al94  1  0.57299249  0.67801966  0.65275330  1
  Al0+  Al95  1  0.32202299  0.57057560  0.01762399  1
  Si0+  Si96  1  0.32215860  0.07319487  0.35085078  1
  Si0+  Si97  1  0.57455843  0.18003397  0.98239402  1
  Si0+  Si98  1  0.82033423  0.07047350  0.34755604  1
  Si0+  Si99  1  0.67863390  0.92830548  0.34774118  1
  Si0+  Si100  1  0.57361534  0.67870627  0.98379722  1
  Si0+  Si101  1  0.92648236  0.32078966  0.65169020  1
  Si0+  Si102  1  0.42871979  0.32106999  0.65349889  1
  Si0+  Si103  1  0.57285513  0.18139942  0.65244633  1
  Si0+  Si104  1  0.82370003  0.57245745  0.01522008  1
  Si0+  Si105  1  0.92978719  0.82293768  0.65304631  1
  Si0+  Si106  1  0.82441228  0.57086093  0.68145285  1
  Si0+  Si107  1  0.32184780  0.56854552  0.35103890  1
  Si0+  Si108  1  0.06942829  0.17799567  0.98055816  1
  Si0+  Si109  1  0.32179311  0.07807029  0.68191210  1
  Si0+  Si110  1  0.17653159  0.42634791  0.68065626  1
  Si0+  Si111  1  0.92906369  0.32171474  0.98342655  1
  Si0+  Si112  1  0.17915215  0.42699925  0.34864008  1
  Si0+  Si113  1  0.67964923  0.43039262  0.68056136  1
  Si0+  Si114  1  0.06909224  0.67853486  0.98564513  1
  Si0+  Si115  1  0.06974242  0.17893165  0.65168351  1
  Si0+  Si116  1  0.57317456  0.17609252  0.31660798  1
  Si0+  Si117  1  0.67723288  0.42805115  0.35233791  1
  Si0+  Si118  1  0.92923194  0.82341663  0.98276596  1
  Si0+  Si119  1  0.07343382  0.67592819  0.31603492  1
  O2-  O120  1  0.25611606  -0.00473184  0.06561866  1
  O2-  O121  1  0.25752883  0.00107588  0.39598876  1
  O2-  O122  1  0.26116023  0.00136239  0.72335363  1
  O2-  O123  1  0.25387622  0.49381434  0.06677576  1
  O2-  O124  1  0.24897831  0.49814202  0.39272492  1
  O2-  O125  1  0.24483842  0.49427044  0.72480044  1
  O2-  O126  1  0.75085642  -0.00218888  0.06808632  1
  O2-  O127  1  0.74809590  0.00126013  0.39040215  1
  O2-  O128  1  0.74919094  -0.00084936  0.72780993  1
  O2-  O129  1  0.75090353  0.50879537  0.05929156  1
  O2-  O130  1  0.74699017  0.49556374  0.39674185  1
  O2-  O131  1  0.74890533  0.50379949  0.72250548  1
  O2-  O132  1  -0.00164194  0.25022106  0.26506531  1
  O2-  O133  1  -0.00294664  0.24895901  0.61042977  1
  O2-  O134  1  -0.00161731  0.25031919  0.93872241  1
  O2-  O135  1  0.00673682  0.74674351  0.27247853  1
  O2-  O136  1  -0.00414971  0.75281895  0.60696818  1
  O2-  O137  1  0.00131445  0.75256673  0.94232186  1
  O2-  O138  1  0.50292285  0.24320770  0.27344931  1
  O2-  O139  1  0.49756299  0.24841411  0.61038556  1
  O2-  O140  1  0.50196909  0.24506727  0.93687281  1
  O2-  O141  1  0.50142934  0.75240171  0.26611225  1
  O2-  O142  1  0.50716233  0.75709571  0.60483358  1
  O2-  O143  1  0.50630826  0.74861984  0.94000414  1
  O2-  O144  1  0.06795850  0.17741606  0.08511944  1
  O2-  O145  1  0.06734421  0.17873358  0.43064148  1
  O2-  O146  1  0.07209825  0.18161276  0.75646535  1
  O2-  O147  1  0.06519290  0.67494868  0.09044975  1
  O2-  O148  1  0.07215973  0.67567337  0.42204313  1
  O2-  O149  1  0.06885111  0.67662877  0.76666933  1
  O2-  O150  1  0.57668424  0.18425000  0.08790435  1
  O2-  O151  1  0.57380319  0.17810402  0.42302572  1
  O2-  O152  1  0.57741436  0.18527545  0.75675891  1
  O2-  O153  1  0.57540714  0.67938288  0.08915055  1
  O2-  O154  1  0.57087755  0.68217937  0.43093049  1
  O2-  O155  1  0.56854747  0.67127274  0.76583207  1
  O2-  O156  1  0.17959398  0.42841219  0.24408815  1
  O2-  O157  1  0.17791024  0.42417682  0.57487792  1
  O2-  O158  1  0.17571106  0.43357292  0.89998058  1
  O2-  O159  1  0.17924221  0.93057166  0.23682233  1
  O2-  O160  1  0.17881584  0.93231123  0.56614933  1
  O2-  O161  1  0.17939119  0.92795947  0.90188770  1
  O2-  O162  1  0.67669306  0.42890782  0.24712952  1
  O2-  O163  1  0.68066076  0.42602665  0.57589449  1
  O2-  O164  1  0.68142060  0.43103359  0.89987962  1
  O2-  O165  1  0.68004901  0.92963997  0.24306313  1
  O2-  O166  1  0.67914847  0.92983959  0.56550607  1
  O2-  O167  1  0.68014213  0.92790754  0.90290897  1
  O2-  O168  1  0.43063467  0.32010106  0.09721524  1
  O2-  O169  1  0.43177316  0.31874149  0.43474389  1
  O2-  O170  1  0.42926209  0.32092207  0.75815814  1
  O2-  O171  1  0.42855912  0.81730825  0.09934243  1
  O2-  O172  1  0.42800112  0.81880119  0.43068075  1
  O2-  O173  1  0.42718584  0.82146387  0.76646885  1
  O2-  O174  1  0.93084747  0.32312929  0.08774578  1
  O2-  O175  1  0.92964294  0.31963125  0.43101995  1
  O2-  O176  1  0.92568307  0.32303262  0.75679837  1
  O2-  O177  1  0.92837808  0.82214810  0.08792302  1
  O2-  O178  1  0.93065080  0.81969230  0.43447511  1
  O2-  O179  1  0.93170157  0.82075104  0.75877786  1
  O2-  O180  1  0.32066185  0.07612769  0.24604700  1
  O2-  O181  1  0.31668122  0.08909991  0.57701713  1
  O2-  O182  1  0.31594263  0.07258193  0.89990098  1
  O2-  O183  1  0.32109229  0.56769600  0.24636951  1
  O2-  O184  1  0.32067948  0.56475309  0.56601583  1
  O2-  O185  1  0.31993405  0.57151488  0.90372676  1
  O2-  O186  1  0.81922469  0.06977970  0.24294944  1
  O2-  O187  1  0.82023539  0.07380304  0.56590058  1
  O2-  O188  1  0.81855734  0.07054555  0.90369790  1
  O2-  O189  1  0.82010232  0.56929792  0.23508443  1
  O2-  O190  1  0.82802200  0.56773547  0.57684171  1
  O2-  O191  1  0.82625990  0.56881491  0.90903815  1
  O2-  O192  1  0.03961911  0.08097091  0.26240203  1
  O2-  O193  1  0.04225606  0.08669012  0.60529587  1
  O2-  O194  1  0.03893212  0.08673511  0.93267645  1
  O2-  O195  1  0.04492736  0.58340109  0.27043527  1
  O2-  O196  1  0.04072589  0.58159696  0.59788667  1
  O2-  O197  1  0.03760685  0.58859987  0.93535286  1
  O2-  O198  1  0.55062596  0.08230573  0.27089157  1
  O2-  O199  1  0.54889087  0.08972925  0.60308830  1
  O2-  O200  1  0.55438983  0.08473910  0.93831455  1
  O2-  O201  1  0.54358588  0.58112552  0.26702667  1
  O2-  O202  1  0.53985843  0.58118754  0.59692276  1
  O2-  O203  1  0.54713510  0.58435267  0.94005030  1
  O2-  O204  1  0.16767597  0.20578756  0.26370305  1
  O2-  O205  1  0.15979914  0.20824371  0.60062256  1
  O2-  O206  1  0.15995654  0.20577273  0.93083332  1
  O2-  O207  1  0.16775051  0.69794635  0.27179528  1
  O2-  O208  1  0.16631369  0.70821940  0.59841162  1
  O2-  O209  1  0.16196893  0.70427329  0.94003348  1
  O2-  O210  1  0.66574903  0.20277261  0.27006679  1
  O2-  O211  1  0.66215656  0.21432648  0.60177464  1
  O2-  O212  1  0.66669106  0.21289540  0.93630321  1
  O2-  O213  1  0.67089243  0.70471029  0.26514071  1
  O2-  O214  1  0.67585988  0.69730743  0.60402092  1
  O2-  O215  1  0.66912525  0.69971250  0.93780805  1
  O2-  O216  1  0.08128720  0.46183195  0.06849179  1
  O2-  O217  1  0.08661364  0.45277225  0.39598938  1
  O2-  O218  1  0.08187497  0.45017640  0.72532862  1
  O2-  O219  1  0.08278387  0.96046979  0.06639797  1
  O2-  O220  1  0.08276017  0.96223459  0.40223647  1
  O2-  O221  1  0.08804209  0.96248408  0.73611826  1
  O2-  O222  1  0.58341617  0.45828881  0.06963497  1
  O2-  O223  1  0.58398459  0.45484579  0.39935030  1
  O2-  O224  1  0.58773354  0.45676868  0.72818046  1
  O2-  O225  1  0.58124072  0.95724092  0.07068635  1
  O2-  O226  1  0.58593179  0.95515512  0.39449387  1
  O2-  O227  1  0.57734932  0.95896775  0.73077604  1
  O2-  O228  1  0.19662646  0.32726789  0.06227896  1
  O2-  O229  1  0.20767053  0.33468506  0.39554739  1
  O2-  O230  1  0.20126185  0.33258317  0.72684269  1
  O2-  O231  1  0.20140991  0.82813148  0.06925579  1
  O2-  O232  1  0.20752775  0.82964353  0.40169858  1
  O2-  O233  1  0.20879686  0.83175909  0.73216395  1
  O2-  O234  1  0.71214397  0.33748979  0.07045357  1
  O2-  O235  1  0.70160760  0.33326790  0.39809852  1
  O2-  O236  1  0.70989176  0.34072354  0.73085043  1
  O2-  O237  1  0.70819179  0.82853832  0.06808707  1
  O2-  O238  1  0.70994984  0.83739124  0.39377773  1
  O2-  O239  1  0.70235348  0.82866468  0.73432407  1
  O2-  O240  1  0.46260932  0.41406754  0.26592080  1
  O2-  O241  1  0.45990885  0.41095750  0.60490281  1
  O2-  O242  1  0.46193955  0.41809744  0.93231423  1
  O2-  O243  1  0.44988565  0.92220649  0.26809029  1
  O2-  O244  1  0.44492909  0.92658780  0.60131638  1
  O2-  O245  1  0.45615465  0.92058009  0.93556290  1
  O2-  O246  1  0.95641408  0.42068150  0.26474676  1
  O2-  O247  1  0.95507341  0.41131515  0.60209359  1
  O2-  O248  1  0.95753605  0.41351054  0.93470954  1
  O2-  O249  1  0.95986613  0.91514516  0.26482879  1
  O2-  O250  1  0.95741573  0.91688560  0.60855683  1
  O2-  O251  1  0.95676042  0.91540281  0.93615561  1
  O2-  O252  1  0.33368538  0.29220131  0.26612469  1
  O2-  O253  1  0.33584416  0.29541014  0.60589103  1
  O2-  O254  1  0.33052971  0.29092916  0.93034613  1
  O2-  O255  1  0.32944597  0.78718692  0.26633606  1
  O2-  O256  1  0.33362125  0.78570205  0.59934899  1
  O2-  O257  1  0.33103385  0.78736444  0.93557214  1
  O2-  O258  1  0.82728007  0.29799157  0.26694061  1
  O2-  O259  1  0.83483860  0.29440003  0.60311410  1
  O2-  O260  1  0.83606386  0.29439367  0.93741086  1
  O2-  O261  1  0.83653186  0.78687854  0.26430912  1
  O2-  O262  1  0.83479841  0.79998733  0.60915159  1
  O2-  O263  1  0.83810240  0.79433312  0.93412679  1
  O2-  O264  1  0.42367700  0.05733332  0.06349873  1
  O2-  O265  1  0.41832853  0.05369094  0.39564858  1
  O2-  O266  1  0.41881480  0.06426310  0.72390343  1
  O2-  O267  1  0.42026873  0.54492456  0.07047636  1
  O2-  O268  1  0.41308533  0.53662561  0.39715663  1
  O2-  O269  1  0.41597767  0.53594394  0.73461519  1
  O2-  O270  1  0.91900720  0.04294697  0.06881163  1
  O2-  O271  1  0.91195106  0.04142238  0.39410249  1
  O2-  O272  1  0.91869242  0.04683062  0.73484762  1
  O2-  O273  1  0.91431015  0.54198313  0.06311835  1
  O2-  O274  1  0.91785331  0.53907099  0.40334024  1
  O2-  O275  1  0.91397520  0.53702056  0.73076233  1
  O2-  O276  1  0.28685813  0.16811952  0.06644663  1
  O2-  O277  1  0.29247428  0.16619052  0.39792314  1
  O2-  O278  1  0.28735329  0.16794483  0.73191915  1
  O2-  O279  1  0.28644447  0.66464596  0.07327307  1
  O2-  O280  1  0.29345564  0.65957647  0.39934763  1
  O2-  O281  1  0.28786657  0.66348800  0.73411369  1
  O2-  O282  1  0.79395469  0.16941456  0.07045390  1
  O2-  O283  1  0.79405615  0.16359030  0.39427901  1
  O2-  O284  1  0.79121408  0.17089263  0.73302999  1
  O2-  O285  1  0.80434499  0.66804078  0.05836036  1
  O2-  O286  1  0.79139276  0.66748826  0.40314137  1
  O2-  O287  1  0.80428380  0.66377692  0.72954248  1
