# generated using pymatgen
data_Ca2Al2SiO7
_symmetry_space_group_name_H-M   'P 1'
_cell_length_a   15.45879602
_cell_length_b   15.46013004
_cell_length_c   15.28524043
_cell_angle_alpha   90.00966817
_cell_angle_beta   90.00042443
_cell_angle_gamma   89.99754216
_symmetry_Int_Tables_number   1
_chemical_formula_structural   Ca2Al2SiO7
_chemical_formula_sum   'Ca48 Al48 Si24 O168'
_cell_volume   3653.09593139
_cell_formula_units_Z   24
loop_
 _symmetry_equiv_pos_site_id
 _symmetry_equiv_pos_as_xyz
  1  'x, y, z'
loop_
 _atom_type_symbol
 _atom_type_oxidation_number
  Ca2+  2.0
  Al0+  0.0
  Si0+  0.0
  O2-  -2.0
loop_
 _atom_site_type_symbol
 _atom_site_label
 _atom_site_symmetry_multiplicity
 _atom_site_fract_x
 _atom_site_fract_y
 _atom_site_fract_z
 _atom_site_occupancy
  Ca2+  Ca0  1  0.16451325  0.07899938  0.17120802  1
  Ca2+  Ca1  1  0.17047080  0.07655030  0.50738514  1
  Ca2+  Ca2  1  0.16803207  0.09116000  0.83228317  1
  Ca2+  Ca3  1  0.16983850  0.58018728  0.17511317  1
  Ca2+  Ca4  1  0.17846296  0.59467487  0.50072774  1
  Ca2+  Ca5  1  0.17686403  0.57965654  0.83739514  1
  Ca2+  Ca6  1  0.66722241  0.07761257  0.16858771  1
  Ca2+  Ca7  1  0.66868398  0.07323713  0.50779807  1
  Ca2+  Ca8  1  0.66036874  0.06807550  0.83585785  1
  Ca2+  Ca9  1  0.66999301  0.57297410  0.17545839  1
  Ca2+  Ca10  1  0.67027117  0.58671257  0.50602788  1
  Ca2+  Ca11  1  0.66768217  0.57735753  0.83031491  1
  Ca2+  Ca12  1  0.07791314  0.33122766  0.15156526  1
  Ca2+  Ca13  1  0.08585531  0.32718648  0.50036964  1
  Ca2+  Ca14  1  0.08521015  0.32795554  0.83215569  1
  Ca2+  Ca15  1  0.08413408  0.82711881  0.17206578  1
  Ca2+  Ca16  1  0.07335792  0.83029252  0.48995973  1
  Ca2+  Ca17  1  0.07257532  0.83219267  0.82533598  1
  Ca2+  Ca18  1  0.58044124  0.34035382  0.15952581  1
  Ca2+  Ca19  1  0.58120383  0.34456771  0.50032781  1
  Ca2+  Ca20  1  0.57614817  0.34310679  0.82835219  1
  Ca2+  Ca21  1  0.58366138  0.82571311  0.16605081  1
  Ca2+  Ca22  1  0.57576221  0.82294028  0.49760171  1
  Ca2+  Ca23  1  0.58417948  0.82840541  0.82041542  1
  Ca2+  Ca24  1  0.32863413  0.41863069  0.16854006  1
  Ca2+  Ca25  1  0.33699889  0.43013599  0.50678205  1
  Ca2+  Ca26  1  0.33560507  0.41847876  0.83593724  1
  Ca2+  Ca27  1  0.32730143  0.91601877  0.17783650  1
  Ca2+  Ca28  1  0.33165353  0.91345164  0.50668624  1
  Ca2+  Ca29  1  0.34199151  0.92591956  0.83300502  1
  Ca2+  Ca30  1  0.82528649  0.41660014  0.17541319  1
  Ca2+  Ca31  1  0.82151226  0.43076945  0.50656905  1
  Ca2+  Ca32  1  0.82580192  0.41845244  0.83860574  1
  Ca2+  Ca33  1  0.83133776  0.91495464  0.16972482  1
  Ca2+  Ca34  1  0.83069803  0.90808301  0.50788241  1
  Ca2+  Ca35  1  0.82164203  0.90968109  0.83340536  1
  Ca2+  Ca36  1  0.41932333  0.17545740  0.16001202  1
  Ca2+  Ca37  1  0.41406412  0.17127730  0.50374369  1
  Ca2+  Ca38  1  0.41295758  0.17961600  0.82592666  1
  Ca2+  Ca39  1  0.41734001  0.66635045  0.17201965  1
  Ca2+  Ca40  1  0.42479389  0.66537054  0.49411620  1
  Ca2+  Ca41  1  0.42509007  0.67145443  0.81969121  1
  Ca2+  Ca42  1  0.92367644  0.17541633  0.15583912  1
  Ca2+  Ca43  1  0.92185015  0.16549962  0.49858927  1
  Ca2+  Ca44  1  0.92616286  0.17213257  0.82995267  1
  Ca2+  Ca45  1  0.91506744  0.66504529  0.17135908  1
  Ca2+  Ca46  1  0.91423707  0.67207565  0.49338943  1
  Ca2+  Ca47  1  0.91500712  0.66875666  0.82401458  1
  Al0+  Al48  1  0.00068865  -0.00117415  -0.00384471  1
  Al0+  Al49  1  0.00074439  0.00002625  0.33232976  1
  Al0+  Al50  1  0.00030172  0.00073393  0.65984811  1
  Al0+  Al51  1  0.00187503  0.50125944  -0.00145522  1
  Al0+  Al52  1  -0.00203933  0.49799527  0.33470307  1
  Al0+  Al53  1  0.00049877  0.49834119  0.66881685  1
  Al0+  Al54  1  0.49924394  -0.00005221  0.00777912  1
  Al0+  Al55  1  0.50008159  0.00298766  0.32970937  1
  Al0+  Al56  1  0.49865455  0.00214349  0.67139419  1
  Al0+  Al57  1  0.50243841  0.50325165  0.00022902  1
  Al0+  Al58  1  0.49675681  0.49878549  0.33291962  1
  Al0+  Al59  1  0.49915090  0.50116368  0.66662468  1
  Al0+  Al60  1  0.25210348  0.25116976  -0.00198890  1
  Al0+  Al61  1  0.25105938  0.24853661  0.33240331  1
  Al0+  Al62  1  0.25055013  0.24817403  0.66033248  1
  Al0+  Al63  1  0.25076457  0.75216533  -0.00121961  1
  Al0+  Al64  1  0.24764125  0.75086733  0.33391042  1
  Al0+  Al65  1  0.24770697  0.75132734  0.67262432  1
  Al0+  Al66  1  0.75001171  0.24753729  -0.00141633  1
  Al0+  Al67  1  0.74963857  0.24746718  0.33770776  1
  Al0+  Al68  1  0.75030999  0.24948967  0.67014620  1
  Al0+  Al69  1  0.74927849  0.74954743  0.00527974  1
  Al0+  Al70  1  0.74848087  0.74971925  0.32679778  1
  Al0+  Al71  1  0.75022810  0.74918076  0.66747697  1
  Al0+  Al72  1  0.31952609  0.07038140  0.68101805  1
  Al0+  Al73  1  0.42691715  0.82478059  0.65421767  1
  Al0+  Al74  1  0.17966827  0.93056102  0.34731926  1
  Al0+  Al75  1  0.07186097  0.17820598  0.98443804  1
  Al0+  Al76  1  0.18112399  0.42987208  0.01203750  1
  Al0+  Al77  1  0.06989107  0.18087319  0.65003679  1
  Al0+  Al78  1  0.32041511  0.57305269  0.68081512  1
  Al0+  Al79  1  0.82254037  0.57162658  0.68252005  1
  Al0+  Al80  1  0.67830716  0.42845420  0.68336625  1
  Al0+  Al81  1  0.57019103  0.67681265  0.31573723  1
  Al0+  Al82  1  0.67835405  0.92808544  0.01662089  1
  Al0+  Al83  1  0.42832862  0.82277042  0.31852270  1
  Al0+  Al84  1  0.92671185  0.32374144  0.98445936  1
  Al0+  Al85  1  0.82060160  0.57195692  0.34864975  1
  Al0+  Al86  1  0.31744818  0.56966731  0.34591672  1
  Al0+  Al87  1  0.56954567  0.67951369  0.65217082  1
  Al0+  Al88  1  0.43239877  0.32186490  0.98663419  1
  Al0+  Al89  1  0.68043050  0.93026838  0.67751861  1
  Al0+  Al90  1  0.92757788  0.82247105  0.31601023  1
  Al0+  Al91  1  0.67764070  0.42675018  0.34871814  1
  Al0+  Al92  1  0.92990257  0.81840733  0.65446194  1
  Al0+  Al93  1  0.43047536  0.32084594  0.65214713  1
  Al0+  Al94  1  0.07047347  0.67681321  0.31899058  1
  Al0+  Al95  1  0.68015898  0.42824179  0.01343274  1
  Si0+  Si96  1  0.07393971  0.67909084  0.98376789  1
  Si0+  Si97  1  0.67829051  0.92968148  0.34759661  1
  Si0+  Si98  1  0.82344260  0.06943918  0.01584415  1
  Si0+  Si99  1  0.31988965  0.07147340  0.01655493  1
  Si0+  Si100  1  0.17605271  0.42435828  0.34948778  1
  Si0+  Si101  1  0.92557749  0.32320607  0.64785598  1
  Si0+  Si102  1  0.32350690  0.07348105  0.35066105  1
  Si0+  Si103  1  0.17778438  0.92846742  0.01497423  1
  Si0+  Si104  1  0.57195687  0.17504302  0.98348667  1
  Si0+  Si105  1  0.17531193  0.92932655  0.68501253  1
  Si0+  Si106  1  0.92821792  0.31813306  0.32035024  1
  Si0+  Si107  1  0.07167353  0.17977773  0.31748661  1
  Si0+  Si108  1  0.57135983  0.68186107  0.98412971  1
  Si0+  Si109  1  0.07287322  0.67495343  0.65201691  1
  Si0+  Si110  1  0.42905809  0.32004235  0.31739894  1
  Si0+  Si111  1  0.57343648  0.17725750  0.65133649  1
  Si0+  Si112  1  0.82352658  0.57192976  0.01737384  1
  Si0+  Si113  1  0.82137537  0.06980048  0.34781300  1
  Si0+  Si114  1  0.18004195  0.42580470  0.68199963  1
  Si0+  Si115  1  0.82493069  0.07250292  0.68390164  1
  Si0+  Si116  1  0.57323288  0.17904936  0.31789120  1
  Si0+  Si117  1  0.32249334  0.57455520  0.01735472  1
  Si0+  Si118  1  0.92911953  0.81871908  0.98481605  1
  Si0+  Si119  1  0.42804474  0.82241762  0.98533294  1
  O2-  O120  1  0.24825187  0.00039288  0.05726964  1
  O2-  O121  1  0.25817973  0.00138978  0.39341811  1
  O2-  O122  1  0.24759667  -0.00611998  0.73017244  1
  O2-  O123  1  0.25367432  0.50543478  0.06062930  1
  O2-  O124  1  0.24078692  0.49653744  0.39300863  1
  O2-  O125  1  0.24509215  0.49802652  0.72619855  1
  O2-  O126  1  0.75310077  0.00354547  0.06233487  1
  O2-  O127  1  0.75427088  -0.00462807  0.39004087  1
  O2-  O128  1  0.75416195  0.00551836  0.72703024  1
  O2-  O129  1  0.76064409  0.49682792  0.05967661  1
  O2-  O130  1  0.74460123  0.50361708  0.39749726  1
  O2-  O131  1  0.75370218  0.49702686  0.73299125  1
  O2-  O132  1  0.00378574  0.25305478  0.27543783  1
  O2-  O133  1  -0.00589689  0.25418966  0.60272229  1
  O2-  O134  1  0.00062251  0.25204822  0.93615499  1
  O2-  O135  1  -0.00282148  0.74717685  0.26686141  1
  O2-  O136  1  0.00326775  0.74269396  0.60858826  1
  O2-  O137  1  -0.00056569  0.74711990  0.94251367  1
  O2-  O138  1  0.50377977  0.25201780  0.27615347  1
  O2-  O139  1  0.50987961  0.25016939  0.60597380  1
  O2-  O140  1  0.50900580  0.24877080  0.93977597  1
  O2-  O141  1  0.49945018  0.75128425  0.26571828  1
  O2-  O142  1  0.49419406  0.74939624  0.60392192  1
  O2-  O143  1  0.50008402  0.75340484  0.94303913  1
  O2-  O144  1  0.06994091  0.17754274  0.09870080  1
  O2-  O145  1  0.07130536  0.17995989  0.42241598  1
  O2-  O146  1  0.06941554  0.18245347  0.76294821  1
  O2-  O147  1  0.07720724  0.68066474  0.08841433  1
  O2-  O148  1  0.07122964  0.68065322  0.43224409  1
  O2-  O149  1  0.07282590  0.67742097  0.75835553  1
  O2-  O150  1  0.56851864  0.17274880  0.08958931  1
  O2-  O151  1  0.57350352  0.17505396  0.42251706  1
  O2-  O152  1  0.57023737  0.17387407  0.75676145  1
  O2-  O153  1  0.57080362  0.68157733  0.08902430  1
  O2-  O154  1  0.57004312  0.67860713  0.42873865  1
  O2-  O155  1  0.57022136  0.68176863  0.76665514  1
  O2-  O156  1  0.17903836  0.42045612  0.24374201  1
  O2-  O157  1  0.18146788  0.42462200  0.57618329  1
  O2-  O158  1  0.18355080  0.43126476  0.89913249  1
  O2-  O159  1  0.17927164  0.93512331  0.23330927  1
  O2-  O160  1  0.17370938  0.93199701  0.57959645  1
  O2-  O161  1  0.17798719  0.92625971  0.91031994  1
  O2-  O162  1  0.68139926  0.42379179  0.23462226  1
  O2-  O163  1  0.67991514  0.42928416  0.57011979  1
  O2-  O164  1  0.67709547  0.43343642  0.90118946  1
  O2-  O165  1  0.67832215  0.93485553  0.24223602  1
  O2-  O166  1  0.68157441  0.93220550  0.56430774  1
  O2-  O167  1  0.67893954  0.92753882  0.90362663  1
  O2-  O168  1  0.43151911  0.31868448  0.10026831  1
  O2-  O169  1  0.42594870  0.31760236  0.42210942  1
  O2-  O170  1  0.42945694  0.31910908  0.76544437  1
  O2-  O171  1  0.42555967  0.82154086  0.09018506  1
  O2-  O172  1  0.43115038  0.82523874  0.43137117  1
  O2-  O173  1  0.43192211  0.82464834  0.76871989  1
  O2-  O174  1  0.92828498  0.32028551  0.09898784  1
  O2-  O175  1  0.92834916  0.31294160  0.42514905  1
  O2-  O176  1  0.92663705  0.32221870  0.75324227  1
  O2-  O177  1  0.93042005  0.82002011  0.08951593  1
  O2-  O178  1  0.92977078  0.82566288  0.42918088  1
  O2-  O179  1  0.93097493  0.81882896  0.76850639  1
  O2-  O180  1  0.32101872  0.07717315  0.24464890  1
  O2-  O181  1  0.31736814  0.07105367  0.56800278  1
  O2-  O182  1  0.32217200  0.07057088  0.91181298  1
  O2-  O183  1  0.31700565  0.56554424  0.23229961  1
  O2-  O184  1  0.31921051  0.57227100  0.56775287  1
  O2-  O185  1  0.32107747  0.57631352  0.91184723  1
  O2-  O186  1  0.81935974  0.07277300  0.24270889  1
  O2-  O187  1  0.82405728  0.07187752  0.57772474  1
  O2-  O188  1  0.82510792  0.06612737  0.91071842  1
  O2-  O189  1  0.82223395  0.56569701  0.23458524  1
  O2-  O190  1  0.82231851  0.57280361  0.56945933  1
  O2-  O191  1  0.82106793  0.57662903  0.91213255  1
  O2-  O192  1  0.04113699  0.08944065  0.26946516  1
  O2-  O193  1  0.03918130  0.08516483  0.59414474  1
  O2-  O194  1  0.04336703  0.07977798  0.93074382  1
  O2-  O195  1  0.04545260  0.57606185  0.26690142  1
  O2-  O196  1  0.05267590  0.57997800  0.60716904  1
  O2-  O197  1  0.05053927  0.58682122  0.93609194  1
  O2-  O198  1  0.54330974  0.08982831  0.26585894  1
  O2-  O199  1  0.54137017  0.08656564  0.60295056  1
  O2-  O200  1  0.53932696  0.08254009  0.93859289  1
  O2-  O201  1  0.53740127  0.57889832  0.26256613  1
  O2-  O202  1  0.54177986  0.58189711  0.59923279  1
  O2-  O203  1  0.54307813  0.59083011  0.93638693  1
  O2-  O204  1  0.16508509  0.20365882  0.27067501  1
  O2-  O205  1  0.16465338  0.21238654  0.59347301  1
  O2-  O206  1  0.17047571  0.20680025  0.93301763  1
  O2-  O207  1  0.16667833  0.70939444  0.26336082  1
  O2-  O208  1  0.16610060  0.70332812  0.60757957  1
  O2-  O209  1  0.16427313  0.71120023  0.93484020  1
  O2-  O210  1  0.66597960  0.20379941  0.27002290  1
  O2-  O211  1  0.66983418  0.19534271  0.60729868  1
  O2-  O212  1  0.66811779  0.19041146  0.94026754  1
  O2-  O213  1  0.66754725  0.70492051  0.26041791  1
  O2-  O214  1  0.66673960  0.71150498  0.60043417  1
  O2-  O215  1  0.66358340  0.71117626  0.93853133  1
  O2-  O216  1  0.08343388  0.45846522  0.06589030  1
  O2-  O217  1  0.08078593  0.44270604  0.39398252  1
  O2-  O218  1  0.08475414  0.44571547  0.72686662  1
  O2-  O219  1  0.08572443  0.95574537  0.06226881  1
  O2-  O220  1  0.08413195  0.96551987  0.40099778  1
  O2-  O221  1  0.08318239  0.96138698  0.73118834  1
  O2-  O222  1  0.58506662  0.46475337  0.06843115  1
  O2-  O223  1  0.57592551  0.44855112  0.39540963  1
  O2-  O224  1  0.58075454  0.46052034  0.73531719  1
  O2-  O225  1  0.58263832  0.95964941  0.07267642  1
  O2-  O226  1  0.58825316  0.96443867  0.39368460  1
  O2-  O227  1  0.58541525  0.96240518  0.73439654  1
  O2-  O228  1  0.21288405  0.33346076  0.06711879  1
  O2-  O229  1  0.20668427  0.33186326  0.39608974  1
  O2-  O230  1  0.21077972  0.33385572  0.72755098  1
  O2-  O231  1  0.20792035  0.83739407  0.06332161  1
  O2-  O232  1  0.20466027  0.83343573  0.40103081  1
  O2-  O233  1  0.19336139  0.83464265  0.73182862  1
  O2-  O234  1  0.70182851  0.32718955  0.06405062  1
  O2-  O235  1  0.70863934  0.32909664  0.40230459  1
  O2-  O236  1  0.70153907  0.32739531  0.73474201  1
  O2-  O237  1  0.71153634  0.83311004  0.07201651  1
  O2-  O238  1  0.70097792  0.83573267  0.39073013  1
  O2-  O239  1  0.71323460  0.83589709  0.73409438  1
  O2-  O240  1  0.45192423  0.41155449  0.26815126  1
  O2-  O241  1  0.45813086  0.41776215  0.59839978  1
  O2-  O242  1  0.46030577  0.42031453  0.93484417  1
  O2-  O243  1  0.45551003  0.92256045  0.26483746  1
  O2-  O244  1  0.45613820  0.92309439  0.60248459  1
  O2-  O245  1  0.45493996  0.91649888  0.94222123  1
  O2-  O246  1  0.94986320  0.41117532  0.27373523  1
  O2-  O247  1  0.95350354  0.41628894  0.60199502  1
  O2-  O248  1  0.95448813  0.42263730  0.93264954  1
  O2-  O249  1  0.95966383  0.92073765  0.26255506  1
  O2-  O250  1  0.95897910  0.91476718  0.59953249  1
  O2-  O251  1  0.95782127  0.90964068  0.93648192  1
  O2-  O252  1  0.33851610  0.28731511  0.26839663  1
  O2-  O253  1  0.33718398  0.28476743  0.59566090  1
  O2-  O254  1  0.33733937  0.28828649  0.93237567  1
  O2-  O255  1  0.32947208  0.79452238  0.26625001  1
  O2-  O256  1  0.32430234  0.80263837  0.60846050  1
  O2-  O257  1  0.33627951  0.79640120  0.93660242  1
  O2-  O258  1  0.83812162  0.28402042  0.27258959  1
  O2-  O259  1  0.83209231  0.29572899  0.60253158  1
  O2-  O260  1  0.82903956  0.29257333  0.93136670  1
  O2-  O261  1  0.82903219  0.79778784  0.26183872  1
  O2-  O262  1  0.83379626  0.78937506  0.60041858  1
  O2-  O263  1  0.83603789  0.79068239  0.93999400  1
  O2-  O264  1  0.41037731  0.04369164  0.06728221  1
  O2-  O265  1  0.41929493  0.05339329  0.39396924  1
  O2-  O266  1  0.41550382  0.04380679  0.73877080  1
  O2-  O267  1  0.41605761  0.54879436  0.06239092  1
  O2-  O268  1  0.41257200  0.53597202  0.39976087  1
  O2-  O269  1  0.41570785  0.54111725  0.73556026  1
  O2-  O270  1  0.91638399  0.04071359  0.06306605  1
  O2-  O271  1  0.91460084  0.04665317  0.39424181  1
  O2-  O272  1  0.91806348  0.04423919  0.72870343  1
  O2-  O273  1  0.92017382  0.55440882  0.06004394  1
  O2-  O274  1  0.91858397  0.54174380  0.40183014  1
  O2-  O275  1  0.92267519  0.54585918  0.73519248  1
  O2-  O276  1  0.29258106  0.16303229  0.06453916  1
  O2-  O277  1  0.29315730  0.16532928  0.39799166  1
  O2-  O278  1  0.28429992  0.16649190  0.73390133  1
  O2-  O279  1  0.29464333  0.66825737  0.06276758  1
  O2-  O280  1  0.28885178  0.66655125  0.39923394  1
  O2-  O281  1  0.28992299  0.66857394  0.73881737  1
  O2-  O282  1  0.79973091  0.16355382  0.06228104  1
  O2-  O283  1  0.79016763  0.15845245  0.39930664  1
  O2-  O284  1  0.80305032  0.16649581  0.73002246  1
  O2-  O285  1  0.79134331  0.66248770  0.06613764  1
  O2-  O286  1  0.79546673  0.67351923  0.39608251  1
  O2-  O287  1  0.79147224  0.66848046  0.73723272  1
