# generated using pymatgen
data_Ca2Al2SiO7
_symmetry_space_group_name_H-M   'P 1'
_cell_length_a   15.46323609
_cell_length_b   15.46633795
_cell_length_c   15.28833650
_cell_angle_alpha   89.99737152
_cell_angle_beta   89.98838419
_cell_angle_gamma   89.99833764
_symmetry_Int_Tables_number   1
_chemical_formula_structural   Ca2Al2SiO7
_chemical_formula_sum   'Ca48 Al48 Si24 O168'
_cell_volume   3656.35289777
_cell_formula_units_Z   24
loop_
 _symmetry_equiv_pos_site_id
 _symmetry_equiv_pos_as_xyz
  1  'x, y, z'
loop_
 _atom_type_symbol
 _atom_type_oxidation_number
  Ca2+  2.0
  Al0+  0.0
  Si0+  0.0
  O2-  -2.0
loop_
 _atom_site_type_symbol
 _atom_site_label
 _atom_site_symmetry_multiplicity
 _atom_site_fract_x
 _atom_site_fract_y
 _atom_site_fract_z
 _atom_site_occupancy
  Ca2+  Ca0  1  0.17842651  0.08101496  0.17569085  1
  Ca2+  Ca1  1  0.16325586  0.07686688  0.49954557  1
  Ca2+  Ca2  1  0.17067657  0.08032401  0.84240707  1
  Ca2+  Ca3  1  0.16528764  0.58482732  0.16530792  1
  Ca2+  Ca4  1  0.16927452  0.58961712  0.50543133  1
  Ca2+  Ca5  1  0.17438826  0.58405691  0.84117803  1
  Ca2+  Ca6  1  0.66104470  0.07744645  0.17127306  1
  Ca2+  Ca7  1  0.66411482  0.08341063  0.49982679  1
  Ca2+  Ca8  1  0.66729174  0.07309132  0.83981867  1
  Ca2+  Ca9  1  0.67958182  0.58081691  0.17159245  1
  Ca2+  Ca10  1  0.67897686  0.58205351  0.50416499  1
  Ca2+  Ca11  1  0.67816884  0.59205707  0.83782680  1
  Ca2+  Ca12  1  0.07308670  0.34298755  0.16079230  1
  Ca2+  Ca13  1  0.06989240  0.33950316  0.49717288  1
  Ca2+  Ca14  1  0.07465244  0.34303452  0.83506938  1
  Ca2+  Ca15  1  0.08323755  0.82508966  0.16700098  1
  Ca2+  Ca16  1  0.07596566  0.82413232  0.49204429  1
  Ca2+  Ca17  1  0.07954125  0.82016306  0.82581722  1
  Ca2+  Ca18  1  0.58107069  0.33101688  0.16338597  1
  Ca2+  Ca19  1  0.57856211  0.33390271  0.49198788  1
  Ca2+  Ca20  1  0.56734436  0.34070291  0.83036948  1
  Ca2+  Ca21  1  0.58424753  0.82779629  0.15777990  1
  Ca2+  Ca22  1  0.58342679  0.82484991  0.50029863  1
  Ca2+  Ca23  1  0.58566775  0.82299248  0.83355882  1
  Ca2+  Ca24  1  0.32942099  0.41716555  0.16327921  1
  Ca2+  Ca25  1  0.33077212  0.42076362  0.50925443  1
  Ca2+  Ca26  1  0.32932914  0.42142766  0.84149522  1
  Ca2+  Ca27  1  0.32849748  0.92649810  0.17525475  1
  Ca2+  Ca28  1  0.32718905  0.91982995  0.49838989  1
  Ca2+  Ca29  1  0.33411073  0.92478590  0.84108605  1
  Ca2+  Ca30  1  0.83549556  0.42551166  0.17389191  1
  Ca2+  Ca31  1  0.83532511  0.42428846  0.50293146  1
  Ca2+  Ca32  1  0.83952276  0.42671758  0.83787229  1
  Ca2+  Ca33  1  0.82867400  0.91278301  0.17114489  1
  Ca2+  Ca34  1  0.84024428  0.91257707  0.50436744  1
  Ca2+  Ca35  1  0.82887959  0.91026416  0.83789195  1
  Ca2+  Ca36  1  0.41739396  0.16575317  0.16107160  1
  Ca2+  Ca37  1  0.42066741  0.17106730  0.49331146  1
  Ca2+  Ca38  1  0.40832712  0.17920923  0.83302827  1
  Ca2+  Ca39  1  0.42498692  0.66385686  0.15597675  1
  Ca2+  Ca40  1  0.42335018  0.65816781  0.50004373  1
  Ca2+  Ca41  1  0.42942112  0.64996644  0.82995113  1
  Ca2+  Ca42  1  0.91458253  0.18229162  0.16215315  1
  Ca2+  Ca43  1  0.91208535  0.18058307  0.49424377  1
  Ca2+  Ca44  1  0.91456747  0.18154538  0.82913904  1
  Ca2+  Ca45  1  0.92531243  0.66050344  0.16312344  1
  Ca2+  Ca46  1  0.92408731  0.66722715  0.49409937  1
  Ca2+  Ca47  1  0.92755671  0.66117896  0.82762351  1
  Al0+  Al48  1  -0.00169089  0.00114741  0.00138630  1
  Al0+  Al49  1  -0.00050677  -0.00019658  0.33311109  1
  Al0+  Al50  1  -0.00004192  0.00030904  0.66815979  1
  Al0+  Al51  1  0.00067883  0.50203513  -0.00175243  1
  Al0+  Al52  1  0.00166113  0.50161258  0.33038867  1
  Al0+  Al53  1  0.00034233  0.49902004  0.66206853  1
  Al0+  Al54  1  0.50110009  -0.00132546  0.00658866  1
  Al0+  Al55  1  0.49995693  0.00106478  0.33584132  1
  Al0+  Al56  1  0.49974828  -0.00070656  0.66834834  1
  Al0+  Al57  1  0.50111642  0.49862079  -0.00418350  1
  Al0+  Al58  1  0.50044688  0.49889482  0.33425988  1
  Al0+  Al59  1  0.50038265  0.49824628  0.65901875  1
  Al0+  Al60  1  0.24907983  0.24969682  0.00516531  1
  Al0+  Al61  1  0.25064733  0.25224710  0.33963193  1
  Al0+  Al62  1  0.25000542  0.24945966  0.66223810  1
  Al0+  Al63  1  0.25112152  0.75149763  -0.00059238  1
  Al0+  Al64  1  0.25021711  0.75162153  0.33415916  1
  Al0+  Al65  1  0.25243631  0.75157153  0.66978280  1
  Al0+  Al66  1  0.74939313  0.24932461  -0.00729151  1
  Al0+  Al67  1  0.74613077  0.24863973  0.32718739  1
  Al0+  Al68  1  0.74863656  0.24817239  0.66526084  1
  Al0+  Al69  1  0.74937871  0.75024298  0.00599360  1
  Al0+  Al70  1  0.75007948  0.74999742  0.33562250  1
  Al0+  Al71  1  0.74820081  0.74973300  0.66374529  1
  Al0+  Al72  1  0.92920053  0.32034929  0.31889239  1
  Al0+  Al73  1  0.57151324  0.67878201  0.98764973  1
  Al0+  Al74  1  0.32200465  0.07271521  0.35197697  1
  Al0+  Al75  1  0.07374253  0.67851504  0.65198940  1
  Al0+  Al76  1  0.82063736  0.56960051  0.01287486  1
  Al0+  Al77  1  0.82058927  0.57021867  0.68088359  1
  Al0+  Al78  1  0.17904552  0.43091105  0.01494051  1
  Al0+  Al79  1  0.92845548  0.32025697  0.65200834  1
  Al0+  Al80  1  0.17767098  0.92877545  0.34989858  1
  Al0+  Al81  1  0.56831569  0.17889201  0.31847121  1
  Al0+  Al82  1  0.92853224  0.32191014  0.98542759  1
  Al0+  Al83  1  0.92890428  0.82110270  0.65383627  1
  Al0+  Al84  1  0.32403174  0.57193001  0.01476409  1
  Al0+  Al85  1  0.68174196  0.93010287  0.01429530  1
  Al0+  Al86  1  0.07292124  0.67964569  0.31583611  1
  Al0+  Al87  1  0.82246533  0.57060951  0.35006399  1
  Al0+  Al88  1  0.56998454  0.67900296  0.65170152  1
  Al0+  Al89  1  0.42835093  0.31878721  0.98751907  1
  Al0+  Al90  1  0.42870204  0.31993778  0.65142500  1
  Al0+  Al91  1  0.07213878  0.68090900  0.98448059  1
  Al0+  Al92  1  0.31919239  0.07062246  0.01359310  1
  Al0+  Al93  1  0.92707960  0.82249280  0.31643134  1
  Al0+  Al94  1  0.67841855  0.42717790  0.34744344  1
  Al0+  Al95  1  0.32218777  0.57071036  0.67959987  1
  Si0+  Si96  1  0.17893639  0.43013984  0.34954056  1
  Si0+  Si97  1  0.07134461  0.17719138  0.98557447  1
  Si0+  Si98  1  0.81959744  0.07109228  0.34714721  1
  Si0+  Si99  1  0.82170279  0.07228084  0.68181923  1
  Si0+  Si100  1  0.17846109  0.42647372  0.68226060  1
  Si0+  Si101  1  0.92731767  0.82312177  0.98485030  1
  Si0+  Si102  1  0.42889376  0.82619958  0.64992877  1
  Si0+  Si103  1  0.67724275  0.42545448  0.01354994  1
  Si0+  Si104  1  0.07308801  0.17871605  0.31775377  1
  Si0+  Si105  1  0.67848504  0.92834873  0.35093674  1
  Si0+  Si106  1  0.32217698  0.57169596  0.34739022  1
  Si0+  Si107  1  0.57110482  0.17488347  0.98150811  1
  Si0+  Si108  1  0.32085916  0.07085608  0.68247877  1
  Si0+  Si109  1  0.17534303  0.92729563  0.01660296  1
  Si0+  Si110  1  0.67832275  0.42552544  0.68329204  1
  Si0+  Si111  1  0.42618579  0.32371741  0.31508204  1
  Si0+  Si112  1  0.43063815  0.82082276  0.31960574  1
  Si0+  Si113  1  0.82216115  0.07490439  0.01684944  1
  Si0+  Si114  1  0.57039914  0.17547606  0.65098536  1
  Si0+  Si115  1  0.07208190  0.17657067  0.65021078  1
  Si0+  Si116  1  0.42920596  0.82309421  0.98482209  1
  Si0+  Si117  1  0.67851742  0.92945780  0.68142126  1
  Si0+  Si118  1  0.57022196  0.67822852  0.31802786  1
  Si0+  Si119  1  0.17816477  0.92991023  0.68378696  1
  O2-  O120  1  0.24390429  -0.00336815  0.05979263  1
  O2-  O121  1  0.24738877  0.00310998  0.40137260  1
  O2-  O122  1  0.24948587  0.00116000  0.72589887  1
  O2-  O123  1  0.25084208  0.50269382  0.06659533  1
  O2-  O124  1  0.25079710  0.50123931  0.38991202  1
  O2-  O125  1  0.24533202  0.49761902  0.72498791  1
  O2-  O126  1  0.75498526  0.00559219  0.06199212  1
  O2-  O127  1  0.75294201  -0.00348270  0.39190929  1
  O2-  O128  1  0.75258551  -0.00163376  0.72255622  1
  O2-  O129  1  0.74753479  0.49200286  0.05756293  1
  O2-  O130  1  0.75130213  0.49683237  0.39923328  1
  O2-  O131  1  0.74726154  0.49338063  0.72819755  1
  O2-  O132  1  0.00556917  0.24705088  0.27192928  1
  O2-  O133  1  0.00350668  0.24519789  0.60618693  1
  O2-  O134  1  0.00250382  0.24490886  0.94006633  1
  O2-  O135  1  -0.00231241  0.74942591  0.26685062  1
  O2-  O136  1  -0.00058952  0.74873225  0.60308392  1
  O2-  O137  1  -0.00195704  0.75769026  0.94006350  1
  O2-  O138  1  0.49298977  0.25274622  0.27208730  1
  O2-  O139  1  0.50462057  0.24595996  0.60635433  1
  O2-  O140  1  0.50351235  0.24469918  0.93819557  1
  O2-  O141  1  0.49944553  0.74906588  0.27550931  1
  O2-  O142  1  0.49201793  0.75195163  0.60635191  1
  O2-  O143  1  0.49208957  0.74932704  0.94035187  1
  O2-  O144  1  0.06951992  0.17581481  0.09084511  1
  O2-  O145  1  0.07035437  0.17994318  0.42368252  1
  O2-  O146  1  0.07223835  0.17430057  0.75583873  1
  O2-  O147  1  0.07162878  0.68186549  0.09708566  1
  O2-  O148  1  0.07533277  0.68041010  0.42934406  1
  O2-  O149  1  0.07414646  0.68014949  0.76575981  1
  O2-  O150  1  0.57075591  0.17403068  0.08693400  1
  O2-  O151  1  0.56725832  0.17751537  0.43182338  1
  O2-  O152  1  0.56874439  0.17161242  0.75632389  1
  O2-  O153  1  0.57164279  0.68198823  0.10102947  1
  O2-  O154  1  0.56842188  0.67960447  0.42328019  1
  O2-  O155  1  0.57134586  0.68220580  0.76473385  1
  O2-  O156  1  0.17947952  0.42752355  0.24486090  1
  O2-  O157  1  0.18040033  0.42404147  0.57634774  1
  O2-  O158  1  0.17955438  0.43059530  0.90109829  1
  O2-  O159  1  0.18242501  0.92976126  0.23620392  1
  O2-  O160  1  0.17801999  0.93189040  0.57916269  1
  O2-  O161  1  0.17586172  0.92990977  0.91047888  1
  O2-  O162  1  0.67654882  0.43047032  0.23370709  1
  O2-  O163  1  0.67975945  0.42456876  0.57780460  1
  O2-  O164  1  0.67665971  0.42583879  0.90782005  1
  O2-  O165  1  0.67601043  0.92924398  0.24602540  1
  O2-  O166  1  0.67490669  0.93226650  0.57639824  1
  O2-  O167  1  0.68231009  0.93036801  0.90065209  1
  O2-  O168  1  0.43019438  0.31712380  0.10036178  1
  O2-  O169  1  0.42757517  0.32425514  0.42084981  1
  O2-  O170  1  0.42679562  0.31776496  0.76455756  1
  O2-  O171  1  0.43262604  0.82520698  0.09057643  1
  O2-  O172  1  0.43283227  0.81986975  0.42495625  1
  O2-  O173  1  0.43329419  0.83587814  0.75482452  1
  O2-  O174  1  0.92836474  0.32008031  0.09840042  1
  O2-  O175  1  0.93007632  0.31840432  0.43221250  1
  O2-  O176  1  0.92929754  0.31895496  0.76502212  1
  O2-  O177  1  0.92759921  0.82412213  0.08999748  1
  O2-  O178  1  0.92838433  0.82204478  0.42997474  1
  O2-  O179  1  0.93096373  0.82331856  0.76758520  1
  O2-  O180  1  0.32235785  0.06983094  0.23838966  1
  O2-  O181  1  0.32208290  0.06886373  0.57796326  1
  O2-  O182  1  0.31760883  0.06934640  0.89961672  1
  O2-  O183  1  0.32531470  0.57093242  0.24271513  1
  O2-  O184  1  0.32177547  0.56803021  0.56580202  1
  O2-  O185  1  0.32441448  0.56779497  0.90123035  1
  O2-  O186  1  0.81634026  0.07138053  0.24223298  1
  O2-  O187  1  0.82031143  0.07440320  0.57674012  1
  O2-  O188  1  0.82089795  0.07439531  0.91090814  1
  O2-  O189  1  0.82074587  0.56979225  0.23630612  1
  O2-  O190  1  0.81987981  0.56967132  0.56823271  1
  O2-  O191  1  0.82043446  0.57038406  0.89943797  1
  O2-  O192  1  0.04919937  0.08494194  0.27241818  1
  O2-  O193  1  0.04541347  0.08363232  0.60375532  1
  O2-  O194  1  0.04688180  0.08329422  0.93758318  1
  O2-  O195  1  0.04672579  0.58081638  0.26328702  1
  O2-  O196  1  0.04916417  0.57949604  0.59951828  1
  O2-  O197  1  0.03930976  0.58561595  0.93009975  1
  O2-  O198  1  0.53787986  0.08130641  0.26506672  1
  O2-  O199  1  0.54202302  0.08311455  0.60313392  1
  O2-  O200  1  0.54391236  0.08090195  0.93675636  1
  O2-  O201  1  0.54161080  0.58664986  0.27136795  1
  O2-  O202  1  0.54092980  0.58363554  0.59503586  1
  O2-  O203  1  0.54575285  0.58205732  0.93164544  1
  O2-  O204  1  0.16835230  0.20436317  0.27531928  1
  O2-  O205  1  0.16530402  0.20034310  0.60283272  1
  O2-  O206  1  0.16495243  0.20223439  0.93963703  1
  O2-  O207  1  0.17173482  0.71069360  0.26400096  1
  O2-  O208  1  0.17294434  0.70953211  0.60160588  1
  O2-  O209  1  0.17012922  0.71028524  0.93126362  1
  O2-  O210  1  0.66362813  0.20600341  0.26052500  1
  O2-  O211  1  0.66514782  0.19699991  0.60559801  1
  O2-  O212  1  0.66509946  0.19686995  0.93450886  1
  O2-  O213  1  0.66198835  0.70740568  0.27280569  1
  O2-  O214  1  0.66320140  0.71512100  0.59514247  1
  O2-  O215  1  0.66631959  0.71685366  0.93420662  1
  O2-  O216  1  0.08160141  0.46141775  0.06768858  1
  O2-  O217  1  0.08790718  0.45894056  0.39735033  1
  O2-  O218  1  0.08366708  0.44953860  0.72592983  1
  O2-  O219  1  0.08127356  0.95172960  0.06197230  1
  O2-  O220  1  0.07880120  0.95739666  0.40276097  1
  O2-  O221  1  0.08721753  0.95906383  0.73280676  1
  O2-  O222  1  0.58440789  0.45112426  0.06005123  1
  O2-  O223  1  0.58008354  0.45713758  0.40131229  1
  O2-  O224  1  0.58377686  0.45295884  0.72570971  1
  O2-  O225  1  0.58601453  0.95976552  0.07098378  1
  O2-  O226  1  0.58873806  0.96029548  0.39987352  1
  O2-  O227  1  0.58851291  0.96080954  0.73119930  1
  O2-  O228  1  0.20566902  0.33259741  0.06909502  1
  O2-  O229  1  0.20488290  0.33920420  0.40014941  1
  O2-  O230  1  0.20562619  0.33262530  0.72782341  1
  O2-  O231  1  0.20245150  0.83481971  0.06245632  1
  O2-  O232  1  0.21194229  0.83243833  0.40432468  1
  O2-  O233  1  0.20719107  0.83938530  0.73253803  1
  O2-  O234  1  0.69985720  0.32970654  0.05694750  1
  O2-  O235  1  0.70166622  0.32604705  0.39730569  1
  O2-  O236  1  0.70007996  0.33037536  0.72872626  1
  O2-  O237  1  0.71167965  0.83568007  0.07211002  1
  O2-  O238  1  0.70251732  0.83612504  0.39908100  1
  O2-  O239  1  0.70407036  0.83754162  0.72884053  1
  O2-  O240  1  0.45410770  0.41657998  0.26880172  1
  O2-  O241  1  0.45936317  0.41417533  0.59389782  1
  O2-  O242  1  0.45942419  0.41410755  0.93086754  1
  O2-  O243  1  0.46062410  0.91207695  0.27293643  1
  O2-  O244  1  0.46110968  0.91628690  0.59940215  1
  O2-  O245  1  0.46174856  0.91458883  0.93738045  1
  O2-  O246  1  0.96166983  0.41620200  0.26610340  1
  O2-  O247  1  0.96033646  0.41475186  0.59582599  1
  O2-  O248  1  0.96298982  0.41650633  0.93075633  1
  O2-  O249  1  0.95362810  0.92235551  0.26462653  1
  O2-  O250  1  0.95653405  0.92100000  0.60234347  1
  O2-  O251  1  0.94740260  0.91929580  0.93986045  1
  O2-  O252  1  0.33077536  0.30020582  0.27250269  1
  O2-  O253  1  0.33295675  0.28833109  0.59599305  1
  O2-  O254  1  0.33163273  0.28611425  0.93411212  1
  O2-  O255  1  0.33840056  0.79639154  0.27277464  1
  O2-  O256  1  0.33343319  0.80566452  0.60702317  1
  O2-  O257  1  0.33344554  0.80727160  0.94008911  1
  O2-  O258  1  0.83369621  0.28717935  0.26516036  1
  O2-  O259  1  0.83202080  0.28636887  0.59918742  1
  O2-  O260  1  0.83277500  0.29110411  0.92859698  1
  O2-  O261  1  0.82567105  0.79789288  0.26725052  1
  O2-  O262  1  0.82877408  0.79933881  0.60252151  1
  O2-  O263  1  0.83372120  0.79549320  0.94057718  1
  O2-  O264  1  0.41528296  0.03943466  0.06754286  1
  O2-  O265  1  0.41894365  0.03898895  0.40537666  1
  O2-  O266  1  0.41229108  0.04185854  0.73038790  1
  O2-  O267  1  0.42268801  0.54123417  0.06659175  1
  O2-  O268  1  0.41327182  0.54256303  0.39599310  1
  O2-  O269  1  0.41946726  0.53594107  0.72995115  1
  O2-  O270  1  0.91647862  0.05277168  0.06284669  1
  O2-  O271  1  0.91278403  0.04937534  0.39447008  1
  O2-  O272  1  0.91407693  0.04828058  0.73000458  1
  O2-  O273  1  0.91662978  0.53890962  0.06616953  1
  O2-  O274  1  0.92211851  0.54248001  0.40020467  1
  O2-  O275  1  0.91882459  0.53862832  0.73196554  1
  O2-  O276  1  0.28950293  0.16529111  0.07033087  1
  O2-  O277  1  0.29690070  0.17227040  0.40429779  1
  O2-  O278  1  0.29248833  0.16341178  0.72820574  1
  O2-  O279  1  0.30076392  0.67320136  0.06442319  1
  O2-  O280  1  0.29682213  0.66390736  0.39479824  1
  O2-  O281  1  0.30040363  0.67014970  0.73268478  1
  O2-  O282  1  0.79473912  0.16856029  0.06152424  1
  O2-  O283  1  0.78608834  0.16077895  0.39533221  1
  O2-  O284  1  0.79029229  0.16209402  0.73186823  1
  O2-  O285  1  0.78785224  0.66414628  0.06865259  1
  O2-  O286  1  0.79045191  0.66865909  0.40220800  1
  O2-  O287  1  0.78632205  0.66716009  0.73271937  1
