# generated using pymatgen
data_Ca2Al2SiO7
_symmetry_space_group_name_H-M   'P 1'
_cell_length_a   15.45402947
_cell_length_b   15.45470006
_cell_length_c   15.28090734
_cell_angle_alpha   90.01768669
_cell_angle_beta   90.00610898
_cell_angle_gamma   89.98822244
_symmetry_Int_Tables_number   1
_chemical_formula_structural   Ca2Al2SiO7
_chemical_formula_sum   'Ca48 Al48 Si24 O168'
_cell_volume   3649.65175530
_cell_formula_units_Z   24
loop_
 _symmetry_equiv_pos_site_id
 _symmetry_equiv_pos_as_xyz
  1  'x, y, z'
loop_
 _atom_type_symbol
 _atom_type_oxidation_number
  Ca2+  2.0
  Al0+  0.0
  Si0+  0.0
  O2-  -2.0
loop_
 _atom_site_type_symbol
 _atom_site_label
 _atom_site_symmetry_multiplicity
 _atom_site_fract_x
 _atom_site_fract_y
 _atom_site_fract_z
 _atom_site_occupancy
  Ca2+  Ca0  1  0.15904413  0.07398661  0.16884579  1
  Ca2+  Ca1  1  0.16401185  0.07089701  0.50514953  1
  Ca2+  Ca2  1  0.15494656  0.07596453  0.83611425  1
  Ca2+  Ca3  1  0.15703385  0.57021359  0.16754788  1
  Ca2+  Ca4  1  0.17179072  0.57999920  0.50660486  1
  Ca2+  Ca5  1  0.17010716  0.58472757  0.83722240  1
  Ca2+  Ca6  1  0.67130560  0.08231462  0.16924648  1
  Ca2+  Ca7  1  0.66805018  0.07641196  0.50877421  1
  Ca2+  Ca8  1  0.66584050  0.07777954  0.83445447  1
  Ca2+  Ca9  1  0.67243704  0.58245516  0.17203665  1
  Ca2+  Ca10  1  0.67214296  0.58718889  0.50337050  1
  Ca2+  Ca11  1  0.66932690  0.57037341  0.83762853  1
  Ca2+  Ca12  1  0.08294252  0.33084215  0.15268201  1
  Ca2+  Ca13  1  0.08526980  0.32937793  0.49780126  1
  Ca2+  Ca14  1  0.07968909  0.32699431  0.82687773  1
  Ca2+  Ca15  1  0.07648971  0.83236009  0.15765733  1
  Ca2+  Ca16  1  0.08729207  0.82721833  0.49592704  1
  Ca2+  Ca17  1  0.08955628  0.82579008  0.82887512  1
  Ca2+  Ca18  1  0.57138845  0.34163136  0.16145463  1
  Ca2+  Ca19  1  0.57205383  0.34487734  0.50050299  1
  Ca2+  Ca20  1  0.57700757  0.34132730  0.82793933  1
  Ca2+  Ca21  1  0.58031362  0.82532111  0.16709066  1
  Ca2+  Ca22  1  0.57225376  0.83274019  0.49192245  1
  Ca2+  Ca23  1  0.57618676  0.83233620  0.82338027  1
  Ca2+  Ca24  1  0.32283266  0.40885519  0.17016096  1
  Ca2+  Ca25  1  0.33346906  0.42025275  0.50511501  1
  Ca2+  Ca26  1  0.33397197  0.42187716  0.83949329  1
  Ca2+  Ca27  1  0.31977119  0.91445854  0.17306183  1
  Ca2+  Ca28  1  0.32708428  0.90870402  0.50746589  1
  Ca2+  Ca29  1  0.32154555  0.91473797  0.83578259  1
  Ca2+  Ca30  1  0.83260486  0.42246800  0.17161625  1
  Ca2+  Ca31  1  0.82866176  0.42290129  0.50818601  1
  Ca2+  Ca32  1  0.82618089  0.40479565  0.83841310  1
  Ca2+  Ca33  1  0.84049223  0.91337104  0.17258090  1
  Ca2+  Ca34  1  0.82798433  0.91283133  0.50485501  1
  Ca2+  Ca35  1  0.83117075  0.91324019  0.83674827  1
  Ca2+  Ca36  1  0.41399996  0.17786880  0.16399486  1
  Ca2+  Ca37  1  0.41398801  0.17858673  0.49790375  1
  Ca2+  Ca38  1  0.41231926  0.18143741  0.82949094  1
  Ca2+  Ca39  1  0.41907430  0.66766290  0.16999716  1
  Ca2+  Ca40  1  0.41857665  0.67372147  0.49803699  1
  Ca2+  Ca41  1  0.41369169  0.67005071  0.82390135  1
  Ca2+  Ca42  1  0.92465683  0.17495890  0.15575681  1
  Ca2+  Ca43  1  0.91969865  0.17106341  0.50418382  1
  Ca2+  Ca44  1  0.92668507  0.17550729  0.83094616  1
  Ca2+  Ca45  1  0.91960558  0.67419193  0.16195629  1
  Ca2+  Ca46  1  0.92032503  0.66969293  0.49466427  1
  Ca2+  Ca47  1  0.93251236  0.66695700  0.83286298  1
  Al0+  Al48  1  -0.00325298  0.00073565  -0.00246762  1
  Al0+  Al49  1  0.00029614  0.00025221  0.33653904  1
  Al0+  Al50  1  -0.00148433  0.00035929  0.66751147  1
  Al0+  Al51  1  -0.00110025  0.50277867  -0.00404988  1
  Al0+  Al52  1  -0.00180448  0.49914452  0.34383426  1
  Al0+  Al53  1  0.00083570  0.50112992  0.65853063  1
  Al0+  Al54  1  0.50002389  0.00009523  0.00339075  1
  Al0+  Al55  1  0.49914255  0.00192263  0.32791642  1
  Al0+  Al56  1  0.49833549  0.00152983  0.66817502  1
  Al0+  Al57  1  0.50153963  0.50162412  0.00190560  1
  Al0+  Al58  1  0.49899551  0.49970107  0.32415410  1
  Al0+  Al59  1  0.50118543  0.50230679  0.67041604  1
  Al0+  Al60  1  0.25236158  0.24977990  -0.00572361  1
  Al0+  Al61  1  0.24932606  0.24740992  0.33410390  1
  Al0+  Al62  1  0.24961624  0.24860738  0.65700831  1
  Al0+  Al63  1  0.25141153  0.75136350  0.00429021  1
  Al0+  Al64  1  0.24966441  0.74666158  0.33136499  1
  Al0+  Al65  1  0.25065489  0.74884852  0.66625672  1
  Al0+  Al66  1  0.74713075  0.24742569  0.00402865  1
  Al0+  Al67  1  0.75016398  0.24972973  0.33554180  1
  Al0+  Al68  1  0.75046055  0.24935837  0.66680484  1
  Al0+  Al69  1  0.74849603  0.74887916  -0.00415516  1
  Al0+  Al70  1  0.75074149  0.74998896  0.33048718  1
  Al0+  Al71  1  0.75152306  0.74852331  0.67495549  1
  Al0+  Al72  1  0.31992568  0.56915277  0.67897426  1
  Al0+  Al73  1  0.43009725  0.82160853  0.65535866  1
  Al0+  Al74  1  0.17824227  0.93052366  0.01417139  1
  Al0+  Al75  1  0.17900299  0.42665744  0.34765166  1
  Al0+  Al76  1  0.93182179  0.82063381  0.32224899  1
  Al0+  Al77  1  0.68137580  0.43073813  0.67946422  1
  Al0+  Al78  1  0.81950244  0.57230380  0.34753660  1
  Al0+  Al79  1  0.17984113  0.42991144  0.00873525  1
  Al0+  Al80  1  0.92691313  0.32323430  0.98800940  1
  Al0+  Al81  1  0.07355363  0.67984942  0.98592317  1
  Al0+  Al82  1  0.42881804  0.31967613  0.31881508  1
  Al0+  Al83  1  0.07251357  0.17932724  0.98555388  1
  Al0+  Al84  1  0.92723344  0.32153486  0.64949276  1
  Al0+  Al85  1  0.42564829  0.82298560  0.31643532  1
  Al0+  Al86  1  0.07256698  0.68045513  0.65065724  1
  Al0+  Al87  1  0.43053009  0.32374700  0.65309250  1
  Al0+  Al88  1  0.67916853  0.42757337  0.01602689  1
  Al0+  Al89  1  0.43094158  0.32136906  0.98529200  1
  Al0+  Al90  1  0.17983627  0.92971938  0.68023336  1
  Al0+  Al91  1  0.67731568  0.92829644  0.67946974  1
  Al0+  Al92  1  0.17945609  0.92787026  0.34747268  1
  Al0+  Al93  1  0.92743573  0.82172832  0.98370682  1
  Al0+  Al94  1  0.57199193  0.67989443  0.31850170  1
  Al0+  Al95  1  0.07107329  0.17707725  0.64812485  1
  Si0+  Si96  1  0.32400699  0.07225638  0.01723845  1
  Si0+  Si97  1  0.57496770  0.17749912  0.31611743  1
  Si0+  Si98  1  0.82099829  0.57272321  0.01641348  1
  Si0+  Si99  1  0.57183631  0.17547852  0.98308510  1
  Si0+  Si100  1  0.32360188  0.57356355  0.01898794  1
  Si0+  Si101  1  0.32361006  0.56990278  0.34942977  1
  Si0+  Si102  1  0.92783783  0.32171351  0.31936123  1
  Si0+  Si103  1  0.43021198  0.82191964  0.98535934  1
  Si0+  Si104  1  0.67874361  0.93030371  0.34604301  1
  Si0+  Si105  1  0.67741639  0.92678672  0.01717608  1
  Si0+  Si106  1  0.32203193  0.07474515  0.68336833  1
  Si0+  Si107  1  0.57190428  0.17800216  0.65084606  1
  Si0+  Si108  1  0.07192584  0.67463750  0.31735131  1
  Si0+  Si109  1  0.32293831  0.07113369  0.35048543  1
  Si0+  Si110  1  0.57369428  0.67904496  0.65275421  1
  Si0+  Si111  1  0.82098380  0.07152160  0.68578309  1
  Si0+  Si112  1  0.17794217  0.42611238  0.68163674  1
  Si0+  Si113  1  0.81884116  0.06901461  0.01637997  1
  Si0+  Si114  1  0.57058013  0.67968720  0.98245655  1
  Si0+  Si115  1  0.82614045  0.57262342  0.68640881  1
  Si0+  Si116  1  0.06859349  0.17971982  0.31813665  1
  Si0+  Si117  1  0.82152968  0.07224709  0.34933977  1
  Si0+  Si118  1  0.67698431  0.42805293  0.34953223  1
  Si0+  Si119  1  0.92672900  0.82093940  0.65074285  1
  O2-  O120  1  0.25199876  0.00664384  0.06119844  1
  O2-  O121  1  0.26019343  -0.00328780  0.39411115  1
  O2-  O122  1  0.25203756  0.00721249  0.72726222  1
  O2-  O123  1  0.25331115  0.50454751  0.06006170  1
  O2-  O124  1  0.25411966  0.50170457  0.39302768  1
  O2-  O125  1  0.24752616  0.49293315  0.72675015  1
  O2-  O126  1  0.75079279  -0.00505152  0.05984430  1
  O2-  O127  1  0.74836854  0.00213867  0.38959884  1
  O2-  O128  1  0.75234678  0.00155048  0.72867729  1
  O2-  O129  1  0.75710371  0.49946560  0.06138404  1
  O2-  O130  1  0.74437434  0.49742457  0.39388327  1
  O2-  O131  1  0.76040086  0.49982881  0.72855793  1
  O2-  O132  1  0.00084830  0.25375741  0.27579600  1
  O2-  O133  1  0.00225436  0.25277803  0.59838337  1
  O2-  O134  1  0.00442836  0.25684205  0.93847650  1
  O2-  O135  1  0.00737674  0.74782460  0.27428016  1
  O2-  O136  1  -0.00367314  0.75456491  0.60506067  1
  O2-  O137  1  0.00429562  0.75469496  0.93510392  1
  O2-  O138  1  0.50671533  0.24704666  0.27314474  1
  O2-  O139  1  0.50556433  0.24868489  0.60633691  1
  O2-  O140  1  0.50610692  0.24658041  0.93908578  1
  O2-  O141  1  0.49887339  0.75111275  0.26762441  1
  O2-  O142  1  0.51022523  0.75255839  0.60900691  1
  O2-  O143  1  0.49909755  0.75024300  0.94115761  1
  O2-  O144  1  0.06892232  0.17834365  0.10005706  1
  O2-  O145  1  0.06608664  0.17860873  0.42289121  1
  O2-  O146  1  0.06882211  0.17694435  0.76146758  1
  O2-  O147  1  0.07054873  0.67836323  0.09984134  1
  O2-  O148  1  0.07099207  0.67599553  0.42301540  1
  O2-  O149  1  0.07383140  0.68161709  0.76356113  1
  O2-  O150  1  0.57088722  0.17259303  0.08885923  1
  O2-  O151  1  0.57687908  0.17446445  0.42147437  1
  O2-  O152  1  0.57098591  0.17667568  0.75638003  1
  O2-  O153  1  0.57249693  0.68156715  0.08749102  1
  O2-  O154  1  0.57275768  0.68269680  0.43221272  1
  O2-  O155  1  0.57103082  0.67891144  0.75866102  1
  O2-  O156  1  0.17741784  0.42555691  0.23407257  1
  O2-  O157  1  0.18081607  0.42829354  0.57561175  1
  O2-  O158  1  0.18280671  0.43020014  0.89603708  1
  O2-  O159  1  0.17593985  0.93274824  0.23434894  1
  O2-  O160  1  0.18201772  0.92895590  0.56690699  1
  O2-  O161  1  0.18166275  0.92914358  0.90119194  1
  O2-  O162  1  0.68017954  0.42657328  0.24390874  1
  O2-  O163  1  0.67945732  0.43538115  0.56615633  1
  O2-  O164  1  0.67792622  0.42983417  0.90284933  1
  O2-  O165  1  0.68052764  0.93191153  0.24068342  1
  O2-  O166  1  0.67847493  0.92993200  0.56575564  1
  O2-  O167  1  0.67454195  0.92892130  0.91219728  1
  O2-  O168  1  0.43044393  0.31859066  0.09855444  1
  O2-  O169  1  0.43127943  0.32003337  0.43196368  1
  O2-  O170  1  0.43215310  0.32341659  0.76601210  1
  O2-  O171  1  0.43271577  0.82164585  0.09030255  1
  O2-  O172  1  0.42856784  0.82326942  0.43009381  1
  O2-  O173  1  0.43052030  0.81917001  0.76893049  1
  O2-  O174  1  0.92746610  0.32029947  0.10254992  1
  O2-  O175  1  0.92560714  0.31800845  0.42403157  1
  O2-  O176  1  0.92588016  0.31764375  0.76293012  1
  O2-  O177  1  0.92696611  0.81978185  0.09777497  1
  O2-  O178  1  0.92974896  0.82040155  0.43519324  1
  O2-  O179  1  0.92613345  0.81886520  0.75608525  1
  O2-  O180  1  0.31966720  0.07416754  0.24485422  1
  O2-  O181  1  0.32421184  0.07344511  0.57768630  1
  O2-  O182  1  0.33003449  0.06854240  0.91208697  1
  O2-  O183  1  0.32372499  0.56895934  0.24374182  1
  O2-  O184  1  0.32078625  0.56893657  0.56581998  1
  O2-  O185  1  0.32583983  0.57409247  0.91324405  1
  O2-  O186  1  0.82154929  0.07351217  0.24423417  1
  O2-  O187  1  0.81922689  0.07104823  0.57951722  1
  O2-  O188  1  0.81508030  0.06989158  0.91170192  1
  O2-  O189  1  0.82038738  0.57002713  0.23429463  1
  O2-  O190  1  0.82177489  0.57650406  0.58060984  1
  O2-  O191  1  0.81681647  0.57568782  0.91120449  1
  O2-  O192  1  0.03591836  0.08927568  0.27093017  1
  O2-  O193  1  0.03646560  0.07964456  0.59526140  1
  O2-  O194  1  0.03603625  0.08414698  0.93209265  1
  O2-  O195  1  0.03933031  0.58170309  0.27371467  1
  O2-  O196  1  0.04471502  0.58424034  0.59494507  1
  O2-  O197  1  0.04306262  0.58378947  0.92948073  1
  O2-  O198  1  0.55004852  0.08510706  0.26668665  1
  O2-  O199  1  0.54398154  0.08560840  0.60287088  1
  O2-  O200  1  0.54490815  0.08179510  0.93689175  1
  O2-  O201  1  0.54514867  0.58242720  0.26236389  1
  O2-  O202  1  0.54342775  0.58828036  0.60487157  1
  O2-  O203  1  0.54264153  0.58790053  0.93596686  1
  O2-  O204  1  0.16190983  0.20262332  0.27236628  1
  O2-  O205  1  0.16969787  0.20042393  0.59292977  1
  O2-  O206  1  0.17208941  0.19937373  0.93274081  1
  O2-  O207  1  0.16703094  0.69235002  0.27239848  1
  O2-  O208  1  0.16743198  0.71362505  0.59536559  1
  O2-  O209  1  0.17384620  0.70691982  0.93552600  1
  O2-  O210  1  0.66920192  0.20246824  0.26969594  1
  O2-  O211  1  0.66634858  0.19920115  0.60516928  1
  O2-  O212  1  0.66615778  0.19760345  0.93830272  1
  O2-  O213  1  0.66800318  0.71193916  0.26207992  1
  O2-  O214  1  0.66985652  0.70007608  0.61050819  1
  O2-  O215  1  0.66096759  0.70766731  0.93315719  1
  O2-  O216  1  0.08180319  0.45935950  0.06303817  1
  O2-  O217  1  0.08343499  0.45569050  0.40419642  1
  O2-  O218  1  0.08296007  0.45219471  0.72342234  1
  O2-  O219  1  0.07973162  0.96065408  0.06561360  1
  O2-  O220  1  0.08497500  0.96423589  0.40286714  1
  O2-  O221  1  0.08135289  0.95746751  0.73232104  1
  O2-  O222  1  0.58455435  0.46482839  0.07052514  1
  O2-  O223  1  0.58159461  0.45344097  0.39117128  1
  O2-  O224  1  0.58733289  0.46584152  0.73602717  1
  O2-  O225  1  0.58728200  0.95756300  0.06691266  1
  O2-  O226  1  0.58578577  0.95772328  0.39165604  1
  O2-  O227  1  0.58173633  0.96115219  0.73536369  1
  O2-  O228  1  0.21120132  0.33227641  0.06250773  1
  O2-  O229  1  0.21032788  0.32992835  0.40127949  1
  O2-  O230  1  0.20116577  0.33011011  0.72271747  1
  O2-  O231  1  0.21126666  0.83514040  0.06997814  1
  O2-  O232  1  0.20505307  0.82787320  0.39724360  1
  O2-  O233  1  0.21559152  0.83488601  0.73396038  1
  O2-  O234  1  0.70215831  0.32872792  0.06982092  1
  O2-  O235  1  0.70235384  0.33422826  0.39589262  1
  O2-  O236  1  0.70597110  0.33131506  0.73161720  1
  O2-  O237  1  0.70325561  0.83342700  0.06223145  1
  O2-  O238  1  0.70777178  0.83936582  0.39315496  1
  O2-  O239  1  0.70625879  0.83237441  0.73643307  1
  O2-  O240  1  0.45633506  0.41509537  0.26157819  1
  O2-  O241  1  0.46467931  0.41977990  0.59966563  1
  O2-  O242  1  0.46245078  0.41920117  0.93459476  1
  O2-  O243  1  0.45325201  0.92183357  0.26340877  1
  O2-  O244  1  0.45600092  0.91978911  0.60204555  1
  O2-  O245  1  0.45999375  0.91368214  0.93935167  1
  O2-  O246  1  0.95282317  0.41575873  0.27615338  1
  O2-  O247  1  0.95050656  0.42097384  0.59685889  1
  O2-  O248  1  0.94466084  0.42340051  0.93628746  1
  O2-  O249  1  0.95999414  0.91877076  0.26867077  1
  O2-  O250  1  0.94659840  0.91651468  0.60737331  1
  O2-  O251  1  0.94722919  0.92221951  0.93312580  1
  O2-  O252  1  0.33296126  0.28372554  0.26553119  1
  O2-  O253  1  0.33535310  0.29310792  0.59683650  1
  O2-  O254  1  0.33637419  0.29047160  0.92844241  1
  O2-  O255  1  0.32838152  0.79117143  0.26250570  1
  O2-  O256  1  0.33713942  0.78465634  0.59986754  1
  O2-  O257  1  0.33763027  0.79560415  0.93986888  1
  O2-  O258  1  0.83607646  0.29212102  0.27212785  1
  O2-  O259  1  0.82970140  0.28847256  0.59556765  1
  O2-  O260  1  0.82952277  0.28651048  0.93779014  1
  O2-  O261  1  0.83562346  0.79139570  0.26692940  1
  O2-  O262  1  0.83251947  0.79283685  0.60594542  1
  O2-  O263  1  0.82914315  0.79153061  0.93075105  1
  O2-  O264  1  0.41609950  0.04431680  0.06717887  1
  O2-  O265  1  0.41999121  0.05364081  0.39329861  1
  O2-  O266  1  0.41517100  0.05046374  0.73108387  1
  O2-  O267  1  0.41688911  0.54717029  0.06516317  1
  O2-  O268  1  0.41777975  0.54325687  0.39395493  1
  O2-  O269  1  0.41652953  0.54210578  0.73558081  1
  O2-  O270  1  0.91076391  0.04415909  0.06523085  1
  O2-  O271  1  0.91126086  0.04232854  0.39894176  1
  O2-  O272  1  0.91379823  0.04568947  0.73226112  1
  O2-  O273  1  0.91615708  0.55322337  0.06144479  1
  O2-  O274  1  0.91350714  0.54164897  0.40615211  1
  O2-  O275  1  0.92194737  0.54972041  0.72809971  1
  O2-  O276  1  0.30100679  0.16736607  0.06098829  1
  O2-  O277  1  0.29141991  0.16176335  0.39925048  1
  O2-  O278  1  0.29659414  0.16949609  0.72741640  1
  O2-  O279  1  0.30048231  0.66724203  0.06600509  1
  O2-  O280  1  0.29934051  0.66408715  0.39502768  1
  O2-  O281  1  0.28745156  0.66430871  0.73482826  1
  O2-  O282  1  0.78769320  0.15820019  0.06815781  1
  O2-  O283  1  0.79358156  0.16337498  0.39874572  1
  O2-  O284  1  0.79325319  0.16390083  0.73244659  1
  O2-  O285  1  0.78789468  0.66458728  0.06342638  1
  O2-  O286  1  0.78735352  0.66869703  0.40211305  1
  O2-  O287  1  0.79815739  0.66368843  0.73631148  1
