# generated using pymatgen
data_Ca2Al2SiO7
_symmetry_space_group_name_H-M   'P 1'
_cell_length_a   15.46009032
_cell_length_b   15.46113676
_cell_length_c   15.28609751
_cell_angle_alpha   89.99347194
_cell_angle_beta   89.99414919
_cell_angle_gamma   89.99357042
_symmetry_Int_Tables_number   1
_chemical_formula_structural   Ca2Al2SiO7
_chemical_formula_sum   'Ca48 Al48 Si24 O168'
_cell_volume   3653.84454806
_cell_formula_units_Z   24
loop_
 _symmetry_equiv_pos_site_id
 _symmetry_equiv_pos_as_xyz
  1  'x, y, z'
loop_
 _atom_type_symbol
 _atom_type_oxidation_number
  Ca2+  2.0
  Al0+  0.0
  Si0+  0.0
  O2-  -2.0
loop_
 _atom_site_type_symbol
 _atom_site_label
 _atom_site_symmetry_multiplicity
 _atom_site_fract_x
 _atom_site_fract_y
 _atom_site_fract_z
 _atom_site_occupancy
  Ca2+  Ca0  1  0.16245365  0.08415019  0.16649849  1
  Ca2+  Ca1  1  0.16119186  0.08456738  0.50110118  1
  Ca2+  Ca2  1  0.17327781  0.07783049  0.84621363  1
  Ca2+  Ca3  1  0.17313672  0.58513656  0.17304376  1
  Ca2+  Ca4  1  0.17154364  0.57347057  0.50469750  1
  Ca2+  Ca5  1  0.17346395  0.57653331  0.83863857  1
  Ca2+  Ca6  1  0.66413102  0.08445099  0.16797149  1
  Ca2+  Ca7  1  0.67311318  0.08443064  0.50895090  1
  Ca2+  Ca8  1  0.66965895  0.09526300  0.83679278  1
  Ca2+  Ca9  1  0.67130245  0.57771124  0.16593469  1
  Ca2+  Ca10  1  0.67437174  0.58216490  0.51051284  1
  Ca2+  Ca11  1  0.67574970  0.58072707  0.83989960  1
  Ca2+  Ca12  1  0.08494110  0.33001069  0.16622673  1
  Ca2+  Ca13  1  0.07677914  0.33827529  0.49290105  1
  Ca2+  Ca14  1  0.08185499  0.33179223  0.82782154  1
  Ca2+  Ca15  1  0.08626308  0.82277728  0.16111695  1
  Ca2+  Ca16  1  0.07616882  0.82388580  0.49025024  1
  Ca2+  Ca17  1  0.08910503  0.82715025  0.83650057  1
  Ca2+  Ca18  1  0.57771527  0.33319737  0.16007603  1
  Ca2+  Ca19  1  0.57022002  0.33551239  0.50015569  1
  Ca2+  Ca20  1  0.58036476  0.32919783  0.82808373  1
  Ca2+  Ca21  1  0.57408677  0.82978133  0.15901714  1
  Ca2+  Ca22  1  0.58434835  0.82406772  0.50051696  1
  Ca2+  Ca23  1  0.57539099  0.82650575  0.83005419  1
  Ca2+  Ca24  1  0.32904192  0.42686483  0.17749781  1
  Ca2+  Ca25  1  0.32330337  0.41588223  0.50479455  1
  Ca2+  Ca26  1  0.33644362  0.42400882  0.83460310  1
  Ca2+  Ca27  1  0.33050583  0.92054133  0.16140886  1
  Ca2+  Ca28  1  0.32948159  0.92051105  0.50318890  1
  Ca2+  Ca29  1  0.33026369  0.92090496  0.84616602  1
  Ca2+  Ca30  1  0.83003935  0.41426628  0.16583349  1
  Ca2+  Ca31  1  0.83934595  0.41865256  0.50877380  1
  Ca2+  Ca32  1  0.82973433  0.42252099  0.83787781  1
  Ca2+  Ca33  1  0.83594320  0.91600563  0.17219141  1
  Ca2+  Ca34  1  0.83744835  0.92290285  0.50614757  1
  Ca2+  Ca35  1  0.83080491  0.92469253  0.83542696  1
  Ca2+  Ca36  1  0.41708908  0.17444114  0.15785915  1
  Ca2+  Ca37  1  0.41456692  0.18282892  0.49801229  1
  Ca2+  Ca38  1  0.42673000  0.16827204  0.82716073  1
  Ca2+  Ca39  1  0.40721061  0.66981875  0.15819695  1
  Ca2+  Ca40  1  0.41982202  0.65237757  0.50062151  1
  Ca2+  Ca41  1  0.41334324  0.66702600  0.82907396  1
  Ca2+  Ca42  1  0.92941988  0.17179816  0.16470193  1
  Ca2+  Ca43  1  0.91936619  0.17839787  0.49496019  1
  Ca2+  Ca44  1  0.92047150  0.17311200  0.82615415  1
  Ca2+  Ca45  1  0.92969475  0.66440851  0.16188198  1
  Ca2+  Ca46  1  0.92308507  0.66742131  0.49044447  1
  Ca2+  Ca47  1  0.92049550  0.65682678  0.83140712  1
  Al0+  Al48  1  -0.00033354  -0.00057623  -0.00035791  1
  Al0+  Al49  1  -0.00122648  0.00080166  0.32927132  1
  Al0+  Al50  1  -0.00176233  -0.00096869  0.67259989  1
  Al0+  Al51  1  -0.00031057  0.50108323  -0.00086388  1
  Al0+  Al52  1  -0.00056433  0.50044702  0.32713014  1
  Al0+  Al53  1  0.00194546  0.49907108  0.67045288  1
  Al0+  Al54  1  0.50009058  0.00030993  -0.00422548  1
  Al0+  Al55  1  0.50061135  -0.00254924  0.33766398  1
  Al0+  Al56  1  0.50049233  -0.00302748  0.66128204  1
  Al0+  Al57  1  0.50154779  0.50050023  0.00755834  1
  Al0+  Al58  1  0.50296168  0.49929329  0.33176232  1
  Al0+  Al59  1  0.49988041  0.50037541  0.66235484  1
  Al0+  Al60  1  0.25024962  0.25062018  -0.00243705  1
  Al0+  Al61  1  0.25149797  0.25083143  0.32948650  1
  Al0+  Al62  1  0.24985506  0.24675567  0.66799390  1
  Al0+  Al63  1  0.24787855  0.75111413  -0.00237218  1
  Al0+  Al64  1  0.25259407  0.75282338  0.33647217  1
  Al0+  Al65  1  0.24904360  0.75031814  0.66725515  1
  Al0+  Al66  1  0.74923382  0.25059000  0.00244362  1
  Al0+  Al67  1  0.74998104  0.24861058  0.33185272  1
  Al0+  Al68  1  0.75229273  0.24964144  0.66350430  1
  Al0+  Al69  1  0.75102638  0.75147356  0.00445725  1
  Al0+  Al70  1  0.74748015  0.75054005  0.33037732  1
  Al0+  Al71  1  0.74908826  0.75175201  0.66808755  1
  Al0+  Al72  1  0.17875050  0.42595298  0.68299991  1
  Al0+  Al73  1  0.67973884  0.42797340  0.01531706  1
  Al0+  Al74  1  0.92626202  0.32323532  0.31647421  1
  Al0+  Al75  1  0.07302275  0.67990465  0.31918463  1
  Al0+  Al76  1  0.07194887  0.17945941  0.31898467  1
  Al0+  Al77  1  0.32174354  0.57062674  0.68268694  1
  Al0+  Al78  1  0.81922719  0.07161793  0.68078383  1
  Al0+  Al79  1  0.31955342  0.57021057  0.01269472  1
  Al0+  Al80  1  0.06997073  0.67891505  0.98354223  1
  Al0+  Al81  1  0.42720045  0.32100421  0.65217001  1
  Al0+  Al82  1  0.92722571  0.82085436  0.31921630  1
  Al0+  Al83  1  0.32271287  0.57378120  0.34950890  1
  Al0+  Al84  1  0.82170575  0.57282195  0.67818056  1
  Al0+  Al85  1  0.42915737  0.81897098  0.98683355  1
  Al0+  Al86  1  0.82286034  0.57282663  0.01745314  1
  Al0+  Al87  1  0.32301889  0.07249022  0.01416275  1
  Al0+  Al88  1  0.57105404  0.67966275  0.65461098  1
  Al0+  Al89  1  0.57015244  0.18012477  0.98738816  1
  Al0+  Al90  1  0.57283836  0.17745225  0.65021725  1
  Al0+  Al91  1  0.43037569  0.32150659  0.31773406  1
  Al0+  Al92  1  0.17825095  0.42847450  0.34732866  1
  Al0+  Al93  1  0.17797770  0.92997995  0.01641937  1
  Al0+  Al94  1  0.07157771  0.17868013  0.98401400  1
  Al0+  Al95  1  0.93222064  0.32168945  0.65499173  1
  Si0+  Si96  1  0.82063829  0.07117965  0.01660565  1
  Si0+  Si97  1  0.82087622  0.06968746  0.34828078  1
  Si0+  Si98  1  0.92814673  0.32068537  0.98231690  1
  Si0+  Si99  1  0.43030351  0.82309765  0.31862904  1
  Si0+  Si100  1  0.67678956  0.92773209  0.68479758  1
  Si0+  Si101  1  0.17717186  0.42686390  0.01645482  1
  Si0+  Si102  1  0.67789701  0.92786129  0.35012729  1
  Si0+  Si103  1  0.32288392  0.07093057  0.34891187  1
  Si0+  Si104  1  0.67862846  0.92950691  0.01517073  1
  Si0+  Si105  1  0.92918435  0.82196743  0.65397684  1
  Si0+  Si106  1  0.42814302  0.32518241  0.98388190  1
  Si0+  Si107  1  0.57046943  0.17604127  0.31798868  1
  Si0+  Si108  1  0.67835753  0.42831514  0.68057092  1
  Si0+  Si109  1  0.17817531  0.93077194  0.34890924  1
  Si0+  Si110  1  0.32248207  0.06891509  0.68024345  1
  Si0+  Si111  1  0.07093326  0.67949869  0.65210856  1
  Si0+  Si112  1  0.07108761  0.17472971  0.65204078  1
  Si0+  Si113  1  0.57102102  0.67899735  0.31733209  1
  Si0+  Si114  1  0.92563265  0.82248401  0.98098347  1
  Si0+  Si115  1  0.17814840  0.92919605  0.68130513  1
  Si0+  Si116  1  0.68000489  0.42693424  0.35049276  1
  Si0+  Si117  1  0.81849688  0.57118865  0.34730502  1
  Si0+  Si118  1  0.42545681  0.82083811  0.64748717  1
  Si0+  Si119  1  0.57361649  0.67740599  0.98493501  1
  O2-  O120  1  0.24733701  0.00507199  0.06617892  1
  O2-  O121  1  0.24737749  0.00387775  0.39151105  1
  O2-  O122  1  0.25071923  -0.00117841  0.72213209  1
  O2-  O123  1  0.24705130  0.49443276  0.06015067  1
  O2-  O124  1  0.24974985  0.50161688  0.39749446  1
  O2-  O125  1  0.25237866  0.49662295  0.73271480  1
  O2-  O126  1  0.75006141  -0.00062371  0.05876620  1
  O2-  O127  1  0.75018051  -0.00207281  0.39106929  1
  O2-  O128  1  0.74000046  0.00164734  0.72857133  1
  O2-  O129  1  0.75133633  0.50004695  0.06666761  1
  O2-  O130  1  0.75293174  0.49640204  0.39228156  1
  O2-  O131  1  0.74586365  0.49873359  0.72379931  1
  O2-  O132  1  0.00256482  0.25422194  0.26920382  1
  O2-  O133  1  0.00745479  0.24744166  0.60791924  1
  O2-  O134  1  -0.00137868  0.25443688  0.93707366  1
  O2-  O135  1  -0.00016274  0.75099126  0.26859623  1
  O2-  O136  1  -0.00338819  0.74825632  0.61102838  1
  O2-  O137  1  -0.00811299  0.75157494  0.93678471  1
  O2-  O138  1  0.50355213  0.24447491  0.27220023  1
  O2-  O139  1  0.49968899  0.24850920  0.60149152  1
  O2-  O140  1  0.49468304  0.25355963  0.94080793  1
  O2-  O141  1  0.49462457  0.74546171  0.27739916  1
  O2-  O142  1  0.49289761  0.75015128  0.60457817  1
  O2-  O143  1  0.50171635  0.74218112  0.94031873  1
  O2-  O144  1  0.06812686  0.17891180  0.09679327  1
  O2-  O145  1  0.06688052  0.17466406  0.43281170  1
  O2-  O146  1  0.06799929  0.17183586  0.75745683  1
  O2-  O147  1  0.07131555  0.68139955  0.09634717  1
  O2-  O148  1  0.07008463  0.68194732  0.43362376  1
  O2-  O149  1  0.07180577  0.68208531  0.75696710  1
  O2-  O150  1  0.56963276  0.17953804  0.10080766  1
  O2-  O151  1  0.56966332  0.17555311  0.42330178  1
  O2-  O152  1  0.57087796  0.17873005  0.76381411  1
  O2-  O153  1  0.57428575  0.68155092  0.09091915  1
  O2-  O154  1  0.57565494  0.68205015  0.42236583  1
  O2-  O155  1  0.57355547  0.68392107  0.76724323  1
  O2-  O156  1  0.18160621  0.42825265  0.23379423  1
  O2-  O157  1  0.17559658  0.42857626  0.56953274  1
  O2-  O158  1  0.17729317  0.42800869  0.91080919  1
  O2-  O159  1  0.18002407  0.92924972  0.24466758  1
  O2-  O160  1  0.17705674  0.92972471  0.57570283  1
  O2-  O161  1  0.18051933  0.93040044  0.90210810  1
  O2-  O162  1  0.67907477  0.42830425  0.24573923  1
  O2-  O163  1  0.68002285  0.43030029  0.57444307  1
  O2-  O164  1  0.68049774  0.42784491  0.90149382  1
  O2-  O165  1  0.67452672  0.92904922  0.24511734  1
  O2-  O166  1  0.68022951  0.92481902  0.57887664  1
  O2-  O167  1  0.68009726  0.92803598  0.91038029  1
  O2-  O168  1  0.43033708  0.32459117  0.08958823  1
  O2-  O169  1  0.43086386  0.32020577  0.43070152  1
  O2-  O170  1  0.42936133  0.31952171  0.76570553  1
  O2-  O171  1  0.43218277  0.81955829  0.10048503  1
  O2-  O172  1  0.43372031  0.82978571  0.42339409  1
  O2-  O173  1  0.42590500  0.82363904  0.75277622  1
  O2-  O174  1  0.92731141  0.31769737  0.08780144  1
  O2-  O175  1  0.92320337  0.32033208  0.43025731  1
  O2-  O176  1  0.93097450  0.31949280  0.76794168  1
  O2-  O177  1  0.92509931  0.82330475  0.08633769  1
  O2-  O178  1  0.92814025  0.82018566  0.43370570  1
  O2-  O179  1  0.93088154  0.82504599  0.75863331  1
  O2-  O180  1  0.32882125  0.06697878  0.24469240  1
  O2-  O181  1  0.32083707  0.06723992  0.57460560  1
  O2-  O182  1  0.32400223  0.06803844  0.90012694  1
  O2-  O183  1  0.32121205  0.57449105  0.23577398  1
  O2-  O184  1  0.31789155  0.57178621  0.56941375  1
  O2-  O185  1  0.32047409  0.56906116  0.89979170  1
  O2-  O186  1  0.81848438  0.06869138  0.24313732  1
  O2-  O187  1  0.82197016  0.06659188  0.56751294  1
  O2-  O188  1  0.81921865  0.07089909  0.91146298  1
  O2-  O189  1  0.81328021  0.57365188  0.24291574  1
  O2-  O190  1  0.82137006  0.57366841  0.56443690  1
  O2-  O191  1  0.82001858  0.57183786  0.90348237  1
  O2-  O192  1  0.03938474  0.08284171  0.26431481  1
  O2-  O193  1  0.04033688  0.08216943  0.60555188  1
  O2-  O194  1  0.03951327  0.08140109  0.93170172  1
  O2-  O195  1  0.04554279  0.58297389  0.26469762  1
  O2-  O196  1  0.04435735  0.58733404  0.60631611  1
  O2-  O197  1  0.04036902  0.58182061  0.92921195  1
  O2-  O198  1  0.54522140  0.08099465  0.27409520  1
  O2-  O199  1  0.54838492  0.07679646  0.59861488  1
  O2-  O200  1  0.54325052  0.08359896  0.93146975  1
  O2-  O201  1  0.55060442  0.58575054  0.27068344  1
  O2-  O202  1  0.54600559  0.58329962  0.59741034  1
  O2-  O203  1  0.55245178  0.58187401  0.94248386  1
  O2-  O204  1  0.17163448  0.20086418  0.26669090  1
  O2-  O205  1  0.16706280  0.19228661  0.60855927  1
  O2-  O206  1  0.16970948  0.20552513  0.93049657  1
  O2-  O207  1  0.17160957  0.71273007  0.26906645  1
  O2-  O208  1  0.16079100  0.71180225  0.60350279  1
  O2-  O209  1  0.16388839  0.71458644  0.92777353  1
  O2-  O210  1  0.66487009  0.19911085  0.27286392  1
  O2-  O211  1  0.67129670  0.20479985  0.59757358  1
  O2-  O212  1  0.66743998  0.21113290  0.93441993  1
  O2-  O213  1  0.65889268  0.71362928  0.26670606  1
  O2-  O214  1  0.66607987  0.71599634  0.59803801  1
  O2-  O215  1  0.66620401  0.70818250  0.93966162  1
  O2-  O216  1  0.08325035  0.45234253  0.06078025  1
  O2-  O217  1  0.07723962  0.45566849  0.39704626  1
  O2-  O218  1  0.08259713  0.45781585  0.73823546  1
  O2-  O219  1  0.07791256  0.95448589  0.06783162  1
  O2-  O220  1  0.08533860  0.95764661  0.39598818  1
  O2-  O221  1  0.08758821  0.95634568  0.73084816  1
  O2-  O222  1  0.58332146  0.45701489  0.07258343  1
  O2-  O223  1  0.58959535  0.45851942  0.39822958  1
  O2-  O224  1  0.58439150  0.45211143  0.72530753  1
  O2-  O225  1  0.58773267  0.95916437  0.06312689  1
  O2-  O226  1  0.58770918  0.95580353  0.40134635  1
  O2-  O227  1  0.58010938  0.94627486  0.72700617  1
  O2-  O228  1  0.20041370  0.33238573  0.06103314  1
  O2-  O229  1  0.20715329  0.32896433  0.39936913  1
  O2-  O230  1  0.20264641  0.32514992  0.73367925  1
  O2-  O231  1  0.21144292  0.83337893  0.06881331  1
  O2-  O232  1  0.20924754  0.84155013  0.40008898  1
  O2-  O233  1  0.20558149  0.83756632  0.72865553  1
  O2-  O234  1  0.70896053  0.33055673  0.07144237  1
  O2-  O235  1  0.70387310  0.33328801  0.39613597  1
  O2-  O236  1  0.70583139  0.33529232  0.72579468  1
  O2-  O237  1  0.70445785  0.83846265  0.06566790  1
  O2-  O238  1  0.70512608  0.83556092  0.39763473  1
  O2-  O239  1  0.70828748  0.83770981  0.73411287  1
  O2-  O240  1  0.46484323  0.41695424  0.26374897  1
  O2-  O241  1  0.45552039  0.41837772  0.59731716  1
  O2-  O242  1  0.45883991  0.41792272  0.93883096  1
  O2-  O243  1  0.46587387  0.91170004  0.26925163  1
  O2-  O244  1  0.45352824  0.91262225  0.59824632  1
  O2-  O245  1  0.46363237  0.91342210  0.93101145  1
  O2-  O246  1  0.94825208  0.42209868  0.26302889  1
  O2-  O247  1  0.96199544  0.41851214  0.60010999  1
  O2-  O248  1  0.95051544  0.41573837  0.93864175  1
  O2-  O249  1  0.95226205  0.91962636  0.26695494  1
  O2-  O250  1  0.96123499  0.91232552  0.60505491  1
  O2-  O251  1  0.95289117  0.91556699  0.93447369  1
  O2-  O252  1  0.33493463  0.29140613  0.26305562  1
  O2-  O253  1  0.32957772  0.28772575  0.59853666  1
  O2-  O254  1  0.33367919  0.30409334  0.93876931  1
  O2-  O255  1  0.33651571  0.80241296  0.27318759  1
  O2-  O256  1  0.33074171  0.79854766  0.60147277  1
  O2-  O257  1  0.33299716  0.79160072  0.93162296  1
  O2-  O258  1  0.82932810  0.28857416  0.26307578  1
  O2-  O259  1  0.83655413  0.29110340  0.59935848  1
  O2-  O260  1  0.83522368  0.29145446  0.93739146  1
  O2-  O261  1  0.82772413  0.79549447  0.26675103  1
  O2-  O262  1  0.83583096  0.79985295  0.60746639  1
  O2-  O263  1  0.83018936  0.80042339  0.93636320  1
  O2-  O264  1  0.42012473  0.03874708  0.06737748  1
  O2-  O265  1  0.41168986  0.03671320  0.39976319  1
  O2-  O266  1  0.41481492  0.03928918  0.72538330  1
  O2-  O267  1  0.41740281  0.54628392  0.06757012  1
  O2-  O268  1  0.42361616  0.54461971  0.39749728  1
  O2-  O269  1  0.42288147  0.54659166  0.73222374  1
  O2-  O270  1  0.91173101  0.04188773  0.06372065  1
  O2-  O271  1  0.91226344  0.04173260  0.39642273  1
  O2-  O272  1  0.91312366  0.03547372  0.73778192  1
  O2-  O273  1  0.92148609  0.54424815  0.06881539  1
  O2-  O274  1  0.91296578  0.54901929  0.39128156  1
  O2-  O275  1  0.91688173  0.54149690  0.73305212  1
  O2-  O276  1  0.29865505  0.17285356  0.06442575  1
  O2-  O277  1  0.29747926  0.16345179  0.39514804  1
  O2-  O278  1  0.29787830  0.16020960  0.72871521  1
  O2-  O279  1  0.28687772  0.66695357  0.06448112  1
  O2-  O280  1  0.30058474  0.67456466  0.40189212  1
  O2-  O281  1  0.29204532  0.67051821  0.73301302  1
  O2-  O282  1  0.79141362  0.16154465  0.06505760  1
  O2-  O283  1  0.79162755  0.16109337  0.39603947  1
  O2-  O284  1  0.79219046  0.16892416  0.73501002  1
  O2-  O285  1  0.79470462  0.67163138  0.07034057  1
  O2-  O286  1  0.78598238  0.66246275  0.39468424  1
  O2-  O287  1  0.79213857  0.66955279  0.73251936  1
