# generated using pymatgen
data_Ca2Al2SiO7
_symmetry_space_group_name_H-M   'P 1'
_cell_length_a   15.46616873
_cell_length_b   15.46798093
_cell_length_c   15.29107584
_cell_angle_alpha   89.98086423
_cell_angle_beta   90.00077338
_cell_angle_gamma   89.96646383
_symmetry_Int_Tables_number   1
_chemical_formula_structural   Ca2Al2SiO7
_chemical_formula_sum   'Ca48 Al48 Si24 O168'
_cell_volume   3658.08940389
_cell_formula_units_Z   24
loop_
 _symmetry_equiv_pos_site_id
 _symmetry_equiv_pos_as_xyz
  1  'x, y, z'
loop_
 _atom_type_symbol
 _atom_type_oxidation_number
  Ca2+  2.0
  Al0+  0.0
  Si0+  0.0
  O2-  -2.0
loop_
 _atom_site_type_symbol
 _atom_site_label
 _atom_site_symmetry_multiplicity
 _atom_site_fract_x
 _atom_site_fract_y
 _atom_site_fract_z
 _atom_site_occupancy
  Ca2+  Ca0  1  0.16944083  0.08614103  0.16534962  1
  Ca2+  Ca1  1  0.17010903  0.08259556  0.50998526  1
  Ca2+  Ca2  1  0.17464374  0.09498504  0.83806420  1
  Ca2+  Ca3  1  0.16988125  0.58591977  0.17329609  1
  Ca2+  Ca4  1  0.17493291  0.58360893  0.51029652  1
  Ca2+  Ca5  1  0.16772829  0.57601912  0.84005419  1
  Ca2+  Ca6  1  0.66836661  0.07502464  0.17810876  1
  Ca2+  Ca7  1  0.65929693  0.08122800  0.50331869  1
  Ca2+  Ca8  1  0.66812573  0.08401616  0.83612100  1
  Ca2+  Ca9  1  0.67149576  0.59250004  0.17584954  1
  Ca2+  Ca10  1  0.67521880  0.59140108  0.49979342  1
  Ca2+  Ca11  1  0.66785388  0.58276854  0.83917864  1
  Ca2+  Ca12  1  0.08691681  0.33095134  0.16030976  1
  Ca2+  Ca13  1  0.08897656  0.33314944  0.50591345  1
  Ca2+  Ca14  1  0.09026069  0.33011312  0.82682298  1
  Ca2+  Ca15  1  0.07472000  0.82154515  0.16079305  1
  Ca2+  Ca16  1  0.07795268  0.82205510  0.49406318  1
  Ca2+  Ca17  1  0.07930268  0.82341973  0.82780644  1
  Ca2+  Ca18  1  0.57401731  0.33482927  0.16766247  1
  Ca2+  Ca19  1  0.57033384  0.32395908  0.49476590  1
  Ca2+  Ca20  1  0.57245211  0.32556645  0.82090141  1
  Ca2+  Ca21  1  0.58583688  0.82424833  0.16710688  1
  Ca2+  Ca22  1  0.58071510  0.83065414  0.49246671  1
  Ca2+  Ca23  1  0.57991966  0.82678036  0.83378998  1
  Ca2+  Ca24  1  0.32768910  0.42525217  0.16836717  1
  Ca2+  Ca25  1  0.33360340  0.42268076  0.50641345  1
  Ca2+  Ca26  1  0.32338444  0.42122561  0.83427355  1
  Ca2+  Ca27  1  0.33434052  0.92306809  0.16799930  1
  Ca2+  Ca28  1  0.33204222  0.92389619  0.50735978  1
  Ca2+  Ca29  1  0.33155121  0.93118892  0.83654603  1
  Ca2+  Ca30  1  0.82939540  0.42615444  0.17572299  1
  Ca2+  Ca31  1  0.83491335  0.42027387  0.50453604  1
  Ca2+  Ca32  1  0.83255353  0.41168103  0.83411796  1
  Ca2+  Ca33  1  0.83141046  0.90890630  0.17530592  1
  Ca2+  Ca34  1  0.82916843  0.90597234  0.50144014  1
  Ca2+  Ca35  1  0.83823982  0.91075596  0.83569029  1
  Ca2+  Ca36  1  0.41647110  0.17112309  0.16504846  1
  Ca2+  Ca37  1  0.41513544  0.17781793  0.49619719  1
  Ca2+  Ca38  1  0.41456452  0.17105432  0.82121492  1
  Ca2+  Ca39  1  0.42510113  0.65370578  0.16366574  1
  Ca2+  Ca40  1  0.41957661  0.65954675  0.49128511  1
  Ca2+  Ca41  1  0.41874545  0.65342006  0.83227484  1
  Ca2+  Ca42  1  0.92375790  0.16849213  0.15993536  1
  Ca2+  Ca43  1  0.92000219  0.17346065  0.50252313  1
  Ca2+  Ca44  1  0.93190266  0.17329514  0.82536969  1
  Ca2+  Ca45  1  0.92309285  0.67127652  0.16391411  1
  Ca2+  Ca46  1  0.92898463  0.66939874  0.49407416  1
  Ca2+  Ca47  1  0.93094624  0.67254325  0.82917894  1
  Al0+  Al48  1  0.00048436  0.00294451  -0.00678853  1
  Al0+  Al49  1  -0.00045940  0.00088889  0.33126089  1
  Al0+  Al50  1  -0.00324928  -0.00057020  0.66047674  1
  Al0+  Al51  1  -0.00381700  0.50010951  0.00155271  1
  Al0+  Al52  1  0.00016848  0.49813852  0.33492198  1
  Al0+  Al53  1  -0.00015825  0.50112301  0.66483418  1
  Al0+  Al54  1  0.50176783  -0.00108095  0.00550102  1
  Al0+  Al55  1  0.50133015  0.00054877  0.33466503  1
  Al0+  Al56  1  0.50160497  -0.00437643  0.67031638  1
  Al0+  Al57  1  0.49941511  0.49727862  -0.00253302  1
  Al0+  Al58  1  0.49919829  0.49753864  0.32866514  1
  Al0+  Al59  1  0.50316217  0.49768328  0.66512466  1
  Al0+  Al60  1  0.25131867  0.25224938  0.00619891  1
  Al0+  Al61  1  0.25050967  0.25152043  0.32892452  1
  Al0+  Al62  1  0.25107473  0.25223404  0.66450497  1
  Al0+  Al63  1  0.25255460  0.75298296  0.00035206  1
  Al0+  Al64  1  0.24998450  0.75184618  0.33415105  1
  Al0+  Al65  1  0.25339568  0.75245761  0.66943788  1
  Al0+  Al66  1  0.74865888  0.24805200  0.00377744  1
  Al0+  Al67  1  0.75067118  0.24868179  0.33017179  1
  Al0+  Al68  1  0.75098911  0.24751307  0.66124332  1
  Al0+  Al69  1  0.74680996  0.74961876  -0.00804117  1
  Al0+  Al70  1  0.74866663  0.75122374  0.33769438  1
  Al0+  Al71  1  0.74883062  0.74965315  0.66796529  1
  Al0+  Al72  1  0.07308931  0.17973590  0.65139374  1
  Al0+  Al73  1  0.57122355  0.17759414  0.31614817  1
  Al0+  Al74  1  0.82031997  0.57055549  0.34766360  1
  Al0+  Al75  1  0.32165773  0.57285659  0.01586181  1
  Al0+  Al76  1  0.17635720  0.43123264  0.01621635  1
  Al0+  Al77  1  0.31968629  0.07004356  0.67750874  1
  Al0+  Al78  1  0.92926962  0.82018288  0.31891659  1
  Al0+  Al79  1  0.92820056  0.32250165  0.65181735  1
  Al0+  Al80  1  0.57119370  0.17487458  0.65322696  1
  Al0+  Al81  1  0.07199204  0.18322986  0.98732558  1
  Al0+  Al82  1  0.56721162  0.67857594  0.98569267  1
  Al0+  Al83  1  0.32511104  0.57343699  0.68134589  1
  Al0+  Al84  1  0.32160959  0.07155681  0.01502870  1
  Al0+  Al85  1  0.42734480  0.32105133  0.31368002  1
  Al0+  Al86  1  0.32028283  0.57088997  0.34646286  1
  Al0+  Al87  1  0.68033930  0.93069511  0.34835747  1
  Al0+  Al88  1  0.92709840  0.81976238  0.65000465  1
  Al0+  Al89  1  0.07399246  0.67679907  0.98520702  1
  Al0+  Al90  1  0.17811003  0.43178821  0.68115096  1
  Al0+  Al91  1  0.56860401  0.68034917  0.32252602  1
  Al0+  Al92  1  0.42886296  0.32137876  0.65157041  1
  Al0+  Al93  1  0.07349371  0.67690719  0.31839974  1
  Al0+  Al94  1  0.07475252  0.67935788  0.65230392  1
  Al0+  Al95  1  0.92840400  0.82096401  0.98498696  1
  Si0+  Si96  1  0.31964837  0.07123551  0.34820558  1
  Si0+  Si97  1  0.17767669  0.42637227  0.35134505  1
  Si0+  Si98  1  0.42886342  0.82671771  0.98310036  1
  Si0+  Si99  1  0.68159746  0.42675601  0.68053748  1
  Si0+  Si100  1  0.67843423  0.42638235  0.01465714  1
  Si0+  Si101  1  0.17746469  0.93056923  0.34768457  1
  Si0+  Si102  1  0.17508180  0.92890371  0.68281513  1
  Si0+  Si103  1  0.42654861  0.82421191  0.31751455  1
  Si0+  Si104  1  0.67804521  0.42564837  0.35044155  1
  Si0+  Si105  1  0.81949603  0.57188258  0.68347076  1
  Si0+  Si106  1  0.82448744  0.07385966  0.35165988  1
  Si0+  Si107  1  0.57163902  0.17685768  0.98582812  1
  Si0+  Si108  1  0.68004332  0.92719273  0.68561240  1
  Si0+  Si109  1  0.92390752  0.32175173  0.98607544  1
  Si0+  Si110  1  0.07078110  0.17932393  0.31775245  1
  Si0+  Si111  1  0.56980057  0.67823550  0.65200596  1
  Si0+  Si112  1  0.82100322  0.07185221  0.68286696  1
  Si0+  Si113  1  0.92818921  0.32126951  0.31728896  1
  Si0+  Si114  1  0.43072148  0.31864472  0.98317543  1
  Si0+  Si115  1  0.68102361  0.92826806  0.01574752  1
  Si0+  Si116  1  0.82158705  0.07098225  0.01451661  1
  Si0+  Si117  1  0.43069021  0.82175467  0.65341748  1
  Si0+  Si118  1  0.81656232  0.57160251  0.01360402  1
  Si0+  Si119  1  0.17601099  0.92951019  0.01653618  1
  O2-  O120  1  0.24655134  -0.00318953  0.06171273  1
  O2-  O121  1  0.24899861  0.00077087  0.39081100  1
  O2-  O122  1  0.23985181  0.00188274  0.72669023  1
  O2-  O123  1  0.24209884  0.50931559  0.06624367  1
  O2-  O124  1  0.24313509  0.49903660  0.39302132  1
  O2-  O125  1  0.24799316  0.50656200  0.73036861  1
  O2-  O126  1  0.75487122  -0.00352576  0.05731217  1
  O2-  O127  1  0.75449575  0.00619133  0.39532464  1
  O2-  O128  1  0.75133406  -0.00102108  0.72591671  1
  O2-  O129  1  0.74798389  0.49840028  0.05666577  1
  O2-  O130  1  0.74532341  0.49547181  0.39511071  1
  O2-  O131  1  0.75216783  0.49685667  0.72575969  1
  O2-  O132  1  -0.00037501  0.25045532  0.27592208  1
  O2-  O133  1  0.00242612  0.25311790  0.60119846  1
  O2-  O134  1  -0.00183947  0.25953047  0.94255341  1
  O2-  O135  1  -0.00023273  0.74760074  0.26905899  1
  O2-  O136  1  0.00275051  0.75150715  0.60200433  1
  O2-  O137  1  0.00372234  0.75188703  0.93680348  1
  O2-  O138  1  0.50018058  0.24873585  0.26400611  1
  O2-  O139  1  0.49746496  0.24450268  0.60387515  1
  O2-  O140  1  0.49999540  0.24505711  0.94184629  1
  O2-  O141  1  0.49073801  0.75085665  0.27422894  1
  O2-  O142  1  0.49338465  0.74341036  0.61163229  1
  O2-  O143  1  0.48886308  0.74973058  0.93912087  1
  O2-  O144  1  0.06801178  0.18196844  0.10104151  1
  O2-  O145  1  0.07182560  0.17836743  0.42236450  1
  O2-  O146  1  0.07198286  0.18065506  0.76497128  1
  O2-  O147  1  0.06965323  0.67729420  0.09867621  1
  O2-  O148  1  0.07483195  0.67941041  0.43159623  1
  O2-  O149  1  0.07243221  0.68017115  0.76594046  1
  O2-  O150  1  0.57333666  0.17834618  0.09042053  1
  O2-  O151  1  0.56779547  0.17760941  0.42931952  1
  O2-  O152  1  0.57162334  0.17760511  0.76774358  1
  O2-  O153  1  0.57184314  0.68131797  0.09846178  1
  O2-  O154  1  0.56881849  0.68293083  0.43587032  1
  O2-  O155  1  0.57249212  0.67963859  0.75733873  1
  O2-  O156  1  0.17784481  0.42365396  0.24578741  1
  O2-  O157  1  0.18028809  0.43176822  0.56745877  1
  O2-  O158  1  0.17979365  0.42713597  0.90331102  1
  O2-  O159  1  0.17749860  0.93340990  0.24263635  1
  O2-  O160  1  0.17935434  0.92857322  0.57685336  1
  O2-  O161  1  0.17651681  0.93171364  0.91112134  1
  O2-  O162  1  0.68168946  0.42555004  0.24421350  1
  O2-  O163  1  0.68186801  0.42926589  0.57585922  1
  O2-  O164  1  0.68031033  0.42363649  0.90943244  1
  O2-  O165  1  0.68172276  0.93019114  0.23479877  1
  O2-  O166  1  0.67869181  0.92458594  0.58103032  1
  O2-  O167  1  0.67876688  0.93049706  0.91053879  1
  O2-  O168  1  0.43362710  0.31885289  0.08808852  1
  O2-  O169  1  0.42592077  0.31872294  0.42681924  1
  O2-  O170  1  0.43181828  0.32072053  0.76568193  1
  O2-  O171  1  0.43547345  0.83434195  0.08816357  1
  O2-  O172  1  0.42843627  0.82690644  0.42332170  1
  O2-  O173  1  0.43622657  0.82833251  0.75803462  1
  O2-  O174  1  0.91886401  0.31723145  0.09170533  1
  O2-  O175  1  0.92637211  0.32059328  0.42183790  1
  O2-  O176  1  0.92295354  0.31718750  0.76539167  1
  O2-  O177  1  0.92548194  0.81819742  0.09834286  1
  O2-  O178  1  0.93194707  0.81947757  0.43194331  1
  O2-  O179  1  0.92606138  0.81632343  0.76359799  1
  O2-  O180  1  0.31830534  0.07006929  0.24284822  1
  O2-  O181  1  0.32054963  0.06578605  0.56412726  1
  O2-  O182  1  0.32323858  0.07143200  0.90196839  1
  O2-  O183  1  0.32044943  0.56931075  0.23362192  1
  O2-  O184  1  0.32736547  0.57095020  0.56771480  1
  O2-  O185  1  0.32620367  0.56460110  0.90297260  1
  O2-  O186  1  0.82524154  0.07387407  0.24554509  1
  O2-  O187  1  0.81956427  0.07414905  0.57817524  1
  O2-  O188  1  0.81734763  0.07524556  0.90979673  1
  O2-  O189  1  0.81781127  0.56918026  0.23386418  1
  O2-  O190  1  0.81539533  0.57410594  0.57853939  1
  O2-  O191  1  0.81392110  0.57030898  0.90839926  1
  O2-  O192  1  0.04274319  0.08847395  0.26866799  1
  O2-  O193  1  0.04288653  0.08197552  0.59827401  1
  O2-  O194  1  0.04152286  0.08827267  0.93107735  1
  O2-  O195  1  0.04565048  0.57705871  0.26852468  1
  O2-  O196  1  0.04479663  0.58205972  0.59981605  1
  O2-  O197  1  0.03936309  0.57922480  0.93352455  1
  O2-  O198  1  0.54232543  0.07878320  0.26396062  1
  O2-  O199  1  0.54707629  0.07414002  0.60444524  1
  O2-  O200  1  0.54755171  0.08327006  0.94089234  1
  O2-  O201  1  0.54526178  0.58253618  0.26781123  1
  O2-  O202  1  0.55067019  0.58494926  0.60504552  1
  O2-  O203  1  0.54246405  0.57996644  0.93155087  1
  O2-  O204  1  0.16180053  0.20736710  0.26924175  1
  O2-  O205  1  0.17053431  0.20673065  0.59682151  1
  O2-  O206  1  0.17002526  0.21289233  0.93657690  1
  O2-  O207  1  0.17068000  0.71013870  0.26562745  1
  O2-  O208  1  0.17447083  0.70830698  0.60212155  1
  O2-  O209  1  0.17444797  0.70289716  0.93564394  1
  O2-  O210  1  0.67148302  0.20301937  0.26449127  1
  O2-  O211  1  0.66806441  0.20358331  0.59943678  1
  O2-  O212  1  0.66365401  0.20623159  0.93903389  1
  O2-  O213  1  0.66364155  0.71576758  0.26879332  1
  O2-  O214  1  0.65920984  0.71325020  0.60515042  1
  O2-  O215  1  0.66043975  0.71323465  0.92706990  1
  O2-  O216  1  0.07330164  0.44831545  0.06618467  1
  O2-  O217  1  0.08212192  0.44506349  0.39553718  1
  O2-  O218  1  0.07728613  0.45409753  0.73332395  1
  O2-  O219  1  0.08301464  0.95936454  0.06218607  1
  O2-  O220  1  0.08656064  0.96055666  0.39565411  1
  O2-  O221  1  0.07875028  0.94903350  0.72482029  1
  O2-  O222  1  0.58654267  0.45343891  0.06084379  1
  O2-  O223  1  0.58322690  0.44907627  0.39300896  1
  O2-  O224  1  0.59097143  0.45572724  0.72987632  1
  O2-  O225  1  0.59132641  0.95795274  0.06570411  1
  O2-  O226  1  0.58290007  0.96029110  0.40320887  1
  O2-  O227  1  0.58934829  0.95425093  0.73602142  1
  O2-  O228  1  0.21193695  0.33581264  0.07202778  1
  O2-  O229  1  0.20786745  0.33327536  0.39669798  1
  O2-  O230  1  0.20920287  0.33316629  0.73282164  1
  O2-  O231  1  0.20066641  0.83618282  0.06362094  1
  O2-  O232  1  0.20510206  0.83970854  0.39664104  1
  O2-  O233  1  0.20673883  0.83847850  0.73167595  1
  O2-  O234  1  0.70661391  0.33570045  0.06510230  1
  O2-  O235  1  0.70619431  0.33223607  0.39544283  1
  O2-  O236  1  0.70906795  0.33443022  0.72810903  1
  O2-  O237  1  0.70680748  0.83473816  0.06058980  1
  O2-  O238  1  0.70965207  0.83547257  0.40564358  1
  O2-  O239  1  0.70888787  0.83588957  0.73490942  1
  O2-  O240  1  0.45907058  0.41724182  0.25856398  1
  O2-  O241  1  0.46531684  0.41655500  0.59690645  1
  O2-  O242  1  0.46230599  0.40797871  0.93435196  1
  O2-  O243  1  0.45752835  0.91546192  0.26994618  1
  O2-  O244  1  0.46677193  0.90864604  0.60172391  1
  O2-  O245  1  0.46587780  0.91599164  0.93374139  1
  O2-  O246  1  0.95511381  0.41257712  0.26881403  1
  O2-  O247  1  0.95057737  0.42194554  0.59966488  1
  O2-  O248  1  0.93959368  0.41795234  0.94308617  1
  O2-  O249  1  0.95622956  0.91990544  0.26660247  1
  O2-  O250  1  0.94538686  0.92054503  0.59912796  1
  O2-  O251  1  0.95205459  0.92112973  0.93317542  1
  O2-  O252  1  0.33020365  0.28974114  0.25923390  1
  O2-  O253  1  0.33167426  0.29587725  0.59723946  1
  O2-  O254  1  0.33840201  0.29057610  0.93917269  1
  O2-  O255  1  0.33163718  0.80573498  0.27233625  1
  O2-  O256  1  0.33648619  0.80522559  0.60711108  1
  O2-  O257  1  0.33206471  0.81369384  0.94068636  1
  O2-  O258  1  0.83713742  0.29401032  0.26778638  1
  O2-  O259  1  0.83252152  0.28977692  0.59553269  1
  O2-  O260  1  0.83234085  0.28955425  0.93843825  1
  O2-  O261  1  0.82967033  0.79227473  0.26941127  1
  O2-  O262  1  0.82850163  0.78725904  0.59940909  1
  O2-  O263  1  0.83097551  0.79110504  0.93050236  1
  O2-  O264  1  0.41793720  0.03912974  0.07007605  1
  O2-  O265  1  0.41141948  0.04337535  0.39437306  1
  O2-  O266  1  0.41461480  0.03349261  0.73282132  1
  O2-  O267  1  0.41908935  0.53457615  0.06731038  1
  O2-  O268  1  0.41819824  0.53827436  0.39756881  1
  O2-  O269  1  0.42367327  0.53988760  0.73286727  1
  O2-  O270  1  0.91553481  0.04865691  0.06000278  1
  O2-  O271  1  0.91830392  0.04874273  0.39731320  1
  O2-  O272  1  0.91357825  0.04508635  0.72993578  1
  O2-  O273  1  0.90816993  0.54702827  0.06225119  1
  O2-  O274  1  0.91643463  0.53781799  0.40146260  1
  O2-  O275  1  0.91213042  0.54727148  0.72946779  1
  O2-  O276  1  0.29012396  0.16624363  0.07152620  1
  O2-  O277  1  0.29009507  0.16348738  0.39294316  1
  O2-  O278  1  0.29436182  0.16811786  0.73025027  1
  O2-  O279  1  0.30982658  0.67738472  0.06259632  1
  O2-  O280  1  0.29667849  0.67083149  0.39848508  1
  O2-  O281  1  0.30793996  0.67577417  0.73173087  1
  O2-  O282  1  0.79020531  0.16045883  0.06591501  1
  O2-  O283  1  0.79988731  0.16842015  0.39622354  1
  O2-  O284  1  0.79078105  0.16251627  0.73191637  1
  O2-  O285  1  0.78318007  0.66240392  0.05931660  1
  O2-  O286  1  0.78632971  0.66488003  0.40330428  1
  O2-  O287  1  0.78426619  0.66061808  0.73274541  1
