# generated using pymatgen
data_Ca2Al2SiO7
_symmetry_space_group_name_H-M   'P 1'
_cell_length_a   15.46345289
_cell_length_b   15.46131675
_cell_length_c   15.28718923
_cell_angle_alpha   90.00333647
_cell_angle_beta   90.01137499
_cell_angle_gamma   90.00648027
_symmetry_Int_Tables_number   1
_chemical_formula_structural   Ca2Al2SiO7
_chemical_formula_sum   'Ca48 Al48 Si24 O168'
_cell_volume   3654.94278429
_cell_formula_units_Z   24
loop_
 _symmetry_equiv_pos_site_id
 _symmetry_equiv_pos_as_xyz
  1  'x, y, z'
loop_
 _atom_type_symbol
 _atom_type_oxidation_number
  Ca2+  2.0
  Al0+  0.0
  Si0+  0.0
  O2-  -2.0
loop_
 _atom_site_type_symbol
 _atom_site_label
 _atom_site_symmetry_multiplicity
 _atom_site_fract_x
 _atom_site_fract_y
 _atom_site_fract_z
 _atom_site_occupancy
  Ca2+  Ca0  1  0.15530159  0.08171061  0.16829102  1
  Ca2+  Ca1  1  0.16651350  0.08085738  0.50575265  1
  Ca2+  Ca2  1  0.15829007  0.07035030  0.83794317  1
  Ca2+  Ca3  1  0.17147665  0.58978118  0.16614374  1
  Ca2+  Ca4  1  0.16756462  0.57820631  0.51007741  1
  Ca2+  Ca5  1  0.16556377  0.58501922  0.83915537  1
  Ca2+  Ca6  1  0.68206195  0.07747994  0.17594187  1
  Ca2+  Ca7  1  0.67706044  0.07592720  0.51161314  1
  Ca2+  Ca8  1  0.67798633  0.08479952  0.83497467  1
  Ca2+  Ca9  1  0.67173008  0.57497890  0.17757051  1
  Ca2+  Ca10  1  0.66551193  0.57972546  0.50084109  1
  Ca2+  Ca11  1  0.66262522  0.57365755  0.83591814  1
  Ca2+  Ca12  1  0.07142459  0.32012019  0.15742795  1
  Ca2+  Ca13  1  0.08246957  0.32821553  0.49255895  1
  Ca2+  Ca14  1  0.07582030  0.33234118  0.82979826  1
  Ca2+  Ca15  1  0.07566425  0.83143983  0.15987818  1
  Ca2+  Ca16  1  0.07085757  0.83688188  0.50031421  1
  Ca2+  Ca17  1  0.08459487  0.82737187  0.82541477  1
  Ca2+  Ca18  1  0.58250460  0.34298170  0.16520803  1
  Ca2+  Ca19  1  0.58441426  0.33426954  0.49776183  1
  Ca2+  Ca20  1  0.58818381  0.33122384  0.82593537  1
  Ca2+  Ca21  1  0.59253545  0.82691507  0.16924545  1
  Ca2+  Ca22  1  0.60099344  0.82377449  0.49606567  1
  Ca2+  Ca23  1  0.58321359  0.82765234  0.82047721  1
  Ca2+  Ca24  1  0.33491726  0.42095407  0.17080858  1
  Ca2+  Ca25  1  0.32838743  0.41268053  0.50402905  1
  Ca2+  Ca26  1  0.32404770  0.42330304  0.83613437  1
  Ca2+  Ca27  1  0.32350758  0.91665735  0.16660942  1
  Ca2+  Ca28  1  0.32485938  0.91624141  0.50624327  1
  Ca2+  Ca29  1  0.32088826  0.91208021  0.83670890  1
  Ca2+  Ca30  1  0.82601280  0.41830021  0.17186096  1
  Ca2+  Ca31  1  0.82518248  0.42368652  0.50377773  1
  Ca2+  Ca32  1  0.82219014  0.41084153  0.83906963  1
  Ca2+  Ca33  1  0.83610107  0.92489343  0.17509308  1
  Ca2+  Ca34  1  0.83221260  0.92142522  0.50257265  1
  Ca2+  Ca35  1  0.83867507  0.92515396  0.83009614  1
  Ca2+  Ca36  1  0.41987415  0.17487201  0.16574171  1
  Ca2+  Ca37  1  0.42665425  0.17156671  0.49494544  1
  Ca2+  Ca38  1  0.42811417  0.16684236  0.82512397  1
  Ca2+  Ca39  1  0.42214346  0.66330843  0.16382016  1
  Ca2+  Ca40  1  0.43042546  0.66694764  0.49781919  1
  Ca2+  Ca41  1  0.41994043  0.66404541  0.82933946  1
  Ca2+  Ca42  1  0.91903531  0.16357700  0.16052787  1
  Ca2+  Ca43  1  0.91953733  0.15964062  0.49625659  1
  Ca2+  Ca44  1  0.91201347  0.16644800  0.83581294  1
  Ca2+  Ca45  1  0.91438954  0.67222264  0.16393810  1
  Ca2+  Ca46  1  0.91178371  0.67859191  0.49528787  1
  Ca2+  Ca47  1  0.92873752  0.67344723  0.82241210  1
  Al0+  Al48  1  -0.00106266  -0.00070784  0.00400091  1
  Al0+  Al49  1  0.00025278  -0.00283310  0.32952627  1
  Al0+  Al50  1  0.00130315  0.00059979  0.67092499  1
  Al0+  Al51  1  -0.00172866  0.49924741  -0.00701039  1
  Al0+  Al52  1  0.00196439  0.49943575  0.33607558  1
  Al0+  Al53  1  0.00059301  0.49851026  0.66695394  1
  Al0+  Al54  1  0.49752424  -0.00083434  0.00048017  1
  Al0+  Al55  1  0.49737798  -0.00096283  0.33436682  1
  Al0+  Al56  1  0.50095724  0.00097655  0.66390585  1
  Al0+  Al57  1  0.49785247  0.50032766  0.00569078  1
  Al0+  Al58  1  0.49878531  0.50132492  0.32964911  1
  Al0+  Al59  1  0.49870361  0.50066868  0.66628228  1
  Al0+  Al60  1  0.25062813  0.24929532  -0.00527871  1
  Al0+  Al61  1  0.25145065  0.24910897  0.32383286  1
  Al0+  Al62  1  0.25004399  0.25219361  0.67301357  1
  Al0+  Al63  1  0.25040983  0.75047126  0.00611960  1
  Al0+  Al64  1  0.25170430  0.74979089  0.33592143  1
  Al0+  Al65  1  0.25217566  0.74950659  0.66515095  1
  Al0+  Al66  1  0.74834103  0.24849654  0.00716418  1
  Al0+  Al67  1  0.75093544  0.25009543  0.34092522  1
  Al0+  Al68  1  0.75052275  0.25096719  0.66813736  1
  Al0+  Al69  1  0.74877045  0.74869717  -0.00443748  1
  Al0+  Al70  1  0.75204395  0.74938247  0.32737809  1
  Al0+  Al71  1  0.75162676  0.75069931  0.66372989  1
  Al0+  Al72  1  0.07162699  0.68062932  0.98765120  1
  Al0+  Al73  1  0.67766326  0.92893803  0.34696626  1
  Al0+  Al74  1  0.67960342  0.43019392  0.01431591  1
  Al0+  Al75  1  0.18154423  0.93001922  0.67894393  1
  Al0+  Al76  1  0.82358722  0.07049069  0.34948696  1
  Al0+  Al77  1  0.67924653  0.43218900  0.68036992  1
  Al0+  Al78  1  0.43118865  0.32005091  0.31941374  1
  Al0+  Al79  1  0.17671809  0.42801252  0.68046885  1
  Al0+  Al80  1  0.07063323  0.17697449  0.98181998  1
  Al0+  Al81  1  0.31773309  0.56934843  0.01475876  1
  Al0+  Al82  1  0.57309870  0.17939139  0.65323670  1
  Al0+  Al83  1  0.56973678  0.68170956  0.31811771  1
  Al0+  Al84  1  0.81804934  0.06785500  0.01556912  1
  Al0+  Al85  1  0.07381269  0.67704128  0.65023503  1
  Al0+  Al86  1  0.18001600  0.93097396  0.01490468  1
  Al0+  Al87  1  0.82388130  0.57122127  0.34774049  1
  Al0+  Al88  1  0.06955011  0.17944936  0.32126060  1
  Al0+  Al89  1  0.92553505  0.31984917  0.98490006  1
  Al0+  Al90  1  0.67831452  0.92676988  0.68201062  1
  Al0+  Al91  1  0.67656438  0.42981909  0.35033605  1
  Al0+  Al92  1  0.82170079  0.07174311  0.68378974  1
  Al0+  Al93  1  0.93073683  0.81818727  0.31751243  1
  Al0+  Al94  1  0.93125401  0.82259030  0.65084045  1
  Al0+  Al95  1  0.57085196  0.67882061  0.65386509  1
  Si0+  Si96  1  0.42331173  0.82321586  0.31467794  1
  Si0+  Si97  1  0.42833082  0.82348445  0.64997956  1
  Si0+  Si98  1  0.42934044  0.32395880  0.98306544  1
  Si0+  Si99  1  0.42769564  0.32118536  0.65174457  1
  Si0+  Si100  1  0.67365213  0.92509867  0.01551066  1
  Si0+  Si101  1  0.56856339  0.17884485  0.98731090  1
  Si0+  Si102  1  0.32024871  0.07362675  0.34757421  1
  Si0+  Si103  1  0.17529772  0.42557092  0.01730851  1
  Si0+  Si104  1  0.18180063  0.42742614  0.34507213  1
  Si0+  Si105  1  0.92632912  0.82179529  0.98189821  1
  Si0+  Si106  1  0.57369135  0.17648546  0.31733101  1
  Si0+  Si107  1  0.07525821  0.67561847  0.31736289  1
  Si0+  Si108  1  0.32315006  0.07415487  0.68268276  1
  Si0+  Si109  1  0.82306891  0.57394330  0.01396164  1
  Si0+  Si110  1  0.18031461  0.92910100  0.34850819  1
  Si0+  Si111  1  0.92726129  0.32443700  0.31887791  1
  Si0+  Si112  1  0.32073632  0.57149589  0.35019612  1
  Si0+  Si113  1  0.82316654  0.57320419  0.68384783  1
  Si0+  Si114  1  0.32468352  0.07380156  0.01737275  1
  Si0+  Si115  1  0.07190617  0.18084140  0.65339743  1
  Si0+  Si116  1  0.92800103  0.32113578  0.65048792  1
  Si0+  Si117  1  0.42875607  0.82070677  0.98579820  1
  Si0+  Si118  1  0.56951008  0.67838757  0.98470590  1
  Si0+  Si119  1  0.32086883  0.57079814  0.68198563  1
  O2-  O120  1  0.25047622  0.01081669  0.06130074  1
  O2-  O121  1  0.25103624  0.00100962  0.38998598  1
  O2-  O122  1  0.25701978  0.00348803  0.72704398  1
  O2-  O123  1  0.24217736  0.49565971  0.06278316  1
  O2-  O124  1  0.24860133  0.50113457  0.39039170  1
  O2-  O125  1  0.24686588  0.50775391  0.72576777  1
  O2-  O126  1  0.74469633  -0.00945119  0.05960716  1
  O2-  O127  1  0.74512483  0.00459335  0.39754383  1
  O2-  O128  1  0.74842426  -0.00028046  0.73282915  1
  O2-  O129  1  0.75573743  0.50416276  0.05847071  1
  O2-  O130  1  0.75106717  0.50016501  0.39853991  1
  O2-  O131  1  0.75273787  0.50669919  0.72916592  1
  O2-  O132  1  -0.00844271  0.25105236  0.27567192  1
  O2-  O133  1  0.00147142  0.25132956  0.60980658  1
  O2-  O134  1  0.00033996  0.25113555  0.93262809  1
  O2-  O135  1  0.00434859  0.74102029  0.27271744  1
  O2-  O136  1  0.00096064  0.74764665  0.60033610  1
  O2-  O137  1  -0.00548549  0.75168062  0.93960935  1
  O2-  O138  1  0.50983544  0.24956239  0.27152046  1
  O2-  O139  1  0.49652255  0.25310584  0.60767196  1
  O2-  O140  1  0.49830233  0.25034937  0.94294740  1
  O2-  O141  1  0.49675324  0.75914712  0.27147851  1
  O2-  O142  1  0.50216473  0.75984928  0.60702642  1
  O2-  O143  1  0.50318125  0.75387090  0.94294978  1
  O2-  O144  1  0.06859552  0.17854438  0.09564429  1
  O2-  O145  1  0.07419209  0.18205841  0.43487399  1
  O2-  O146  1  0.07264759  0.18184166  0.75798659  1
  O2-  O147  1  0.07187729  0.68379777  0.10098673  1
  O2-  O148  1  0.07921650  0.67698745  0.42238521  1
  O2-  O149  1  0.07422963  0.67991803  0.76416074  1
  O2-  O150  1  0.56516306  0.17819305  0.09225724  1
  O2-  O151  1  0.56815403  0.17537114  0.42260239  1
  O2-  O152  1  0.57102954  0.18194354  0.76716046  1
  O2-  O153  1  0.56877923  0.67843463  0.08962035  1
  O2-  O154  1  0.56655366  0.68081663  0.43107528  1
  O2-  O155  1  0.56465093  0.67604862  0.76752911  1
  O2-  O156  1  0.18407671  0.42841168  0.24026129  1
  O2-  O157  1  0.18204316  0.42299603  0.56689729  1
  O2-  O158  1  0.17913605  0.42641659  0.91171362  1
  O2-  O159  1  0.18242124  0.92821386  0.24342374  1
  O2-  O160  1  0.18239099  0.93383726  0.56544102  1
  O2-  O161  1  0.18419422  0.92886378  0.90192498  1
  O2-  O162  1  0.67684391  0.43283225  0.23644233  1
  O2-  O163  1  0.67886145  0.43309050  0.56796691  1
  O2-  O164  1  0.67705630  0.43154074  0.90098352  1
  O2-  O165  1  0.67937716  0.93098767  0.23263115  1
  O2-  O166  1  0.67941546  0.92887063  0.56887292  1
  O2-  O167  1  0.66943778  0.92626417  0.91041598  1
  O2-  O168  1  0.42996709  0.32453039  0.08827061  1
  O2-  O169  1  0.42599179  0.31626584  0.43229795  1
  O2-  O170  1  0.42747337  0.32081476  0.75752740  1
  O2-  O171  1  0.42836685  0.82045111  0.09074361  1
  O2-  O172  1  0.41389454  0.81938118  0.41950947  1
  O2-  O173  1  0.42543356  0.82043537  0.75594155  1
  O2-  O174  1  0.92595578  0.31885321  0.09874759  1
  O2-  O175  1  0.93273646  0.32814888  0.42450047  1
  O2-  O176  1  0.92705411  0.32108974  0.75541810  1
  O2-  O177  1  0.92604156  0.82040736  0.08765664  1
  O2-  O178  1  0.93393090  0.82144602  0.43003331  1
  O2-  O179  1  0.93478750  0.82224836  0.76477276  1
  O2-  O180  1  0.32021030  0.07412043  0.24257061  1
  O2-  O181  1  0.31966611  0.07669122  0.57676491  1
  O2-  O182  1  0.33159534  0.06964187  0.91226804  1
  O2-  O183  1  0.31991756  0.57256695  0.24498195  1
  O2-  O184  1  0.32276565  0.56770784  0.57628994  1
  O2-  O185  1  0.32010288  0.56782646  0.90174889  1
  O2-  O186  1  0.82423010  0.06795578  0.23568351  1
  O2-  O187  1  0.82330598  0.07171217  0.57066916  1
  O2-  O188  1  0.81622896  0.06902626  0.90287333  1
  O2-  O189  1  0.82343902  0.56889345  0.23350328  1
  O2-  O190  1  0.82331759  0.57031227  0.57838092  1
  O2-  O191  1  0.81918144  0.57702776  0.90862506  1
  O2-  O192  1  0.04211066  0.08242952  0.26711103  1
  O2-  O193  1  0.04496021  0.08888459  0.60645892  1
  O2-  O194  1  0.03978553  0.07784836  0.93223938  1
  O2-  O195  1  0.05492330  0.58006950  0.27267600  1
  O2-  O196  1  0.04922964  0.57596192  0.60079175  1
  O2-  O197  1  0.04763982  0.58231264  0.93380007  1
  O2-  O198  1  0.54210403  0.08465007  0.27008192  1
  O2-  O199  1  0.54221243  0.08351230  0.59763697  1
  O2-  O200  1  0.53946079  0.08726942  0.93915744  1
  O2-  O201  1  0.53397832  0.58716215  0.26286488  1
  O2-  O202  1  0.53288899  0.58501787  0.59835571  1
  O2-  O203  1  0.53450078  0.58810627  0.93858157  1
  O2-  O204  1  0.16403481  0.21099879  0.26334105  1
  O2-  O205  1  0.16488795  0.20884944  0.60748268  1
  O2-  O206  1  0.17224455  0.19909197  0.93162036  1
  O2-  O207  1  0.16839455  0.70557343  0.27140277  1
  O2-  O208  1  0.17356611  0.70349808  0.59886888  1
  O2-  O209  1  0.16880073  0.71394792  0.93576459  1
  O2-  O210  1  0.66997981  0.19754455  0.27540836  1
  O2-  O211  1  0.66816298  0.21253449  0.59906839  1
  O2-  O212  1  0.66018442  0.20727173  0.94170337  1
  O2-  O213  1  0.66562599  0.70946500  0.26133457  1
  O2-  O214  1  0.66880865  0.70329330  0.60051343  1
  O2-  O215  1  0.66235489  0.70004747  0.93633831  1
  O2-  O216  1  0.07975437  0.44848499  0.05970186  1
  O2-  O217  1  0.08956853  0.44984891  0.39376486  1
  O2-  O218  1  0.07941157  0.45318566  0.73523616  1
  O2-  O219  1  0.08311402  0.95774420  0.06962645  1
  O2-  O220  1  0.08925667  0.95780259  0.39471457  1
  O2-  O221  1  0.08748927  0.96215300  0.73534617  1
  O2-  O222  1  0.58383933  0.46320958  0.06832651  1
  O2-  O223  1  0.57742936  0.46093956  0.40045926  1
  O2-  O224  1  0.58121761  0.46102366  0.73369722  1
  O2-  O225  1  0.58039475  0.95120694  0.06260972  1
  O2-  O226  1  0.57467611  0.94638775  0.39589252  1
  O2-  O227  1  0.57679217  0.95175339  0.73151904  1
  O2-  O228  1  0.20418246  0.33167758  0.06130124  1
  O2-  O229  1  0.21484412  0.33657478  0.39158442  1
  O2-  O230  1  0.21207796  0.33517647  0.73951927  1
  O2-  O231  1  0.21659621  0.83784472  0.07172690  1
  O2-  O232  1  0.20993953  0.83805631  0.39651513  1
  O2-  O233  1  0.21376544  0.83305595  0.73211413  1
  O2-  O234  1  0.70613259  0.33373500  0.06982132  1
  O2-  O235  1  0.69987700  0.33002796  0.40190713  1
  O2-  O236  1  0.71142688  0.33609986  0.73407236  1
  O2-  O237  1  0.69772892  0.82929783  0.05831360  1
  O2-  O238  1  0.71099042  0.83084565  0.39527704  1
  O2-  O239  1  0.70553038  0.82747590  0.73430739  1
  O2-  O240  1  0.45656249  0.41759053  0.26428198  1
  O2-  O241  1  0.45242327  0.41437228  0.60502865  1
  O2-  O242  1  0.45970624  0.41503783  0.93603362  1
  O2-  O243  1  0.44202034  0.91933143  0.27066319  1
  O2-  O244  1  0.44437198  0.91933668  0.60521779  1
  O2-  O245  1  0.45068697  0.91400628  0.93801306  1
  O2-  O246  1  0.95798002  0.41569202  0.27013591  1
  O2-  O247  1  0.95549261  0.41276521  0.60294744  1
  O2-  O248  1  0.94899300  0.41897960  0.93026957  1
  O2-  O249  1  0.96659320  0.91220430  0.26118206  1
  O2-  O250  1  0.96511817  0.92040361  0.59891176  1
  O2-  O251  1  0.95455564  0.91496087  0.93850088  1
  O2-  O252  1  0.33817218  0.28537974  0.25970243  1
  O2-  O253  1  0.33396400  0.29410610  0.60596859  1
  O2-  O254  1  0.33668571  0.29988058  0.93570684  1
  O2-  O255  1  0.33258070  0.79067578  0.26518446  1
  O2-  O256  1  0.33777759  0.79241839  0.60046204  1
  O2-  O257  1  0.33890066  0.78757852  0.93826864  1
  O2-  O258  1  0.83097721  0.30392304  0.27671685  1
  O2-  O259  1  0.83766276  0.29214329  0.60202913  1
  O2-  O260  1  0.82695641  0.28684924  0.93379963  1
  O2-  O261  1  0.83582589  0.78938278  0.25955933  1
  O2-  O262  1  0.83232190  0.79647605  0.59841292  1
  O2-  O263  1  0.83194139  0.79858816  0.93547377  1
  O2-  O264  1  0.41486093  0.04215852  0.06815583  1
  O2-  O265  1  0.41184902  0.04779516  0.39631114  1
  O2-  O266  1  0.41769573  0.05076537  0.72708344  1
  O2-  O267  1  0.41256019  0.53653523  0.07143466  1
  O2-  O268  1  0.41144440  0.54149310  0.39682511  1
  O2-  O269  1  0.41112696  0.53911528  0.73135193  1
  O2-  O270  1  0.91486787  0.03880070  0.06931103  1
  O2-  O271  1  0.92105588  0.03572946  0.40091231  1
  O2-  O272  1  0.91965413  0.04289327  0.73743673  1
  O2-  O273  1  0.91791180  0.55092848  0.05827653  1
  O2-  O274  1  0.92290421  0.54518951  0.40169869  1
  O2-  O275  1  0.91633190  0.54551925  0.72941678  1
  O2-  O276  1  0.30501514  0.17057610  0.05950298  1
  O2-  O277  1  0.28971993  0.16455709  0.39485718  1
  O2-  O278  1  0.29770136  0.16623912  0.73163901  1
  O2-  O279  1  0.28956301  0.66518066  0.07169709  1
  O2-  O280  1  0.29470497  0.66323115  0.39866134  1
  O2-  O281  1  0.30238172  0.66616572  0.72706564  1
  O2-  O282  1  0.78492720  0.16236561  0.07187414  1
  O2-  O283  1  0.80504033  0.17152089  0.40038686  1
  O2-  O284  1  0.79111374  0.16973418  0.73639641  1
  O2-  O285  1  0.79511973  0.66725993  0.06076279  1
  O2-  O286  1  0.79387146  0.66976306  0.39747145  1
  O2-  O287  1  0.80081855  0.66766304  0.72820002  1
