# generated using pymatgen
data_Ca2Al2SiO7
_symmetry_space_group_name_H-M   'P 1'
_cell_length_a   15.46164813
_cell_length_b   15.46060478
_cell_length_c   15.28526595
_cell_angle_alpha   90.00133116
_cell_angle_beta   89.99560603
_cell_angle_gamma   90.01072028
_symmetry_Int_Tables_number   1
_chemical_formula_structural   Ca2Al2SiO7
_chemical_formula_sum   'Ca48 Al48 Si24 O168'
_cell_volume   3653.88819772
_cell_formula_units_Z   24
loop_
 _symmetry_equiv_pos_site_id
 _symmetry_equiv_pos_as_xyz
  1  'x, y, z'
loop_
 _atom_type_symbol
 _atom_type_oxidation_number
  Ca2+  2.0
  Al0+  0.0
  Si0+  0.0
  O2-  -2.0
loop_
 _atom_site_type_symbol
 _atom_site_label
 _atom_site_symmetry_multiplicity
 _atom_site_fract_x
 _atom_site_fract_y
 _atom_site_fract_z
 _atom_site_occupancy
  Ca2+  Ca0  1  0.17401866  0.08290300  0.17237007  1
  Ca2+  Ca1  1  0.17565926  0.08413404  0.51198269  1
  Ca2+  Ca2  1  0.16313173  0.08476438  0.82949261  1
  Ca2+  Ca3  1  0.17114409  0.58349389  0.17569103  1
  Ca2+  Ca4  1  0.17672518  0.59378402  0.50352839  1
  Ca2+  Ca5  1  0.17491038  0.58658854  0.83271213  1
  Ca2+  Ca6  1  0.67303917  0.07432014  0.16859199  1
  Ca2+  Ca7  1  0.66246326  0.07067789  0.50863058  1
  Ca2+  Ca8  1  0.66697176  0.07274233  0.83729800  1
  Ca2+  Ca9  1  0.66795338  0.57600859  0.16369791  1
  Ca2+  Ca10  1  0.66821090  0.57196467  0.51195064  1
  Ca2+  Ca11  1  0.67425006  0.57946700  0.83613588  1
  Ca2+  Ca12  1  0.07459554  0.33106999  0.15741275  1
  Ca2+  Ca13  1  0.07838493  0.33376767  0.50341201  1
  Ca2+  Ca14  1  0.06777528  0.32821432  0.82540579  1
  Ca2+  Ca15  1  0.07844065  0.82472614  0.16061091  1
  Ca2+  Ca16  1  0.07938324  0.83318473  0.49949190  1
  Ca2+  Ca17  1  0.06918931  0.83739427  0.82502636  1
  Ca2+  Ca18  1  0.57948696  0.33996746  0.15889881  1
  Ca2+  Ca19  1  0.59054115  0.32941034  0.50082507  1
  Ca2+  Ca20  1  0.58418071  0.33337208  0.82626176  1
  Ca2+  Ca21  1  0.58865280  0.82992895  0.15991876  1
  Ca2+  Ca22  1  0.59083618  0.82723357  0.49922097  1
  Ca2+  Ca23  1  0.59794216  0.82136259  0.82822156  1
  Ca2+  Ca24  1  0.33581317  0.42201438  0.17096723  1
  Ca2+  Ca25  1  0.33306510  0.43019359  0.50624464  1
  Ca2+  Ca26  1  0.33785801  0.41915133  0.83468668  1
  Ca2+  Ca27  1  0.33372821  0.92413607  0.17439488  1
  Ca2+  Ca28  1  0.32534671  0.92615869  0.50986272  1
  Ca2+  Ca29  1  0.32757610  0.92101451  0.82924535  1
  Ca2+  Ca30  1  0.82379609  0.41544575  0.16754826  1
  Ca2+  Ca31  1  0.82629839  0.42215772  0.51052933  1
  Ca2+  Ca32  1  0.82650514  0.41909927  0.84050635  1
  Ca2+  Ca33  1  0.82554761  0.91197498  0.16108214  1
  Ca2+  Ca34  1  0.82489572  0.91243580  0.50795714  1
  Ca2+  Ca35  1  0.82794036  0.91640314  0.84055061  1
  Ca2+  Ca36  1  0.41871060  0.17274108  0.15987598  1
  Ca2+  Ca37  1  0.42040861  0.15762348  0.49999350  1
  Ca2+  Ca38  1  0.42305482  0.17151245  0.82488680  1
  Ca2+  Ca39  1  0.42377292  0.66618612  0.16018847  1
  Ca2+  Ca40  1  0.41907965  0.66254339  0.49944245  1
  Ca2+  Ca41  1  0.43163349  0.66463769  0.82607405  1
  Ca2+  Ca42  1  0.91363117  0.17089746  0.15688218  1
  Ca2+  Ca43  1  0.91817957  0.17142123  0.50387317  1
  Ca2+  Ca44  1  0.91077402  0.17572890  0.82539890  1
  Ca2+  Ca45  1  0.91815344  0.66821496  0.15911993  1
  Ca2+  Ca46  1  0.91526685  0.67116333  0.50047352  1
  Ca2+  Ca47  1  0.90317336  0.67512226  0.82788952  1
  Al0+  Al48  1  0.00225455  -0.00235699  0.00303147  1
  Al0+  Al49  1  -0.00118940  0.00092945  0.32998166  1
  Al0+  Al50  1  -0.00039539  0.00044757  0.65897684  1
  Al0+  Al51  1  0.00278550  0.49860753  -0.00099061  1
  Al0+  Al52  1  -0.00025977  0.49991280  0.32800397  1
  Al0+  Al53  1  0.00171804  0.50317012  0.66494434  1
  Al0+  Al54  1  0.49705867  -0.00051750  0.00360531  1
  Al0+  Al55  1  0.50099637  -0.00060657  0.33819813  1
  Al0+  Al56  1  0.49780754  -0.00064931  0.67213790  1
  Al0+  Al57  1  0.49957663  0.50121328  -0.00496370  1
  Al0+  Al58  1  0.49993177  0.49924380  0.34030911  1
  Al0+  Al59  1  0.50020482  0.50034206  0.66872598  1
  Al0+  Al60  1  0.25094820  0.25138794  -0.00364617  1
  Al0+  Al61  1  0.25040637  0.25162263  0.33619885  1
  Al0+  Al62  1  0.25026414  0.25253492  0.66686260  1
  Al0+  Al63  1  0.25135540  0.75089754  0.00068726  1
  Al0+  Al64  1  0.25048242  0.75128881  0.33133575  1
  Al0+  Al65  1  0.25070590  0.75225945  0.67683730  1
  Al0+  Al66  1  0.74877790  0.24820807  0.00388414  1
  Al0+  Al67  1  0.74946742  0.24812389  0.33546724  1
  Al0+  Al68  1  0.74703751  0.24917591  0.65863826  1
  Al0+  Al69  1  0.75135753  0.74798634  0.00166973  1
  Al0+  Al70  1  0.75028865  0.74912525  0.33391095  1
  Al0+  Al71  1  0.74932171  0.74778680  0.66138275  1
  Al0+  Al72  1  0.31977885  0.57172112  0.34575456  1
  Al0+  Al73  1  0.68148683  0.92873560  0.34825743  1
  Al0+  Al74  1  0.82295120  0.57095365  0.67995372  1
  Al0+  Al75  1  0.67790929  0.92742984  0.01447357  1
  Al0+  Al76  1  0.82307683  0.07092338  0.01304306  1
  Al0+  Al77  1  0.92682868  0.32421958  0.65059036  1
  Al0+  Al78  1  0.67916882  0.42889025  0.34818929  1
  Al0+  Al79  1  0.56871848  0.17702981  0.65276918  1
  Al0+  Al80  1  0.32096679  0.07387379  0.68433941  1
  Al0+  Al81  1  0.67941208  0.92798097  0.67980535  1
  Al0+  Al82  1  0.42976440  0.32079795  0.98658398  1
  Al0+  Al83  1  0.92714259  0.31975657  0.98745969  1
  Al0+  Al84  1  0.68039335  0.42640316  0.68220517  1
  Al0+  Al85  1  0.17595596  0.93046795  0.68207991  1
  Al0+  Al86  1  0.92812977  0.82033408  0.65226814  1
  Al0+  Al87  1  0.07112735  0.17990268  0.65105381  1
  Al0+  Al88  1  0.31992270  0.07242048  0.34643403  1
  Al0+  Al89  1  0.82385515  0.57038531  0.01595761  1
  Al0+  Al90  1  0.93186697  0.81821532  0.98651464  1
  Al0+  Al91  1  0.56987214  0.68159831  0.98717409  1
  Al0+  Al92  1  0.07174247  0.68088879  0.31995022  1
  Al0+  Al93  1  0.56977557  0.67937556  0.65090677  1
  Al0+  Al94  1  0.32112602  0.57157913  0.68258774  1
  Al0+  Al95  1  0.67739939  0.42866684  0.01423195  1
  Si0+  Si96  1  0.57010411  0.17664146  0.31735420  1
  Si0+  Si97  1  0.82125077  0.07136080  0.67936710  1
  Si0+  Si98  1  0.07570354  0.67643006  0.98207703  1
  Si0+  Si99  1  0.32073970  0.57080337  0.01531908  1
  Si0+  Si100  1  0.82387419  0.57082221  0.34958499  1
  Si0+  Si101  1  0.43058634  0.82158456  0.31947986  1
  Si0+  Si102  1  0.42809444  0.32313866  0.64767133  1
  Si0+  Si103  1  0.17570613  0.42865444  0.34939721  1
  Si0+  Si104  1  0.82364785  0.07301651  0.35196535  1
  Si0+  Si105  1  0.92819238  0.31949409  0.31688459  1
  Si0+  Si106  1  0.07608726  0.67999837  0.65154843  1
  Si0+  Si107  1  0.92622268  0.82275001  0.31375268  1
  Si0+  Si108  1  0.57029055  0.67705118  0.31849484  1
  Si0+  Si109  1  0.42997374  0.32151438  0.31981872  1
  Si0+  Si110  1  0.07290716  0.17755215  0.98529973  1
  Si0+  Si111  1  0.57099753  0.17539916  0.98537340  1
  Si0+  Si112  1  0.42603229  0.82098505  0.65030927  1
  Si0+  Si113  1  0.17945018  0.92813020  0.01762631  1
  Si0+  Si114  1  0.31898028  0.07266064  0.01571113  1
  Si0+  Si115  1  0.42532343  0.82479347  0.98277801  1
  Si0+  Si116  1  0.18064830  0.42826085  0.01493703  1
  Si0+  Si117  1  0.17732566  0.92904256  0.34799573  1
  Si0+  Si118  1  0.07286647  0.17996122  0.31744683  1
  Si0+  Si119  1  0.17754181  0.42847007  0.68457875  1
  O2-  O120  1  0.25065045  -0.00041824  0.05929441  1
  O2-  O121  1  0.24184591  0.00114536  0.39191996  1
  O2-  O122  1  0.24506414  0.00516894  0.73308244  1
  O2-  O123  1  0.24904547  0.50122598  0.05873650  1
  O2-  O124  1  0.24185445  0.50020174  0.39245652  1
  O2-  O125  1  0.24673911  0.49654530  0.72915313  1
  O2-  O126  1  0.74967175  0.00027792  0.06400936  1
  O2-  O127  1  0.75795638  0.00138127  0.39494857  1
  O2-  O128  1  0.75424551  0.00265100  0.72518987  1
  O2-  O129  1  0.75258486  0.49699079  0.06571491  1
  O2-  O130  1  0.75438036  0.50335719  0.39313317  1
  O2-  O131  1  0.75628474  0.49460147  0.73035572  1
  O2-  O132  1  -0.00010955  0.24830904  0.27443375  1
  O2-  O133  1  -0.00010168  0.25245816  0.60018670  1
  O2-  O134  1  -0.00184495  0.24001533  0.94317986  1
  O2-  O135  1  -0.00359724  0.75404921  0.27166814  1
  O2-  O136  1  0.00491646  0.74607177  0.60747681  1
  O2-  O137  1  0.00385175  0.74116559  0.93864186  1
  O2-  O138  1  0.50060696  0.25032961  0.27623869  1
  O2-  O139  1  0.49395411  0.25169745  0.60371521  1
  O2-  O140  1  0.50608887  0.24776958  0.94156618  1
  O2-  O141  1  0.50116229  0.75045389  0.27628373  1
  O2-  O142  1  0.49497195  0.75415994  0.60342094  1
  O2-  O143  1  0.49853940  0.76060932  0.94084840  1
  O2-  O144  1  0.07740290  0.18171401  0.09160892  1
  O2-  O145  1  0.07416838  0.18098505  0.42174401  1
  O2-  O146  1  0.06858974  0.18149468  0.76486565  1
  O2-  O147  1  0.07981275  0.67974908  0.08803240  1
  O2-  O148  1  0.07342122  0.68402383  0.43257756  1
  O2-  O149  1  0.07889535  0.68154244  0.75689691  1
  O2-  O150  1  0.56609844  0.17319072  0.09157194  1
  O2-  O151  1  0.56835695  0.17502497  0.42214864  1
  O2-  O152  1  0.56784498  0.17667301  0.76581422  1
  O2-  O153  1  0.56532731  0.68042645  0.10140378  1
  O2-  O154  1  0.56875236  0.67722793  0.42328982  1
  O2-  O155  1  0.56985648  0.68039591  0.76383748  1
  O2-  O156  1  0.17770138  0.42689187  0.24341175  1
  O2-  O157  1  0.17902572  0.42893740  0.57858203  1
  O2-  O158  1  0.18229449  0.42743692  0.91039055  1
  O2-  O159  1  0.18048175  0.92963820  0.24187932  1
  O2-  O160  1  0.17949614  0.92880717  0.56796600  1
  O2-  O161  1  0.17886297  0.92761278  0.91324835  1
  O2-  O162  1  0.67747534  0.43004711  0.23511994  1
  O2-  O163  1  0.68030738  0.42903290  0.56798648  1
  O2-  O164  1  0.67639067  0.42894222  0.90169183  1
  O2-  O165  1  0.68041457  0.92959985  0.23528930  1
  O2-  O166  1  0.68066213  0.92897710  0.56622220  1
  O2-  O167  1  0.67909430  0.92854256  0.90134125  1
  O2-  O168  1  0.42710496  0.31917663  0.10069705  1
  O2-  O169  1  0.42895930  0.32227921  0.42427795  1
  O2-  O170  1  0.42929119  0.32287610  0.75346645  1
  O2-  O171  1  0.42084440  0.82286348  0.08901778  1
  O2-  O172  1  0.42888012  0.82160401  0.42401787  1
  O2-  O173  1  0.42477384  0.81819736  0.75579803  1
  O2-  O174  1  0.93181892  0.31913197  0.10143629  1
  O2-  O175  1  0.92969527  0.31983345  0.42148183  1
  O2-  O176  1  0.92745281  0.32164814  0.76417456  1
  O2-  O177  1  0.93580804  0.81754732  0.10012003  1
  O2-  O178  1  0.92569495  0.82331606  0.41913706  1
  O2-  O179  1  0.92799852  0.82055338  0.76528907  1
  O2-  O180  1  0.31882140  0.07170610  0.23249675  1
  O2-  O181  1  0.32033285  0.06981630  0.57035021  1
  O2-  O182  1  0.31775722  0.07371583  0.91151777  1
  O2-  O183  1  0.32100913  0.56846803  0.23220018  1
  O2-  O184  1  0.31868827  0.57139974  0.56898908  1
  O2-  O185  1  0.31914983  0.57055745  0.91066681  1
  O2-  O186  1  0.82254318  0.07619523  0.24655682  1
  O2-  O187  1  0.81924140  0.06911983  0.57323624  1
  O2-  O188  1  0.82358722  0.07044055  0.89975765  1
  O2-  O189  1  0.82457358  0.57001563  0.24409173  1
  O2-  O190  1  0.82008486  0.57087971  0.56562907  1
  O2-  O191  1  0.82220146  0.57062082  0.90315912  1
  O2-  O192  1  0.04882250  0.08655644  0.26978071  1
  O2-  O193  1  0.04462803  0.08286062  0.59421145  1
  O2-  O194  1  0.05568674  0.08085935  0.94420125  1
  O2-  O195  1  0.04507507  0.58270901  0.26491904  1
  O2-  O196  1  0.05688368  0.58543504  0.60475380  1
  O2-  O197  1  0.05803645  0.58042571  0.93915589  1
  O2-  O198  1  0.53915691  0.08593215  0.26920679  1
  O2-  O199  1  0.53471073  0.08027160  0.59898132  1
  O2-  O200  1  0.54026721  0.08321427  0.93890176  1
  O2-  O201  1  0.53799536  0.58604548  0.27202521  1
  O2-  O202  1  0.53591904  0.58293731  0.59768616  1
  O2-  O203  1  0.53420484  0.58814886  0.93149377  1
  O2-  O204  1  0.16431999  0.21014555  0.26899329  1
  O2-  O205  1  0.17023870  0.20980821  0.59880536  1
  O2-  O206  1  0.16319667  0.20944497  0.93673411  1
  O2-  O207  1  0.16808090  0.71202830  0.26294520  1
  O2-  O208  1  0.16894561  0.71060151  0.60569934  1
  O2-  O209  1  0.16871934  0.70620750  0.93646064  1
  O2-  O210  1  0.66360473  0.20203983  0.27199936  1
  O2-  O211  1  0.66345783  0.20519555  0.59352273  1
  O2-  O212  1  0.66630005  0.19503820  0.94252170  1
  O2-  O213  1  0.66337475  0.70305113  0.27250812  1
  O2-  O214  1  0.66419914  0.71042193  0.59342133  1
  O2-  O215  1  0.66736156  0.70891052  0.93462320  1
  O2-  O216  1  0.08935884  0.45373303  0.06453477  1
  O2-  O217  1  0.08100850  0.45150994  0.39351241  1
  O2-  O218  1  0.08457935  0.45518717  0.73049296  1
  O2-  O219  1  0.08960339  0.95494681  0.06898511  1
  O2-  O220  1  0.08121133  0.95003874  0.39021175  1
  O2-  O221  1  0.07650567  0.95890729  0.73262402  1
  O2-  O222  1  0.57916870  0.46283172  0.06694006  1
  O2-  O223  1  0.58367655  0.45894096  0.40364431  1
  O2-  O224  1  0.58202262  0.45645755  0.73242073  1
  O2-  O225  1  0.57753164  0.95300149  0.06725843  1
  O2-  O226  1  0.58542597  0.96031571  0.40217093  1
  O2-  O227  1  0.58275994  0.95569460  0.73356590  1
  O2-  O228  1  0.21081329  0.33718062  0.06385518  1
  O2-  O229  1  0.20412844  0.33685818  0.39687345  1
  O2-  O230  1  0.20277715  0.33565663  0.73154605  1
  O2-  O231  1  0.20921557  0.83648615  0.06582199  1
  O2-  O232  1  0.20685106  0.83724295  0.39394449  1
  O2-  O233  1  0.20717542  0.83546269  0.73976775  1
  O2-  O234  1  0.70022755  0.32894444  0.06789391  1
  O2-  O235  1  0.70811812  0.33063363  0.39939915  1
  O2-  O236  1  0.70333093  0.32512335  0.73066937  1
  O2-  O237  1  0.70959740  0.83086183  0.06917307  1
  O2-  O238  1  0.70964196  0.83042580  0.40061405  1
  O2-  O239  1  0.71268829  0.83153746  0.73007643  1
  O2-  O240  1  0.45909759  0.41335934  0.27199696  1
  O2-  O241  1  0.45602608  0.41593463  0.60137332  1
  O2-  O242  1  0.45597968  0.41743079  0.93194661  1
  O2-  O243  1  0.45961188  0.91317593  0.27094526  1
  O2-  O244  1  0.44950878  0.91580644  0.60671145  1
  O2-  O245  1  0.44370043  0.92090223  0.93970391  1
  O2-  O246  1  0.95530448  0.41103871  0.26836439  1
  O2-  O247  1  0.95871306  0.42228558  0.59704795  1
  O2-  O248  1  0.96378233  0.41443607  0.93394044  1
  O2-  O249  1  0.95039903  0.91737484  0.26798765  1
  O2-  O250  1  0.95710098  0.91569398  0.59464085  1
  O2-  O251  1  0.96563567  0.91500926  0.93459717  1
  O2-  O252  1  0.33695684  0.29537053  0.27211080  1
  O2-  O253  1  0.33271979  0.30290340  0.60311840  1
  O2-  O254  1  0.33424784  0.28911443  0.93083870  1
  O2-  O255  1  0.33904666  0.79535396  0.26957529  1
  O2-  O256  1  0.33232441  0.79345890  0.60479130  1
  O2-  O257  1  0.33338851  0.79494638  0.93549694  1
  O2-  O258  1  0.83627529  0.28958829  0.27037258  1
  O2-  O259  1  0.83066084  0.29341366  0.59453977  1
  O2-  O260  1  0.82907665  0.29212164  0.93589011  1
  O2-  O261  1  0.83330626  0.79401317  0.26750462  1
  O2-  O262  1  0.83501891  0.78524778  0.59410407  1
  O2-  O263  1  0.83395393  0.79089018  0.93502016  1
  O2-  O264  1  0.41052010  0.04690934  0.06518639  1
  O2-  O265  1  0.41488434  0.03873630  0.40007857  1
  O2-  O266  1  0.41604222  0.04063603  0.74004004  1
  O2-  O267  1  0.41129477  0.54062738  0.06290418  1
  O2-  O268  1  0.41333599  0.53780373  0.40250484  1
  O2-  O269  1  0.41622334  0.53837348  0.73654404  1
  O2-  O270  1  0.92163486  0.04281552  0.06845964  1
  O2-  O271  1  0.91964788  0.05089450  0.39505618  1
  O2-  O272  1  0.91625184  0.04956990  0.72221526  1
  O2-  O273  1  0.92487882  0.54486497  0.06682910  1
  O2-  O274  1  0.91787863  0.54462430  0.39440071  1
  O2-  O275  1  0.92532411  0.55510006  0.72898770  1
  O2-  O276  1  0.28837780  0.16398272  0.06383720  1
  O2-  O277  1  0.29252570  0.16957536  0.40033042  1
  O2-  O278  1  0.29678885  0.17440111  0.73430194  1
  O2-  O279  1  0.29502625  0.66381360  0.06270023  1
  O2-  O280  1  0.29143798  0.66953694  0.39849150  1
  O2-  O281  1  0.29127358  0.66632620  0.73954952  1
  O2-  O282  1  0.79442915  0.16766015  0.07032517  1
  O2-  O283  1  0.79616610  0.16519979  0.39923076  1
  O2-  O284  1  0.79438272  0.16527377  0.72248065  1
  O2-  O285  1  0.79312803  0.66710681  0.07114136  1
  O2-  O286  1  0.80007450  0.66558440  0.39346835  1
  O2-  O287  1  0.78630828  0.66669392  0.73162258  1
