# generated using pymatgen
data_Ca2Al2SiO7
_symmetry_space_group_name_H-M   'P 1'
_cell_length_a   15.45736668
_cell_length_b   15.45655194
_cell_length_c   15.28205778
_cell_angle_alpha   89.99904373
_cell_angle_beta   89.98344614
_cell_angle_gamma   90.00693688
_symmetry_Int_Tables_number   1
_chemical_formula_structural   Ca2Al2SiO7
_chemical_formula_sum   'Ca48 Al48 Si24 O168'
_cell_volume   3651.15225000
_cell_formula_units_Z   24
loop_
 _symmetry_equiv_pos_site_id
 _symmetry_equiv_pos_as_xyz
  1  'x, y, z'
loop_
 _atom_type_symbol
 _atom_type_oxidation_number
  Ca2+  2.0
  Al0+  0.0
  Si0+  0.0
  O2-  -2.0
loop_
 _atom_site_type_symbol
 _atom_site_label
 _atom_site_symmetry_multiplicity
 _atom_site_fract_x
 _atom_site_fract_y
 _atom_site_fract_z
 _atom_site_occupancy
  Ca2+  Ca0  1  0.17491025  0.08753816  0.17160872  1
  Ca2+  Ca1  1  0.17359875  0.09418909  0.50100791  1
  Ca2+  Ca2  1  0.17514561  0.09207061  0.83309946  1
  Ca2+  Ca3  1  0.17928648  0.58299662  0.17332456  1
  Ca2+  Ca4  1  0.17986042  0.58518364  0.50475003  1
  Ca2+  Ca5  1  0.18010833  0.58407852  0.83893036  1
  Ca2+  Ca6  1  0.67193540  0.07619368  0.17258911  1
  Ca2+  Ca7  1  0.68071540  0.07953698  0.50758245  1
  Ca2+  Ca8  1  0.66975092  0.07057828  0.83526930  1
  Ca2+  Ca9  1  0.65839634  0.57348681  0.16708343  1
  Ca2+  Ca10  1  0.66219849  0.57160413  0.50475123  1
  Ca2+  Ca11  1  0.65777152  0.57600703  0.83724072  1
  Ca2+  Ca12  1  0.08107946  0.32861613  0.16737279  1
  Ca2+  Ca13  1  0.07097874  0.32295699  0.49375926  1
  Ca2+  Ca14  1  0.07430917  0.32833394  0.82107066  1
  Ca2+  Ca15  1  0.07077584  0.83860977  0.16485634  1
  Ca2+  Ca16  1  0.07841972  0.83359228  0.49252554  1
  Ca2+  Ca17  1  0.07809473  0.83533038  0.83321682  1
  Ca2+  Ca18  1  0.57649751  0.33775428  0.16355531  1
  Ca2+  Ca19  1  0.58253537  0.33482539  0.49389173  1
  Ca2+  Ca20  1  0.57982568  0.34051727  0.83220634  1
  Ca2+  Ca21  1  0.57991129  0.82840629  0.15907281  1
  Ca2+  Ca22  1  0.58139949  0.82920431  0.49736709  1
  Ca2+  Ca23  1  0.59150455  0.82368500  0.82807229  1
  Ca2+  Ca24  1  0.34488622  0.42526721  0.17129651  1
  Ca2+  Ca25  1  0.33936239  0.42635817  0.50169284  1
  Ca2+  Ca26  1  0.33936692  0.42681245  0.83940541  1
  Ca2+  Ca27  1  0.33749771  0.92796810  0.17464305  1
  Ca2+  Ca28  1  0.33790969  0.92798732  0.50300099  1
  Ca2+  Ca29  1  0.33513745  0.93129546  0.83705284  1
  Ca2+  Ca30  1  0.82081683  0.41124035  0.17474281  1
  Ca2+  Ca31  1  0.82450612  0.40557248  0.50371853  1
  Ca2+  Ca32  1  0.82118137  0.41077898  0.83536193  1
  Ca2+  Ca33  1  0.83074065  0.91464268  0.17157133  1
  Ca2+  Ca34  1  0.83471336  0.92594814  0.50479631  1
  Ca2+  Ca35  1  0.82638492  0.91781518  0.83755772  1
  Ca2+  Ca36  1  0.40896113  0.17721521  0.16234752  1
  Ca2+  Ca37  1  0.41660676  0.16989885  0.49074549  1
  Ca2+  Ca38  1  0.41199054  0.17088769  0.83007071  1
  Ca2+  Ca39  1  0.41725538  0.66921112  0.16229943  1
  Ca2+  Ca40  1  0.41858084  0.66885382  0.49501045  1
  Ca2+  Ca41  1  0.42606242  0.66080585  0.82901354  1
  Ca2+  Ca42  1  0.91818151  0.16471016  0.17033283  1
  Ca2+  Ca43  1  0.92138841  0.16606358  0.49254755  1
  Ca2+  Ca44  1  0.92101887  0.17037302  0.82026883  1
  Ca2+  Ca45  1  0.91260900  0.67832841  0.16227040  1
  Ca2+  Ca46  1  0.91756740  0.67384798  0.49341802  1
  Ca2+  Ca47  1  0.91111048  0.67464066  0.83145861  1
  Al0+  Al48  1  0.00089341  0.00066508  -0.00653789  1
  Al0+  Al49  1  0.00057319  -0.00106396  0.32778913  1
  Al0+  Al50  1  0.00247759  0.00036938  0.66630796  1
  Al0+  Al51  1  0.00039337  0.50031587  -0.00104373  1
  Al0+  Al52  1  -0.00043024  0.49927756  0.32900527  1
  Al0+  Al53  1  -0.00080894  0.50144602  0.66137918  1
  Al0+  Al54  1  0.50118350  0.00128924  0.00862074  1
  Al0+  Al55  1  0.50025246  -0.00177190  0.33398323  1
  Al0+  Al56  1  0.49917883  0.00040765  0.67448245  1
  Al0+  Al57  1  0.49937524  0.50004371  0.00056032  1
  Al0+  Al58  1  0.50069839  0.49918909  0.33877054  1
  Al0+  Al59  1  0.50117987  0.50157382  0.66883953  1
  Al0+  Al60  1  0.24946590  0.25235586  -0.00228925  1
  Al0+  Al61  1  0.24950992  0.25194899  0.32955453  1
  Al0+  Al62  1  0.24833620  0.25270302  0.66599688  1
  Al0+  Al63  1  0.24891648  0.75241169  0.00361712  1
  Al0+  Al64  1  0.25163761  0.75065177  0.33339772  1
  Al0+  Al65  1  0.25124865  0.75198437  0.67205428  1
  Al0+  Al66  1  0.74929205  0.24835146  0.00378676  1
  Al0+  Al67  1  0.74977919  0.24699102  0.33727181  1
  Al0+  Al68  1  0.74688413  0.24945747  0.67366244  1
  Al0+  Al69  1  0.74973503  0.74994926  -0.00455388  1
  Al0+  Al70  1  0.74948260  0.74604764  0.32945757  1
  Al0+  Al71  1  0.74916240  0.74709524  0.66138888  1
  Al0+  Al72  1  0.31995979  0.07264911  0.01503802  1
  Al0+  Al73  1  0.32005343  0.57098604  0.34821853  1
  Al0+  Al74  1  0.57015370  0.67859132  0.65048937  1
  Al0+  Al75  1  0.56735371  0.68089469  0.98640422  1
  Al0+  Al76  1  0.32090735  0.07255463  0.34670602  1
  Al0+  Al77  1  0.32033145  0.57095914  0.01510986  1
  Al0+  Al78  1  0.68073669  0.42963106  0.34756390  1
  Al0+  Al79  1  0.32076962  0.57132977  0.68155434  1
  Al0+  Al80  1  0.92987063  0.82045095  0.98374431  1
  Al0+  Al81  1  0.92482169  0.32120380  0.65187744  1
  Al0+  Al82  1  0.92902670  0.81936379  0.32044520  1
  Al0+  Al83  1  0.07195289  0.17840367  0.64987015  1
  Al0+  Al84  1  0.68008388  0.42951063  0.68158687  1
  Al0+  Al85  1  0.07125822  0.17900104  0.31532016  1
  Al0+  Al86  1  0.67962456  0.92640998  0.68030326  1
  Al0+  Al87  1  0.82320669  0.07033122  0.68222935  1
  Al0+  Al88  1  0.82120372  0.06701398  0.34606147  1
  Al0+  Al89  1  0.68011072  0.42929800  0.01515653  1
  Al0+  Al90  1  0.42915604  0.82197971  0.32024442  1
  Al0+  Al91  1  0.68084246  0.92688949  0.01529083  1
  Al0+  Al92  1  0.43126150  0.32065539  0.32159249  1
  Al0+  Al93  1  0.92553301  0.32085253  0.31633784  1
  Al0+  Al94  1  0.31980129  0.07365423  0.67974201  1
  Al0+  Al95  1  0.43078557  0.31942744  0.98511544  1
  Si0+  Si96  1  0.82397195  0.07059337  0.01709094  1
  Si0+  Si97  1  0.92649892  0.32158848  0.98507676  1
  Si0+  Si98  1  0.07047877  0.18112583  0.98287993  1
  Si0+  Si99  1  0.17500132  0.42798044  0.35079940  1
  Si0+  Si100  1  0.82387905  0.57282629  0.34901462  1
  Si0+  Si101  1  0.07377408  0.67714962  0.98291699  1
  Si0+  Si102  1  0.92986657  0.81978843  0.65113340  1
  Si0+  Si103  1  0.17565317  0.42864527  0.01667231  1
  Si0+  Si104  1  0.17863671  0.92876080  0.34875535  1
  Si0+  Si105  1  0.17789355  0.92677383  0.68407287  1
  Si0+  Si106  1  0.42744240  0.82384035  0.65183587  1
  Si0+  Si107  1  0.17645738  0.92959223  0.01752787  1
  Si0+  Si108  1  0.43010424  0.32151609  0.65229544  1
  Si0+  Si109  1  0.82383218  0.57190066  0.01581702  1
  Si0+  Si110  1  0.07435450  0.67994054  0.65236571  1
  Si0+  Si111  1  0.82459088  0.57277985  0.68199579  1
  Si0+  Si112  1  0.57397542  0.17598398  0.98314505  1
  Si0+  Si113  1  0.07402116  0.67722687  0.31690027  1
  Si0+  Si114  1  0.42604340  0.82584404  0.98341740  1
  Si0+  Si115  1  0.57256992  0.17589459  0.31820227  1
  Si0+  Si116  1  0.56868532  0.17640916  0.65364778  1
  Si0+  Si117  1  0.67758727  0.92359799  0.34957614  1
  Si0+  Si118  1  0.57005575  0.67722734  0.31613346  1
  Si0+  Si119  1  0.17665029  0.43068298  0.68191615  1
  O2-  O120  1  0.24824478  -0.00524884  0.06135765  1
  O2-  O121  1  0.24688016  -0.00279376  0.39390510  1
  O2-  O122  1  0.24438445  -0.00100709  0.72592663  1
  O2-  O123  1  0.24347289  0.49798913  0.06106265  1
  O2-  O124  1  0.24337005  0.49774464  0.39455975  1
  O2-  O125  1  0.24500159  0.49807156  0.72869321  1
  O2-  O126  1  0.75551603  0.00185525  0.06143520  1
  O2-  O127  1  0.74738176  -0.00875019  0.39279497  1
  O2-  O128  1  0.75315719  -0.00374613  0.73176965  1
  O2-  O129  1  0.75789814  0.50141760  0.06101319  1
  O2-  O130  1  0.75953955  0.50068796  0.39361558  1
  O2-  O131  1  0.75876833  0.50154978  0.72617449  1
  O2-  O132  1  -0.00126992  0.25079289  0.26485654  1
  O2-  O133  1  -0.00554719  0.24622747  0.60272555  1
  O2-  O134  1  -0.00223551  0.25124646  0.94228179  1
  O2-  O135  1  0.00242865  0.74313861  0.27309756  1
  O2-  O136  1  0.00256294  0.74985874  0.60957125  1
  O2-  O137  1  0.00392121  0.74422058  0.93747840  1
  O2-  O138  1  0.50212541  0.24278778  0.27380418  1
  O2-  O139  1  0.49797179  0.24756408  0.61064658  1
  O2-  O140  1  0.50428377  0.24359963  0.93781346  1
  O2-  O141  1  0.50424555  0.74855813  0.27236933  1
  O2-  O142  1  0.49614307  0.75546529  0.60688704  1
  O2-  O143  1  0.49335561  0.75655279  0.93829237  1
  O2-  O144  1  0.07091046  0.18060090  0.08763153  1
  O2-  O145  1  0.07080508  0.17977333  0.42849752  1
  O2-  O146  1  0.07324215  0.18284217  0.76421403  1
  O2-  O147  1  0.07341711  0.67728692  0.08826401  1
  O2-  O148  1  0.07440002  0.67986980  0.42299503  1
  O2-  O149  1  0.07456424  0.68109701  0.75739317  1
  O2-  O150  1  0.57560117  0.17725603  0.08872164  1
  O2-  O151  1  0.57166697  0.17642465  0.42426460  1
  O2-  O152  1  0.56688462  0.17565117  0.75875484  1
  O2-  O153  1  0.56550584  0.68082366  0.09957045  1
  O2-  O154  1  0.56950682  0.67766923  0.42182554  1
  O2-  O155  1  0.56825164  0.67759870  0.76362027  1
  O2-  O156  1  0.17426622  0.43038138  0.24494533  1
  O2-  O157  1  0.17827267  0.43304490  0.57660765  1
  O2-  O158  1  0.17417410  0.43004101  0.91094508  1
  O2-  O159  1  0.17935190  0.92852552  0.24312724  1
  O2-  O160  1  0.17860578  0.92056082  0.57890146  1
  O2-  O161  1  0.17521113  0.93046638  0.91178887  1
  O2-  O162  1  0.67834280  0.43288268  0.23439866  1
  O2-  O163  1  0.67736597  0.43090352  0.56869637  1
  O2-  O164  1  0.68067957  0.43084616  0.90210876  1
  O2-  O165  1  0.67859423  0.92385923  0.24377187  1
  O2-  O166  1  0.68082448  0.92841803  0.56655733  1
  O2-  O167  1  0.68307876  0.92687674  0.90234168  1
  O2-  O168  1  0.43194594  0.32016083  0.09814396  1
  O2-  O169  1  0.43358393  0.32133278  0.43521569  1
  O2-  O170  1  0.43107362  0.32187372  0.75762113  1
  O2-  O171  1  0.42703191  0.82445321  0.08917587  1
  O2-  O172  1  0.43025178  0.82215592  0.43360127  1
  O2-  O173  1  0.42598631  0.82388170  0.75737025  1
  O2-  O174  1  0.92676549  0.32117837  0.08978337  1
  O2-  O175  1  0.92582573  0.31879321  0.42950968  1
  O2-  O176  1  0.92858255  0.32161853  0.76645988  1
  O2-  O177  1  0.93134157  0.82002487  0.09682271  1
  O2-  O178  1  0.93146410  0.81823187  0.43395317  1
  O2-  O179  1  0.93027895  0.81769030  0.75633298  1
  O2-  O180  1  0.31910126  0.07177016  0.23369505  1
  O2-  O181  1  0.32134304  0.07264949  0.56683808  1
  O2-  O182  1  0.31678441  0.07333143  0.90157625  1
  O2-  O183  1  0.32032296  0.56989594  0.23503016  1
  O2-  O184  1  0.31979531  0.57104421  0.56838831  1
  O2-  O185  1  0.31964349  0.56871136  0.90180871  1
  O2-  O186  1  0.81902121  0.06514049  0.23262669  1
  O2-  O187  1  0.82274356  0.06820366  0.56851058  1
  O2-  O188  1  0.82407634  0.07043120  0.91164165  1
  O2-  O189  1  0.82131247  0.57642231  0.24348895  1
  O2-  O190  1  0.82478022  0.57598263  0.57656197  1
  O2-  O191  1  0.82536433  0.57053371  0.91010826  1
  O2-  O192  1  0.04364208  0.08075213  0.26141760  1
  O2-  O193  1  0.05155547  0.07696897  0.59955283  1
  O2-  O194  1  0.04519638  0.08919993  0.93441648  1
  O2-  O195  1  0.05313590  0.58298340  0.27072220  1
  O2-  O196  1  0.04869409  0.58889249  0.60269126  1
  O2-  O197  1  0.05091281  0.58276143  0.93624500  1
  O2-  O198  1  0.55026025  0.08143460  0.27261744  1
  O2-  O199  1  0.54100740  0.08484285  0.60570356  1
  O2-  O200  1  0.54835386  0.08130672  0.93921705  1
  O2-  O201  1  0.53967178  0.58487990  0.27123040  1
  O2-  O202  1  0.53546758  0.58304171  0.59655522  1
  O2-  O203  1  0.53465569  0.58492570  0.93230924  1
  O2-  O204  1  0.16837030  0.21054957  0.26105840  1
  O2-  O205  1  0.16891232  0.21255863  0.59664488  1
  O2-  O206  1  0.16098668  0.21162202  0.93441938  1
  O2-  O207  1  0.16610203  0.70592797  0.26974223  1
  O2-  O208  1  0.16580378  0.71011891  0.60493138  1
  O2-  O209  1  0.16659660  0.70649020  0.93604802  1
  O2-  O210  1  0.66516205  0.20241006  0.27152665  1
  O2-  O211  1  0.66079887  0.20498749  0.60775238  1
  O2-  O212  1  0.66787920  0.20176043  0.93712084  1
  O2-  O213  1  0.66460935  0.69782992  0.26957637  1
  O2-  O214  1  0.66711396  0.70541395  0.59455087  1
  O2-  O215  1  0.66484838  0.70832024  0.93213271  1
  O2-  O216  1  0.08160974  0.45237730  0.06373418  1
  O2-  O217  1  0.08060895  0.45233115  0.39631807  1
  O2-  O218  1  0.08250696  0.45660710  0.72749453  1
  O2-  O219  1  0.08364734  0.96011299  0.06285784  1
  O2-  O220  1  0.08457112  0.95304546  0.39399773  1
  O2-  O221  1  0.08406696  0.95006911  0.73064228  1
  O2-  O222  1  0.58455871  0.46369594  0.06824748  1
  O2-  O223  1  0.58680311  0.46403955  0.40438106  1
  O2-  O224  1  0.58536114  0.46531273  0.73636811  1
  O2-  O225  1  0.58474579  0.95623229  0.07092963  1
  O2-  O226  1  0.58447779  0.94943682  0.39571023  1
  O2-  O227  1  0.58251317  0.95520740  0.73566358  1
  O2-  O228  1  0.20228216  0.33543745  0.06181346  1
  O2-  O229  1  0.20244039  0.33500485  0.39560560  1
  O2-  O230  1  0.20157442  0.33737961  0.72870276  1
  O2-  O231  1  0.19540468  0.83462429  0.06342064  1
  O2-  O232  1  0.20286068  0.83493571  0.39539155  1
  O2-  O233  1  0.20539745  0.83596208  0.73563996  1
  O2-  O234  1  0.70788471  0.33142027  0.06846846  1
  O2-  O235  1  0.70690780  0.33157530  0.40086705  1
  O2-  O236  1  0.70435881  0.33299252  0.73904914  1
  O2-  O237  1  0.71307336  0.83024646  0.06827564  1
  O2-  O238  1  0.70194137  0.82858144  0.39322997  1
  O2-  O239  1  0.70854558  0.82668993  0.73033798  1
  O2-  O240  1  0.46625426  0.41651386  0.26809467  1
  O2-  O241  1  0.46184561  0.41209942  0.60542501  1
  O2-  O242  1  0.46382031  0.41530742  0.93105632  1
  O2-  O243  1  0.45900253  0.91825933  0.26471314  1
  O2-  O244  1  0.45374535  0.91797788  0.60674213  1
  O2-  O245  1  0.45265695  0.92058413  0.94037106  1
  O2-  O246  1  0.95040331  0.42113955  0.26399407  1
  O2-  O247  1  0.95305049  0.42016381  0.59883211  1
  O2-  O248  1  0.95289637  0.41439884  0.93829116  1
  O2-  O249  1  0.96144152  0.91306998  0.26273911  1
  O2-  O250  1  0.95805281  0.91170956  0.60496355  1
  O2-  O251  1  0.96288887  0.91589131  0.92794199  1
  O2-  O252  1  0.33385761  0.29607137  0.26680896  1
  O2-  O253  1  0.33673911  0.29836770  0.60656098  1
  O2-  O254  1  0.33279836  0.29195731  0.93082203  1
  O2-  O255  1  0.33266678  0.79179928  0.26563434  1
  O2-  O256  1  0.33354086  0.79764380  0.60626365  1
  O2-  O257  1  0.33020763  0.80359599  0.94010230  1
  O2-  O258  1  0.82761716  0.28819422  0.26451651  1
  O2-  O259  1  0.82379400  0.29525520  0.60420165  1
  O2-  O260  1  0.83453841  0.29248593  0.93856461  1
  O2-  O261  1  0.83268606  0.78813982  0.26511795  1
  O2-  O262  1  0.83981709  0.79024851  0.60206555  1
  O2-  O263  1  0.83495367  0.78786160  0.92813041  1
  O2-  O264  1  0.41721780  0.04715205  0.06950876  1
  O2-  O265  1  0.41823142  0.04155368  0.40002541  1
  O2-  O266  1  0.41430883  0.04261625  0.73757820  1
  O2-  O267  1  0.41514103  0.53686466  0.06905402  1
  O2-  O268  1  0.41489665  0.53767125  0.40344149  1
  O2-  O269  1  0.41555900  0.53674717  0.73538363  1
  O2-  O270  1  0.91846191  0.04421378  0.06055391  1
  O2-  O271  1  0.91851931  0.03551188  0.39800439  1
  O2-  O272  1  0.92295979  0.04396780  0.73377276  1
  O2-  O273  1  0.91908543  0.55110359  0.06131670  1
  O2-  O274  1  0.92029005  0.55423498  0.39228594  1
  O2-  O275  1  0.91996930  0.55289009  0.72775309  1
  O2-  O276  1  0.28511531  0.16925481  0.06646433  1
  O2-  O277  1  0.29050386  0.17020041  0.39885006  1
  O2-  O278  1  0.28846803  0.17056149  0.73404854  1
  O2-  O279  1  0.29145389  0.66926910  0.06746888  1
  O2-  O280  1  0.28982578  0.66812205  0.40227089  1
  O2-  O281  1  0.29111593  0.66791145  0.73616124  1
  O2-  O282  1  0.79833718  0.16379377  0.06385320  1
  O2-  O283  1  0.78983039  0.16211188  0.40182235  1
  O2-  O284  1  0.79211262  0.16676201  0.73682303  1
  O2-  O285  1  0.79564312  0.66517957  0.06029604  1
  O2-  O286  1  0.79466976  0.66490832  0.39750589  1
  O2-  O287  1  0.79549292  0.66515249  0.72861461  1
