# generated using pymatgen
data_Ca2Al2SiO7
_symmetry_space_group_name_H-M   'P 1'
_cell_length_a   15.45704359
_cell_length_b   15.45715808
_cell_length_c   15.28311046
_cell_angle_alpha   89.99440418
_cell_angle_beta   90.01025171
_cell_angle_gamma   89.99507103
_symmetry_Int_Tables_number   1
_chemical_formula_structural   Ca2Al2SiO7
_chemical_formula_sum   'Ca48 Al48 Si24 O168'
_cell_volume   3651.47071164
_cell_formula_units_Z   24
loop_
 _symmetry_equiv_pos_site_id
 _symmetry_equiv_pos_as_xyz
  1  'x, y, z'
loop_
 _atom_type_symbol
 _atom_type_oxidation_number
  Ca2+  2.0
  Al0+  0.0
  Si0+  0.0
  O2-  -2.0
loop_
 _atom_site_type_symbol
 _atom_site_label
 _atom_site_symmetry_multiplicity
 _atom_site_fract_x
 _atom_site_fract_y
 _atom_site_fract_z
 _atom_site_occupancy
  Ca2+  Ca0  1  0.17101402  0.08275109  0.17879427  1
  Ca2+  Ca1  1  0.17444792  0.08954924  0.50464207  1
  Ca2+  Ca2  1  0.17012034  0.09338036  0.83431893  1
  Ca2+  Ca3  1  0.16744849  0.57532955  0.17609547  1
  Ca2+  Ca4  1  0.16161977  0.57474962  0.50884960  1
  Ca2+  Ca5  1  0.16665910  0.57945354  0.83000025  1
  Ca2+  Ca6  1  0.66341855  0.07834591  0.17495808  1
  Ca2+  Ca7  1  0.66931409  0.08368663  0.49677222  1
  Ca2+  Ca8  1  0.66601985  0.07955370  0.84257725  1
  Ca2+  Ca9  1  0.66161595  0.57755664  0.16466871  1
  Ca2+  Ca10  1  0.67607079  0.58135453  0.50747629  1
  Ca2+  Ca11  1  0.67189843  0.58045708  0.84223312  1
  Ca2+  Ca12  1  0.08173824  0.32184219  0.16233219  1
  Ca2+  Ca13  1  0.08463410  0.33122523  0.49804137  1
  Ca2+  Ca14  1  0.07677552  0.32768143  0.82668672  1
  Ca2+  Ca15  1  0.08982159  0.82930525  0.16718065  1
  Ca2+  Ca16  1  0.09307350  0.82095677  0.49444171  1
  Ca2+  Ca17  1  0.08199398  0.82570925  0.82553942  1
  Ca2+  Ca18  1  0.57975490  0.32174526  0.15580389  1
  Ca2+  Ca19  1  0.57844253  0.32650625  0.49234293  1
  Ca2+  Ca20  1  0.58163454  0.33442872  0.83623630  1
  Ca2+  Ca21  1  0.58155183  0.83464266  0.15686450  1
  Ca2+  Ca22  1  0.57837284  0.83667889  0.49731691  1
  Ca2+  Ca23  1  0.57451642  0.83492724  0.83260840  1
  Ca2+  Ca24  1  0.32939705  0.41368345  0.17162837  1
  Ca2+  Ca25  1  0.31763144  0.42055889  0.50895776  1
  Ca2+  Ca26  1  0.32993795  0.41656917  0.83619523  1
  Ca2+  Ca27  1  0.33119311  0.92286061  0.17399050  1
  Ca2+  Ca28  1  0.33052634  0.92684093  0.50240914  1
  Ca2+  Ca29  1  0.33809864  0.91806824  0.83336108  1
  Ca2+  Ca30  1  0.83010564  0.40858955  0.16298788  1
  Ca2+  Ca31  1  0.83569056  0.41912368  0.50853944  1
  Ca2+  Ca32  1  0.83620201  0.41744749  0.83692591  1
  Ca2+  Ca33  1  0.82043921  0.92508640  0.17494969  1
  Ca2+  Ca34  1  0.83080420  0.92229466  0.49801332  1
  Ca2+  Ca35  1  0.82636973  0.91857471  0.84229309  1
  Ca2+  Ca36  1  0.42396268  0.16616230  0.16213877  1
  Ca2+  Ca37  1  0.41739691  0.16059458  0.49454214  1
  Ca2+  Ca38  1  0.42092309  0.16728787  0.83359281  1
  Ca2+  Ca39  1  0.42411067  0.67677960  0.15507171  1
  Ca2+  Ca40  1  0.40487862  0.67379023  0.50095515  1
  Ca2+  Ca41  1  0.41789599  0.67558196  0.82783652  1
  Ca2+  Ca42  1  0.92654895  0.16359165  0.16162003  1
  Ca2+  Ca43  1  0.92683673  0.16952237  0.49408312  1
  Ca2+  Ca44  1  0.92582383  0.17637633  0.82743056  1
  Ca2+  Ca45  1  0.92256086  0.66793842  0.16743972  1
  Ca2+  Ca46  1  0.92705637  0.66122793  0.49871945  1
  Ca2+  Ca47  1  0.91889258  0.66546807  0.82461828  1
  Al0+  Al48  1  0.00183546  -0.00275792  -0.00357889  1
  Al0+  Al49  1  -0.00183211  -0.00243174  0.33712461  1
  Al0+  Al50  1  -0.00093196  0.00023761  0.66402248  1
  Al0+  Al51  1  0.00143800  0.49963458  0.00032868  1
  Al0+  Al52  1  -0.00032885  0.50066783  0.32990592  1
  Al0+  Al53  1  -0.00220665  0.50007242  0.66928340  1
  Al0+  Al54  1  0.49869972  0.00002489  -0.00265661  1
  Al0+  Al55  1  0.49943005  -0.00049036  0.33687806  1
  Al0+  Al56  1  0.49831140  -0.00142380  0.66608154  1
  Al0+  Al57  1  0.50181906  0.50123153  -0.00192912  1
  Al0+  Al58  1  0.50028634  0.50197341  0.33492981  1
  Al0+  Al59  1  0.50036199  0.49996954  0.66761643  1
  Al0+  Al60  1  0.25125454  0.25028185  -0.00397343  1
  Al0+  Al61  1  0.24849209  0.25272878  0.33779582  1
  Al0+  Al62  1  0.25193161  0.24961078  0.67341019  1
  Al0+  Al63  1  0.25090274  0.75003745  -0.00254427  1
  Al0+  Al64  1  0.25105302  0.75053651  0.32865670  1
  Al0+  Al65  1  0.25031689  0.75098552  0.66218495  1
  Al0+  Al66  1  0.75252426  0.25132560  -0.00282043  1
  Al0+  Al67  1  0.74838937  0.24977127  0.33355252  1
  Al0+  Al68  1  0.75015557  0.24840754  0.66331249  1
  Al0+  Al69  1  0.75174295  0.75011460  0.00299514  1
  Al0+  Al70  1  0.74968928  0.74917334  0.33680509  1
  Al0+  Al71  1  0.74812060  0.74964733  0.67061402  1
  Al0+  Al72  1  0.17763180  0.92636751  0.34755522  1
  Al0+  Al73  1  0.92859607  0.32053312  0.64987921  1
  Al0+  Al74  1  0.32129042  0.06988615  0.68355981  1
  Al0+  Al75  1  0.93012890  0.32165158  0.98513350  1
  Al0+  Al76  1  0.07220884  0.17571970  0.98538781  1
  Al0+  Al77  1  0.57193662  0.17806672  0.98538590  1
  Al0+  Al78  1  0.56926730  0.17954305  0.32051400  1
  Al0+  Al79  1  0.17840510  0.43067722  0.34582006  1
  Al0+  Al80  1  0.07085168  0.67960596  0.31815494  1
  Al0+  Al81  1  0.67864699  0.93091735  0.01293053  1
  Al0+  Al82  1  0.06838336  0.68114464  0.65404822  1
  Al0+  Al83  1  0.67936775  0.42898286  0.01407335  1
  Al0+  Al84  1  0.81917665  0.57006331  0.68023048  1
  Al0+  Al85  1  0.07338443  0.17908996  0.64932809  1
  Al0+  Al86  1  0.42890551  0.32230070  0.98542681  1
  Al0+  Al87  1  0.42815420  0.82152648  0.98433481  1
  Al0+  Al88  1  0.57370193  0.67922069  0.98486066  1
  Al0+  Al89  1  0.67766847  0.92767739  0.34995265  1
  Al0+  Al90  1  0.31916772  0.07165821  0.34726525  1
  Al0+  Al91  1  0.82176508  0.07347124  0.34852303  1
  Al0+  Al92  1  0.07130324  0.17830015  0.32110302  1
  Al0+  Al93  1  0.32150626  0.57351665  0.68250764  1
  Al0+  Al94  1  0.43024418  0.82031427  0.64930589  1
  Al0+  Al95  1  0.17836535  0.42915327  0.68506002  1
  Si0+  Si96  1  0.17699369  0.92814409  0.68296472  1
  Si0+  Si97  1  0.92711718  0.32284369  0.31574989  1
  Si0+  Si98  1  0.32078908  0.57272364  0.01500267  1
  Si0+  Si99  1  0.67913880  0.93042966  0.68299849  1
  Si0+  Si100  1  0.57407059  0.67778275  0.31860938  1
  Si0+  Si101  1  0.31897266  0.07106448  0.01477117  1
  Si0+  Si102  1  0.43128087  0.81979100  0.31782588  1
  Si0+  Si103  1  0.17978975  0.42952296  0.01628877  1
  Si0+  Si104  1  0.82462969  0.57244225  0.01991955  1
  Si0+  Si105  1  0.67760253  0.42889409  0.34779198  1
  Si0+  Si106  1  0.42793147  0.32469265  0.31939507  1
  Si0+  Si107  1  0.67726430  0.42493701  0.68268019  1
  Si0+  Si108  1  0.92486889  0.82118083  0.31645074  1
  Si0+  Si109  1  0.57289299  0.67709855  0.64889420  1
  Si0+  Si110  1  0.92980212  0.81958647  0.98647747  1
  Si0+  Si111  1  0.07161115  0.67875482  0.98522133  1
  Si0+  Si112  1  0.17817368  0.92621015  0.01405824  1
  Si0+  Si113  1  0.82431881  0.07167320  0.01452674  1
  Si0+  Si114  1  0.42970252  0.32271008  0.65140515  1
  Si0+  Si115  1  0.56984322  0.17808431  0.65107565  1
  Si0+  Si116  1  0.92363553  0.82330345  0.64982812  1
  Si0+  Si117  1  0.82149577  0.07131866  0.68271715  1
  Si0+  Si118  1  0.82020329  0.57001941  0.34737784  1
  Si0+  Si119  1  0.32336882  0.57258441  0.34782825  1
  O2-  O120  1  0.24592499  0.00082711  0.05515680  1
  O2-  O121  1  0.24303184  0.00387830  0.39794201  1
  O2-  O122  1  0.24162366  -0.00063733  0.72950874  1
  O2-  O123  1  0.25230075  0.49972383  0.05868526  1
  O2-  O124  1  0.25395526  0.50514356  0.39141394  1
  O2-  O125  1  0.25210129  0.50054407  0.73480168  1
  O2-  O126  1  0.75044040  0.00865438  0.05913597  1
  O2-  O127  1  0.74941965  0.00074733  0.39869444  1
  O2-  O128  1  0.75238741  -0.00123956  0.72567279  1
  O2-  O129  1  0.75480322  0.50363480  0.06242245  1
  O2-  O130  1  0.75007756  0.49814433  0.38969765  1
  O2-  O131  1  0.74469386  0.49516921  0.72597904  1
  O2-  O132  1  -0.00628987  0.25060206  0.27404280  1
  O2-  O133  1  0.00179937  0.25108610  0.59871080  1
  O2-  O134  1  0.00033108  0.24796446  0.93634752  1
  O2-  O135  1  -0.00133959  0.75733598  0.27154174  1
  O2-  O136  1  -0.00549886  0.75671390  0.60635328  1
  O2-  O137  1  -0.00037652  0.74834577  0.94319308  1
  O2-  O138  1  0.49489175  0.25483115  0.27489168  1
  O2-  O139  1  0.50068751  0.25140263  0.60937453  1
  O2-  O140  1  0.50231705  0.25188712  0.93445177  1
  O2-  O141  1  0.50356122  0.74924288  0.27699270  1
  O2-  O142  1  0.50172333  0.74180320  0.60248505  1
  O2-  O143  1  0.50176852  0.75068926  0.93480841  1
  O2-  O144  1  0.07242664  0.17475432  0.09944821  1
  O2-  O145  1  0.07259250  0.18292778  0.43345484  1
  O2-  O146  1  0.06925353  0.17894823  0.76293067  1
  O2-  O147  1  0.07197559  0.67970623  0.09048934  1
  O2-  O148  1  0.06821352  0.67740204  0.43079957  1
  O2-  O149  1  0.06643473  0.68356732  0.76780435  1
  O2-  O150  1  0.56815957  0.17679588  0.09904803  1
  O2-  O151  1  0.56890171  0.18265533  0.43418800  1
  O2-  O152  1  0.57057465  0.17735019  0.75592074  1
  O2-  O153  1  0.57073028  0.68046477  0.09933254  1
  O2-  O154  1  0.57532521  0.67536390  0.42346901  1
  O2-  O155  1  0.57559635  0.68018163  0.75400147  1
  O2-  O156  1  0.18022896  0.43132987  0.23202481  1
  O2-  O157  1  0.17872806  0.43102062  0.57110796  1
  O2-  O158  1  0.17833773  0.43225491  0.91189539  1
  O2-  O159  1  0.18404187  0.92460286  0.23326501  1
  O2-  O160  1  0.17978604  0.92672950  0.57776195  1
  O2-  O161  1  0.17740757  0.92171509  0.90930804  1
  O2-  O162  1  0.67546234  0.43039201  0.24309433  1
  O2-  O163  1  0.67693344  0.42582363  0.57636195  1
  O2-  O164  1  0.68068191  0.43189081  0.90118047  1
  O2-  O165  1  0.67781667  0.92695146  0.23627891  1
  O2-  O166  1  0.67944678  0.93103553  0.57812778  1
  O2-  O167  1  0.68231935  0.93077636  0.89939344  1
  O2-  O168  1  0.42676802  0.31933824  0.09952280  1
  O2-  O169  1  0.43197618  0.32814221  0.42508094  1
  O2-  O170  1  0.43232834  0.32373083  0.75614247  1
  O2-  O171  1  0.42647035  0.81998933  0.09836101  1
  O2-  O172  1  0.43086506  0.81796854  0.42283665  1
  O2-  O173  1  0.43389830  0.82180355  0.76201907  1
  O2-  O174  1  0.93355727  0.32227569  0.09914679  1
  O2-  O175  1  0.92738808  0.32648136  0.42104492  1
  O2-  O176  1  0.92646489  0.31786812  0.76309281  1
  O2-  O177  1  0.93096436  0.81972890  0.09128144  1
  O2-  O178  1  0.91956506  0.81531089  0.42155981  1
  O2-  O179  1  0.92309625  0.82219563  0.75612815  1
  O2-  O180  1  0.32143402  0.06944576  0.23317080  1
  O2-  O181  1  0.32457375  0.06809555  0.57075964  1
  O2-  O182  1  0.31937284  0.07007295  0.90973412  1
  O2-  O183  1  0.32503941  0.57100625  0.24179398  1
  O2-  O184  1  0.31922656  0.57063678  0.56840055  1
  O2-  O185  1  0.31653033  0.57544829  0.91065800  1
  O2-  O186  1  0.82037729  0.07237026  0.23454540  1
  O2-  O187  1  0.81927054  0.07125153  0.57801001  1
  O2-  O188  1  0.82559450  0.06593094  0.90855576  1
  O2-  O189  1  0.81938176  0.57150483  0.24239999  1
  O2-  O190  1  0.81737199  0.57024199  0.56651161  1
  O2-  O191  1  0.82616146  0.57401742  0.91455099  1
  O2-  O192  1  0.04447162  0.07852655  0.27023412  1
  O2-  O193  1  0.04536397  0.07902176  0.59901196  1
  O2-  O194  1  0.04661278  0.07670910  0.93149899  1
  O2-  O195  1  0.03567851  0.58519217  0.26135688  1
  O2-  O196  1  0.03491361  0.58533684  0.60113521  1
  O2-  O197  1  0.04470921  0.58697798  0.93882038  1
  O2-  O198  1  0.53892384  0.08189199  0.26867410  1
  O2-  O199  1  0.53911380  0.08753947  0.60362561  1
  O2-  O200  1  0.54016511  0.08190046  0.93037303  1
  O2-  O201  1  0.54481326  0.58613056  0.27045709  1
  O2-  O202  1  0.55328054  0.58117173  0.60440899  1
  O2-  O203  1  0.54703969  0.58140712  0.93196976  1
  O2-  O204  1  0.16762610  0.21256320  0.26712981  1
  O2-  O205  1  0.17450730  0.20666340  0.60237199  1
  O2-  O206  1  0.16944192  0.20619071  0.93322950  1
  O2-  O207  1  0.16802599  0.70797462  0.26247079  1
  O2-  O208  1  0.16455084  0.71017430  0.59885110  1
  O2-  O209  1  0.16204139  0.70829473  0.93730310  1
  O2-  O210  1  0.66569385  0.21033934  0.26648076  1
  O2-  O211  1  0.66188125  0.20396416  0.60307056  1
  O2-  O212  1  0.67160265  0.20249773  0.93402078  1
  O2-  O213  1  0.66602980  0.70353695  0.27096742  1
  O2-  O214  1  0.66536888  0.70761319  0.60192079  1
  O2-  O215  1  0.67390405  0.70558793  0.93479053  1
  O2-  O216  1  0.08909855  0.46004851  0.06491845  1
  O2-  O217  1  0.08179349  0.46358243  0.39813501  1
  O2-  O218  1  0.08082551  0.46080253  0.73719579  1
  O2-  O219  1  0.08478897  0.94916302  0.06116083  1
  O2-  O220  1  0.07523071  0.93914631  0.39614655  1
  O2-  O221  1  0.08033829  0.94737750  0.72686180  1
  O2-  O222  1  0.58280115  0.46057637  0.06956433  1
  O2-  O223  1  0.58701466  0.45900337  0.39755461  1
  O2-  O224  1  0.58340110  0.44895618  0.72803678  1
  O2-  O225  1  0.58035344  0.95832228  0.06541851  1
  O2-  O226  1  0.58065697  0.95686588  0.40412555  1
  O2-  O227  1  0.58852246  0.96190196  0.72960681  1
  O2-  O228  1  0.20808483  0.33683424  0.06212704  1
  O2-  O229  1  0.20880614  0.33675207  0.40353370  1
  O2-  O230  1  0.20850302  0.33191039  0.73849970  1
  O2-  O231  1  0.20899938  0.83544608  0.06315518  1
  O2-  O232  1  0.21345933  0.82937922  0.39982449  1
  O2-  O233  1  0.20639063  0.83572093  0.72944755  1
  O2-  O234  1  0.71049988  0.33180819  0.06862108  1
  O2-  O235  1  0.70278149  0.33732703  0.39616990  1
  O2-  O236  1  0.70317853  0.33110694  0.72782749  1
  O2-  O237  1  0.71207470  0.83486041  0.06725674  1
  O2-  O238  1  0.70682715  0.82920284  0.40366398  1
  O2-  O239  1  0.70404406  0.83785907  0.73041295  1
  O2-  O240  1  0.45483508  0.41822915  0.27237272  1
  O2-  O241  1  0.45658892  0.41427884  0.60206035  1
  O2-  O242  1  0.45535963  0.42093098  0.93306998  1
  O2-  O243  1  0.45878705  0.91171840  0.27140144  1
  O2-  O244  1  0.46613621  0.91534911  0.59516000  1
  O2-  O245  1  0.45567588  0.91902703  0.93077168  1
  O2-  O246  1  0.95440334  0.41504115  0.26752586  1
  O2-  O247  1  0.95386934  0.42076110  0.59987455  1
  O2-  O248  1  0.95989861  0.42060856  0.93329990  1
  O2-  O249  1  0.94364892  0.91651648  0.27206384  1
  O2-  O250  1  0.94555684  0.91761343  0.60461697  1
  O2-  O251  1  0.95728486  0.90963156  0.93534350  1
  O2-  O252  1  0.33343427  0.30172697  0.27533962  1
  O2-  O253  1  0.33764670  0.29401427  0.60628907  1
  O2-  O254  1  0.33227819  0.29291657  0.93048871  1
  O2-  O255  1  0.34091799  0.79139707  0.26777680  1
  O2-  O256  1  0.33348046  0.79202984  0.59470230  1
  O2-  O257  1  0.33074950  0.79060487  0.93017340  1
  O2-  O258  1  0.83189468  0.29968407  0.27185886  1
  O2-  O259  1  0.82965676  0.29147043  0.59633169  1
  O2-  O260  1  0.83133371  0.29892959  0.93167303  1
  O2-  O261  1  0.83384890  0.78794160  0.26778554  1
  O2-  O262  1  0.83035981  0.79546776  0.60461123  1
  O2-  O263  1  0.83850325  0.79224734  0.93804354  1
  O2-  O264  1  0.41026273  0.04114578  0.06182226  1
  O2-  O265  1  0.41519045  0.03819230  0.40190183  1
  O2-  O266  1  0.41672973  0.03354481  0.73727243  1
  O2-  O267  1  0.41420355  0.54888923  0.06088031  1
  O2-  O268  1  0.41697439  0.54981084  0.39599016  1
  O2-  O269  1  0.42236268  0.54831271  0.73247259  1
  O2-  O270  1  0.91611154  0.03842369  0.06103104  1
  O2-  O271  1  0.91836698  0.04358741  0.40413001  1
  O2-  O272  1  0.91385296  0.04480006  0.72993074  1
  O2-  O273  1  0.91811612  0.54518928  0.06671232  1
  O2-  O274  1  0.91209977  0.54211682  0.39388164  1
  O2-  O275  1  0.91434549  0.54156128  0.73693530  1
  O2-  O276  1  0.29346504  0.16362026  0.06194540  1
  O2-  O277  1  0.29686775  0.17138125  0.40007621  1
  O2-  O278  1  0.29672816  0.16711626  0.73874183  1
  O2-  O279  1  0.28974357  0.66347518  0.06428471  1
  O2-  O280  1  0.29747597  0.66653552  0.39126849  1
  O2-  O281  1  0.29185208  0.67250323  0.73349178  1
  O2-  O282  1  0.80714533  0.16783771  0.05678942  1
  O2-  O283  1  0.79111303  0.17120683  0.40268798  1
  O2-  O284  1  0.79046037  0.16233811  0.72977667  1
  O2-  O285  1  0.79974922  0.66580110  0.06712611  1
  O2-  O286  1  0.79165289  0.66008507  0.39720570  1
  O2-  O287  1  0.78910935  0.66689325  0.73599819  1
