# generated using pymatgen
data_Ca2Al2SiO7
_symmetry_space_group_name_H-M   'P 1'
_cell_length_a   15.46953558
_cell_length_b   15.46948391
_cell_length_c   15.29171683
_cell_angle_alpha   90.01541931
_cell_angle_beta   90.00748491
_cell_angle_gamma   90.04477842
_symmetry_Int_Tables_number   1
_chemical_formula_structural   Ca2Al2SiO7
_chemical_formula_sum   'Ca48 Al48 Si24 O168'
_cell_volume   3659.39420380
_cell_formula_units_Z   24
loop_
 _symmetry_equiv_pos_site_id
 _symmetry_equiv_pos_as_xyz
  1  'x, y, z'
loop_
 _atom_type_symbol
 _atom_type_oxidation_number
  Ca2+  2.0
  Al0+  0.0
  Si0+  0.0
  O2-  -2.0
loop_
 _atom_site_type_symbol
 _atom_site_label
 _atom_site_symmetry_multiplicity
 _atom_site_fract_x
 _atom_site_fract_y
 _atom_site_fract_z
 _atom_site_occupancy
  Ca2+  Ca0  1  0.17790784  0.07600765  0.17458940  1
  Ca2+  Ca1  1  0.16347911  0.07222179  0.50402976  1
  Ca2+  Ca2  1  0.16888794  0.07145100  0.84256142  1
  Ca2+  Ca3  1  0.16474370  0.57768515  0.16299512  1
  Ca2+  Ca4  1  0.16667787  0.57353577  0.50784476  1
  Ca2+  Ca5  1  0.16717081  0.58082730  0.83618620  1
  Ca2+  Ca6  1  0.66318137  0.07944366  0.16820348  1
  Ca2+  Ca7  1  0.67082163  0.08267516  0.50717588  1
  Ca2+  Ca8  1  0.67297481  0.07614121  0.83214265  1
  Ca2+  Ca9  1  0.67638680  0.57482201  0.17714801  1
  Ca2+  Ca10  1  0.67900258  0.57212882  0.50626525  1
  Ca2+  Ca11  1  0.67388646  0.58011653  0.83170391  1
  Ca2+  Ca12  1  0.07548216  0.34469775  0.16154420  1
  Ca2+  Ca13  1  0.07333065  0.34442519  0.49702313  1
  Ca2+  Ca14  1  0.07634208  0.34028170  0.82763014  1
  Ca2+  Ca15  1  0.09088727  0.82814339  0.15881326  1
  Ca2+  Ca16  1  0.09105482  0.82808141  0.49886131  1
  Ca2+  Ca17  1  0.09847458  0.82227237  0.82861212  1
  Ca2+  Ca18  1  0.58721961  0.32630866  0.16574197  1
  Ca2+  Ca19  1  0.58769701  0.33101764  0.49184103  1
  Ca2+  Ca20  1  0.58089696  0.33531908  0.82541443  1
  Ca2+  Ca21  1  0.57601444  0.83227937  0.15468303  1
  Ca2+  Ca22  1  0.58403887  0.83326715  0.49636486  1
  Ca2+  Ca23  1  0.57857207  0.84062871  0.83059204  1
  Ca2+  Ca24  1  0.31978908  0.41913549  0.17089333  1
  Ca2+  Ca25  1  0.32130181  0.42010365  0.50897177  1
  Ca2+  Ca26  1  0.32065479  0.42810652  0.83978351  1
  Ca2+  Ca27  1  0.32636052  0.91990031  0.16520502  1
  Ca2+  Ca28  1  0.32409886  0.92143770  0.50019973  1
  Ca2+  Ca29  1  0.32542909  0.91856600  0.84099138  1
  Ca2+  Ca30  1  0.83568799  0.41894188  0.17563036  1
  Ca2+  Ca31  1  0.83016713  0.41805557  0.50468213  1
  Ca2+  Ca32  1  0.83846979  0.41644763  0.83108918  1
  Ca2+  Ca33  1  0.82584890  0.91356202  0.16923439  1
  Ca2+  Ca34  1  0.82659573  0.92665201  0.51248406  1
  Ca2+  Ca35  1  0.82489121  0.91750822  0.83466573  1
  Ca2+  Ca36  1  0.41846287  0.15727370  0.16435244  1
  Ca2+  Ca37  1  0.42553649  0.16387729  0.49071850  1
  Ca2+  Ca38  1  0.41496160  0.16463471  0.83188788  1
  Ca2+  Ca39  1  0.41409501  0.67277340  0.15526949  1
  Ca2+  Ca40  1  0.41472416  0.66494114  0.49936653  1
  Ca2+  Ca41  1  0.40725081  0.66999071  0.82930077  1
  Ca2+  Ca42  1  0.92041330  0.18112186  0.16194693  1
  Ca2+  Ca43  1  0.91211499  0.17780231  0.49720315  1
  Ca2+  Ca44  1  0.91396872  0.17693748  0.82671488  1
  Ca2+  Ca45  1  0.92275593  0.66541371  0.16074667  1
  Ca2+  Ca46  1  0.91900497  0.65830934  0.50006674  1
  Ca2+  Ca47  1  0.92978664  0.66537362  0.82527253  1
  Al0+  Al48  1  -0.00314044  0.00155052  0.00401942  1
  Al0+  Al49  1  -0.00153571  -0.00095558  0.33487676  1
  Al0+  Al50  1  -0.00060549  -0.00019909  0.67601487  1
  Al0+  Al51  1  -0.00097516  0.50247122  -0.00577431  1
  Al0+  Al52  1  0.00186482  0.50300648  0.33472830  1
  Al0+  Al53  1  -0.00083058  0.50064271  0.66336136  1
  Al0+  Al54  1  0.50198849  -0.00151609  0.00016120  1
  Al0+  Al55  1  0.49918973  -0.00090643  0.33129691  1
  Al0+  Al56  1  0.49886754  -0.00018761  0.66620296  1
  Al0+  Al57  1  0.50196436  0.49909940  0.00315333  1
  Al0+  Al58  1  0.50097079  0.49944991  0.33357604  1
  Al0+  Al59  1  0.50015447  0.50184704  0.67061514  1
  Al0+  Al60  1  0.25007275  0.25005296  0.00680464  1
  Al0+  Al61  1  0.25087258  0.24928558  0.34193602  1
  Al0+  Al62  1  0.24964590  0.24985338  0.66776729  1
  Al0+  Al63  1  0.25223759  0.75034454  -0.00198346  1
  Al0+  Al64  1  0.25034584  0.75081960  0.33405251  1
  Al0+  Al65  1  0.25103079  0.75178916  0.66349426  1
  Al0+  Al66  1  0.74988400  0.24954608  -0.00518811  1
  Al0+  Al67  1  0.74938946  0.24882815  0.32486955  1
  Al0+  Al68  1  0.74890670  0.24883394  0.66956878  1
  Al0+  Al69  1  0.74997164  0.74906116  0.00365711  1
  Al0+  Al70  1  0.75085169  0.74927849  0.33551836  1
  Al0+  Al71  1  0.74822189  0.74893742  0.67237471  1
  Al0+  Al72  1  0.92975384  0.31879552  0.65115899  1
  Al0+  Al73  1  0.17642759  0.43060533  0.01478355  1
  Al0+  Al74  1  0.67905781  0.42760691  0.68192448  1
  Al0+  Al75  1  0.17948727  0.93003126  0.68061380  1
  Al0+  Al76  1  0.17698581  0.92790716  0.01438742  1
  Al0+  Al77  1  0.82167908  0.07226570  0.68170468  1
  Al0+  Al78  1  0.32088603  0.57192143  0.68013600  1
  Al0+  Al79  1  0.17731631  0.92826355  0.34941567  1
  Al0+  Al80  1  0.93052028  0.32055628  0.98475553  1
  Al0+  Al81  1  0.93270459  0.32080370  0.31992922  1
  Al0+  Al82  1  0.68182720  0.92959306  0.01476214  1
  Al0+  Al83  1  0.43204989  0.81948596  0.98449174  1
  Al0+  Al84  1  0.32305394  0.07016561  0.35007349  1
  Al0+  Al85  1  0.67966155  0.42609205  0.34618207  1
  Al0+  Al86  1  0.07074666  0.68192289  0.65012437  1
  Al0+  Al87  1  0.32277049  0.57135102  0.01532200  1
  Al0+  Al88  1  0.32158619  0.07174823  0.01440877  1
  Al0+  Al89  1  0.56958962  0.17912377  0.31834396  1
  Al0+  Al90  1  0.06969359  0.68356407  0.98602019  1
  Al0+  Al91  1  0.82219709  0.57194897  0.34809026  1
  Al0+  Al92  1  0.17926045  0.42969415  0.34753086  1
  Al0+  Al93  1  0.82195341  0.57048255  0.68375687  1
  Al0+  Al94  1  0.67662162  0.92819341  0.68029833  1
  Al0+  Al95  1  0.17737153  0.42782607  0.68185709  1
  Si0+  Si96  1  0.42815477  0.32347442  0.65269597  1
  Si0+  Si97  1  0.43049740  0.82149736  0.64834786  1
  Si0+  Si98  1  0.57453361  0.67548300  0.98250807  1
  Si0+  Si99  1  0.32323988  0.57274890  0.34836890  1
  Si0+  Si100  1  0.56762030  0.17979625  0.65227724  1
  Si0+  Si101  1  0.67883794  0.92870470  0.34679782  1
  Si0+  Si102  1  0.07307887  0.17461075  0.31824333  1
  Si0+  Si103  1  0.67893062  0.42653553  0.01551104  1
  Si0+  Si104  1  0.82013413  0.56942886  0.01451488  1
  Si0+  Si105  1  0.82026340  0.07554202  0.01945020  1
  Si0+  Si106  1  0.07379093  0.17684906  0.98542940  1
  Si0+  Si107  1  0.57246501  0.67782638  0.65018466  1
  Si0+  Si108  1  0.42551442  0.32353406  0.31682528  1
  Si0+  Si109  1  0.07366619  0.17507145  0.65125512  1
  Si0+  Si110  1  0.43059431  0.81846505  0.31724597  1
  Si0+  Si111  1  0.07090218  0.68205820  0.31747575  1
  Si0+  Si112  1  0.42814757  0.32237926  0.98572554  1
  Si0+  Si113  1  0.57326719  0.67839219  0.31846331  1
  Si0+  Si114  1  0.92642288  0.82321604  0.31918904  1
  Si0+  Si115  1  0.92490079  0.82285169  0.65124347  1
  Si0+  Si116  1  0.32263774  0.07211048  0.68206637  1
  Si0+  Si117  1  0.92414927  0.82418809  0.98422060  1
  Si0+  Si118  1  0.81997087  0.07059004  0.34555155  1
  Si0+  Si119  1  0.56982217  0.17918675  0.98210103  1
  O2-  O120  1  0.24571825  0.00339334  0.06345581  1
  O2-  O121  1  0.24577609  0.00380993  0.39930396  1
  O2-  O122  1  0.24957798  0.00909508  0.72582026  1
  O2-  O123  1  0.25143006  0.49939924  0.06551295  1
  O2-  O124  1  0.25895453  0.50038287  0.39188080  1
  O2-  O125  1  0.24902963  0.50061638  0.73000502  1
  O2-  O126  1  0.75700448  0.00201739  0.06439548  1
  O2-  O127  1  0.74971471  -0.00093739  0.38863383  1
  O2-  O128  1  0.75251152  -0.00393863  0.72920951  1
  O2-  O129  1  0.74949083  0.49801996  0.05660763  1
  O2-  O130  1  0.75149233  0.49765264  0.39569558  1
  O2-  O131  1  0.75219466  0.49657105  0.73433448  1
  O2-  O132  1  0.01049936  0.24870274  0.27312530  1
  O2-  O133  1  0.00667822  0.24485345  0.60559143  1
  O2-  O134  1  0.00667913  0.24629462  0.93988395  1
  O2-  O135  1  -0.00025426  0.75439859  0.27716930  1
  O2-  O136  1  -0.00588138  0.75638072  0.60407687  1
  O2-  O137  1  -0.00061446  0.76363331  0.94006404  1
  O2-  O138  1  0.49404781  0.25406229  0.27210522  1
  O2-  O139  1  0.49855986  0.25202717  0.60931730  1
  O2-  O140  1  0.49792571  0.25011787  0.94159894  1
  O2-  O141  1  0.50008786  0.74595967  0.27477917  1
  O2-  O142  1  0.50230979  0.75026517  0.60721451  1
  O2-  O143  1  0.50446681  0.74206562  0.93740269  1
  O2-  O144  1  0.07081845  0.17620656  0.09109285  1
  O2-  O145  1  0.06673534  0.16970823  0.42344055  1
  O2-  O146  1  0.07433860  0.17525116  0.75668383  1
  O2-  O147  1  0.06574247  0.68148956  0.09981254  1
  O2-  O148  1  0.07208056  0.68257298  0.42233881  1
  O2-  O149  1  0.07220550  0.68391396  0.76300319  1
  O2-  O150  1  0.57165505  0.17983551  0.08729481  1
  O2-  O151  1  0.57048278  0.17711379  0.43160173  1
  O2-  O152  1  0.56473813  0.17787715  0.75744715  1
  O2-  O153  1  0.57582542  0.67816613  0.08860212  1
  O2-  O154  1  0.57386962  0.68154675  0.42343351  1
  O2-  O155  1  0.57228504  0.67711870  0.75495117  1
  O2-  O156  1  0.17725323  0.43390502  0.23461212  1
  O2-  O157  1  0.18003018  0.42917325  0.56793957  1
  O2-  O158  1  0.17684393  0.43180379  0.90182465  1
  O2-  O159  1  0.17960364  0.92608807  0.23634919  1
  O2-  O160  1  0.18211520  0.92976587  0.56738977  1
  O2-  O161  1  0.18157889  0.92886884  0.90096449  1
  O2-  O162  1  0.68116572  0.42794157  0.23202336  1
  O2-  O163  1  0.67827145  0.42767831  0.56850663  1
  O2-  O164  1  0.67701610  0.42628675  0.91083757  1
  O2-  O165  1  0.67985902  0.92772824  0.24175091  1
  O2-  O166  1  0.67539914  0.93170621  0.56594683  1
  O2-  O167  1  0.68168776  0.93178979  0.90222209  1
  O2-  O168  1  0.43175773  0.32348444  0.09060302  1
  O2-  O169  1  0.42845328  0.32410687  0.42250312  1
  O2-  O170  1  0.42962581  0.32118384  0.75796777  1
  O2-  O171  1  0.43457635  0.81886482  0.09819746  1
  O2-  O172  1  0.43217646  0.81819343  0.42258888  1
  O2-  O173  1  0.43146305  0.82358319  0.75309410  1
  O2-  O174  1  0.92897553  0.32073614  0.09826902  1
  O2-  O175  1  0.93024147  0.31835453  0.43262529  1
  O2-  O176  1  0.92997671  0.31665915  0.76426754  1
  O2-  O177  1  0.91961418  0.81844331  0.09013126  1
  O2-  O178  1  0.92234460  0.82504367  0.42364980  1
  O2-  O179  1  0.92361021  0.82042645  0.75660797  1
  O2-  O180  1  0.32488913  0.06464193  0.23694335  1
  O2-  O181  1  0.32671638  0.06902149  0.57681310  1
  O2-  O182  1  0.32174440  0.07082763  0.90049448  1
  O2-  O183  1  0.32234252  0.57513461  0.24307859  1
  O2-  O184  1  0.32157371  0.56919262  0.56592911  1
  O2-  O185  1  0.32251332  0.56951376  0.90235694  1
  O2-  O186  1  0.81916452  0.06799073  0.24052343  1
  O2-  O187  1  0.81725214  0.07301708  0.56721822  1
  O2-  O188  1  0.81624004  0.07752123  0.91437359  1
  O2-  O189  1  0.82033563  0.57323546  0.23379074  1
  O2-  O190  1  0.81884409  0.57026466  0.57037326  1
  O2-  O191  1  0.81899768  0.57020161  0.90996571  1
  O2-  O192  1  0.04220435  0.08322873  0.26916821  1
  O2-  O193  1  0.04596651  0.08072541  0.60669826  1
  O2-  O194  1  0.04672597  0.08284594  0.93950099  1
  O2-  O195  1  0.04142265  0.59151447  0.26897628  1
  O2-  O196  1  0.03978826  0.58533118  0.59601691  1
  O2-  O197  1  0.03422753  0.58961210  0.93044073  1
  O2-  O198  1  0.53878034  0.08178053  0.26364926  1
  O2-  O199  1  0.53823661  0.08863513  0.60310924  1
  O2-  O200  1  0.54246147  0.08754024  0.93502040  1
  O2-  O201  1  0.55010563  0.58490975  0.27172628  1
  O2-  O202  1  0.54247384  0.58684764  0.60153364  1
  O2-  O203  1  0.55302304  0.57993190  0.93886676  1
  O2-  O204  1  0.17060291  0.19446791  0.27867299  1
  O2-  O205  1  0.16877286  0.19671611  0.60508695  1
  O2-  O206  1  0.16919084  0.19877795  0.94153859  1
  O2-  O207  1  0.16302546  0.70992772  0.27001563  1
  O2-  O208  1  0.16683805  0.71491277  0.59497320  1
  O2-  O209  1  0.16735778  0.71020842  0.93267924  1
  O2-  O210  1  0.66432879  0.20843568  0.25910202  1
  O2-  O211  1  0.66027474  0.20500823  0.60596030  1
  O2-  O212  1  0.66066020  0.20838236  0.93386570  1
  O2-  O213  1  0.66414767  0.70898384  0.26994511  1
  O2-  O214  1  0.66408351  0.70620436  0.60224398  1
  O2-  O215  1  0.66778107  0.70386627  0.93735678  1
  O2-  O216  1  0.07907799  0.46595320  0.06650076  1
  O2-  O217  1  0.08600945  0.46736308  0.40216349  1
  O2-  O218  1  0.07900724  0.45676198  0.73106362  1
  O2-  O219  1  0.07509299  0.94781481  0.06448144  1
  O2-  O220  1  0.07692035  0.95220726  0.40089773  1
  O2-  O221  1  0.08224624  0.95183680  0.73591259  1
  O2-  O222  1  0.58785494  0.45226157  0.06491595  1
  O2-  O223  1  0.58041004  0.45320689  0.39793889  1
  O2-  O224  1  0.58188273  0.45872394  0.73562863  1
  O2-  O225  1  0.58654559  0.96274883  0.06904524  1
  O2-  O226  1  0.58731799  0.95610798  0.39326544  1
  O2-  O227  1  0.58033839  0.96251846  0.73366044  1
  O2-  O228  1  0.20141373  0.33169897  0.06800123  1
  O2-  O229  1  0.20189894  0.33169070  0.40189739  1
  O2-  O230  1  0.20471941  0.32871350  0.73370849  1
  O2-  O231  1  0.21170007  0.83185822  0.06705162  1
  O2-  O232  1  0.21224150  0.83159254  0.40247595  1
  O2-  O233  1  0.21824885  0.83612445  0.73225227  1
  O2-  O234  1  0.70780591  0.33421326  0.06096173  1
  O2-  O235  1  0.70687392  0.32630321  0.39580726  1
  O2-  O236  1  0.70253159  0.32879757  0.73498362  1
  O2-  O237  1  0.70977550  0.83219489  0.07008161  1
  O2-  O238  1  0.70584059  0.83727550  0.39466680  1
  O2-  O239  1  0.69844077  0.82961406  0.73367439  1
  O2-  O240  1  0.45047749  0.41755749  0.27013653  1
  O2-  O241  1  0.45596959  0.41534020  0.60578555  1
  O2-  O242  1  0.45921962  0.41318768  0.93766189  1
  O2-  O243  1  0.46100101  0.90885222  0.26951090  1
  O2-  O244  1  0.45995903  0.91282735  0.59964358  1
  O2-  O245  1  0.46658082  0.91518683  0.93036164  1
  O2-  O246  1  0.96243135  0.41911400  0.26745210  1
  O2-  O247  1  0.95792359  0.41596804  0.59712531  1
  O2-  O248  1  0.95898533  0.41710357  0.93066868  1
  O2-  O249  1  0.95007416  0.91551814  0.27005367  1
  O2-  O250  1  0.94882656  0.91892786  0.60883713  1
  O2-  O251  1  0.93789787  0.92250529  0.94430826  1
  O2-  O252  1  0.33058468  0.29889843  0.27281748  1
  O2-  O253  1  0.33584659  0.29683903  0.60516382  1
  O2-  O254  1  0.33543951  0.29551771  0.93969368  1
  O2-  O255  1  0.33828270  0.79130833  0.27041649  1
  O2-  O256  1  0.34060449  0.79234067  0.59827176  1
  O2-  O257  1  0.33557578  0.79116847  0.92992914  1
  O2-  O258  1  0.83756365  0.28757432  0.26363102  1
  O2-  O259  1  0.83192695  0.28511099  0.59964566  1
  O2-  O260  1  0.83394024  0.28805494  0.93074337  1
  O2-  O261  1  0.83554005  0.79239338  0.26951461  1
  O2-  O262  1  0.83013856  0.79799250  0.60578753  1
  O2-  O263  1  0.83294421  0.79173125  0.93688274  1
  O2-  O264  1  0.41932287  0.03907199  0.06569751  1
  O2-  O265  1  0.41973410  0.03450487  0.40336571  1
  O2-  O266  1  0.41373287  0.04142425  0.72987351  1
  O2-  O267  1  0.42273104  0.54561324  0.06783772  1
  O2-  O268  1  0.41890926  0.55296320  0.39276275  1
  O2-  O269  1  0.41911066  0.54710326  0.73362001  1
  O2-  O270  1  0.91553148  0.05717087  0.06430618  1
  O2-  O271  1  0.91080307  0.04447202  0.39457709  1
  O2-  O272  1  0.91897138  0.04902770  0.73796281  1
  O2-  O273  1  0.91130076  0.54098558  0.06156876  1
  O2-  O274  1  0.92048737  0.54629984  0.39962109  1
  O2-  O275  1  0.92050326  0.54308303  0.73451534  1
  O2-  O276  1  0.30008591  0.17057207  0.06967522  1
  O2-  O277  1  0.30533999  0.17069721  0.40185265  1
  O2-  O278  1  0.30421899  0.16769444  0.72608527  1
  O2-  O279  1  0.29391606  0.66955290  0.06702066  1
  O2-  O280  1  0.29479433  0.66497724  0.39525677  1
  O2-  O281  1  0.29358873  0.67116869  0.72961001  1
  O2-  O282  1  0.78693781  0.16678425  0.06620495  1
  O2-  O283  1  0.78914682  0.16160359  0.39115436  1
  O2-  O284  1  0.78596766  0.16601095  0.73776429  1
  O2-  O285  1  0.79289905  0.66058193  0.06392108  1
  O2-  O286  1  0.79185519  0.66949626  0.40202938  1
  O2-  O287  1  0.79168340  0.66765681  0.73735914  1
