# generated using pymatgen
data_Ca2Al2SiO7
_symmetry_space_group_name_H-M   'P 1'
_cell_length_a   15.45796614
_cell_length_b   15.45673048
_cell_length_c   15.28254310
_cell_angle_alpha   90.00401629
_cell_angle_beta   89.98568389
_cell_angle_gamma   89.99099722
_symmetry_Int_Tables_number   1
_chemical_formula_structural   Ca2Al2SiO7
_chemical_formula_sum   'Ca48 Al48 Si24 O168'
_cell_volume   3651.45199326
_cell_formula_units_Z   24
loop_
 _symmetry_equiv_pos_site_id
 _symmetry_equiv_pos_as_xyz
  1  'x, y, z'
loop_
 _atom_type_symbol
 _atom_type_oxidation_number
  Ca2+  2.0
  Al0+  0.0
  Si0+  0.0
  O2-  -2.0
loop_
 _atom_site_type_symbol
 _atom_site_label
 _atom_site_symmetry_multiplicity
 _atom_site_fract_x
 _atom_site_fract_y
 _atom_site_fract_z
 _atom_site_occupancy
  Ca2+  Ca0  1  0.16599613  0.07594638  0.17184778  1
  Ca2+  Ca1  1  0.16644571  0.08186637  0.50490745  1
  Ca2+  Ca2  1  0.16925335  0.08971627  0.83105461  1
  Ca2+  Ca3  1  0.17869971  0.59115700  0.16882506  1
  Ca2+  Ca4  1  0.17300171  0.57490607  0.50482722  1
  Ca2+  Ca5  1  0.16902910  0.57828602  0.84299467  1
  Ca2+  Ca6  1  0.67258540  0.07643276  0.16960118  1
  Ca2+  Ca7  1  0.67258075  0.07974848  0.49929465  1
  Ca2+  Ca8  1  0.67075415  0.07633659  0.84824876  1
  Ca2+  Ca9  1  0.66883542  0.58903373  0.16681223  1
  Ca2+  Ca10  1  0.67097071  0.58448817  0.50238981  1
  Ca2+  Ca11  1  0.67555537  0.58353274  0.84039347  1
  Ca2+  Ca12  1  0.07161732  0.33188814  0.16350305  1
  Ca2+  Ca13  1  0.08315773  0.32986494  0.49963397  1
  Ca2+  Ca14  1  0.08061229  0.33223362  0.82944048  1
  Ca2+  Ca15  1  0.07464977  0.83339261  0.16085410  1
  Ca2+  Ca16  1  0.07223613  0.83810057  0.49374935  1
  Ca2+  Ca17  1  0.07172707  0.82587281  0.83206790  1
  Ca2+  Ca18  1  0.57538059  0.32709158  0.15865027  1
  Ca2+  Ca19  1  0.57037891  0.33512738  0.49300024  1
  Ca2+  Ca20  1  0.57268987  0.33051169  0.83479263  1
  Ca2+  Ca21  1  0.59303781  0.82650904  0.16359643  1
  Ca2+  Ca22  1  0.58404633  0.82722309  0.49176195  1
  Ca2+  Ca23  1  0.59347080  0.82756901  0.83630885  1
  Ca2+  Ca24  1  0.34296350  0.42470420  0.16882034  1
  Ca2+  Ca25  1  0.33249744  0.41563033  0.50501170  1
  Ca2+  Ca26  1  0.32885129  0.41259056  0.83781689  1
  Ca2+  Ca27  1  0.32403384  0.91426958  0.17381233  1
  Ca2+  Ca28  1  0.32305310  0.92132290  0.50510345  1
  Ca2+  Ca29  1  0.33412125  0.92499591  0.83777058  1
  Ca2+  Ca30  1  0.83939135  0.42029621  0.16956827  1
  Ca2+  Ca31  1  0.83499176  0.42276213  0.50517820  1
  Ca2+  Ca32  1  0.83873687  0.42780457  0.84245381  1
  Ca2+  Ca33  1  0.82971507  0.92162303  0.17142296  1
  Ca2+  Ca34  1  0.83307560  0.91372740  0.49852296  1
  Ca2+  Ca35  1  0.83356813  0.91996813  0.84409246  1
  Ca2+  Ca36  1  0.42131402  0.17755269  0.15717319  1
  Ca2+  Ca37  1  0.40863515  0.17661845  0.49791864  1
  Ca2+  Ca38  1  0.41900500  0.17236975  0.82692550  1
  Ca2+  Ca39  1  0.42607641  0.66056859  0.16044435  1
  Ca2+  Ca40  1  0.42393164  0.66213587  0.48940908  1
  Ca2+  Ca41  1  0.42164386  0.66147334  0.83702429  1
  Ca2+  Ca42  1  0.90426766  0.17408609  0.16281229  1
  Ca2+  Ca43  1  0.92148918  0.16893454  0.49157569  1
  Ca2+  Ca44  1  0.91883797  0.17026488  0.83176810  1
  Ca2+  Ca45  1  0.91914743  0.67922342  0.15565724  1
  Ca2+  Ca46  1  0.91327082  0.67612282  0.49616438  1
  Ca2+  Ca47  1  0.90668464  0.67539618  0.83228901  1
  Al0+  Al48  1  0.00029538  0.00095042  -0.00040005  1
  Al0+  Al49  1  0.00066075  0.00036253  0.33676908  1
  Al0+  Al50  1  -0.00102383  -0.00070663  0.65955801  1
  Al0+  Al51  1  0.00172763  0.49862449  -0.00014122  1
  Al0+  Al52  1  0.00274269  0.49964919  0.33136264  1
  Al0+  Al53  1  0.00153741  0.50200481  0.67462577  1
  Al0+  Al54  1  0.49972194  -0.00042065  0.00340149  1
  Al0+  Al55  1  0.50040303  -0.00034892  0.33853424  1
  Al0+  Al56  1  0.50016065  -0.00138816  0.66939685  1
  Al0+  Al57  1  0.49948190  0.50052252  -0.00635687  1
  Al0+  Al58  1  0.50156095  0.50050935  0.32981005  1
  Al0+  Al59  1  0.50141985  0.49923498  0.66308471  1
  Al0+  Al60  1  0.24799527  0.25082372  0.00007827  1
  Al0+  Al61  1  0.24828461  0.25203537  0.32624613  1
  Al0+  Al62  1  0.24932651  0.25016031  0.66650496  1
  Al0+  Al63  1  0.25037277  0.74905225  -0.00107471  1
  Al0+  Al64  1  0.25139905  0.74990997  0.34602830  1
  Al0+  Al65  1  0.24951414  0.75014259  0.66733547  1
  Al0+  Al66  1  0.74838742  0.25101080  -0.00701825  1
  Al0+  Al67  1  0.74923071  0.25081756  0.33604263  1
  Al0+  Al68  1  0.74796208  0.24967731  0.66711982  1
  Al0+  Al69  1  0.74941099  0.74918702  -0.00057045  1
  Al0+  Al70  1  0.75091322  0.75070659  0.32956051  1
  Al0+  Al71  1  0.74979065  0.74998073  0.66490167  1
  Al0+  Al72  1  0.92890048  0.82100645  0.98517519  1
  Al0+  Al73  1  0.92802195  0.32091058  0.98609540  1
  Al0+  Al74  1  0.92795635  0.32180378  0.32188828  1
  Al0+  Al75  1  0.06872709  0.18107219  0.65272145  1
  Al0+  Al76  1  0.32045508  0.56926094  0.01297938  1
  Al0+  Al77  1  0.92937627  0.81845660  0.65072469  1
  Al0+  Al78  1  0.32303935  0.56840648  0.34769388  1
  Al0+  Al79  1  0.57019536  0.68067031  0.31911075  1
  Al0+  Al80  1  0.18115024  0.42981971  0.68104703  1
  Al0+  Al81  1  0.57041393  0.17640878  0.98526109  1
  Al0+  Al82  1  0.82268771  0.07319148  0.01361487  1
  Al0+  Al83  1  0.82016777  0.07303364  0.35051687  1
  Al0+  Al84  1  0.31921459  0.06936809  0.67975592  1
  Al0+  Al85  1  0.81872034  0.57027378  0.67955768  1
  Al0+  Al86  1  0.93091131  0.82085904  0.31810888  1
  Al0+  Al87  1  0.42819232  0.32009005  0.31822322  1
  Al0+  Al88  1  0.82218144  0.56979996  0.01563895  1
  Al0+  Al89  1  0.57066501  0.68045084  0.98502394  1
  Al0+  Al90  1  0.43075562  0.31881945  0.65156051  1
  Al0+  Al91  1  0.07364274  0.67878114  0.98609496  1
  Al0+  Al92  1  0.67816170  0.92793123  0.01585829  1
  Al0+  Al93  1  0.17906736  0.92921589  0.34785550  1
  Al0+  Al94  1  0.42802815  0.32092249  0.98300036  1
  Al0+  Al95  1  0.67947013  0.92669126  0.35072382  1
  Si0+  Si96  1  0.17701137  0.42751407  0.35010667  1
  Si0+  Si97  1  0.42558560  0.82256955  0.98426826  1
  Si0+  Si98  1  0.67763406  0.42950734  0.01573499  1
  Si0+  Si99  1  0.42626028  0.82307561  0.32006020  1
  Si0+  Si100  1  0.07467813  0.67757176  0.31931945  1
  Si0+  Si101  1  0.07228867  0.17697395  0.98351720  1
  Si0+  Si102  1  0.07470072  0.67611280  0.64891206  1
  Si0+  Si103  1  0.57212289  0.17675270  0.31827110  1
  Si0+  Si104  1  0.42703803  0.82324238  0.65176709  1
  Si0+  Si105  1  0.57272797  0.17410845  0.64816156  1
  Si0+  Si106  1  0.32122710  0.07468818  0.34779135  1
  Si0+  Si107  1  0.82222900  0.07185742  0.68092504  1
  Si0+  Si108  1  0.17498345  0.92752206  0.68528635  1
  Si0+  Si109  1  0.67587559  0.42656659  0.68360144  1
  Si0+  Si110  1  0.82314460  0.57066783  0.34632749  1
  Si0+  Si111  1  0.67946264  0.42961125  0.34727285  1
  Si0+  Si112  1  0.68008785  0.92976107  0.68186231  1
  Si0+  Si113  1  0.32492707  0.57308000  0.68355249  1
  Si0+  Si114  1  0.18034239  0.92930419  0.01276604  1
  Si0+  Si115  1  0.92678072  0.32486933  0.65179071  1
  Si0+  Si116  1  0.32083474  0.07278546  0.01527746  1
  Si0+  Si117  1  0.17754048  0.42549279  0.02030815  1
  Si0+  Si118  1  0.56889238  0.68114096  0.65110807  1
  Si0+  Si119  1  0.07104549  0.17793020  0.31581536  1
  O2-  O120  1  0.25091964  0.00050248  0.05643660  1
  O2-  O121  1  0.25462461  0.00446808  0.39280265  1
  O2-  O122  1  0.24618394  -0.00620006  0.72936266  1
  O2-  O123  1  0.24665664  0.49496080  0.06242641  1
  O2-  O124  1  0.24841083  0.49366732  0.39408387  1
  O2-  O125  1  0.25451101  0.50654160  0.72703403  1
  O2-  O126  1  0.75091995  0.00066709  0.06309428  1
  O2-  O127  1  0.75063262  -0.00110337  0.40207026  1
  O2-  O128  1  0.74811314  0.00396704  0.72259778  1
  O2-  O129  1  0.74888966  0.49386942  0.06307993  1
  O2-  O130  1  0.75365056  0.49810125  0.38910928  1
  O2-  O131  1  0.74966716  0.49019084  0.72646338  1
  O2-  O132  1  -0.00080523  0.24427699  0.27400147  1
  O2-  O133  1  -0.00832968  0.25372256  0.60601594  1
  O2-  O134  1  0.00186975  0.24463098  0.94095426  1
  O2-  O135  1  0.00696592  0.74621965  0.27424214  1
  O2-  O136  1  0.00623915  0.74492830  0.60454056  1
  O2-  O137  1  -0.00286757  0.74520887  0.93477400  1
  O2-  O138  1  0.49936651  0.24116930  0.27426230  1
  O2-  O139  1  0.50630866  0.24498845  0.60354479  1
  O2-  O140  1  0.49611518  0.24511316  0.93365454  1
  O2-  O141  1  0.49586953  0.75697086  0.27426316  1
  O2-  O142  1  0.49323700  0.74754838  0.60974058  1
  O2-  O143  1  0.49766267  0.75764636  0.93912115  1
  O2-  O144  1  0.07670658  0.17663946  0.08895130  1
  O2-  O145  1  0.07419120  0.18059683  0.42152300  1
  O2-  O146  1  0.06711029  0.18165590  0.76580229  1
  O2-  O147  1  0.07702988  0.68580402  0.09986166  1
  O2-  O148  1  0.07144679  0.67536928  0.42517014  1
  O2-  O149  1  0.07717643  0.67785463  0.75401528  1
  O2-  O150  1  0.56760245  0.17769533  0.09920286  1
  O2-  O151  1  0.57251568  0.18002446  0.42428567  1
  O2-  O152  1  0.57117783  0.17252869  0.75322025  1
  O2-  O153  1  0.56861083  0.67948638  0.09785883  1
  O2-  O154  1  0.56942393  0.67955788  0.43314410  1
  O2-  O155  1  0.57005613  0.68226457  0.75593510  1
  O2-  O156  1  0.17388907  0.42805476  0.24512836  1
  O2-  O157  1  0.18243575  0.43054074  0.56744854  1
  O2-  O158  1  0.17924745  0.42326375  0.91448337  1
  O2-  O159  1  0.18078257  0.92954381  0.23417980  1
  O2-  O160  1  0.17668852  0.92869692  0.57960544  1
  O2-  O161  1  0.18194429  0.93023920  0.90766607  1
  O2-  O162  1  0.67848825  0.42935249  0.24253813  1
  O2-  O163  1  0.67346233  0.42900712  0.57752505  1
  O2-  O164  1  0.67803096  0.43320965  0.90983895  1
  O2-  O165  1  0.68051031  0.92663684  0.23805395  1
  O2-  O166  1  0.67972561  0.92805580  0.57697359  1
  O2-  O167  1  0.67979442  0.92875714  0.90119320  1
  O2-  O168  1  0.43075181  0.32033044  0.09675128  1
  O2-  O169  1  0.42840010  0.31930953  0.43178905  1
  O2-  O170  1  0.43178349  0.31836747  0.76401389  1
  O2-  O171  1  0.42029953  0.82085117  0.08960000  1
  O2-  O172  1  0.42680443  0.82074821  0.42612884  1
  O2-  O173  1  0.42789527  0.82582294  0.75662850  1
  O2-  O174  1  0.92991998  0.32057400  0.09948425  1
  O2-  O175  1  0.93090100  0.32397922  0.43527959  1
  O2-  O176  1  0.92812212  0.32361873  0.75710825  1
  O2-  O177  1  0.93233474  0.82280286  0.09860904  1
  O2-  O178  1  0.93037870  0.81713147  0.43173901  1
  O2-  O179  1  0.92785441  0.81871723  0.76332209  1
  O2-  O180  1  0.31929551  0.07351383  0.24197771  1
  O2-  O181  1  0.31729483  0.06734283  0.56651656  1
  O2-  O182  1  0.31976021  0.07267453  0.91002732  1
  O2-  O183  1  0.32311303  0.56893623  0.23485283  1
  O2-  O184  1  0.32595890  0.57167343  0.57772880  1
  O2-  O185  1  0.31917331  0.56866900  0.89972563  1
  O2-  O186  1  0.81682347  0.07573494  0.23761355  1
  O2-  O187  1  0.82146661  0.07234342  0.57609870  1
  O2-  O188  1  0.82349219  0.07070023  0.89910561  1
  O2-  O189  1  0.82306966  0.56979331  0.24162294  1
  O2-  O190  1  0.81555256  0.57058056  0.56556009  1
  O2-  O191  1  0.81842193  0.56994919  0.90219843  1
  O2-  O192  1  0.04911335  0.08328486  0.27163036  1
  O2-  O193  1  0.04087090  0.08442202  0.59709392  1
  O2-  O194  1  0.04956119  0.08378195  0.93561831  1
  O2-  O195  1  0.05185521  0.58412662  0.27221750  1
  O2-  O196  1  0.04834238  0.58186742  0.60447155  1
  O2-  O197  1  0.05294343  0.57756139  0.93748447  1
  O2-  O198  1  0.55104352  0.08090689  0.27531499  1
  O2-  O199  1  0.54564349  0.08057191  0.60229707  1
  O2-  O200  1  0.54313010  0.07688280  0.93326503  1
  O2-  O201  1  0.53919100  0.58520021  0.26418060  1
  O2-  O202  1  0.54600545  0.58798846  0.60331895  1
  O2-  O203  1  0.53757075  0.58632479  0.92775209  1
  O2-  O204  1  0.16255179  0.20543037  0.26594562  1
  O2-  O205  1  0.16427794  0.21353126  0.59792198  1
  O2-  O206  1  0.16466460  0.20519864  0.93583148  1
  O2-  O207  1  0.17009774  0.70446921  0.27826426  1
  O2-  O208  1  0.16936607  0.70015398  0.60258065  1
  O2-  O209  1  0.16954668  0.71117880  0.92958086  1
  O2-  O210  1  0.66353283  0.20783029  0.27232297  1
  O2-  O211  1  0.66773356  0.19821184  0.60324689  1
  O2-  O212  1  0.66630967  0.20619733  0.92839048  1
  O2-  O213  1  0.66669745  0.70956232  0.26517406  1
  O2-  O214  1  0.65842572  0.71387050  0.60223900  1
  O2-  O215  1  0.66630300  0.71046164  0.92889763  1
  O2-  O216  1  0.08408221  0.45040046  0.06598883  1
  O2-  O217  1  0.08513069  0.45584376  0.39957283  1
  O2-  O218  1  0.08491155  0.45775732  0.73736511  1
  O2-  O219  1  0.08957582  0.95823455  0.06130535  1
  O2-  O220  1  0.08457222  0.96156556  0.40431411  1
  O2-  O221  1  0.08192280  0.95684277  0.72947814  1
  O2-  O222  1  0.58492353  0.45906320  0.06097769  1
  O2-  O223  1  0.59000997  0.46266476  0.39674414  1
  O2-  O224  1  0.58471870  0.45870444  0.73082273  1
  O2-  O225  1  0.57836863  0.95275230  0.06910516  1
  O2-  O226  1  0.57934270  0.95205178  0.40433384  1
  O2-  O227  1  0.58731269  0.95302793  0.72946097  1
  O2-  O228  1  0.20218875  0.33174021  0.06729989  1
  O2-  O229  1  0.20179176  0.33253041  0.39426142  1
  O2-  O230  1  0.21329852  0.33436694  0.73555163  1
  O2-  O231  1  0.20994166  0.83887899  0.06130693  1
  O2-  O232  1  0.20903230  0.83523901  0.40808930  1
  O2-  O233  1  0.19895761  0.83250790  0.72918393  1
  O2-  O234  1  0.69868183  0.33378840  0.05835051  1
  O2-  O235  1  0.70339245  0.33857806  0.39813071  1
  O2-  O236  1  0.69391619  0.33036572  0.72757501  1
  O2-  O237  1  0.70626662  0.82938537  0.06682024  1
  O2-  O238  1  0.71042149  0.82796044  0.40354606  1
  O2-  O239  1  0.71103257  0.83855302  0.72838634  1
  O2-  O240  1  0.46538038  0.41433529  0.26529684  1
  O2-  O241  1  0.46161441  0.41620665  0.59714725  1
  O2-  O242  1  0.45944166  0.41687635  0.92789417  1
  O2-  O243  1  0.44648022  0.91889278  0.27613671  1
  O2-  O244  1  0.45899729  0.91288892  0.60251182  1
  O2-  O245  1  0.44776360  0.91779745  0.94021481  1
  O2-  O246  1  0.96151742  0.41708284  0.26628315  1
  O2-  O247  1  0.95551504  0.41854379  0.60747768  1
  O2-  O248  1  0.96193628  0.41610022  0.93146154  1
  O2-  O249  1  0.96187950  0.91864105  0.26780833  1
  O2-  O250  1  0.95918733  0.91457300  0.59538757  1
  O2-  O251  1  0.96139994  0.91856151  0.93210902  1
  O2-  O252  1  0.33088896  0.29513528  0.26290066  1
  O2-  O253  1  0.33474355  0.28615864  0.59791312  1
  O2-  O254  1  0.32772565  0.29378180  0.93381295  1
  O2-  O255  1  0.33190287  0.79612571  0.27637482  1
  O2-  O256  1  0.33281384  0.80083249  0.60573037  1
  O2-  O257  1  0.33509321  0.79392378  0.93352128  1
  O2-  O258  1  0.82978864  0.29508491  0.26924047  1
  O2-  O259  1  0.83038677  0.30396987  0.60840742  1
  O2-  O260  1  0.83177294  0.29611605  0.92899632  1
  O2-  O261  1  0.83553759  0.78885233  0.26449523  1
  O2-  O262  1  0.83339252  0.78431090  0.59622598  1
  O2-  O263  1  0.83064017  0.79307333  0.93241473  1
  O2-  O264  1  0.41196092  0.04682509  0.06394614  1
  O2-  O265  1  0.41549753  0.05421811  0.39447990  1
  O2-  O266  1  0.41603701  0.03813607  0.73432340  1
  O2-  O267  1  0.41805712  0.53793792  0.06497076  1
  O2-  O268  1  0.41975497  0.53632637  0.40150635  1
  O2-  O269  1  0.41909347  0.54631930  0.72761349  1
  O2-  O270  1  0.92231436  0.04809355  0.06631998  1
  O2-  O271  1  0.91995012  0.04699203  0.40141138  1
  O2-  O272  1  0.91359459  0.04083548  0.72653573  1
  O2-  O273  1  0.91991610  0.54075384  0.06816146  1
  O2-  O274  1  0.91548667  0.54408467  0.39410100  1
  O2-  O275  1  0.91655497  0.54733886  0.73396564  1
  O2-  O276  1  0.29072133  0.16361834  0.06343882  1
  O2-  O277  1  0.29143735  0.16809833  0.39260949  1
  O2-  O278  1  0.28644716  0.16453784  0.73419592  1
  O2-  O279  1  0.29090712  0.66692912  0.06676573  1
  O2-  O280  1  0.29539572  0.66400673  0.40594689  1
  O2-  O281  1  0.30324880  0.66881328  0.72734042  1
  O2-  O282  1  0.79233174  0.17286257  0.06292878  1
  O2-  O283  1  0.79009314  0.17105207  0.40589882  1
  O2-  O284  1  0.79886060  0.16587088  0.72694329  1
  O2-  O285  1  0.78910754  0.66587094  0.06811492  1
  O2-  O286  1  0.79178791  0.66113475  0.39377721  1
  O2-  O287  1  0.78053152  0.66487854  0.73304230  1
