# generated using pymatgen
data_Ca2Al2SiO7
_symmetry_space_group_name_H-M   'P 1'
_cell_length_a   15.46086264
_cell_length_b   15.46158917
_cell_length_c   15.28669711
_cell_angle_alpha   89.99237609
_cell_angle_beta   89.99144622
_cell_angle_gamma   89.99360643
_symmetry_Int_Tables_number   1
_chemical_formula_structural   Ca2Al2SiO7
_chemical_formula_sum   'Ca48 Al48 Si24 O168'
_cell_volume   3654.27730187
_cell_formula_units_Z   24
loop_
 _symmetry_equiv_pos_site_id
 _symmetry_equiv_pos_as_xyz
  1  'x, y, z'
loop_
 _atom_type_symbol
 _atom_type_oxidation_number
  Ca2+  2.0
  Al0+  0.0
  Si0+  0.0
  O2-  -2.0
loop_
 _atom_site_type_symbol
 _atom_site_label
 _atom_site_symmetry_multiplicity
 _atom_site_fract_x
 _atom_site_fract_y
 _atom_site_fract_z
 _atom_site_occupancy
  Ca2+  Ca0  1  0.17827189  0.08728558  0.16978978  1
  Ca2+  Ca1  1  0.17553125  0.08864455  0.50677406  1
  Ca2+  Ca2  1  0.17371881  0.09529860  0.83947537  1
  Ca2+  Ca3  1  0.15601991  0.57834974  0.16694553  1
  Ca2+  Ca4  1  0.16244528  0.58392968  0.49969683  1
  Ca2+  Ca5  1  0.16286336  0.57532768  0.84390464  1
  Ca2+  Ca6  1  0.67154719  0.09129830  0.16137273  1
  Ca2+  Ca7  1  0.67208281  0.07657860  0.51309197  1
  Ca2+  Ca8  1  0.67530050  0.08981995  0.83638693  1
  Ca2+  Ca9  1  0.67848160  0.57596095  0.16815045  1
  Ca2+  Ca10  1  0.67214517  0.58290264  0.50671749  1
  Ca2+  Ca11  1  0.67151741  0.57634228  0.84297656  1
  Ca2+  Ca12  1  0.07495103  0.33102636  0.15675404  1
  Ca2+  Ca13  1  0.07364497  0.32556428  0.50161714  1
  Ca2+  Ca14  1  0.07511591  0.32529470  0.83514338  1
  Ca2+  Ca15  1  0.09405865  0.82177847  0.16398155  1
  Ca2+  Ca16  1  0.07908354  0.83382520  0.49502064  1
  Ca2+  Ca17  1  0.07761170  0.82670063  0.83084629  1
  Ca2+  Ca18  1  0.57533530  0.32895230  0.15407565  1
  Ca2+  Ca19  1  0.58331224  0.32370906  0.50005955  1
  Ca2+  Ca20  1  0.58827536  0.32200770  0.83503998  1
  Ca2+  Ca21  1  0.57499991  0.83365386  0.15804228  1
  Ca2+  Ca22  1  0.58928045  0.83106783  0.50238429  1
  Ca2+  Ca23  1  0.58330794  0.83168552  0.82798551  1
  Ca2+  Ca24  1  0.32470120  0.40790091  0.16396593  1
  Ca2+  Ca25  1  0.32984148  0.41855022  0.50629122  1
  Ca2+  Ca26  1  0.32619295  0.41311929  0.84415754  1
  Ca2+  Ca27  1  0.33002740  0.92565957  0.17031420  1
  Ca2+  Ca28  1  0.32315940  0.92465570  0.50297176  1
  Ca2+  Ca29  1  0.33589465  0.92783390  0.83929366  1
  Ca2+  Ca30  1  0.83985757  0.42146234  0.16575133  1
  Ca2+  Ca31  1  0.84502228  0.42074944  0.50062799  1
  Ca2+  Ca32  1  0.83346362  0.41773799  0.84610433  1
  Ca2+  Ca33  1  0.83533391  0.92543883  0.16476573  1
  Ca2+  Ca34  1  0.83052930  0.92131710  0.51428005  1
  Ca2+  Ca35  1  0.83255116  0.92521518  0.83270814  1
  Ca2+  Ca36  1  0.42004930  0.16457587  0.15406525  1
  Ca2+  Ca37  1  0.42085799  0.15211805  0.50236220  1
  Ca2+  Ca38  1  0.42327733  0.16514538  0.83256620  1
  Ca2+  Ca39  1  0.41430905  0.67822837  0.15642269  1
  Ca2+  Ca40  1  0.42577524  0.66665136  0.49797972  1
  Ca2+  Ca41  1  0.42196830  0.67523748  0.82927813  1
  Ca2+  Ca42  1  0.92133713  0.17615452  0.15387820  1
  Ca2+  Ca43  1  0.91102346  0.17586461  0.49791464  1
  Ca2+  Ca44  1  0.91965837  0.17094192  0.82488411  1
  Ca2+  Ca45  1  0.92244260  0.66160167  0.16186211  1
  Ca2+  Ca46  1  0.91812212  0.67458995  0.49369149  1
  Ca2+  Ca47  1  0.91625322  0.66898607  0.83183920  1
  Al0+  Al48  1  0.00123522  -0.00307659  0.00280438  1
  Al0+  Al49  1  -0.00009692  0.00045344  0.33522843  1
  Al0+  Al50  1  0.00223346  -0.00150667  0.66258535  1
  Al0+  Al51  1  0.00182034  0.50012643  -0.00021850  1
  Al0+  Al52  1  -0.00069638  0.50079962  0.33264573  1
  Al0+  Al53  1  0.00125327  0.49935512  0.66436368  1
  Al0+  Al54  1  0.49961485  -0.00058210  -0.00397958  1
  Al0+  Al55  1  0.50100881  -0.00134186  0.33619437  1
  Al0+  Al56  1  0.49739602  -0.00181452  0.66874567  1
  Al0+  Al57  1  0.49933924  0.50159583  0.00189605  1
  Al0+  Al58  1  0.50142291  0.49815435  0.33271843  1
  Al0+  Al59  1  0.50067790  0.50188051  0.66312121  1
  Al0+  Al60  1  0.24971477  0.25099314  0.00382150  1
  Al0+  Al61  1  0.25111205  0.25159699  0.34125378  1
  Al0+  Al62  1  0.24831752  0.25277421  0.66709131  1
  Al0+  Al63  1  0.24989150  0.75048572  -0.01162844  1
  Al0+  Al64  1  0.25103303  0.75027620  0.33487679  1
  Al0+  Al65  1  0.25174207  0.74994662  0.66634894  1
  Al0+  Al66  1  0.74829508  0.25101913  0.00326814  1
  Al0+  Al67  1  0.74700223  0.25132327  0.32882705  1
  Al0+  Al68  1  0.74750034  0.25197230  0.65934424  1
  Al0+  Al69  1  0.75019021  0.75061720  0.00581903  1
  Al0+  Al70  1  0.75116146  0.74846300  0.33430525  1
  Al0+  Al71  1  0.75080224  0.74899535  0.66320086  1
  Al0+  Al72  1  0.57071902  0.67936065  0.65326437  1
  Al0+  Al73  1  0.07040612  0.68230173  0.32000429  1
  Al0+  Al74  1  0.31795747  0.07106223  0.68380768  1
  Al0+  Al75  1  0.06901052  0.67939431  0.98572132  1
  Al0+  Al76  1  0.82162372  0.07344930  0.67978288  1
  Al0+  Al77  1  0.32154649  0.07180947  0.35011744  1
  Al0+  Al78  1  0.18069976  0.43004302  0.01421390  1
  Al0+  Al79  1  0.92963432  0.31936645  0.31697095  1
  Al0+  Al80  1  0.42886308  0.82142153  0.98533502  1
  Al0+  Al81  1  0.67668134  0.42754535  0.01549395  1
  Al0+  Al82  1  0.82191175  0.57172942  0.01489472  1
  Al0+  Al83  1  0.92696085  0.32129042  0.65160151  1
  Al0+  Al84  1  0.82093193  0.56890051  0.34984386  1
  Al0+  Al85  1  0.42721436  0.32295742  0.98655737  1
  Al0+  Al86  1  0.07147341  0.17570655  0.98834861  1
  Al0+  Al87  1  0.57104484  0.17894441  0.98476217  1
  Al0+  Al88  1  0.93047849  0.81970476  0.65422584  1
  Al0+  Al89  1  0.92896695  0.32000030  0.98630438  1
  Al0+  Al90  1  0.67941993  0.92658975  0.68186446  1
  Al0+  Al91  1  0.07260437  0.17832653  0.65158173  1
  Al0+  Al92  1  0.31974196  0.06970372  0.01263091  1
  Al0+  Al93  1  0.56892585  0.17798778  0.65211576  1
  Al0+  Al94  1  0.17864051  0.92705020  0.34830563  1
  Al0+  Al95  1  0.82309866  0.07150234  0.01261236  1
  Si0+  Si96  1  0.67799372  0.92868233  0.01688093  1
  Si0+  Si97  1  0.07425884  0.17771169  0.31749297  1
  Si0+  Si98  1  0.42799773  0.32276772  0.31959831  1
  Si0+  Si99  1  0.81954814  0.07316187  0.34640905  1
  Si0+  Si100  1  0.17724510  0.92471119  0.68562431  1
  Si0+  Si101  1  0.68007114  0.92869883  0.34716246  1
  Si0+  Si102  1  0.92467945  0.82267138  0.98387797  1
  Si0+  Si103  1  0.07333361  0.67746983  0.64955733  1
  Si0+  Si104  1  0.17815487  0.92400710  0.01514793  1
  Si0+  Si105  1  0.42691957  0.82183515  0.64624915  1
  Si0+  Si106  1  0.82169337  0.56917879  0.68041939  1
  Si0+  Si107  1  0.57328598  0.67913958  0.98551524  1
  Si0+  Si108  1  0.92543160  0.82440293  0.31514908  1
  Si0+  Si109  1  0.57338258  0.67686563  0.31660480  1
  Si0+  Si110  1  0.43206001  0.81865010  0.31929785  1
  Si0+  Si111  1  0.32342636  0.57146564  0.34775058  1
  Si0+  Si112  1  0.67666430  0.43011402  0.68029111  1
  Si0+  Si113  1  0.17937080  0.43231497  0.68254395  1
  Si0+  Si114  1  0.32133523  0.57502989  0.01504184  1
  Si0+  Si115  1  0.56767403  0.17737754  0.31821575  1
  Si0+  Si116  1  0.67595050  0.42802742  0.35327252  1
  Si0+  Si117  1  0.42767798  0.32253259  0.65005731  1
  Si0+  Si118  1  0.32351290  0.57167895  0.68150699  1
  Si0+  Si119  1  0.17878878  0.43065417  0.35056296  1
  O2-  O120  1  0.24270678  -0.00307779  0.05893736  1
  O2-  O121  1  0.24410824  0.00479859  0.39909345  1
  O2-  O122  1  0.24161758  -0.00271945  0.72950224  1
  O2-  O123  1  0.25639926  0.50445960  0.06179338  1
  O2-  O124  1  0.25256297  0.50067638  0.39132333  1
  O2-  O125  1  0.25086021  0.50354596  0.72379240  1
  O2-  O126  1  0.74690323  -0.00255194  0.06066593  1
  O2-  O127  1  0.75435389  -0.00346450  0.38838033  1
  O2-  O128  1  0.74814602  0.00241421  0.73014021  1
  O2-  O129  1  0.75123676  0.49781417  0.06461819  1
  O2-  O130  1  0.74608204  0.49483322  0.39826328  1
  O2-  O131  1  0.75316522  0.49572043  0.72147396  1
  O2-  O132  1  0.00282326  0.24247851  0.27242131  1
  O2-  O133  1  -0.00630311  0.24352320  0.60181264  1
  O2-  O134  1  -0.00610927  0.24126346  0.93752862  1
  O2-  O135  1  -0.00206329  0.75896006  0.27229861  1
  O2-  O136  1  0.00727498  0.74790339  0.60549712  1
  O2-  O137  1  -0.00729059  0.75264221  0.94075619  1
  O2-  O138  1  0.49414903  0.24706585  0.27885037  1
  O2-  O139  1  0.49242770  0.25106778  0.60387068  1
  O2-  O140  1  0.50010419  0.25294099  0.93591709  1
  O2-  O141  1  0.50191491  0.74728001  0.27481526  1
  O2-  O142  1  0.49772242  0.75433116  0.60289109  1
  O2-  O143  1  0.50457813  0.74678014  0.94045036  1
  O2-  O144  1  0.07223373  0.17909711  0.10253620  1
  O2-  O145  1  0.07444610  0.18066999  0.42299189  1
  O2-  O146  1  0.07534608  0.18454666  0.76440905  1
  O2-  O147  1  0.07095007  0.68129512  0.09895212  1
  O2-  O148  1  0.06913796  0.68251580  0.43334707  1
  O2-  O149  1  0.07247617  0.67553173  0.75477734  1
  O2-  O150  1  0.56765860  0.17744469  0.09926066  1
  O2-  O151  1  0.56843364  0.17687664  0.42339710  1
  O2-  O152  1  0.57078564  0.18104626  0.76408362  1
  O2-  O153  1  0.57160104  0.68207959  0.09166205  1
  O2-  O154  1  0.57209235  0.67711248  0.42182151  1
  O2-  O155  1  0.56727176  0.67778254  0.76592267  1
  O2-  O156  1  0.17971887  0.42988552  0.24585947  1
  O2-  O157  1  0.18041770  0.43460321  0.57672466  1
  O2-  O158  1  0.18099969  0.43272924  0.90099451  1
  O2-  O159  1  0.18602946  0.92233716  0.23517362  1
  O2-  O160  1  0.18162060  0.91952712  0.58007065  1
  O2-  O161  1  0.18021186  0.92025271  0.90987980  1
  O2-  O162  1  0.67131460  0.43036818  0.24859430  1
  O2-  O163  1  0.67238135  0.43370796  0.57498326  1
  O2-  O164  1  0.67630183  0.43111681  0.90132702  1
  O2-  O165  1  0.67643692  0.92940351  0.24225350  1
  O2-  O166  1  0.68262924  0.92699860  0.56717776  1
  O2-  O167  1  0.67917305  0.92464442  0.91202327  1
  O2-  O168  1  0.42707230  0.31918304  0.10100157  1
  O2-  O169  1  0.43051532  0.32879138  0.42456454  1
  O2-  O170  1  0.42877989  0.32568311  0.75477303  1
  O2-  O171  1  0.42984756  0.82019856  0.09952744  1
  O2-  O172  1  0.43433741  0.81659093  0.42419830  1
  O2-  O173  1  0.42442196  0.81847119  0.75143461  1
  O2-  O174  1  0.93329607  0.32074945  0.10020380  1
  O2-  O175  1  0.93125879  0.31860580  0.43012665  1
  O2-  O176  1  0.92917118  0.32705816  0.76418231  1
  O2-  O177  1  0.92364270  0.82292534  0.08957284  1
  O2-  O178  1  0.92242019  0.82162775  0.42072041  1
  O2-  O179  1  0.92980013  0.81539266  0.76713058  1
  O2-  O180  1  0.32492910  0.07035220  0.23676341  1
  O2-  O181  1  0.31783827  0.06779037  0.57037980  1
  O2-  O182  1  0.32006611  0.06896452  0.89985979  1
  O2-  O183  1  0.32559915  0.57236172  0.24329307  1
  O2-  O184  1  0.32416213  0.56982544  0.57574036  1
  O2-  O185  1  0.31910352  0.57522838  0.90924598  1
  O2-  O186  1  0.81693396  0.07332590  0.24142737  1
  O2-  O187  1  0.81787960  0.07160030  0.56508711  1
  O2-  O188  1  0.82329873  0.06991707  0.90008160  1
  O2-  O189  1  0.81953135  0.56919171  0.23746417  1
  O2-  O190  1  0.82108636  0.56896699  0.57504762  1
  O2-  O191  1  0.81899682  0.57367615  0.90075652  1
  O2-  O192  1  0.05426234  0.08158290  0.27456612  1
  O2-  O193  1  0.05729249  0.07651166  0.60134687  1
  O2-  O194  1  0.05363266  0.07366055  0.93922961  1
  O2-  O195  1  0.03834538  0.58572215  0.26745217  1
  O2-  O196  1  0.04568544  0.58527203  0.60181924  1
  O2-  O197  1  0.03959701  0.58364841  0.93055823  1
  O2-  O198  1  0.54215530  0.08470358  0.27139625  1
  O2-  O199  1  0.53818716  0.08023869  0.59884189  1
  O2-  O200  1  0.54357216  0.08121680  0.93190740  1
  O2-  O201  1  0.54562123  0.58448347  0.27108629  1
  O2-  O202  1  0.53667238  0.58508336  0.59440125  1
  O2-  O203  1  0.54883429  0.58564239  0.94000013  1
  O2-  O204  1  0.16870858  0.20746149  0.27499642  1
  O2-  O205  1  0.16726410  0.21798863  0.59566503  1
  O2-  O206  1  0.16696056  0.21249041  0.93631040  1
  O2-  O207  1  0.16948289  0.70868457  0.26748343  1
  O2-  O208  1  0.16903039  0.69951767  0.60517478  1
  O2-  O209  1  0.16356123  0.70950262  0.92745471  1
  O2-  O210  1  0.65808226  0.20748758  0.26971203  1
  O2-  O211  1  0.66264882  0.21099033  0.59314387  1
  O2-  O212  1  0.66927621  0.20803433  0.93297104  1
  O2-  O213  1  0.66467666  0.70601055  0.26980503  1
  O2-  O214  1  0.66636655  0.70873500  0.59650166  1
  O2-  O215  1  0.66671673  0.70597333  0.94037194  1
  O2-  O216  1  0.08623315  0.46431251  0.06980215  1
  O2-  O217  1  0.08924758  0.46322136  0.39873611  1
  O2-  O218  1  0.08842278  0.46236487  0.72977784  1
  O2-  O219  1  0.08319726  0.94040108  0.06185981  1
  O2-  O220  1  0.07637736  0.94670463  0.39772346  1
  O2-  O221  1  0.08131618  0.94325745  0.72809620  1
  O2-  O222  1  0.57867736  0.45870209  0.07031889  1
  O2-  O223  1  0.58299573  0.45567186  0.40129657  1
  O2-  O224  1  0.58707204  0.46364167  0.72831945  1
  O2-  O225  1  0.58468375  0.95539383  0.06334339  1
  O2-  O226  1  0.59006526  0.95833493  0.39723617  1
  O2-  O227  1  0.57792316  0.94731118  0.72973923  1
  O2-  O228  1  0.21180776  0.33580651  0.07272976  1
  O2-  O229  1  0.20644968  0.34032621  0.40126519  1
  O2-  O230  1  0.20762478  0.34151081  0.72966209  1
  O2-  O231  1  0.21182097  0.83205354  0.06087178  1
  O2-  O232  1  0.21368370  0.83120609  0.40443908  1
  O2-  O233  1  0.20682691  0.83142748  0.73200270  1
  O2-  O234  1  0.69984143  0.32934128  0.07068989  1
  O2-  O235  1  0.70020513  0.33249639  0.39641745  1
  O2-  O236  1  0.69903732  0.33609747  0.72359651  1
  O2-  O237  1  0.70278844  0.83621090  0.06707821  1
  O2-  O238  1  0.70396081  0.83528990  0.39361512  1
  O2-  O239  1  0.71076229  0.82844163  0.73373998  1
  O2-  O240  1  0.45818200  0.41284624  0.26975845  1
  O2-  O241  1  0.45666739  0.41498575  0.60164046  1
  O2-  O242  1  0.44881722  0.42458506  0.93674982  1
  O2-  O243  1  0.46260013  0.91004453  0.27235587  1
  O2-  O244  1  0.45091921  0.91514155  0.60018355  1
  O2-  O245  1  0.46094682  0.91542270  0.92946809  1
  O2-  O246  1  0.96340609  0.41603905  0.26626208  1
  O2-  O247  1  0.96478070  0.41738260  0.59651974  1
  O2-  O248  1  0.96289018  0.41639524  0.93372434  1
  O2-  O249  1  0.94600879  0.92038660  0.27157019  1
  O2-  O250  1  0.95751195  0.91570638  0.59692163  1
  O2-  O251  1  0.95207530  0.91498501  0.93726067  1
  O2-  O252  1  0.33325316  0.29979081  0.27622017  1
  O2-  O253  1  0.33298450  0.30142067  0.60425955  1
  O2-  O254  1  0.32957865  0.29363962  0.93435384  1
  O2-  O255  1  0.34084336  0.78992990  0.27220759  1
  O2-  O256  1  0.33472934  0.79144369  0.59865607  1
  O2-  O257  1  0.33610579  0.78922540  0.92601359  1
  O2-  O258  1  0.83049222  0.29277544  0.26584178  1
  O2-  O259  1  0.82787337  0.30102037  0.59549184  1
  O2-  O260  1  0.82734918  0.30056465  0.93882278  1
  O2-  O261  1  0.83282637  0.79526826  0.26850661  1
  O2-  O262  1  0.83608309  0.78603943  0.59692924  1
  O2-  O263  1  0.83088507  0.79685064  0.93864362  1
  O2-  O264  1  0.41628876  0.03569887  0.06584337  1
  O2-  O265  1  0.41847502  0.03568545  0.40294023  1
  O2-  O266  1  0.41458788  0.03853633  0.73562602  1
  O2-  O267  1  0.41630505  0.55672070  0.06121094  1
  O2-  O268  1  0.41518639  0.54215632  0.39623776  1
  O2-  O269  1  0.41491080  0.54328668  0.72855808  1
  O2-  O270  1  0.91806903  0.03826585  0.07027011  1
  O2-  O271  1  0.91406673  0.05347144  0.39167064  1
  O2-  O272  1  0.92157875  0.04448288  0.72839096  1
  O2-  O273  1  0.92023287  0.54298546  0.06710437  1
  O2-  O274  1  0.91763388  0.53807121  0.40411784  1
  O2-  O275  1  0.91523827  0.54476868  0.72595253  1
  O2-  O276  1  0.29087946  0.16563425  0.06888755  1
  O2-  O277  1  0.29985789  0.17199965  0.40415668  1
  O2-  O278  1  0.29012984  0.17065270  0.73299415  1
  O2-  O279  1  0.29180573  0.66845268  0.05963787  1
  O2-  O280  1  0.29598128  0.66208774  0.39755089  1
  O2-  O281  1  0.29895220  0.66483090  0.72739492  1
  O2-  O282  1  0.79048293  0.16620900  0.06922962  1
  O2-  O283  1  0.78539760  0.16324033  0.39344204  1
  O2-  O284  1  0.79209990  0.17357934  0.72817787  1
  O2-  O285  1  0.79289484  0.66923530  0.07085856  1
  O2-  O286  1  0.78965746  0.66667739  0.40276343  1
  O2-  O287  1  0.79126167  0.65993207  0.72673689  1
