# generated using pymatgen
data_Ca2Al2SiO7
_symmetry_space_group_name_H-M   'P 1'
_cell_length_a   15.46512523
_cell_length_b   15.46593781
_cell_length_c   15.28931232
_cell_angle_alpha   90.00360347
_cell_angle_beta   90.00886639
_cell_angle_gamma   89.98950791
_symmetry_Int_Tables_number   1
_chemical_formula_structural   Ca2Al2SiO7
_chemical_formula_sum   'Ca48 Al48 Si24 O168'
_cell_volume   3656.93835553
_cell_formula_units_Z   24
loop_
 _symmetry_equiv_pos_site_id
 _symmetry_equiv_pos_as_xyz
  1  'x, y, z'
loop_
 _atom_type_symbol
 _atom_type_oxidation_number
  Ca2+  2.0
  Al0+  0.0
  Si0+  0.0
  O2-  -2.0
loop_
 _atom_site_type_symbol
 _atom_site_label
 _atom_site_symmetry_multiplicity
 _atom_site_fract_x
 _atom_site_fract_y
 _atom_site_fract_z
 _atom_site_occupancy
  Ca2+  Ca0  1  0.16580641  0.08681065  0.17010899  1
  Ca2+  Ca1  1  0.16367239  0.08034768  0.50812219  1
  Ca2+  Ca2  1  0.15605663  0.07715211  0.83338276  1
  Ca2+  Ca3  1  0.17398478  0.59579996  0.16556625  1
  Ca2+  Ca4  1  0.16505920  0.57897533  0.51342626  1
  Ca2+  Ca5  1  0.16472753  0.58330566  0.84133639  1
  Ca2+  Ca6  1  0.67688756  0.07311349  0.17985026  1
  Ca2+  Ca7  1  0.67845507  0.06831699  0.50700397  1
  Ca2+  Ca8  1  0.67192589  0.07479087  0.83425903  1
  Ca2+  Ca9  1  0.65209333  0.57627017  0.16771756  1
  Ca2+  Ca10  1  0.66778984  0.58636889  0.50328619  1
  Ca2+  Ca11  1  0.66944407  0.58855054  0.83614215  1
  Ca2+  Ca12  1  0.08272518  0.32030706  0.16337335  1
  Ca2+  Ca13  1  0.08173960  0.32500184  0.49847990  1
  Ca2+  Ca14  1  0.09093694  0.32308546  0.82688915  1
  Ca2+  Ca15  1  0.06921267  0.83232987  0.15965081  1
  Ca2+  Ca16  1  0.07089420  0.83990983  0.50144519  1
  Ca2+  Ca17  1  0.07568028  0.82282307  0.82760772  1
  Ca2+  Ca18  1  0.58260892  0.33821247  0.15769966  1
  Ca2+  Ca19  1  0.58527284  0.33407540  0.49431386  1
  Ca2+  Ca20  1  0.57725213  0.34458336  0.83485938  1
  Ca2+  Ca21  1  0.58062785  0.82515043  0.16090990  1
  Ca2+  Ca22  1  0.59097499  0.82599124  0.49362759  1
  Ca2+  Ca23  1  0.58211310  0.82402289  0.82576058  1
  Ca2+  Ca24  1  0.33808622  0.42486237  0.16476873  1
  Ca2+  Ca25  1  0.32450216  0.42044965  0.50720249  1
  Ca2+  Ca26  1  0.32839181  0.42311337  0.84039413  1
  Ca2+  Ca27  1  0.33309128  0.90809637  0.16999934  1
  Ca2+  Ca28  1  0.32587047  0.91281744  0.50596333  1
  Ca2+  Ca29  1  0.32586763  0.91000308  0.83777293  1
  Ca2+  Ca30  1  0.82093643  0.42061192  0.17197387  1
  Ca2+  Ca31  1  0.82963648  0.42610402  0.50547954  1
  Ca2+  Ca32  1  0.83102918  0.42857418  0.83757093  1
  Ca2+  Ca33  1  0.83236482  0.91531478  0.17446277  1
  Ca2+  Ca34  1  0.83176870  0.91732481  0.50535122  1
  Ca2+  Ca35  1  0.83867980  0.91444217  0.83008380  1
  Ca2+  Ca36  1  0.42087952  0.17588581  0.15933550  1
  Ca2+  Ca37  1  0.41854522  0.16850555  0.49766497  1
  Ca2+  Ca38  1  0.41639059  0.17459508  0.83220108  1
  Ca2+  Ca39  1  0.42349114  0.67610362  0.16069903  1
  Ca2+  Ca40  1  0.42808674  0.67443492  0.49413990  1
  Ca2+  Ca41  1  0.42664181  0.66154425  0.83461661  1
  Ca2+  Ca42  1  0.92561646  0.15906845  0.16421294  1
  Ca2+  Ca43  1  0.92476098  0.15133469  0.49869530  1
  Ca2+  Ca44  1  0.92356941  0.16735815  0.82671772  1
  Ca2+  Ca45  1  0.91789891  0.67997491  0.16036426  1
  Ca2+  Ca46  1  0.91312453  0.67695090  0.50121687  1
  Ca2+  Ca47  1  0.91880989  0.67425332  0.82335776  1
  Al0+  Al48  1  0.00086299  -0.00004992  -0.00602982  1
  Al0+  Al49  1  0.00326730  -0.00133908  0.32682097  1
  Al0+  Al50  1  0.00183750  0.00027582  0.66827627  1
  Al0+  Al51  1  -0.00118525  0.49689700  0.00424022  1
  Al0+  Al52  1  0.00093560  0.49700937  0.33165476  1
  Al0+  Al53  1  -0.00099198  0.49684539  0.67339774  1
  Al0+  Al54  1  0.49919294  0.00143701  -0.00158219  1
  Al0+  Al55  1  0.49876889  0.00221494  0.33429086  1
  Al0+  Al56  1  0.49993838  0.00255356  0.67033075  1
  Al0+  Al57  1  0.49679083  0.50046919  -0.00052304  1
  Al0+  Al58  1  0.49763435  0.50038337  0.33691415  1
  Al0+  Al59  1  0.49727205  0.50065852  0.65981420  1
  Al0+  Al60  1  0.25136376  0.24941391  -0.00658373  1
  Al0+  Al61  1  0.24989614  0.25008707  0.33030221  1
  Al0+  Al62  1  0.25028444  0.25197088  0.66550741  1
  Al0+  Al63  1  0.24824625  0.75088607  0.00097106  1
  Al0+  Al64  1  0.25230017  0.74994471  0.33495361  1
  Al0+  Al65  1  0.25244165  0.74949098  0.66921076  1
  Al0+  Al66  1  0.75170934  0.24852611  0.00473433  1
  Al0+  Al67  1  0.75238462  0.25114626  0.34229688  1
  Al0+  Al68  1  0.74796507  0.24954161  0.67042317  1
  Al0+  Al69  1  0.74952903  0.75163511  -0.00569751  1
  Al0+  Al70  1  0.75076161  0.74656246  0.32563839  1
  Al0+  Al71  1  0.74917988  0.74841968  0.66615944  1
  Al0+  Al72  1  0.57085511  0.67837327  0.31695104  1
  Al0+  Al73  1  0.56976113  0.67971824  0.65091787  1
  Al0+  Al74  1  0.43152094  0.32078666  0.98619366  1
  Al0+  Al75  1  0.67851064  0.92717955  0.68306987  1
  Al0+  Al76  1  0.42762040  0.82400035  0.31980758  1
  Al0+  Al77  1  0.06925937  0.18115914  0.65200923  1
  Al0+  Al78  1  0.56872406  0.67915756  0.98335208  1
  Al0+  Al79  1  0.82226909  0.07090908  0.68405207  1
  Al0+  Al80  1  0.81927282  0.56968802  0.67940851  1
  Al0+  Al81  1  0.07317829  0.67541811  0.65310667  1
  Al0+  Al82  1  0.93071422  0.81971142  0.64996747  1
  Al0+  Al83  1  0.07037096  0.67687367  0.98769739  1
  Al0+  Al84  1  0.42788670  0.82412228  0.98377874  1
  Al0+  Al85  1  0.18068118  0.92875700  0.68099358  1
  Al0+  Al86  1  0.68020756  0.43142873  0.01180691  1
  Al0+  Al87  1  0.17869911  0.42938788  0.68067657  1
  Al0+  Al88  1  0.67751544  0.43045576  0.34790364  1
  Al0+  Al89  1  0.07038514  0.18156993  0.98440410  1
  Al0+  Al90  1  0.82506262  0.06896396  0.34773740  1
  Al0+  Al91  1  0.93077578  0.81903968  0.31969246  1
  Al0+  Al92  1  0.67808188  0.92622707  0.34589566  1
  Al0+  Al93  1  0.06954767  0.18006624  0.31987670  1
  Al0+  Al94  1  0.31746910  0.57132115  0.01481620  1
  Al0+  Al95  1  0.92789360  0.82098209  0.98264819  1
  Si0+  Si96  1  0.32241020  0.07422515  0.68443706  1
  Si0+  Si97  1  0.57200749  0.17768751  0.65060526  1
  Si0+  Si98  1  0.17947584  0.93169109  0.01668070  1
  Si0+  Si99  1  0.07376215  0.67390519  0.31919933  1
  Si0+  Si100  1  0.57351586  0.18034532  0.32061748  1
  Si0+  Si101  1  0.32075831  0.07538461  0.34718374  1
  Si0+  Si102  1  0.42969238  0.31956808  0.31878161  1
  Si0+  Si103  1  0.32172166  0.07319130  0.01556071  1
  Si0+  Si104  1  0.82297196  0.57478560  0.01819294  1
  Si0+  Si105  1  0.92667703  0.32478156  0.31594426  1
  Si0+  Si106  1  0.42853849  0.82562964  0.65061500  1
  Si0+  Si107  1  0.92393371  0.32184705  0.65054968  1
  Si0+  Si108  1  0.82217637  0.06901632  0.01553749  1
  Si0+  Si109  1  0.67721573  0.92914170  0.01487004  1
  Si0+  Si110  1  0.57488874  0.17787113  0.98410602  1
  Si0+  Si111  1  0.31889832  0.57102694  0.35061533  1
  Si0+  Si112  1  0.17716851  0.42416219  0.01903894  1
  Si0+  Si113  1  0.43035586  0.32005835  0.64934528  1
  Si0+  Si114  1  0.67434041  0.42789798  0.68259584  1
  Si0+  Si115  1  0.18021576  0.42656055  0.34730233  1
  Si0+  Si116  1  0.92479235  0.32094299  0.98429361  1
  Si0+  Si117  1  0.82518431  0.57093067  0.34861235  1
  Si0+  Si118  1  0.32236985  0.57098509  0.68336588  1
  Si0+  Si119  1  0.18180842  0.92956813  0.34642461  1
  O2-  O120  1  0.25305766  0.00077344  0.05936241  1
  O2-  O121  1  0.25502822  -0.00072321  0.38774651  1
  O2-  O122  1  0.25654344  0.00315505  0.72819233  1
  O2-  O123  1  0.23953561  0.49885009  0.06342571  1
  O2-  O124  1  0.24393740  0.50320240  0.39108272  1
  O2-  O125  1  0.24710553  0.50956878  0.72714835  1
  O2-  O126  1  0.75048511  -0.00157655  0.05679948  1
  O2-  O127  1  0.75186416  -0.00297554  0.39572558  1
  O2-  O128  1  0.75171049  -0.00226126  0.73435964  1
  O2-  O129  1  0.75244914  0.50692843  0.06160303  1
  O2-  O130  1  0.75310153  0.50478142  0.39221274  1
  O2-  O131  1  0.74360709  0.49520484  0.72610948  1
  O2-  O132  1  -0.00822129  0.25152820  0.27330305  1
  O2-  O133  1  -0.00948385  0.25139626  0.60501888  1
  O2-  O134  1  -0.00158947  0.25878298  0.93881402  1
  O2-  O135  1  0.00384555  0.74117387  0.27571008  1
  O2-  O136  1  0.00387331  0.74789095  0.59999213  1
  O2-  O137  1  -0.00577159  0.74223386  0.93625362  1
  O2-  O138  1  0.50500170  0.25323707  0.27642145  1
  O2-  O139  1  0.50247043  0.25036386  0.60743868  1
  O2-  O140  1  0.50868473  0.24878297  0.93897495  1
  O2-  O141  1  0.50353539  0.75648818  0.26994117  1
  O2-  O142  1  0.49956037  0.75991682  0.60614648  1
  O2-  O143  1  0.50000651  0.75391087  0.93260680  1
  O2-  O144  1  0.07025353  0.18073161  0.09796741  1
  O2-  O145  1  0.07349034  0.18237288  0.43246334  1
  O2-  O146  1  0.07094435  0.18383669  0.76482211  1
  O2-  O147  1  0.07062859  0.68394765  0.10195010  1
  O2-  O148  1  0.07444840  0.67179934  0.42433970  1
  O2-  O149  1  0.07079800  0.67646173  0.76629171  1
  O2-  O150  1  0.57256820  0.17805222  0.09011301  1
  O2-  O151  1  0.56875526  0.18159914  0.42565879  1
  O2-  O152  1  0.56991169  0.17746325  0.75557179  1
  O2-  O153  1  0.56612986  0.67862415  0.09678149  1
  O2-  O154  1  0.56761031  0.67664236  0.43056249  1
  O2-  O155  1  0.56609481  0.67494093  0.76349889  1
  O2-  O156  1  0.18436907  0.42246031  0.24266647  1
  O2-  O157  1  0.18346762  0.42640371  0.56675919  1
  O2-  O158  1  0.18134787  0.42136387  0.91373141  1
  O2-  O159  1  0.18168320  0.93046993  0.24115383  1
  O2-  O160  1  0.18188203  0.93203342  0.56705021  1
  O2-  O161  1  0.17955726  0.93364773  0.91192526  1
  O2-  O162  1  0.67610208  0.42996252  0.23469229  1
  O2-  O163  1  0.67450942  0.42819269  0.57684166  1
  O2-  O164  1  0.68246415  0.43130462  0.89891498  1
  O2-  O165  1  0.67800922  0.93070311  0.23174204  1
  O2-  O166  1  0.67692596  0.92946679  0.56946378  1
  O2-  O167  1  0.67447469  0.93216379  0.91031080  1
  O2-  O168  1  0.43170773  0.31866694  0.09985304  1
  O2-  O169  1  0.42684884  0.31670595  0.42403018  1
  O2-  O170  1  0.43086625  0.32062852  0.75418609  1
  O2-  O171  1  0.43108578  0.82424187  0.09743239  1
  O2-  O172  1  0.42030060  0.81908185  0.43288391  1
  O2-  O173  1  0.42856874  0.82491376  0.75588995  1
  O2-  O174  1  0.92292953  0.31665492  0.09002355  1
  O2-  O175  1  0.93070355  0.33242132  0.42086009  1
  O2-  O176  1  0.92415817  0.32078225  0.75616314  1
  O2-  O177  1  0.92983408  0.82405766  0.09683346  1
  O2-  O178  1  0.93241827  0.82162315  0.43213539  1
  O2-  O179  1  0.93240465  0.81822972  0.76297213  1
  O2-  O180  1  0.31810947  0.08235286  0.24242354  1
  O2-  O181  1  0.32219983  0.07584599  0.57825689  1
  O2-  O182  1  0.32112745  0.07556369  0.91089903  1
  O2-  O183  1  0.31957268  0.57012801  0.24561438  1
  O2-  O184  1  0.32429798  0.56576619  0.57735584  1
  O2-  O185  1  0.31853698  0.56666622  0.90197083  1
  O2-  O186  1  0.82343801  0.06827958  0.23338180  1
  O2-  O187  1  0.82023980  0.06989512  0.57056735  1
  O2-  O188  1  0.82116634  0.07140250  0.91097766  1
  O2-  O189  1  0.82968618  0.56717227  0.24330503  1
  O2-  O190  1  0.81858129  0.56823558  0.56595854  1
  O2-  O191  1  0.82410657  0.57203249  0.91277805  1
  O2-  O192  1  0.04350178  0.08413599  0.26242804  1
  O2-  O193  1  0.04248314  0.08342397  0.59908394  1
  O2-  O194  1  0.03764022  0.08639598  0.93086610  1
  O2-  O195  1  0.05324026  0.57935339  0.27202756  1
  O2-  O196  1  0.04552462  0.57458949  0.60420617  1
  O2-  O197  1  0.05280676  0.57282095  0.94270277  1
  O2-  O198  1  0.54359749  0.09016815  0.27147562  1
  O2-  O199  1  0.54083374  0.08760856  0.60156034  1
  O2-  O200  1  0.54503964  0.08677057  0.93638623  1
  O2-  O201  1  0.53302335  0.58089239  0.26665501  1
  O2-  O202  1  0.53473780  0.58461915  0.59491811  1
  O2-  O203  1  0.53634967  0.58202539  0.93093927  1
  O2-  O204  1  0.16507423  0.21518209  0.26450262  1
  O2-  O205  1  0.16627614  0.21442307  0.59896053  1
  O2-  O206  1  0.16707660  0.20920049  0.93006475  1
  O2-  O207  1  0.16701950  0.70320359  0.27483405  1
  O2-  O208  1  0.17471056  0.69977775  0.60377922  1
  O2-  O209  1  0.16711025  0.70834075  0.93513872  1
  O2-  O210  1  0.66717301  0.20547731  0.27612691  1
  O2-  O211  1  0.66377869  0.20507870  0.60331417  1
  O2-  O212  1  0.66947267  0.20067457  0.94009539  1
  O2-  O213  1  0.67067294  0.69593745  0.26316715  1
  O2-  O214  1  0.66697209  0.70645248  0.59742665  1
  O2-  O215  1  0.66836587  0.70409631  0.93258790  1
  O2-  O216  1  0.08042715  0.43920234  0.06339877  1
  O2-  O217  1  0.08564371  0.44666526  0.39217390  1
  O2-  O218  1  0.08119228  0.44876581  0.73656739  1
  O2-  O219  1  0.08840515  0.96436712  0.06346821  1
  O2-  O220  1  0.09160216  0.96133384  0.39327384  1
  O2-  O221  1  0.08639673  0.96234816  0.73618535  1
  O2-  O222  1  0.58211889  0.45947934  0.06486244  1
  O2-  O223  1  0.57994340  0.45815790  0.40262307  1
  O2-  O224  1  0.57974098  0.45531010  0.72549442  1
  O2-  O225  1  0.58596919  0.95948727  0.06269531  1
  O2-  O226  1  0.57940358  0.95647339  0.39842108  1
  O2-  O227  1  0.58065488  0.96023890  0.73602655  1
  O2-  O228  1  0.21205407  0.33259157  0.06470966  1
  O2-  O229  1  0.21561742  0.33787231  0.39690097  1
  O2-  O230  1  0.21859063  0.33573069  0.73494362  1
  O2-  O231  1  0.20467941  0.83992993  0.06523018  1
  O2-  O232  1  0.20771383  0.83792107  0.39523784  1
  O2-  O233  1  0.21111796  0.83222601  0.73588146  1
  O2-  O234  1  0.70956352  0.33365463  0.06685750  1
  O2-  O235  1  0.70665193  0.33449854  0.40447608  1
  O2-  O236  1  0.69467590  0.33340064  0.72845079  1
  O2-  O237  1  0.70378874  0.83618980  0.06038670  1
  O2-  O238  1  0.70486380  0.82537606  0.39338486  1
  O2-  O239  1  0.70415575  0.82828533  0.73422030  1
  O2-  O240  1  0.45369616  0.41291711  0.27378493  1
  O2-  O241  1  0.45603158  0.41075642  0.59860503  1
  O2-  O242  1  0.46035098  0.41587825  0.93002510  1
  O2-  O243  1  0.44484949  0.92670499  0.27029484  1
  O2-  O244  1  0.44805973  0.92197075  0.60706612  1
  O2-  O245  1  0.45039728  0.92487545  0.93281426  1
  O2-  O246  1  0.95682254  0.41479682  0.26425346  1
  O2-  O247  1  0.95344771  0.41397872  0.60436953  1
  O2-  O248  1  0.94385992  0.41738909  0.94250191  1
  O2-  O249  1  0.96645728  0.91263482  0.26241062  1
  O2-  O250  1  0.96184153  0.91843548  0.59925090  1
  O2-  O251  1  0.96317566  0.91648167  0.92969500  1
  O2-  O252  1  0.34059917  0.28714821  0.26927653  1
  O2-  O253  1  0.34001137  0.28946312  0.60034794  1
  O2-  O254  1  0.33759297  0.28683269  0.92975667  1
  O2-  O255  1  0.33077364  0.78970723  0.26493805  1
  O2-  O256  1  0.33579150  0.79687571  0.60449189  1
  O2-  O257  1  0.32835407  0.79597328  0.93520969  1
  O2-  O258  1  0.83082937  0.30182653  0.27354655  1
  O2-  O259  1  0.82839582  0.30070554  0.60591047  1
  O2-  O260  1  0.83382164  0.29028822  0.93616082  1
  O2-  O261  1  0.83548634  0.78990557  0.26249080  1
  O2-  O262  1  0.83215838  0.78976860  0.59880364  1
  O2-  O263  1  0.82824443  0.80025827  0.93067734  1
  O2-  O264  1  0.41517861  0.05053501  0.06322079  1
  O2-  O265  1  0.41402513  0.05501101  0.39491851  1
  O2-  O266  1  0.41682464  0.05435770  0.73078679  1
  O2-  O267  1  0.41178802  0.53442548  0.06979607  1
  O2-  O268  1  0.40758911  0.53738980  0.40017910  1
  O2-  O269  1  0.41265376  0.53440301  0.72946623  1
  O2-  O270  1  0.91458280  0.03968656  0.06134326  1
  O2-  O271  1  0.92443202  0.03873077  0.39731185  1
  O2-  O272  1  0.92134009  0.04504314  0.73579227  1
  O2-  O273  1  0.91560118  0.54751198  0.06672885  1
  O2-  O274  1  0.91769388  0.54203939  0.39623723  1
  O2-  O275  1  0.91333636  0.53687396  0.73721697  1
  O2-  O276  1  0.29101150  0.16446364  0.06362405  1
  O2-  O277  1  0.28789176  0.16445655  0.39823155  1
  O2-  O278  1  0.29466642  0.16743578  0.72973215  1
  O2-  O279  1  0.28825760  0.66826358  0.07087847  1
  O2-  O280  1  0.29483898  0.66321511  0.39897856  1
  O2-  O281  1  0.30823333  0.66688648  0.72714292  1
  O2-  O282  1  0.79615483  0.16040914  0.06536637  1
  O2-  O283  1  0.80160520  0.16851834  0.40041103  1
  O2-  O284  1  0.79154614  0.16963081  0.73669865  1
  O2-  O285  1  0.79836672  0.66995872  0.06110090  1
  O2-  O286  1  0.80059492  0.66521369  0.39225004  1
  O2-  O287  1  0.78812465  0.66468673  0.73454942  1
