# generated using pymatgen
data_Ca2Al2SiO7
_symmetry_space_group_name_H-M   'P 1'
_cell_length_a   15.46238668
_cell_length_b   15.46201143
_cell_length_c   15.28627683
_cell_angle_alpha   90.00110574
_cell_angle_beta   90.01303248
_cell_angle_gamma   90.03281385
_symmetry_Int_Tables_number   1
_chemical_formula_structural   Ca2Al2SiO7
_chemical_formula_sum   'Ca48 Al48 Si24 O168'
_cell_volume   3654.63625018
_cell_formula_units_Z   24
loop_
 _symmetry_equiv_pos_site_id
 _symmetry_equiv_pos_as_xyz
  1  'x, y, z'
loop_
 _atom_type_symbol
 _atom_type_oxidation_number
  Ca2+  2.0
  Al0+  0.0
  Si0+  0.0
  O2-  -2.0
loop_
 _atom_site_type_symbol
 _atom_site_label
 _atom_site_symmetry_multiplicity
 _atom_site_fract_x
 _atom_site_fract_y
 _atom_site_fract_z
 _atom_site_occupancy
  Ca2+  Ca0  1  0.16848813  0.07582959  0.17878061  1
  Ca2+  Ca1  1  0.17337593  0.07978131  0.50262837  1
  Ca2+  Ca2  1  0.16891606  0.07077059  0.83377715  1
  Ca2+  Ca3  1  0.18123919  0.58514953  0.17241706  1
  Ca2+  Ca4  1  0.16953928  0.58140480  0.50588949  1
  Ca2+  Ca5  1  0.16668351  0.58259535  0.83303528  1
  Ca2+  Ca6  1  0.66208145  0.07192508  0.17388404  1
  Ca2+  Ca7  1  0.66453333  0.08230905  0.50519094  1
  Ca2+  Ca8  1  0.67169653  0.08259204  0.83327932  1
  Ca2+  Ca9  1  0.66715515  0.57413235  0.18014148  1
  Ca2+  Ca10  1  0.67264252  0.57712645  0.49975674  1
  Ca2+  Ca11  1  0.67016928  0.57361543  0.83496235  1
  Ca2+  Ca12  1  0.08594302  0.32520864  0.16779480  1
  Ca2+  Ca13  1  0.08519803  0.32888314  0.49254521  1
  Ca2+  Ca14  1  0.08259286  0.33377660  0.82435302  1
  Ca2+  Ca15  1  0.07874586  0.84122949  0.16584920  1
  Ca2+  Ca16  1  0.07343735  0.84087788  0.49796339  1
  Ca2+  Ca17  1  0.08298152  0.82966939  0.82128183  1
  Ca2+  Ca18  1  0.58258197  0.33540487  0.16886308  1
  Ca2+  Ca19  1  0.58453844  0.32500284  0.49127269  1
  Ca2+  Ca20  1  0.58652045  0.33133242  0.82489712  1
  Ca2+  Ca21  1  0.58959461  0.82795442  0.16593374  1
  Ca2+  Ca22  1  0.58455974  0.82784973  0.48865554  1
  Ca2+  Ca23  1  0.58264013  0.83501240  0.82919551  1
  Ca2+  Ca24  1  0.34042565  0.42496082  0.17416703  1
  Ca2+  Ca25  1  0.33324327  0.41720948  0.49921000  1
  Ca2+  Ca26  1  0.32709491  0.42207778  0.83408348  1
  Ca2+  Ca27  1  0.31937128  0.92091582  0.17797871  1
  Ca2+  Ca28  1  0.32495561  0.92796683  0.50414662  1
  Ca2+  Ca29  1  0.32349185  0.91795166  0.83436404  1
  Ca2+  Ca30  1  0.82136683  0.42301062  0.17610762  1
  Ca2+  Ca31  1  0.82513918  0.42647867  0.50657313  1
  Ca2+  Ca32  1  0.82337861  0.41994844  0.83335065  1
  Ca2+  Ca33  1  0.82394107  0.91243770  0.17473730  1
  Ca2+  Ca34  1  0.83304655  0.91718268  0.50121727  1
  Ca2+  Ca35  1  0.83361326  0.91967833  0.83161949  1
  Ca2+  Ca36  1  0.41791244  0.16798639  0.17173470  1
  Ca2+  Ca37  1  0.42201337  0.16812217  0.49031754  1
  Ca2+  Ca38  1  0.42500890  0.16471092  0.82253959  1
  Ca2+  Ca39  1  0.42126500  0.65820123  0.16626979  1
  Ca2+  Ca40  1  0.42248772  0.66582232  0.49038173  1
  Ca2+  Ca41  1  0.41546512  0.66628507  0.83159453  1
  Ca2+  Ca42  1  0.92293391  0.16386444  0.16872908  1
  Ca2+  Ca43  1  0.92150517  0.16347066  0.49475730  1
  Ca2+  Ca44  1  0.91496584  0.16676461  0.82521211  1
  Ca2+  Ca45  1  0.91217492  0.67106395  0.16946296  1
  Ca2+  Ca46  1  0.91412231  0.67319329  0.49509415  1
  Ca2+  Ca47  1  0.92192967  0.67437168  0.81767981  1
  Al0+  Al48  1  0.00041481  0.00041498  0.00038815  1
  Al0+  Al49  1  -0.00235581  -0.00119338  0.32618212  1
  Al0+  Al50  1  -0.00088475  0.00007994  0.67097850  1
  Al0+  Al51  1  0.00059047  0.49905154  -0.00046191  1
  Al0+  Al52  1  0.00011567  0.50225172  0.33232561  1
  Al0+  Al53  1  0.00062942  0.50068765  0.67035600  1
  Al0+  Al54  1  0.50044120  -0.00012035  0.00102338  1
  Al0+  Al55  1  0.49805810  -0.00068402  0.33565132  1
  Al0+  Al56  1  0.49989286  0.00038326  0.66592955  1
  Al0+  Al57  1  0.50052993  0.49899706  0.00273629  1
  Al0+  Al58  1  0.50016208  0.49931242  0.33471821  1
  Al0+  Al59  1  0.49913716  0.49939327  0.66990512  1
  Al0+  Al60  1  0.25095064  0.25015782  -0.00398189  1
  Al0+  Al61  1  0.25055235  0.25014791  0.32538775  1
  Al0+  Al62  1  0.25172228  0.25157116  0.67550749  1
  Al0+  Al63  1  0.25042488  0.75052945  0.00710311  1
  Al0+  Al64  1  0.24766428  0.74933050  0.34254066  1
  Al0+  Al65  1  0.25071890  0.74995116  0.66497033  1
  Al0+  Al66  1  0.75117934  0.25047996  0.00378515  1
  Al0+  Al67  1  0.75047876  0.24870188  0.32957343  1
  Al0+  Al68  1  0.74988602  0.24847173  0.66921734  1
  Al0+  Al69  1  0.75073251  0.75006252  -0.00163046  1
  Al0+  Al70  1  0.74973406  0.75060831  0.33136987  1
  Al0+  Al71  1  0.74976249  0.74984237  0.66667347  1
  Al0+  Al72  1  0.32143166  0.57039017  0.34834973  1
  Al0+  Al73  1  0.17435065  0.92896906  0.35042374  1
  Al0+  Al74  1  0.82197227  0.57231725  0.34777790  1
  Al0+  Al75  1  0.67832743  0.92991020  0.34653263  1
  Al0+  Al76  1  0.31897480  0.56907213  0.01318608  1
  Al0+  Al77  1  0.31972660  0.07299245  0.34755702  1
  Al0+  Al78  1  0.92846801  0.82241746  0.65048690  1
  Al0+  Al79  1  0.43018097  0.32063767  0.31790682  1
  Al0+  Al80  1  0.17926677  0.92941135  0.68149346  1
  Al0+  Al81  1  0.93001635  0.81916563  0.31758410  1
  Al0+  Al82  1  0.07259335  0.67723015  0.65059741  1
  Al0+  Al83  1  0.82120542  0.57324722  0.68236024  1
  Al0+  Al84  1  0.67867968  0.42652281  0.34964700  1
  Al0+  Al85  1  0.57331667  0.17579077  0.31650439  1
  Al0+  Al86  1  0.67876053  0.42860466  0.68110852  1
  Al0+  Al87  1  0.17964006  0.93039208  0.01484140  1
  Al0+  Al88  1  0.68029777  0.42910881  0.01550899  1
  Al0+  Al89  1  0.67945603  0.92896399  0.01276457  1
  Al0+  Al90  1  0.32332971  0.07212846  0.68271912  1
  Al0+  Al91  1  0.56903999  0.68087205  0.32021580  1
  Al0+  Al92  1  0.17867955  0.42923563  0.67844047  1
  Al0+  Al93  1  0.06978430  0.17998313  0.32103669  1
  Al0+  Al94  1  0.82062391  0.07018198  0.67814957  1
  Al0+  Al95  1  0.57141963  0.17978915  0.65371675  1
  Si0+  Si96  1  0.42486091  0.82157088  0.31754588  1
  Si0+  Si97  1  0.82347108  0.57214632  0.01606775  1
  Si0+  Si98  1  0.57099748  0.17851039  0.98407853  1
  Si0+  Si99  1  0.42998368  0.32282516  0.98189245  1
  Si0+  Si100  1  0.92887075  0.32071309  0.65303435  1
  Si0+  Si101  1  0.42865773  0.82060969  0.98619866  1
  Si0+  Si102  1  0.42927786  0.82132943  0.65166157  1
  Si0+  Si103  1  0.92861411  0.82063065  0.98321197  1
  Si0+  Si104  1  0.32269050  0.57284909  0.68320929  1
  Si0+  Si105  1  0.32290161  0.07344995  0.01700030  1
  Si0+  Si106  1  0.17780297  0.42807137  0.34663485  1
  Si0+  Si107  1  0.67683206  0.92703623  0.68185165  1
  Si0+  Si108  1  0.07114577  0.17869470  0.98195340  1
  Si0+  Si109  1  0.17641084  0.42570656  0.01762986  1
  Si0+  Si110  1  0.57106236  0.67803473  0.98390777  1
  Si0+  Si111  1  0.82170741  0.07131763  0.34733534  1
  Si0+  Si112  1  0.07392551  0.67590636  0.31459768  1
  Si0+  Si113  1  0.92776902  0.32516212  0.31637706  1
  Si0+  Si114  1  0.92927751  0.32046247  0.98384023  1
  Si0+  Si115  1  0.42700529  0.32293051  0.65128507  1
  Si0+  Si116  1  0.82227687  0.07218146  0.01794277  1
  Si0+  Si117  1  0.07272826  0.67983872  0.98635695  1
  Si0+  Si118  1  0.56990999  0.67798282  0.65301544  1
  Si0+  Si119  1  0.07201221  0.18038906  0.65446118  1
  O2-  O120  1  0.25200722  0.00733445  0.06066474  1
  O2-  O121  1  0.24819327  0.00054966  0.39698172  1
  O2-  O122  1  0.25185309  -0.00001171  0.73312916  1
  O2-  O123  1  0.24554179  0.49356720  0.06084775  1
  O2-  O124  1  0.24470140  0.49696567  0.39236021  1
  O2-  O125  1  0.25094011  0.50637881  0.72570115  1
  O2-  O126  1  0.75416908  0.00276435  0.06056838  1
  O2-  O127  1  0.74770619  0.00950214  0.39211455  1
  O2-  O128  1  0.74652089  -0.00492880  0.72543238  1
  O2-  O129  1  0.75373140  0.50538741  0.06054102  1
  O2-  O130  1  0.75359774  0.49673393  0.39667526  1
  O2-  O131  1  0.74903621  0.50157325  0.73271935  1
  O2-  O132  1  -0.00368179  0.25571508  0.27222717  1
  O2-  O133  1  0.00247894  0.25221236  0.61115731  1
  O2-  O134  1  0.00110766  0.25075269  0.93955564  1
  O2-  O135  1  0.00627702  0.74576693  0.27009528  1
  O2-  O136  1  -0.00011843  0.74903460  0.60158391  1
  O2-  O137  1  -0.00005806  0.74883505  0.94307206  1
  O2-  O138  1  0.50284739  0.24954170  0.26612714  1
  O2-  O139  1  0.49596446  0.25423731  0.60899634  1
  O2-  O140  1  0.50006679  0.24988525  0.94103786  1
  O2-  O141  1  0.49319818  0.75365344  0.27072378  1
  O2-  O142  1  0.50038274  0.75009876  0.61071578  1
  O2-  O143  1  0.50129259  0.75104594  0.94210370  1
  O2-  O144  1  0.07041734  0.17898755  0.08687685  1
  O2-  O145  1  0.06857867  0.18179790  0.43447150  1
  O2-  O146  1  0.06920912  0.18211299  0.76016810  1
  O2-  O147  1  0.07247097  0.68010192  0.09111180  1
  O2-  O148  1  0.07311286  0.67166847  0.41936739  1
  O2-  O149  1  0.07254428  0.67963865  0.76565261  1
  O2-  O150  1  0.56968385  0.17694894  0.08847553  1
  O2-  O151  1  0.57261377  0.17677752  0.43001546  1
  O2-  O152  1  0.57131624  0.18058091  0.76798336  1
  O2-  O153  1  0.57107426  0.67767491  0.08859758  1
  O2-  O154  1  0.56830187  0.68223341  0.43363434  1
  O2-  O155  1  0.56761852  0.67847945  0.75893895  1
  O2-  O156  1  0.17782210  0.42970554  0.24063150  1
  O2-  O157  1  0.18115918  0.42517956  0.56575632  1
  O2-  O158  1  0.17567859  0.42618100  0.91200626  1
  O2-  O159  1  0.17603395  0.93145598  0.23601864  1
  O2-  O160  1  0.17885336  0.93346404  0.56894687  1
  O2-  O161  1  0.18066425  0.92932704  0.90193834  1
  O2-  O162  1  0.68022507  0.42986090  0.23545570  1
  O2-  O163  1  0.67981244  0.42871142  0.56855648  1
  O2-  O164  1  0.68127782  0.42928400  0.90241577  1
  O2-  O165  1  0.68173752  0.92832115  0.23293215  1
  O2-  O166  1  0.67483935  0.92688863  0.57676612  1
  O2-  O167  1  0.67952265  0.92995669  0.89958456  1
  O2-  O168  1  0.42914862  0.32405435  0.08631615  1
  O2-  O169  1  0.42820424  0.31960320  0.43141841  1
  O2-  O170  1  0.42793507  0.32397769  0.75759906  1
  O2-  O171  1  0.42857267  0.82005742  0.09062778  1
  O2-  O172  1  0.42775796  0.81934290  0.42332904  1
  O2-  O173  1  0.43008925  0.82017853  0.75771661  1
  O2-  O174  1  0.93086959  0.31972373  0.08859667  1
  O2-  O175  1  0.92961954  0.32551590  0.42191046  1
  O2-  O176  1  0.92945592  0.31789752  0.75887386  1
  O2-  O177  1  0.92708096  0.82021247  0.08804856  1
  O2-  O178  1  0.92968832  0.82105268  0.42993254  1
  O2-  O179  1  0.92983772  0.82233736  0.76517206  1
  O2-  O180  1  0.31703774  0.07115733  0.23321674  1
  O2-  O181  1  0.32190281  0.07252617  0.56991111  1
  O2-  O182  1  0.32342029  0.07171628  0.91141007  1
  O2-  O183  1  0.32038161  0.56915518  0.23477241  1
  O2-  O184  1  0.32641381  0.57136524  0.57828112  1
  O2-  O185  1  0.31747937  0.56893354  0.89990425  1
  O2-  O186  1  0.82364874  0.06768514  0.24131606  1
  O2-  O187  1  0.82130970  0.07199264  0.56566363  1
  O2-  O188  1  0.82230490  0.07328438  0.91214315  1
  O2-  O189  1  0.82009362  0.57033169  0.23330180  1
  O2-  O190  1  0.81922247  0.57230816  0.56947413  1
  O2-  O191  1  0.82316202  0.57108062  0.91064522  1
  O2-  O192  1  0.03522279  0.08659253  0.26229234  1
  O2-  O193  1  0.04216553  0.08931222  0.60865548  1
  O2-  O194  1  0.04122458  0.08716092  0.93457103  1
  O2-  O195  1  0.04844214  0.58314876  0.26486632  1
  O2-  O196  1  0.04751145  0.57664356  0.60078802  1
  O2-  O197  1  0.04855487  0.58552502  0.94039185  1
  O2-  O198  1  0.54101200  0.07739149  0.26392422  1
  O2-  O199  1  0.54297141  0.08205450  0.60121585  1
  O2-  O200  1  0.54311877  0.08655046  0.93572832  1
  O2-  O201  1  0.53793866  0.58446450  0.26608175  1
  O2-  O202  1  0.54008603  0.58648986  0.60661491  1
  O2-  O203  1  0.53984912  0.58710706  0.93600826  1
  O2-  O204  1  0.16353890  0.21077686  0.26113063  1
  O2-  O205  1  0.16500267  0.20859719  0.61065435  1
  O2-  O206  1  0.16387988  0.20483519  0.93476915  1
  O2-  O207  1  0.16882533  0.70213560  0.27091167  1
  O2-  O208  1  0.17281738  0.70193531  0.59980944  1
  O2-  O209  1  0.16445261  0.70953320  0.93958401  1
  O2-  O210  1  0.67307387  0.19969967  0.26259883  1
  O2-  O211  1  0.66841035  0.20927184  0.60058183  1
  O2-  O212  1  0.66485024  0.20637270  0.93977685  1
  O2-  O213  1  0.66395658  0.71301888  0.26368597  1
  O2-  O214  1  0.66184645  0.70428410  0.60664405  1
  O2-  O215  1  0.66331473  0.70506493  0.93604258  1
  O2-  O216  1  0.08237570  0.44999682  0.06316790  1
  O2-  O217  1  0.08361228  0.45084814  0.39192924  1
  O2-  O218  1  0.08297472  0.45633830  0.73662023  1
  O2-  O219  1  0.08185248  0.96061545  0.06659762  1
  O2-  O220  1  0.07596225  0.96153152  0.39882449  1
  O2-  O221  1  0.08254210  0.95967865  0.73687116  1
  O2-  O222  1  0.58351544  0.45919224  0.06761081  1
  O2-  O223  1  0.58183843  0.45732814  0.40144032  1
  O2-  O224  1  0.58020357  0.45687446  0.73550513  1
  O2-  O225  1  0.58245626  0.95831975  0.06632437  1
  O2-  O226  1  0.58012718  0.95280775  0.39963946  1
  O2-  O227  1  0.58431932  0.95372008  0.72976803  1
  O2-  O228  1  0.20212872  0.33088077  0.06090771  1
  O2-  O229  1  0.20411832  0.33441194  0.39057749  1
  O2-  O230  1  0.21067176  0.33621680  0.73986393  1
  O2-  O231  1  0.21100986  0.83546524  0.07035457  1
  O2-  O232  1  0.19860791  0.83036365  0.40272593  1
  O2-  O233  1  0.20976629  0.83044907  0.73352446  1
  O2-  O234  1  0.71212843  0.33302523  0.06923808  1
  O2-  O235  1  0.70573332  0.32612566  0.39804544  1
  O2-  O236  1  0.71089868  0.33203067  0.73589415  1
  O2-  O237  1  0.70951957  0.83115784  0.06497318  1
  O2-  O238  1  0.71312612  0.83516394  0.39987576  1
  O2-  O239  1  0.70083660  0.83384169  0.72954172  1
  O2-  O240  1  0.45998682  0.41871140  0.26402197  1
  O2-  O241  1  0.45076768  0.41753449  0.60641982  1
  O2-  O242  1  0.45950443  0.41408310  0.93380561  1
  O2-  O243  1  0.44842602  0.91533221  0.27172144  1
  O2-  O244  1  0.45700249  0.91258559  0.60422337  1
  O2-  O245  1  0.45592976  0.91259708  0.93754723  1
  O2-  O246  1  0.95441141  0.41763032  0.26758934  1
  O2-  O247  1  0.95473248  0.41322399  0.60781539  1
  O2-  O248  1  0.95595136  0.41304452  0.93606535  1
  O2-  O249  1  0.95859128  0.91467967  0.25905596  1
  O2-  O250  1  0.95785745  0.92181226  0.59978145  1
  O2-  O251  1  0.95573360  0.91403058  0.93808121  1
  O2-  O252  1  0.33272770  0.29420621  0.26007110  1
  O2-  O253  1  0.33253756  0.29769084  0.60750866  1
  O2-  O254  1  0.33637483  0.29776658  0.93479688  1
  O2-  O255  1  0.32987207  0.79536007  0.27437205  1
  O2-  O256  1  0.33829460  0.79410778  0.60367845  1
  O2-  O257  1  0.33764644  0.78887015  0.93830669  1
  O2-  O258  1  0.83560624  0.29826295  0.26795203  1
  O2-  O259  1  0.83885000  0.28952438  0.60559882  1
  O2-  O260  1  0.83753276  0.29073186  0.93649502  1
  O2-  O261  1  0.83475022  0.78587480  0.26133222  1
  O2-  O262  1  0.82802861  0.79663194  0.60029832  1
  O2-  O263  1  0.83689164  0.79369651  0.93443807  1
  O2-  O264  1  0.41603822  0.04673592  0.06213683  1
  O2-  O265  1  0.41750498  0.04510045  0.40037764  1
  O2-  O266  1  0.42099819  0.04050993  0.73659753  1
  O2-  O267  1  0.41579322  0.53888431  0.06599649  1
  O2-  O268  1  0.41641857  0.53845355  0.40287910  1
  O2-  O269  1  0.41389219  0.54439205  0.73346599  1
  O2-  O270  1  0.91641427  0.04702502  0.06255403  1
  O2-  O271  1  0.91282467  0.03968323  0.39362669  1
  O2-  O272  1  0.91531530  0.04116656  0.73758402  1
  O2-  O273  1  0.91727875  0.54579220  0.06155858  1
  O2-  O274  1  0.92223162  0.54818751  0.39832924  1
  O2-  O275  1  0.91896139  0.54440279  0.73608922  1
  O2-  O276  1  0.29892271  0.16901822  0.05939652  1
  O2-  O277  1  0.29006773  0.17201283  0.39733393  1
  O2-  O278  1  0.29647877  0.16941929  0.73871975  1
  O2-  O279  1  0.28932504  0.66434667  0.06946461  1
  O2-  O280  1  0.29353034  0.66607258  0.40434780  1
  O2-  O281  1  0.29975111  0.66686310  0.72961609  1
  O2-  O282  1  0.79833156  0.16550361  0.06445886  1
  O2-  O283  1  0.80619212  0.16796306  0.38979806  1
  O2-  O284  1  0.78929704  0.16465046  0.73693089  1
  O2-  O285  1  0.79924589  0.66684665  0.05963417  1
  O2-  O286  1  0.78910077  0.66875177  0.39941749  1
  O2-  O287  1  0.79174733  0.67123309  0.73662203  1
