# generated using pymatgen
data_Ca2Al2SiO7
_symmetry_space_group_name_H-M   'P 1'
_cell_length_a   15.46459484
_cell_length_b   15.46758910
_cell_length_c   15.28997211
_cell_angle_alpha   90.01368542
_cell_angle_beta   89.99183743
_cell_angle_gamma   90.00436557
_symmetry_Int_Tables_number   1
_chemical_formula_structural   Ca2Al2SiO7
_chemical_formula_sum   'Ca48 Al48 Si24 O168'
_cell_volume   3657.36115581
_cell_formula_units_Z   24
loop_
 _symmetry_equiv_pos_site_id
 _symmetry_equiv_pos_as_xyz
  1  'x, y, z'
loop_
 _atom_type_symbol
 _atom_type_oxidation_number
  Ca2+  2.0
  Al0+  0.0
  Si0+  0.0
  O2-  -2.0
loop_
 _atom_site_type_symbol
 _atom_site_label
 _atom_site_symmetry_multiplicity
 _atom_site_fract_x
 _atom_site_fract_y
 _atom_site_fract_z
 _atom_site_occupancy
  Ca2+  Ca0  1  0.17067135  0.09071240  0.16606039  1
  Ca2+  Ca1  1  0.17240964  0.08525855  0.50283488  1
  Ca2+  Ca2  1  0.16855098  0.07275496  0.84194555  1
  Ca2+  Ca3  1  0.16861293  0.57925771  0.16997208  1
  Ca2+  Ca4  1  0.17102875  0.57560770  0.51458372  1
  Ca2+  Ca5  1  0.16639550  0.58229830  0.82903752  1
  Ca2+  Ca6  1  0.67913854  0.08540965  0.17670080  1
  Ca2+  Ca7  1  0.67527448  0.08359160  0.50399173  1
  Ca2+  Ca8  1  0.67728010  0.07935226  0.83458687  1
  Ca2+  Ca9  1  0.66689930  0.56954115  0.16965841  1
  Ca2+  Ca10  1  0.66391399  0.57588937  0.50021250  1
  Ca2+  Ca11  1  0.66625441  0.57664619  0.83874240  1
  Ca2+  Ca12  1  0.07528632  0.31832481  0.15955370  1
  Ca2+  Ca13  1  0.08331671  0.32829677  0.49391718  1
  Ca2+  Ca14  1  0.08468821  0.32498536  0.83063597  1
  Ca2+  Ca15  1  0.07830148  0.83592874  0.15757862  1
  Ca2+  Ca16  1  0.08233023  0.83665231  0.50524453  1
  Ca2+  Ca17  1  0.07828708  0.83813162  0.82488744  1
  Ca2+  Ca18  1  0.57875864  0.33102075  0.16290597  1
  Ca2+  Ca19  1  0.57340367  0.32818133  0.49132775  1
  Ca2+  Ca20  1  0.57452161  0.33333087  0.83052934  1
  Ca2+  Ca21  1  0.58775334  0.83593525  0.16641859  1
  Ca2+  Ca22  1  0.58244777  0.84255012  0.49838314  1
  Ca2+  Ca23  1  0.57676290  0.83590038  0.82281506  1
  Ca2+  Ca24  1  0.33715279  0.41015073  0.16947693  1
  Ca2+  Ca25  1  0.33073237  0.41640459  0.51033737  1
  Ca2+  Ca26  1  0.33380444  0.41628127  0.83230076  1
  Ca2+  Ca27  1  0.32797525  0.93311728  0.16945308  1
  Ca2+  Ca28  1  0.33100667  0.92439706  0.50828451  1
  Ca2+  Ca29  1  0.32313156  0.91622323  0.83948715  1
  Ca2+  Ca30  1  0.82007964  0.40299559  0.16602224  1
  Ca2+  Ca31  1  0.82410692  0.41136834  0.50294982  1
  Ca2+  Ca32  1  0.82800370  0.41531417  0.84366449  1
  Ca2+  Ca33  1  0.83386530  0.92692674  0.17069198  1
  Ca2+  Ca34  1  0.82436441  0.92583539  0.50763495  1
  Ca2+  Ca35  1  0.84099151  0.92417111  0.83624867  1
  Ca2+  Ca36  1  0.41792157  0.17059796  0.16373152  1
  Ca2+  Ca37  1  0.41894447  0.17569881  0.48799514  1
  Ca2+  Ca38  1  0.40893779  0.17573640  0.83088019  1
  Ca2+  Ca39  1  0.42023889  0.66984097  0.16324429  1
  Ca2+  Ca40  1  0.40890430  0.67401172  0.50425905  1
  Ca2+  Ca41  1  0.41631749  0.67150738  0.82314844  1
  Ca2+  Ca42  1  0.92325000  0.15986507  0.15866261  1
  Ca2+  Ca43  1  0.92254946  0.15565071  0.49609078  1
  Ca2+  Ca44  1  0.91595912  0.16368281  0.83509053  1
  Ca2+  Ca45  1  0.91525242  0.67646860  0.15962685  1
  Ca2+  Ca46  1  0.92037053  0.67252667  0.50095731  1
  Ca2+  Ca47  1  0.92198144  0.68231080  0.82380814  1
  Al0+  Al48  1  0.00013963  -0.00195604  0.00000232  1
  Al0+  Al49  1  0.00053006  -0.00247780  0.33200173  1
  Al0+  Al50  1  0.00117748  0.00136863  0.66824422  1
  Al0+  Al51  1  0.00043634  0.50109806  -0.00041395  1
  Al0+  Al52  1  0.00082727  0.50164041  0.33126031  1
  Al0+  Al53  1  -0.00076723  0.49868908  0.66714562  1
  Al0+  Al54  1  0.49942064  -0.00058919  0.00197746  1
  Al0+  Al55  1  0.49788867  0.00141597  0.33402979  1
  Al0+  Al56  1  0.50324672  0.00214311  0.66643003  1
  Al0+  Al57  1  0.50039208  0.49949214  0.00034697  1
  Al0+  Al58  1  0.50012436  0.50363412  0.33445480  1
  Al0+  Al59  1  0.49868783  0.49991454  0.66584607  1
  Al0+  Al60  1  0.25029912  0.25144789  -0.00501147  1
  Al0+  Al61  1  0.24711389  0.25078826  0.32955750  1
  Al0+  Al62  1  0.24836209  0.25164306  0.66595644  1
  Al0+  Al63  1  0.25099752  0.74866752  0.00596233  1
  Al0+  Al64  1  0.24978868  0.74931981  0.33116986  1
  Al0+  Al65  1  0.25147192  0.74902829  0.66550058  1
  Al0+  Al66  1  0.74837235  0.24828797  0.00382822  1
  Al0+  Al67  1  0.74895342  0.25119487  0.34174674  1
  Al0+  Al68  1  0.75007307  0.24956132  0.67106360  1
  Al0+  Al69  1  0.75066962  0.74772831  -0.00534160  1
  Al0+  Al70  1  0.74989192  0.74935079  0.33561465  1
  Al0+  Al71  1  0.74885817  0.74890335  0.66426427  1
  Al0+  Al72  1  0.67862008  0.42955952  0.34864696  1
  Al0+  Al73  1  0.93033463  0.81938567  0.98652807  1
  Al0+  Al74  1  0.32172804  0.07394417  0.01447778  1
  Al0+  Al75  1  0.17648325  0.42676489  0.68298757  1
  Al0+  Al76  1  0.07089021  0.67828634  0.65122461  1
  Al0+  Al77  1  0.82335521  0.07145087  0.34884824  1
  Al0+  Al78  1  0.31791645  0.07288903  0.34719493  1
  Al0+  Al79  1  0.67897328  0.42986039  0.01280448  1
  Al0+  Al80  1  0.17879473  0.92802188  0.01609498  1
  Al0+  Al81  1  0.57200329  0.17812135  0.31820596  1
  Al0+  Al82  1  0.42908601  0.32308661  0.31808240  1
  Al0+  Al83  1  0.18238964  0.93045109  0.67820276  1
  Al0+  Al84  1  0.42997041  0.82275726  0.65412772  1
  Al0+  Al85  1  0.92620199  0.32047225  0.98594431  1
  Al0+  Al86  1  0.07051155  0.17886067  0.98232606  1
  Al0+  Al87  1  0.81904097  0.06849667  0.01451513  1
  Al0+  Al88  1  0.67787723  0.92729235  0.68288024  1
  Al0+  Al89  1  0.32126446  0.56981930  0.68222977  1
  Al0+  Al90  1  0.92837665  0.82389218  0.64843646  1
  Al0+  Al91  1  0.43070540  0.32104241  0.98430208  1
  Al0+  Al92  1  0.06836063  0.17802255  0.32015771  1
  Al0+  Al93  1  0.67852719  0.92760213  0.34740180  1
  Al0+  Al94  1  0.82198787  0.07072739  0.68451341  1
  Al0+  Al95  1  0.42894379  0.31941601  0.65229616  1
  Si0+  Si96  1  0.17904947  0.92501286  0.35074274  1
  Si0+  Si97  1  0.56961155  0.67855708  0.98577121  1
  Si0+  Si98  1  0.06991529  0.18024410  0.65141455  1
  Si0+  Si99  1  0.17941290  0.43126795  0.34593694  1
  Si0+  Si100  1  0.32152478  0.56982875  0.01683067  1
  Si0+  Si101  1  0.42923809  0.82029482  0.98725814  1
  Si0+  Si102  1  0.57199954  0.67643925  0.64870134  1
  Si0+  Si103  1  0.82273298  0.57304082  0.01556414  1
  Si0+  Si104  1  0.57186558  0.68049787  0.31740836  1
  Si0+  Si105  1  0.17767265  0.42897374  0.01634790  1
  Si0+  Si106  1  0.57254364  0.17554420  0.98268180  1
  Si0+  Si107  1  0.82296920  0.57242147  0.35020767  1
  Si0+  Si108  1  0.42706704  0.82168428  0.31701876  1
  Si0+  Si109  1  0.67915892  0.43019791  0.68219367  1
  Si0+  Si110  1  0.82158666  0.57075916  0.68146034  1
  Si0+  Si111  1  0.32382555  0.07420856  0.68128615  1
  Si0+  Si112  1  0.32098822  0.57346824  0.34854520  1
  Si0+  Si113  1  0.07589159  0.67675472  0.98351220  1
  Si0+  Si114  1  0.92646684  0.32147150  0.65216773  1
  Si0+  Si115  1  0.92776299  0.32532830  0.31893486  1
  Si0+  Si116  1  0.67671873  0.92433754  0.01523064  1
  Si0+  Si117  1  0.57445072  0.17999629  0.65003970  1
  Si0+  Si118  1  0.07218289  0.67756170  0.31671387  1
  Si0+  Si119  1  0.92917301  0.81803849  0.31814279  1
  O2-  O120  1  0.24791595  0.00338075  0.06470842  1
  O2-  O121  1  0.24522219  -0.00381488  0.39396787  1
  O2-  O122  1  0.26038909  0.00104966  0.72534583  1
  O2-  O123  1  0.24995617  0.49945952  0.05904048  1
  O2-  O124  1  0.25297270  0.49926243  0.38846385  1
  O2-  O125  1  0.24895718  0.49875232  0.73278098  1
  O2-  O126  1  0.74348864  -0.00629133  0.05983633  1
  O2-  O127  1  0.74708162  0.00276458  0.39693684  1
  O2-  O128  1  0.75333861  -0.00541760  0.73336652  1
  O2-  O129  1  0.75904000  0.49981735  0.05975418  1
  O2-  O130  1  0.75756296  0.50086916  0.39485509  1
  O2-  O131  1  0.75004464  0.50090166  0.72459871  1
  O2-  O132  1  -0.01078322  0.24990987  0.27604744  1
  O2-  O133  1  -0.00212875  0.25115545  0.60997622  1
  O2-  O134  1  -0.00184635  0.25115395  0.93228961  1
  O2-  O135  1  0.00199383  0.74878160  0.27487897  1
  O2-  O136  1  0.00074337  0.75103980  0.59880526  1
  O2-  O137  1  0.00739623  0.74593931  0.94150372  1
  O2-  O138  1  0.50108200  0.25146466  0.26760065  1
  O2-  O139  1  0.50093203  0.24327152  0.60568878  1
  O2-  O140  1  0.50123327  0.24198811  0.93828746  1
  O2-  O141  1  0.50268450  0.75394693  0.27562265  1
  O2-  O142  1  0.50727235  0.74999205  0.60630965  1
  O2-  O143  1  0.50314706  0.75314892  0.94401432  1
  O2-  O144  1  0.06983055  0.18145428  0.09620691  1
  O2-  O145  1  0.07026418  0.18143073  0.43372960  1
  O2-  O146  1  0.07136215  0.18071754  0.75587045  1
  O2-  O147  1  0.07564740  0.67591569  0.08983574  1
  O2-  O148  1  0.07305378  0.67440170  0.42090815  1
  O2-  O149  1  0.06726689  0.67790859  0.76474544  1
  O2-  O150  1  0.57356228  0.17713259  0.08803511  1
  O2-  O151  1  0.56970227  0.18068217  0.43197801  1
  O2-  O152  1  0.57742639  0.18399600  0.75566315  1
  O2-  O153  1  0.56809689  0.67756548  0.09112227  1
  O2-  O154  1  0.57153864  0.67769644  0.42195329  1
  O2-  O155  1  0.57037984  0.67284749  0.75462985  1
  O2-  O156  1  0.17779602  0.43527088  0.24076716  1
  O2-  O157  1  0.17727756  0.42630030  0.56861774  1
  O2-  O158  1  0.17679443  0.43076770  0.91180309  1
  O2-  O159  1  0.18157842  0.92007073  0.24551347  1
  O2-  O160  1  0.18280578  0.93466736  0.56473202  1
  O2-  O161  1  0.18261132  0.92437515  0.90261362  1
  O2-  O162  1  0.67763757  0.43296470  0.23557033  1
  O2-  O163  1  0.68017312  0.43134843  0.57707185  1
  O2-  O164  1  0.67720681  0.43516514  0.89952958  1
  O2-  O165  1  0.68504375  0.92288964  0.23363621  1
  O2-  O166  1  0.67744925  0.93111456  0.56959850  1
  O2-  O167  1  0.67570470  0.92313316  0.91008101  1
  O2-  O168  1  0.43372298  0.32487276  0.09701988  1
  O2-  O169  1  0.42880529  0.32343291  0.43171245  1
  O2-  O170  1  0.43177499  0.31980870  0.76550214  1
  O2-  O171  1  0.42971560  0.81685196  0.09257167  1
  O2-  O172  1  0.42294958  0.81801807  0.42174026  1
  O2-  O173  1  0.43053783  0.81922148  0.76770484  1
  O2-  O174  1  0.92778157  0.31905871  0.09985955  1
  O2-  O175  1  0.93385451  0.33278468  0.42443009  1
  O2-  O176  1  0.92422926  0.32218324  0.75674032  1
  O2-  O177  1  0.92854309  0.81544832  0.10033289  1
  O2-  O178  1  0.92949609  0.81570798  0.42266416  1
  O2-  O179  1  0.93049988  0.82202639  0.76196275  1
  O2-  O180  1  0.31672764  0.07242944  0.23445187  1
  O2-  O181  1  0.32035143  0.07525557  0.57541848  1
  O2-  O182  1  0.32254338  0.06948308  0.90073419  1
  O2-  O183  1  0.31921560  0.57723712  0.24306750  1
  O2-  O184  1  0.32110016  0.56776872  0.56813471  1
  O2-  O185  1  0.32299454  0.57223895  0.91248316  1
  O2-  O186  1  0.82557413  0.06786006  0.23522230  1
  O2-  O187  1  0.82056837  0.07317046  0.57113527  1
  O2-  O188  1  0.81795292  0.06811692  0.90190773  1
  O2-  O189  1  0.82118482  0.57548025  0.24470041  1
  O2-  O190  1  0.82113133  0.56816055  0.57613796  1
  O2-  O191  1  0.81865902  0.57545722  0.91012189  1
  O2-  O192  1  0.04379020  0.07943121  0.26663981  1
  O2-  O193  1  0.04266897  0.08927448  0.60274141  1
  O2-  O194  1  0.04316197  0.07948414  0.93255376  1
  O2-  O195  1  0.04390978  0.58686188  0.26606447  1
  O2-  O196  1  0.03994875  0.57942058  0.59844210  1
  O2-  O197  1  0.05136283  0.58312167  0.93804915  1
  O2-  O198  1  0.54448463  0.07924060  0.26537937  1
  O2-  O199  1  0.55552876  0.08466399  0.60616916  1
  O2-  O200  1  0.55002592  0.08037572  0.93788513  1
  O2-  O201  1  0.53973822  0.59114069  0.26722025  1
  O2-  O202  1  0.54098775  0.58530152  0.60020666  1
  O2-  O203  1  0.53716047  0.58942276  0.93653036  1
  O2-  O204  1  0.16137525  0.21500330  0.26362395  1
  O2-  O205  1  0.16076692  0.20967258  0.60248009  1
  O2-  O206  1  0.16815943  0.20883216  0.92919993  1
  O2-  O207  1  0.16415057  0.70460400  0.26816846  1
  O2-  O208  1  0.17010925  0.70377208  0.59882661  1
  O2-  O209  1  0.17084022  0.70063916  0.93990940  1
  O2-  O210  1  0.67261358  0.20763662  0.26944517  1
  O2-  O211  1  0.66588038  0.21228828  0.60291652  1
  O2-  O212  1  0.66424677  0.20544959  0.93600675  1
  O2-  O213  1  0.66432857  0.70562316  0.26914308  1
  O2-  O214  1  0.66690732  0.69462709  0.60265238  1
  O2-  O215  1  0.66240791  0.69974481  0.93743421  1
  O2-  O216  1  0.08660175  0.45810562  0.06569640  1
  O2-  O217  1  0.08837199  0.46178995  0.39388586  1
  O2-  O218  1  0.07777818  0.45446133  0.73554558  1
  O2-  O219  1  0.08008472  0.95355580  0.06845536  1
  O2-  O220  1  0.08398781  0.94737629  0.39364633  1
  O2-  O221  1  0.08713778  0.96314549  0.73235412  1
  O2-  O222  1  0.58565388  0.46839392  0.06853223  1
  O2-  O223  1  0.58409028  0.46809728  0.40267357  1
  O2-  O224  1  0.58794904  0.46001362  0.72878997  1
  O2-  O225  1  0.58217716  0.94611614  0.06119850  1
  O2-  O226  1  0.57660397  0.94828009  0.39516858  1
  O2-  O227  1  0.58030001  0.95874336  0.73737127  1
  O2-  O228  1  0.20652414  0.33756885  0.06264302  1
  O2-  O229  1  0.20364857  0.33904140  0.39288031  1
  O2-  O230  1  0.20698011  0.32956837  0.73662104  1
  O2-  O231  1  0.20916466  0.83004688  0.07101367  1
  O2-  O232  1  0.20751478  0.83192008  0.39706411  1
  O2-  O233  1  0.20941002  0.83276471  0.73054172  1
  O2-  O234  1  0.70562037  0.33325536  0.06796552  1
  O2-  O235  1  0.70551512  0.33487294  0.40744993  1
  O2-  O236  1  0.70697783  0.33931785  0.73008281  1
  O2-  O237  1  0.70269741  0.82943179  0.05940965  1
  O2-  O238  1  0.70775828  0.82939787  0.40136151  1
  O2-  O239  1  0.69710881  0.82422376  0.73042985  1
  O2-  O240  1  0.45593291  0.42392009  0.26800524  1
  O2-  O241  1  0.46090723  0.41630858  0.59970672  1
  O2-  O242  1  0.46552874  0.41724680  0.93090697  1
  O2-  O243  1  0.45061906  0.91386425  0.26944073  1
  O2-  O244  1  0.45813992  0.92053481  0.60020453  1
  O2-  O245  1  0.45226295  0.91292184  0.94009684  1
  O2-  O246  1  0.95800475  0.41633141  0.26897798  1
  O2-  O247  1  0.95236601  0.41295484  0.60343283  1
  O2-  O248  1  0.95037817  0.42235755  0.93716909  1
  O2-  O249  1  0.95655517  0.90931492  0.27018963  1
  O2-  O250  1  0.96022076  0.92184945  0.59675439  1
  O2-  O251  1  0.96037112  0.91479384  0.93231536  1
  O2-  O252  1  0.32993219  0.29576216  0.26641841  1
  O2-  O253  1  0.33067135  0.29252587  0.59957168  1
  O2-  O254  1  0.33297656  0.29613827  0.93034101  1
  O2-  O255  1  0.33824967  0.78650952  0.26722554  1
  O2-  O256  1  0.33598133  0.78870387  0.59715312  1
  O2-  O257  1  0.33842974  0.78726812  0.94132742  1
  O2-  O258  1  0.83034520  0.30662524  0.28038959  1
  O2-  O259  1  0.83440831  0.29346551  0.60459984  1
  O2-  O260  1  0.82674864  0.29341101  0.93437713  1
  O2-  O261  1  0.83838766  0.78643573  0.27047595  1
  O2-  O262  1  0.82971825  0.79206571  0.59742858  1
  O2-  O263  1  0.83483122  0.78652644  0.93070544  1
  O2-  O264  1  0.41949685  0.04255416  0.06844219  1
  O2-  O265  1  0.41467325  0.04321801  0.40041741  1
  O2-  O266  1  0.41984727  0.05659366  0.72408186  1
  O2-  O267  1  0.41286185  0.54149135  0.06520319  1
  O2-  O268  1  0.41415878  0.55216516  0.39471904  1
  O2-  O269  1  0.41987279  0.54144517  0.73564624  1
  O2-  O270  1  0.91531480  0.03593402  0.06728625  1
  O2-  O271  1  0.92073124  0.03727785  0.40127802  1
  O2-  O272  1  0.92127721  0.04520217  0.73575753  1
  O2-  O273  1  0.91870539  0.55585816  0.06038614  1
  O2-  O274  1  0.91841892  0.55002195  0.39419104  1
  O2-  O275  1  0.91190389  0.54242452  0.73000148  1
  O2-  O276  1  0.29481636  0.17382707  0.06503239  1
  O2-  O277  1  0.28420604  0.16914127  0.40072986  1
  O2-  O278  1  0.29197690  0.16538135  0.72769584  1
  O2-  O279  1  0.29460148  0.66043919  0.06811427  1
  O2-  O280  1  0.28882826  0.66361349  0.39673303  1
  O2-  O281  1  0.29438025  0.66841304  0.73472125  1
  O2-  O282  1  0.78966608  0.16485292  0.06929384  1
  O2-  O283  1  0.80199216  0.17136859  0.40184874  1
  O2-  O284  1  0.78986031  0.16857151  0.73781936  1
  O2-  O285  1  0.79007010  0.66389907  0.06423111  1
  O2-  O286  1  0.79294889  0.66320291  0.39889965  1
  O2-  O287  1  0.79415536  0.66264240  0.72839023  1
