# generated using pymatgen
data_Ca2Al2SiO7
_symmetry_space_group_name_H-M   'P 1'
_cell_length_a   15.46569762
_cell_length_b   15.46607150
_cell_length_c   15.28823254
_cell_angle_alpha   90.00401071
_cell_angle_beta   89.99222615
_cell_angle_gamma   89.99735184
_symmetry_Int_Tables_number   1
_chemical_formula_structural   Ca2Al2SiO7
_chemical_formula_sum   'Ca48 Al48 Si24 O168'
_cell_volume   3656.84710596
_cell_formula_units_Z   24
loop_
 _symmetry_equiv_pos_site_id
 _symmetry_equiv_pos_as_xyz
  1  'x, y, z'
loop_
 _atom_type_symbol
 _atom_type_oxidation_number
  Ca2+  2.0
  Al0+  0.0
  Si0+  0.0
  O2-  -2.0
loop_
 _atom_site_type_symbol
 _atom_site_label
 _atom_site_symmetry_multiplicity
 _atom_site_fract_x
 _atom_site_fract_y
 _atom_site_fract_z
 _atom_site_occupancy
  Ca2+  Ca0  1  0.17749523  0.08903189  0.16805655  1
  Ca2+  Ca1  1  0.17261467  0.07496730  0.50172806  1
  Ca2+  Ca2  1  0.16809526  0.08004676  0.84114475  1
  Ca2+  Ca3  1  0.17316206  0.58571662  0.16479479  1
  Ca2+  Ca4  1  0.18305019  0.58806914  0.50415840  1
  Ca2+  Ca5  1  0.17551691  0.58258957  0.84454915  1
  Ca2+  Ca6  1  0.66338954  0.06922870  0.17262400  1
  Ca2+  Ca7  1  0.65834610  0.07050344  0.50001735  1
  Ca2+  Ca8  1  0.66665260  0.07012135  0.84098248  1
  Ca2+  Ca9  1  0.65771621  0.58362508  0.16625815  1
  Ca2+  Ca10  1  0.67165749  0.58697800  0.50345076  1
  Ca2+  Ca11  1  0.67249340  0.57977607  0.84251896  1
  Ca2+  Ca12  1  0.08135732  0.33036368  0.15370898  1
  Ca2+  Ca13  1  0.07721614  0.33701205  0.49926694  1
  Ca2+  Ca14  1  0.08045017  0.33456668  0.83477283  1
  Ca2+  Ca15  1  0.07090564  0.83194668  0.15643783  1
  Ca2+  Ca16  1  0.07804901  0.83631419  0.49474544  1
  Ca2+  Ca17  1  0.08436231  0.82994243  0.83241198  1
  Ca2+  Ca18  1  0.57878582  0.32976909  0.16408923  1
  Ca2+  Ca19  1  0.57636928  0.32416495  0.48836288  1
  Ca2+  Ca20  1  0.58567583  0.33473931  0.83250997  1
  Ca2+  Ca21  1  0.57861397  0.82538614  0.16168323  1
  Ca2+  Ca22  1  0.58113387  0.82917059  0.48878293  1
  Ca2+  Ca23  1  0.58091402  0.83411457  0.83682552  1
  Ca2+  Ca24  1  0.33323404  0.42849016  0.17023098  1
  Ca2+  Ca25  1  0.34212063  0.42836365  0.49987929  1
  Ca2+  Ca26  1  0.32892347  0.42952484  0.84511237  1
  Ca2+  Ca27  1  0.34377911  0.92374683  0.16968651  1
  Ca2+  Ca28  1  0.33632369  0.92097536  0.50163442  1
  Ca2+  Ca29  1  0.32947643  0.92085435  0.84177350  1
  Ca2+  Ca30  1  0.82867864  0.41290762  0.16529429  1
  Ca2+  Ca31  1  0.83250624  0.42404473  0.50953990  1
  Ca2+  Ca32  1  0.83461165  0.41754806  0.84089205  1
  Ca2+  Ca33  1  0.82413059  0.90321311  0.16968754  1
  Ca2+  Ca34  1  0.82019154  0.90963063  0.50211507  1
  Ca2+  Ca35  1  0.82207213  0.90992971  0.84067835  1
  Ca2+  Ca36  1  0.41525468  0.16545583  0.16512522  1
  Ca2+  Ca37  1  0.42052163  0.17158713  0.48627671  1
  Ca2+  Ca38  1  0.41398282  0.16593469  0.83459545  1
  Ca2+  Ca39  1  0.41828240  0.67481033  0.15990879  1
  Ca2+  Ca40  1  0.42117665  0.67105775  0.48854383  1
  Ca2+  Ca41  1  0.41732329  0.66467507  0.83425966  1
  Ca2+  Ca42  1  0.92653801  0.17070371  0.15455664  1
  Ca2+  Ca43  1  0.91590674  0.17194577  0.49806696  1
  Ca2+  Ca44  1  0.91834440  0.17846073  0.83409457  1
  Ca2+  Ca45  1  0.92252954  0.67633613  0.15938780  1
  Ca2+  Ca46  1  0.91709327  0.67071301  0.49408543  1
  Ca2+  Ca47  1  0.91975920  0.66599039  0.83547811  1
  Al0+  Al48  1  -0.00139979  0.00197074  -0.00980651  1
  Al0+  Al49  1  -0.00200713  0.00222703  0.33002703  1
  Al0+  Al50  1  -0.00052006  0.00058864  0.66860456  1
  Al0+  Al51  1  -0.00047550  0.50160435  -0.00175205  1
  Al0+  Al52  1  -0.00063352  0.49985263  0.33408634  1
  Al0+  Al53  1  0.00149845  0.50119786  0.66411697  1
  Al0+  Al54  1  0.50079181  -0.00066008  0.00301031  1
  Al0+  Al55  1  0.50061029  -0.00025094  0.33719649  1
  Al0+  Al56  1  0.49979129  -0.00067988  0.67070147  1
  Al0+  Al57  1  0.50148113  0.49972998  0.00339087  1
  Al0+  Al58  1  0.50022310  0.49760099  0.33272743  1
  Al0+  Al59  1  0.50191072  0.50063483  0.66863352  1
  Al0+  Al60  1  0.25049643  0.25032012  0.00167660  1
  Al0+  Al61  1  0.24790035  0.25052646  0.33696612  1
  Al0+  Al62  1  0.25008106  0.25046594  0.66241120  1
  Al0+  Al63  1  0.24934893  0.75341369  -0.00265071  1
  Al0+  Al64  1  0.24871655  0.74875513  0.33455517  1
  Al0+  Al65  1  0.25101872  0.75165369  0.67261116  1
  Al0+  Al66  1  0.74980047  0.24879246  0.00067463  1
  Al0+  Al67  1  0.74969816  0.24918174  0.33158649  1
  Al0+  Al68  1  0.74990773  0.24856938  0.65948681  1
  Al0+  Al69  1  0.74852780  0.74753317  -0.00272079  1
  Al0+  Al70  1  0.75097872  0.74850257  0.33114173  1
  Al0+  Al71  1  0.75002499  0.74837612  0.67532142  1
  Al0+  Al72  1  0.68080625  0.92745062  0.01602132  1
  Al0+  Al73  1  0.57234525  0.67798933  0.32026292  1
  Al0+  Al74  1  0.82265710  0.56994184  0.68063002  1
  Al0+  Al75  1  0.67904183  0.92943037  0.68199360  1
  Al0+  Al76  1  0.32031420  0.07017170  0.34783922  1
  Al0+  Al77  1  0.68142732  0.92816873  0.34699971  1
  Al0+  Al78  1  0.92713489  0.82149363  0.98223297  1
  Al0+  Al79  1  0.93040529  0.82127278  0.32209046  1
  Al0+  Al80  1  0.42988678  0.82356230  0.98347271  1
  Al0+  Al81  1  0.57136614  0.17776790  0.31702739  1
  Al0+  Al82  1  0.67973228  0.42673313  0.01446151  1
  Al0+  Al83  1  0.17775733  0.43009021  0.01420373  1
  Al0+  Al84  1  0.32159831  0.57440045  0.01676891  1
  Al0+  Al85  1  0.92748154  0.32121372  0.98604896  1
  Al0+  Al86  1  0.42635451  0.82100670  0.32068834  1
  Al0+  Al87  1  0.07478207  0.18005678  0.98368888  1
  Al0+  Al88  1  0.32003480  0.07031807  0.01343971  1
  Al0+  Al89  1  0.32319062  0.57038937  0.68082858  1
  Al0+  Al90  1  0.93006289  0.32151847  0.65109646  1
  Al0+  Al91  1  0.17790551  0.93028346  0.68005254  1
  Al0+  Al92  1  0.07187196  0.68014642  0.98449858  1
  Al0+  Al93  1  0.56882005  0.67650752  0.98244252  1
  Al0+  Al94  1  0.42643400  0.32059380  0.31703154  1
  Al0+  Al95  1  0.32128050  0.57114133  0.34727607  1
  Si0+  Si96  1  0.42921030  0.82103432  0.65194277  1
  Si0+  Si97  1  0.67991454  0.42641534  0.68076295  1
  Si0+  Si98  1  0.82124800  0.56841174  0.34784385  1
  Si0+  Si99  1  0.82174518  0.07159193  0.01583492  1
  Si0+  Si100  1  0.57060266  0.17868118  0.98455481  1
  Si0+  Si101  1  0.42955823  0.32219066  0.65268592  1
  Si0+  Si102  1  0.07319072  0.17684416  0.64648874  1
  Si0+  Si103  1  0.57179896  0.67910247  0.65224371  1
  Si0+  Si104  1  0.92891011  0.32281703  0.31861335  1
  Si0+  Si105  1  0.56941480  0.17708558  0.65198705  1
  Si0+  Si106  1  0.82165626  0.57117401  0.01904253  1
  Si0+  Si107  1  0.17896180  0.42781407  0.68186125  1
  Si0+  Si108  1  0.82346066  0.07395442  0.35041805  1
  Si0+  Si109  1  0.17485335  0.92951745  0.01650186  1
  Si0+  Si110  1  0.42994053  0.32086929  0.98490099  1
  Si0+  Si111  1  0.92765247  0.82026566  0.65162254  1
  Si0+  Si112  1  0.07201457  0.67649435  0.31829521  1
  Si0+  Si113  1  0.82181219  0.07401451  0.68326353  1
  Si0+  Si114  1  0.67928184  0.42626632  0.34950590  1
  Si0+  Si115  1  0.17586881  0.42856680  0.35201386  1
  Si0+  Si116  1  0.06933581  0.17983285  0.31937012  1
  Si0+  Si117  1  0.32134831  0.07300679  0.68256435  1
  Si0+  Si118  1  0.07316386  0.68078469  0.65021486  1
  Si0+  Si119  1  0.17415137  0.92869885  0.34693750  1
  O2-  O120  1  0.24448117  -0.00322358  0.06084887  1
  O2-  O121  1  0.24827802  -0.00864658  0.39249938  1
  O2-  O122  1  0.25037733  0.00733167  0.72601940  1
  O2-  O123  1  0.24791424  0.50287833  0.06502572  1
  O2-  O124  1  0.24630933  0.49607123  0.39542016  1
  O2-  O125  1  0.24966372  0.49394722  0.72543290  1
  O2-  O126  1  0.75970890  -0.00162470  0.06177495  1
  O2-  O127  1  0.75521033  0.00457762  0.39452545  1
  O2-  O128  1  0.75486698  0.00394238  0.72737921  1
  O2-  O129  1  0.75347356  0.50157266  0.06279129  1
  O2-  O130  1  0.74948265  0.49843138  0.39117607  1
  O2-  O131  1  0.75115946  0.49141493  0.72524388  1
  O2-  O132  1  -0.00106046  0.25139771  0.27765158  1
  O2-  O133  1  0.00449690  0.24650772  0.60275727  1
  O2-  O134  1  0.00274859  0.25310279  0.93539114  1
  O2-  O135  1  0.00859531  0.75058596  0.27622164  1
  O2-  O136  1  0.00062809  0.75125642  0.60823768  1
  O2-  O137  1  0.00135076  0.75229434  0.93160699  1
  O2-  O138  1  0.49721333  0.24734780  0.26689054  1
  O2-  O139  1  0.49860187  0.24892185  0.61078114  1
  O2-  O140  1  0.50101590  0.25045090  0.94074294  1
  O2-  O141  1  0.49691105  0.74706077  0.27215053  1
  O2-  O142  1  0.50040782  0.74978112  0.61013937  1
  O2-  O143  1  0.49687645  0.74786869  0.93113434  1
  O2-  O144  1  0.07291313  0.18065877  0.09791358  1
  O2-  O145  1  0.06727131  0.17898503  0.42475044  1
  O2-  O146  1  0.07560602  0.17773036  0.75122779  1
  O2-  O147  1  0.06903573  0.68183029  0.09857814  1
  O2-  O148  1  0.06951055  0.67448579  0.42452491  1
  O2-  O149  1  0.07332153  0.68090649  0.75464234  1
  O2-  O150  1  0.57018331  0.17911556  0.08911061  1
  O2-  O151  1  0.57074857  0.18048566  0.43178885  1
  O2-  O152  1  0.56945938  0.17716988  0.75714641  1
  O2-  O153  1  0.56827943  0.67787383  0.09579939  1
  O2-  O154  1  0.57450234  0.68067989  0.43505828  1
  O2-  O155  1  0.57110038  0.67682783  0.75659391  1
  O2-  O156  1  0.17113911  0.42935423  0.24724682  1
  O2-  O157  1  0.17896111  0.42893293  0.57594663  1
  O2-  O158  1  0.18203964  0.42914623  0.90002470  1
  O2-  O159  1  0.16851366  0.93362669  0.24228159  1
  O2-  O160  1  0.17893732  0.93082023  0.56637751  1
  O2-  O161  1  0.17633568  0.93181433  0.91050485  1
  O2-  O162  1  0.68191335  0.42338946  0.24491615  1
  O2-  O163  1  0.67890611  0.42809609  0.57495420  1
  O2-  O164  1  0.68170901  0.42581298  0.90072798  1
  O2-  O165  1  0.68435659  0.92723022  0.23471332  1
  O2-  O166  1  0.67887668  0.92917863  0.56867891  1
  O2-  O167  1  0.68008472  0.93222658  0.90245043  1
  O2-  O168  1  0.43069333  0.31956527  0.08947502  1
  O2-  O169  1  0.43096523  0.32043210  0.43188076  1
  O2-  O170  1  0.43010706  0.32209469  0.75771990  1
  O2-  O171  1  0.43354088  0.82599344  0.09670906  1
  O2-  O172  1  0.42807704  0.81987914  0.43556288  1
  O2-  O173  1  0.42983231  0.82314181  0.75643434  1
  O2-  O174  1  0.92662669  0.31663432  0.10011871  1
  O2-  O175  1  0.93018180  0.32366904  0.42407819  1
  O2-  O176  1  0.92921746  0.32014727  0.76319968  1
  O2-  O177  1  0.92839341  0.81908330  0.09622743  1
  O2-  O178  1  0.93021379  0.81835954  0.43613838  1
  O2-  O179  1  0.92748301  0.81874286  0.75601590  1
  O2-  O180  1  0.31732715  0.07270005  0.23539492  1
  O2-  O181  1  0.32290070  0.07188243  0.57698602  1
  O2-  O182  1  0.32002479  0.07003619  0.89968143  1
  O2-  O183  1  0.31876070  0.57144076  0.23528992  1
  O2-  O184  1  0.32390095  0.56986575  0.56734443  1
  O2-  O185  1  0.32157148  0.56921473  0.90262982  1
  O2-  O186  1  0.82575936  0.07615056  0.24548711  1
  O2-  O187  1  0.82113302  0.07440364  0.57742093  1
  O2-  O188  1  0.81589602  0.07493941  0.91008308  1
  O2-  O189  1  0.82581606  0.56553287  0.24358552  1
  O2-  O190  1  0.81945884  0.57128857  0.56661285  1
  O2-  O191  1  0.82071160  0.56983881  0.91309267  1
  O2-  O192  1  0.04152820  0.08973311  0.26959012  1
  O2-  O193  1  0.04497637  0.08347195  0.60044531  1
  O2-  O194  1  0.04516055  0.08379406  0.92763160  1
  O2-  O195  1  0.03971710  0.58537083  0.27143230  1
  O2-  O196  1  0.04676939  0.58908893  0.60179009  1
  O2-  O197  1  0.04293068  0.58223469  0.93078254  1
  O2-  O198  1  0.54505077  0.07846427  0.26776725  1
  O2-  O199  1  0.53923075  0.08568234  0.60452845  1
  O2-  O200  1  0.54001806  0.08850174  0.93601893  1
  O2-  O201  1  0.55046892  0.57720263  0.27156326  1
  O2-  O202  1  0.54604935  0.58629793  0.60443528  1
  O2-  O203  1  0.54334300  0.57640997  0.93013819  1
  O2-  O204  1  0.16109863  0.20764036  0.27361054  1
  O2-  O205  1  0.16688406  0.20244940  0.59867096  1
  O2-  O206  1  0.17283515  0.20822726  0.92949977  1
  O2-  O207  1  0.16672621  0.69580531  0.27416632  1
  O2-  O208  1  0.16477670  0.71180802  0.60306085  1
  O2-  O209  1  0.16954008  0.70783441  0.93002497  1
  O2-  O210  1  0.66986844  0.20708163  0.26514457  1
  O2-  O211  1  0.66082134  0.20212607  0.60245091  1
  O2-  O212  1  0.66187510  0.20645972  0.93620583  1
  O2-  O213  1  0.66946077  0.70653029  0.26598966  1
  O2-  O214  1  0.66453205  0.70809789  0.60680216  1
  O2-  O215  1  0.66760465  0.70421968  0.93050957  1
  O2-  O216  1  0.07804340  0.45529666  0.06621115  1
  O2-  O217  1  0.08269967  0.45695813  0.40004629  1
  O2-  O218  1  0.08584582  0.45479792  0.72650044  1
  O2-  O219  1  0.07982925  0.95607388  0.05911529  1
  O2-  O220  1  0.08334353  0.96162894  0.39694306  1
  O2-  O221  1  0.08055686  0.95779148  0.73390500  1
  O2-  O222  1  0.58365976  0.45557658  0.06932378  1
  O2-  O223  1  0.58742228  0.45154287  0.39777374  1
  O2-  O224  1  0.58774348  0.45397851  0.72828044  1
  O2-  O225  1  0.58662589  0.96435271  0.06895992  1
  O2-  O226  1  0.58566753  0.95875224  0.40349264  1
  O2-  O227  1  0.58337461  0.96254726  0.73648195  1
  O2-  O228  1  0.20724537  0.33223085  0.06692195  1
  O2-  O229  1  0.19833230  0.33480060  0.39952926  1
  O2-  O230  1  0.20150620  0.33212996  0.72486893  1
  O2-  O231  1  0.19676987  0.83531447  0.06126166  1
  O2-  O232  1  0.19193482  0.83260340  0.39128433  1
  O2-  O233  1  0.21009885  0.83585513  0.73584857  1
  O2-  O234  1  0.71090892  0.33055635  0.06954067  1
  O2-  O235  1  0.70911449  0.33525582  0.39873946  1
  O2-  O236  1  0.70119926  0.33042807  0.72353925  1
  O2-  O237  1  0.70931378  0.82920796  0.06679278  1
  O2-  O238  1  0.71581820  0.83201126  0.40184825  1
  O2-  O239  1  0.70953691  0.83398372  0.73676867  1
  O2-  O240  1  0.45756924  0.41751819  0.26485762  1
  O2-  O241  1  0.46097644  0.41296743  0.60454639  1
  O2-  O242  1  0.45923302  0.41172033  0.93704423  1
  O2-  O243  1  0.45545859  0.91970647  0.27147498  1
  O2-  O244  1  0.45758462  0.91386626  0.60564167  1
  O2-  O245  1  0.46396688  0.92064450  0.92921600  1
  O2-  O246  1  0.95669356  0.41421566  0.27124862  1
  O2-  O247  1  0.96192864  0.41803658  0.59544550  1
  O2-  O248  1  0.95076833  0.42082069  0.93496272  1
  O2-  O249  1  0.95490244  0.91900533  0.26785474  1
  O2-  O250  1  0.95256784  0.91394082  0.60589072  1
  O2-  O251  1  0.94904784  0.92105786  0.92914127  1
  O2-  O252  1  0.32589636  0.29509835  0.26886110  1
  O2-  O253  1  0.33721799  0.29806322  0.60405135  1
  O2-  O254  1  0.33943163  0.29149694  0.93639685  1
  O2-  O255  1  0.32623707  0.79747915  0.26939101  1
  O2-  O256  1  0.33679383  0.79382622  0.60558122  1
  O2-  O257  1  0.32896558  0.80272163  0.93307804  1
  O2-  O258  1  0.83647338  0.29690762  0.27319700  1
  O2-  O259  1  0.83325945  0.29125375  0.59481097  1
  O2-  O260  1  0.83073539  0.28763010  0.93139445  1
  O2-  O261  1  0.83748138  0.78441613  0.26716163  1
  O2-  O262  1  0.83590338  0.78824011  0.60573303  1
  O2-  O263  1  0.83047176  0.78825207  0.92965885  1
  O2-  O264  1  0.41635044  0.04013551  0.06746614  1
  O2-  O265  1  0.41682053  0.04283173  0.40432866  1
  O2-  O266  1  0.41362388  0.04579346  0.73009683  1
  O2-  O267  1  0.41882823  0.54192660  0.06806946  1
  O2-  O268  1  0.41805335  0.53827989  0.40203088  1
  O2-  O269  1  0.41982279  0.53971389  0.73453050  1
  O2-  O270  1  0.91883488  0.05264671  0.05679235  1
  O2-  O271  1  0.91699567  0.04910318  0.39801271  1
  O2-  O272  1  0.91632002  0.05221149  0.72790281  1
  O2-  O273  1  0.91534949  0.54735327  0.06491126  1
  O2-  O274  1  0.91210221  0.53965147  0.39852954  1
  O2-  O275  1  0.92081417  0.54227810  0.73195135  1
  O2-  O276  1  0.29101688  0.16679933  0.06789149  1
  O2-  O277  1  0.28591741  0.16570918  0.40396860  1
  O2-  O278  1  0.29903458  0.16884383  0.72577234  1
  O2-  O279  1  0.29374086  0.67433733  0.06589855  1
  O2-  O280  1  0.28976756  0.66738584  0.40433189  1
  O2-  O281  1  0.29190956  0.66622673  0.73384932  1
  O2-  O282  1  0.79240664  0.16275334  0.06434695  1
  O2-  O283  1  0.79718781  0.16763846  0.39777045  1
  O2-  O284  1  0.79328741  0.16747647  0.72802486  1
  O2-  O285  1  0.79388761  0.66399216  0.06448146  1
  O2-  O286  1  0.79309990  0.65982755  0.39597785  1
  O2-  O287  1  0.79005616  0.66329514  0.73786984  1
