# generated using pymatgen
data_Ca2Al2SiO7
_symmetry_space_group_name_H-M   'P 1'
_cell_length_a   15.45537186
_cell_length_b   15.45563175
_cell_length_c   15.28193242
_cell_angle_alpha   90.01082453
_cell_angle_beta   89.99512014
_cell_angle_gamma   89.98362602
_symmetry_Int_Tables_number   1
_chemical_formula_structural   Ca2Al2SiO7
_chemical_formula_sum   'Ca48 Al48 Si24 O168'
_cell_volume   3650.43372596
_cell_formula_units_Z   24
loop_
 _symmetry_equiv_pos_site_id
 _symmetry_equiv_pos_as_xyz
  1  'x, y, z'
loop_
 _atom_type_symbol
 _atom_type_oxidation_number
  Ca2+  2.0
  Al0+  0.0
  Si0+  0.0
  O2-  -2.0
loop_
 _atom_site_type_symbol
 _atom_site_label
 _atom_site_symmetry_multiplicity
 _atom_site_fract_x
 _atom_site_fract_y
 _atom_site_fract_z
 _atom_site_occupancy
  Ca2+  Ca0  1  0.16711392  0.07418191  0.16586072  1
  Ca2+  Ca1  1  0.17222980  0.07235658  0.50560267  1
  Ca2+  Ca2  1  0.16932208  0.07282232  0.84482720  1
  Ca2+  Ca3  1  0.17216175  0.58601716  0.17002292  1
  Ca2+  Ca4  1  0.17817653  0.58677669  0.50132399  1
  Ca2+  Ca5  1  0.16371624  0.58383565  0.83939783  1
  Ca2+  Ca6  1  0.67334095  0.07734812  0.16821346  1
  Ca2+  Ca7  1  0.66043325  0.07723534  0.50310049  1
  Ca2+  Ca8  1  0.67129312  0.08455205  0.83850533  1
  Ca2+  Ca9  1  0.67071401  0.58254305  0.17228462  1
  Ca2+  Ca10  1  0.65235495  0.57392551  0.50376961  1
  Ca2+  Ca11  1  0.66988600  0.58108102  0.83580611  1
  Ca2+  Ca12  1  0.07833400  0.32359675  0.15174816  1
  Ca2+  Ca13  1  0.07551384  0.33478343  0.49761015  1
  Ca2+  Ca14  1  0.07088814  0.32724759  0.83331516  1
  Ca2+  Ca15  1  0.08394786  0.83092276  0.15718079  1
  Ca2+  Ca16  1  0.08034173  0.84413860  0.50037332  1
  Ca2+  Ca17  1  0.07793081  0.83840022  0.83407913  1
  Ca2+  Ca18  1  0.57325131  0.34123552  0.16665807  1
  Ca2+  Ca19  1  0.58862008  0.32916299  0.49509953  1
  Ca2+  Ca20  1  0.58350575  0.32751789  0.82889081  1
  Ca2+  Ca21  1  0.57637009  0.83456262  0.16532748  1
  Ca2+  Ca22  1  0.57444177  0.82387665  0.48846046  1
  Ca2+  Ca23  1  0.57068147  0.83165908  0.82410193  1
  Ca2+  Ca24  1  0.33841985  0.42094286  0.17501479  1
  Ca2+  Ca25  1  0.34612091  0.42493555  0.49763978  1
  Ca2+  Ca26  1  0.33414943  0.41797485  0.84042600  1
  Ca2+  Ca27  1  0.32532292  0.91050623  0.16909717  1
  Ca2+  Ca28  1  0.32459421  0.90259258  0.50407125  1
  Ca2+  Ca29  1  0.32734692  0.91650365  0.84270422  1
  Ca2+  Ca30  1  0.83164236  0.42218295  0.16903342  1
  Ca2+  Ca31  1  0.82152070  0.41770907  0.50911017  1
  Ca2+  Ca32  1  0.83209267  0.41741217  0.84015962  1
  Ca2+  Ca33  1  0.83392582  0.92039701  0.16890958  1
  Ca2+  Ca34  1  0.82655573  0.91423954  0.50358122  1
  Ca2+  Ca35  1  0.83570346  0.91803494  0.84230357  1
  Ca2+  Ca36  1  0.41165542  0.17650548  0.15845065  1
  Ca2+  Ca37  1  0.42304252  0.17277217  0.49652803  1
  Ca2+  Ca38  1  0.41822728  0.16849040  0.83281612  1
  Ca2+  Ca39  1  0.41847539  0.67433773  0.16623245  1
  Ca2+  Ca40  1  0.42357581  0.67231513  0.49398236  1
  Ca2+  Ca41  1  0.42004666  0.67974821  0.82861149  1
  Ca2+  Ca42  1  0.92140985  0.16978833  0.15451229  1
  Ca2+  Ca43  1  0.91448415  0.17286085  0.50074996  1
  Ca2+  Ca44  1  0.91561509  0.17056899  0.83295420  1
  Ca2+  Ca45  1  0.92295997  0.67183008  0.15325113  1
  Ca2+  Ca46  1  0.91734260  0.67363982  0.50014412  1
  Ca2+  Ca47  1  0.91744372  0.67547221  0.83505266  1
  Al0+  Al48  1  -0.00021027  -0.00023653  0.00251497  1
  Al0+  Al49  1  0.00148954  0.00213655  0.33875503  1
  Al0+  Al50  1  0.00109604  0.00023517  0.66595171  1
  Al0+  Al51  1  -0.00058977  0.50015240  -0.00210162  1
  Al0+  Al52  1  -0.00064783  0.50118492  0.33409609  1
  Al0+  Al53  1  -0.00017969  0.49998639  0.66130739  1
  Al0+  Al54  1  0.49899455  0.00128891  0.00042957  1
  Al0+  Al55  1  0.50061537  0.00150659  0.33306191  1
  Al0+  Al56  1  0.49820103  0.00181266  0.65849033  1
  Al0+  Al57  1  0.49945374  0.49920360  -0.00467174  1
  Al0+  Al58  1  0.50185392  0.50018773  0.33356360  1
  Al0+  Al59  1  0.49949895  0.49989372  0.67377301  1
  Al0+  Al60  1  0.24942368  0.24957957  -0.00654690  1
  Al0+  Al61  1  0.24829929  0.24848361  0.33161785  1
  Al0+  Al62  1  0.24938326  0.25041721  0.66610040  1
  Al0+  Al63  1  0.25163263  0.74787567  -0.00451938  1
  Al0+  Al64  1  0.24914627  0.74896464  0.33998318  1
  Al0+  Al65  1  0.24833375  0.74876921  0.67077623  1
  Al0+  Al66  1  0.74720051  0.24942379  0.00491379  1
  Al0+  Al67  1  0.75189370  0.25123779  0.33498139  1
  Al0+  Al68  1  0.74888334  0.25056830  0.66234435  1
  Al0+  Al69  1  0.75001189  0.74645775  0.00200034  1
  Al0+  Al70  1  0.75155580  0.75175568  0.33369849  1
  Al0+  Al71  1  0.75109421  0.74819850  0.65934522  1
  Al0+  Al72  1  0.43065139  0.31882541  0.32109012  1
  Al0+  Al73  1  0.67950690  0.42865345  0.68283474  1
  Al0+  Al74  1  0.93037314  0.82260479  0.65196128  1
  Al0+  Al75  1  0.18109713  0.93011248  0.34866394  1
  Al0+  Al76  1  0.92912682  0.32079869  0.65183019  1
  Al0+  Al77  1  0.57113117  0.67817174  0.65234430  1
  Al0+  Al78  1  0.43088513  0.82165717  0.98691886  1
  Al0+  Al79  1  0.31978945  0.56868386  0.34597075  1
  Al0+  Al80  1  0.57243738  0.67848670  0.31620539  1
  Al0+  Al81  1  0.42698945  0.82129212  0.65106785  1
  Al0+  Al82  1  0.18068903  0.92716097  0.01565146  1
  Al0+  Al83  1  0.92594793  0.32100022  0.98691174  1
  Al0+  Al84  1  0.07263807  0.67879632  0.98596726  1
  Al0+  Al85  1  0.32245329  0.07289385  0.01546252  1
  Al0+  Al86  1  0.82043661  0.07084927  0.01210024  1
  Al0+  Al87  1  0.42635520  0.82152431  0.31692872  1
  Al0+  Al88  1  0.68162490  0.43177238  0.34679863  1
  Al0+  Al89  1  0.57091571  0.18049738  0.65315804  1
  Al0+  Al90  1  0.92726810  0.82158546  0.98792736  1
  Al0+  Al91  1  0.82150260  0.57012637  0.01330986  1
  Al0+  Al92  1  0.07083610  0.17705098  0.98440107  1
  Al0+  Al93  1  0.67866498  0.92954457  0.34724106  1
  Al0+  Al94  1  0.42887115  0.32168790  0.98595291  1
  Al0+  Al95  1  0.17996114  0.92986835  0.68367392  1
  Si0+  Si96  1  0.42603803  0.32251992  0.65070463  1
  Si0+  Si97  1  0.57531340  0.17745945  0.31425289  1
  Si0+  Si98  1  0.07184643  0.67687975  0.64793369  1
  Si0+  Si99  1  0.57257487  0.67678671  0.98301919  1
  Si0+  Si100  1  0.32210305  0.56924027  0.01424187  1
  Si0+  Si101  1  0.17597090  0.42532934  0.34917210  1
  Si0+  Si102  1  0.32247959  0.07561523  0.35079052  1
  Si0+  Si103  1  0.17636102  0.42800937  0.68180560  1
  Si0+  Si104  1  0.67789758  0.92747303  0.67906571  1
  Si0+  Si105  1  0.82261695  0.07175149  0.35241094  1
  Si0+  Si106  1  0.31963351  0.56909674  0.68490010  1
  Si0+  Si107  1  0.06938845  0.17923053  0.31873726  1
  Si0+  Si108  1  0.92880546  0.32186849  0.31776840  1
  Si0+  Si109  1  0.81913207  0.06974507  0.68011713  1
  Si0+  Si110  1  0.07042761  0.67894722  0.32017810  1
  Si0+  Si111  1  0.32345570  0.07471147  0.68323222  1
  Si0+  Si112  1  0.82533460  0.57375881  0.35218120  1
  Si0+  Si113  1  0.57171052  0.17761357  0.98529865  1
  Si0+  Si114  1  0.93081928  0.82305658  0.31920736  1
  Si0+  Si115  1  0.82456475  0.57240052  0.68373186  1
  Si0+  Si116  1  0.17894919  0.42922656  0.01276036  1
  Si0+  Si117  1  0.67673428  0.92586174  0.01413736  1
  Si0+  Si118  1  0.07254805  0.17844921  0.64822541  1
  Si0+  Si119  1  0.67651849  0.42804464  0.01782370  1
  O2-  O120  1  0.25309355  -0.00125719  0.06640569  1
  O2-  O121  1  0.26099869  0.00014424  0.39506958  1
  O2-  O122  1  0.25729803  0.00348897  0.72673137  1
  O2-  O123  1  0.25099622  0.49818544  0.05656262  1
  O2-  O124  1  0.24670622  0.49159281  0.39400012  1
  O2-  O125  1  0.24815023  0.49730224  0.72539184  1
  O2-  O126  1  0.74892075  -0.00779680  0.05741771  1
  O2-  O127  1  0.75180617  0.00535561  0.39625237  1
  O2-  O128  1  0.74986679  -0.00301631  0.72297219  1
  O2-  O129  1  0.74702051  0.49546233  0.06069861  1
  O2-  O130  1  0.75433667  0.50748332  0.39596842  1
  O2-  O131  1  0.75448383  0.50430107  0.72697790  1
  O2-  O132  1  0.00173000  0.25328391  0.27636632  1
  O2-  O133  1  0.00492482  0.24794407  0.60293503  1
  O2-  O134  1  -0.00544658  0.24611594  0.93630170  1
  O2-  O135  1  -0.00033493  0.74983780  0.27814723  1
  O2-  O136  1  0.00541984  0.74814652  0.60418202  1
  O2-  O137  1  0.00176738  0.75248282  0.93734057  1
  O2-  O138  1  0.50337639  0.24357564  0.27156510  1
  O2-  O139  1  0.49552511  0.25496209  0.60692537  1
  O2-  O140  1  0.50218754  0.24549160  0.94099542  1
  O2-  O141  1  0.50194002  0.75263821  0.26716709  1
  O2-  O142  1  0.50231853  0.75260554  0.60180055  1
  O2-  O143  1  0.50864663  0.75024623  0.94014517  1
  O2-  O144  1  0.07031681  0.18045385  0.09882065  1
  O2-  O145  1  0.06769364  0.17971611  0.42411257  1
  O2-  O146  1  0.07163536  0.17911443  0.75313232  1
  O2-  O147  1  0.07228101  0.67786610  0.10028590  1
  O2-  O148  1  0.06896476  0.67678695  0.42532041  1
  O2-  O149  1  0.07031508  0.67359192  0.75292598  1
  O2-  O150  1  0.57349486  0.17856963  0.09069600  1
  O2-  O151  1  0.57612632  0.17987612  0.42014181  1
  O2-  O152  1  0.57248876  0.18106175  0.76618232  1
  O2-  O153  1  0.57060748  0.67391964  0.08843166  1
  O2-  O154  1  0.56860721  0.67718182  0.42967199  1
  O2-  O155  1  0.56957887  0.68026213  0.76627505  1
  O2-  O156  1  0.17369315  0.42640765  0.24369357  1
  O2-  O157  1  0.17582817  0.42898817  0.57649960  1
  O2-  O158  1  0.17975057  0.43130430  0.90732024  1
  O2-  O159  1  0.17619525  0.93092105  0.23631544  1
  O2-  O160  1  0.17973472  0.93280300  0.57000236  1
  O2-  O161  1  0.18223254  0.92834660  0.90210568  1
  O2-  O162  1  0.68444982  0.43106445  0.23374853  1
  O2-  O163  1  0.68028310  0.42842265  0.56952314  1
  O2-  O164  1  0.67576162  0.42808007  0.91219305  1
  O2-  O165  1  0.68291382  0.93125029  0.23401521  1
  O2-  O166  1  0.68034401  0.93017670  0.57404048  1
  O2-  O167  1  0.67583004  0.92779237  0.90809207  1
  O2-  O168  1  0.43071242  0.32488276  0.09918528  1
  O2-  O169  1  0.43230991  0.31777362  0.43435580  1
  O2-  O170  1  0.42473369  0.32064404  0.75623259  1
  O2-  O171  1  0.43009733  0.81861507  0.09983443  1
  O2-  O172  1  0.42552018  0.81623208  0.43034627  1
  O2-  O173  1  0.42845030  0.82039023  0.76496119  1
  O2-  O174  1  0.93031271  0.32100137  0.10109848  1
  O2-  O175  1  0.92942544  0.32076520  0.42309298  1
  O2-  O176  1  0.92950114  0.31910714  0.76436711  1
  O2-  O177  1  0.92726832  0.81912551  0.10203888  1
  O2-  O178  1  0.93238751  0.82313717  0.42460755  1
  O2-  O179  1  0.92900182  0.82320123  0.76441008  1
  O2-  O180  1  0.31672003  0.08158149  0.24599738  1
  O2-  O181  1  0.32017402  0.08013548  0.57761707  1
  O2-  O182  1  0.32251886  0.07175225  0.90162815  1
  O2-  O183  1  0.31677856  0.56823527  0.23270549  1
  O2-  O184  1  0.31976433  0.56800929  0.57957011  1
  O2-  O185  1  0.32225871  0.56715880  0.90892136  1
  O2-  O186  1  0.82510596  0.07110206  0.24698201  1
  O2-  O187  1  0.81857350  0.06934794  0.57471334  1
  O2-  O188  1  0.81633881  0.07316307  0.89861129  1
  O2-  O189  1  0.82987136  0.57031104  0.24680540  1
  O2-  O190  1  0.82809698  0.57002408  0.57801913  1
  O2-  O191  1  0.81937709  0.57060650  0.90019186  1
  O2-  O192  1  0.03718615  0.08870738  0.27175964  1
  O2-  O193  1  0.04404435  0.08631435  0.60096693  1
  O2-  O194  1  0.04417968  0.07858027  0.93307327  1
  O2-  O195  1  0.04438375  0.58645865  0.27207765  1
  O2-  O196  1  0.04584976  0.58477322  0.59826612  1
  O2-  O197  1  0.04267996  0.58151650  0.93190511  1
  O2-  O198  1  0.55413792  0.08278753  0.26973940  1
  O2-  O199  1  0.54098746  0.08568751  0.59458609  1
  O2-  O200  1  0.54889802  0.08439834  0.93732515  1
  O2-  O201  1  0.54271220  0.58062006  0.26368163  1
  O2-  O202  1  0.53675150  0.57941793  0.60318905  1
  O2-  O203  1  0.54212447  0.58575031  0.93443557  1
  O2-  O204  1  0.16147885  0.20332996  0.27092905  1
  O2-  O205  1  0.16607203  0.20486892  0.60148157  1
  O2-  O206  1  0.16594373  0.20937982  0.92816075  1
  O2-  O207  1  0.16222881  0.70659317  0.27430040  1
  O2-  O208  1  0.16645506  0.70139554  0.60405576  1
  O2-  O209  1  0.17056146  0.70267865  0.93047377  1
  O2-  O210  1  0.66917226  0.20568728  0.26976902  1
  O2-  O211  1  0.66535096  0.21147612  0.59514230  1
  O2-  O212  1  0.66403538  0.20580642  0.93794187  1
  O2-  O213  1  0.67320192  0.70554905  0.26648662  1
  O2-  O214  1  0.67070537  0.69804866  0.59880244  1
  O2-  O215  1  0.66768663  0.69689696  0.93882862  1
  O2-  O216  1  0.08809030  0.45714895  0.06176655  1
  O2-  O217  1  0.08322246  0.45445075  0.39663342  1
  O2-  O218  1  0.08472317  0.45752755  0.72847423  1
  O2-  O219  1  0.08164105  0.95442218  0.06802370  1
  O2-  O220  1  0.08637251  0.96705290  0.40465490  1
  O2-  O221  1  0.08266538  0.96304211  0.73517211  1
  O2-  O222  1  0.58319146  0.45829459  0.06269286  1
  O2-  O223  1  0.58472547  0.45929016  0.40162103  1
  O2-  O224  1  0.58271856  0.45700153  0.73829729  1
  O2-  O225  1  0.58564899  0.95610932  0.06242355  1
  O2-  O226  1  0.58154175  0.95921899  0.40194798  1
  O2-  O227  1  0.58521937  0.95745615  0.72372549  1
  O2-  O228  1  0.20509636  0.33663113  0.05856343  1
  O2-  O229  1  0.19788805  0.33092140  0.39526385  1
  O2-  O230  1  0.20268510  0.33541708  0.72853098  1
  O2-  O231  1  0.21023442  0.82718794  0.06604668  1
  O2-  O232  1  0.20586997  0.83266280  0.40450886  1
  O2-  O233  1  0.20528605  0.83096224  0.73530642  1
  O2-  O234  1  0.69795691  0.33453232  0.06549816  1
  O2-  O235  1  0.71384596  0.33471777  0.40074875  1
  O2-  O236  1  0.71221369  0.33144732  0.73456434  1
  O2-  O237  1  0.69860066  0.83162917  0.06006406  1
  O2-  O238  1  0.71164135  0.83365987  0.40219447  1
  O2-  O239  1  0.70425956  0.83425424  0.72379754  1
  O2-  O240  1  0.46298894  0.41466882  0.26701804  1
  O2-  O241  1  0.45206355  0.41715902  0.60860371  1
  O2-  O242  1  0.46040076  0.41665035  0.92869171  1
  O2-  O243  1  0.45102788  0.92295246  0.26863246  1
  O2-  O244  1  0.44783419  0.92109918  0.59864713  1
  O2-  O245  1  0.45823780  0.91929690  0.93324867  1
  O2-  O246  1  0.95388452  0.41554146  0.27285752  1
  O2-  O247  1  0.96046683  0.41636021  0.59536892  1
  O2-  O248  1  0.95852605  0.41679170  0.93246850  1
  O2-  O249  1  0.96053011  0.91558219  0.27462080  1
  O2-  O250  1  0.96181483  0.91873248  0.59618916  1
  O2-  O251  1  0.95161231  0.92070861  0.93610979  1
  O2-  O252  1  0.33114916  0.29319911  0.26897070  1
  O2-  O253  1  0.33233864  0.29862336  0.60317049  1
  O2-  O254  1  0.33295318  0.29434674  0.92978744  1
  O2-  O255  1  0.32776320  0.78722264  0.26731996  1
  O2-  O256  1  0.32897118  0.78633067  0.60154435  1
  O2-  O257  1  0.33736310  0.78573419  0.93103306  1
  O2-  O258  1  0.83810680  0.29227098  0.27010764  1
  O2-  O259  1  0.83486308  0.28684222  0.59566298  1
  O2-  O260  1  0.82558754  0.29541155  0.93763296  1
  O2-  O261  1  0.83845086  0.79891358  0.27259340  1
  O2-  O262  1  0.83502632  0.79134357  0.59498485  1
  O2-  O263  1  0.82936565  0.79067366  0.93443171  1
  O2-  O264  1  0.42269435  0.05069493  0.06766623  1
  O2-  O265  1  0.41979317  0.05941079  0.39220570  1
  O2-  O266  1  0.41922146  0.05230823  0.72617179  1
  O2-  O267  1  0.41375120  0.54018735  0.06117741  1
  O2-  O268  1  0.41542792  0.53658978  0.40095666  1
  O2-  O269  1  0.40969372  0.54118075  0.73533064  1
  O2-  O270  1  0.91649856  0.04389140  0.06888401  1
  O2-  O271  1  0.91442042  0.04417977  0.40149971  1
  O2-  O272  1  0.91210210  0.04444830  0.72578348  1
  O2-  O273  1  0.91805997  0.53908205  0.06844860  1
  O2-  O274  1  0.91792368  0.54575786  0.40066660  1
  O2-  O275  1  0.91817196  0.54462111  0.72861646  1
  O2-  O276  1  0.29101644  0.17233693  0.06577165  1
  O2-  O277  1  0.28905915  0.16583674  0.40103036  1
  O2-  O278  1  0.29639406  0.16838743  0.72983252  1
  O2-  O279  1  0.29376752  0.66039717  0.06144321  1
  O2-  O280  1  0.28527144  0.66154662  0.40486754  1
  O2-  O281  1  0.28982598  0.65969447  0.73321365  1
  O2-  O282  1  0.78708135  0.16527069  0.07083337  1
  O2-  O283  1  0.79881161  0.16655425  0.39728187  1
  O2-  O284  1  0.78871163  0.16106213  0.72606457  1
  O2-  O285  1  0.79147437  0.66567165  0.07097201  1
  O2-  O286  1  0.80419456  0.66929689  0.39529516  1
  O2-  O287  1  0.79892892  0.66719483  0.72740326  1
