# generated using pymatgen
data_Ca2Al2SiO7
_symmetry_space_group_name_H-M   'P 1'
_cell_length_a   15.46787334
_cell_length_b   15.46812927
_cell_length_c   15.29031050
_cell_angle_alpha   89.99693385
_cell_angle_beta   90.00218236
_cell_angle_gamma   89.97579020
_symmetry_Int_Tables_number   1
_chemical_formula_structural   Ca2Al2SiO7
_chemical_formula_sum   'Ca48 Al48 Si24 O168'
_cell_volume   3658.34505072
_cell_formula_units_Z   24
loop_
 _symmetry_equiv_pos_site_id
 _symmetry_equiv_pos_as_xyz
  1  'x, y, z'
loop_
 _atom_type_symbol
 _atom_type_oxidation_number
  Ca2+  2.0
  Al0+  0.0
  Si0+  0.0
  O2-  -2.0
loop_
 _atom_site_type_symbol
 _atom_site_label
 _atom_site_symmetry_multiplicity
 _atom_site_fract_x
 _atom_site_fract_y
 _atom_site_fract_z
 _atom_site_occupancy
  Ca2+  Ca0  1  0.16337444  0.08454405  0.16495544  1
  Ca2+  Ca1  1  0.16536927  0.08618499  0.50126568  1
  Ca2+  Ca2  1  0.17204150  0.08109242  0.84779851  1
  Ca2+  Ca3  1  0.16387474  0.57794808  0.17218056  1
  Ca2+  Ca4  1  0.17834529  0.58803777  0.50207462  1
  Ca2+  Ca5  1  0.17151713  0.57887864  0.84326581  1
  Ca2+  Ca6  1  0.67586121  0.09421810  0.16813781  1
  Ca2+  Ca7  1  0.67032241  0.08306513  0.50368938  1
  Ca2+  Ca8  1  0.66955104  0.07120143  0.84776333  1
  Ca2+  Ca9  1  0.66659300  0.58333904  0.16668009  1
  Ca2+  Ca10  1  0.66310283  0.57662698  0.51151997  1
  Ca2+  Ca11  1  0.65868235  0.57948569  0.83616439  1
  Ca2+  Ca12  1  0.08051446  0.32479732  0.15471408  1
  Ca2+  Ca13  1  0.08048198  0.32645779  0.49395606  1
  Ca2+  Ca14  1  0.08229157  0.33235154  0.84013193  1
  Ca2+  Ca15  1  0.08268276  0.82358230  0.15537136  1
  Ca2+  Ca16  1  0.07736370  0.82882299  0.49441477  1
  Ca2+  Ca17  1  0.07091671  0.84538635  0.83529439  1
  Ca2+  Ca18  1  0.57238191  0.32290212  0.16204647  1
  Ca2+  Ca19  1  0.57520276  0.33579848  0.49552425  1
  Ca2+  Ca20  1  0.57402685  0.32840533  0.83075324  1
  Ca2+  Ca21  1  0.58719835  0.82597369  0.15639012  1
  Ca2+  Ca22  1  0.58692980  0.82974059  0.50440839  1
  Ca2+  Ca23  1  0.59582274  0.82419966  0.83010139  1
  Ca2+  Ca24  1  0.33381365  0.41714065  0.16737115  1
  Ca2+  Ca25  1  0.34107898  0.42412588  0.50452616  1
  Ca2+  Ca26  1  0.33422640  0.41758465  0.83832436  1
  Ca2+  Ca27  1  0.33145972  0.92419135  0.16195388  1
  Ca2+  Ca28  1  0.33066612  0.92032131  0.50360529  1
  Ca2+  Ca29  1  0.32565413  0.92390236  0.84637277  1
  Ca2+  Ca30  1  0.83457874  0.41250905  0.16766896  1
  Ca2+  Ca31  1  0.82375489  0.41943028  0.50718574  1
  Ca2+  Ca32  1  0.82814856  0.41500232  0.84088098  1
  Ca2+  Ca33  1  0.83337862  0.92508284  0.16333278  1
  Ca2+  Ca34  1  0.83022707  0.92192055  0.50619395  1
  Ca2+  Ca35  1  0.82860118  0.91448843  0.84203490  1
  Ca2+  Ca36  1  0.42248411  0.17297499  0.15451134  1
  Ca2+  Ca37  1  0.42413145  0.18197641  0.48943611  1
  Ca2+  Ca38  1  0.41134112  0.17558393  0.83296953  1
  Ca2+  Ca39  1  0.42017943  0.66554344  0.16243276  1
  Ca2+  Ca40  1  0.41887957  0.65885710  0.49869417  1
  Ca2+  Ca41  1  0.42534127  0.66375291  0.83009056  1
  Ca2+  Ca42  1  0.92206981  0.16463167  0.15847326  1
  Ca2+  Ca43  1  0.91969223  0.16553864  0.49146134  1
  Ca2+  Ca44  1  0.91880367  0.16123957  0.84059837  1
  Ca2+  Ca45  1  0.92831622  0.67152203  0.15483278  1
  Ca2+  Ca46  1  0.91863717  0.67661441  0.49536231  1
  Ca2+  Ca47  1  0.92418767  0.67784104  0.83350550  1
  Al0+  Al48  1  -0.00094312  -0.00093240  0.00072617  1
  Al0+  Al49  1  -0.00246935  0.00021211  0.33545202  1
  Al0+  Al50  1  0.00018158  -0.00032482  0.66046805  1
  Al0+  Al51  1  0.00031733  0.49994919  -0.00394160  1
  Al0+  Al52  1  -0.00055783  0.50117608  0.33509813  1
  Al0+  Al53  1  0.00191205  0.49858055  0.66388132  1
  Al0+  Al54  1  0.49945125  -0.00296465  0.00578683  1
  Al0+  Al55  1  0.50004324  -0.00152300  0.33280564  1
  Al0+  Al56  1  0.50126796  -0.00085459  0.67013921  1
  Al0+  Al57  1  0.50051157  0.49908202  -0.00473597  1
  Al0+  Al58  1  0.49927469  0.50104865  0.33228146  1
  Al0+  Al59  1  0.50015145  0.49979750  0.66802744  1
  Al0+  Al60  1  0.24937906  0.25295314  0.00042127  1
  Al0+  Al61  1  0.24804812  0.25127271  0.32836515  1
  Al0+  Al62  1  0.25057686  0.25156587  0.66035082  1
  Al0+  Al63  1  0.25367558  0.74832666  0.00012570  1
  Al0+  Al64  1  0.25017699  0.74926299  0.33459060  1
  Al0+  Al65  1  0.25081596  0.75090912  0.67241031  1
  Al0+  Al66  1  0.74758045  0.24989567  -0.00284125  1
  Al0+  Al67  1  0.74881241  0.25062762  0.33830948  1
  Al0+  Al68  1  0.75197437  0.25012110  0.67155064  1
  Al0+  Al69  1  0.75223908  0.74754806  -0.00264825  1
  Al0+  Al70  1  0.74923375  0.75166422  0.33427777  1
  Al0+  Al71  1  0.75244156  0.75029986  0.65894994  1
  Al0+  Al72  1  0.93126495  0.82055653  0.98623524  1
  Al0+  Al73  1  0.67904322  0.92463045  0.01586191  1
  Al0+  Al74  1  0.42906309  0.32363936  0.31706469  1
  Al0+  Al75  1  0.32079955  0.07319342  0.01506979  1
  Al0+  Al76  1  0.57094453  0.17535130  0.98429795  1
  Al0+  Al77  1  0.07035935  0.17863647  0.98523861  1
  Al0+  Al78  1  0.56851745  0.68060468  0.65248809  1
  Al0+  Al79  1  0.07531463  0.67725969  0.98451109  1
  Al0+  Al80  1  0.43057674  0.31946121  0.65090213  1
  Al0+  Al81  1  0.81885517  0.07005558  0.34857815  1
  Al0+  Al82  1  0.07109371  0.68040423  0.32073143  1
  Al0+  Al83  1  0.68061920  0.92937082  0.68013377  1
  Al0+  Al84  1  0.17786677  0.43152147  0.01386464  1
  Al0+  Al85  1  0.17790391  0.92764438  0.01520912  1
  Al0+  Al86  1  0.32018104  0.57083417  0.68204831  1
  Al0+  Al87  1  0.67981515  0.42957228  0.68195977  1
  Al0+  Al88  1  0.81862819  0.07203081  0.01545977  1
  Al0+  Al89  1  0.31955464  0.56977538  0.34680779  1
  Al0+  Al90  1  0.93103552  0.82040877  0.64985034  1
  Al0+  Al91  1  0.06939556  0.17841348  0.31971598  1
  Al0+  Al92  1  0.57134937  0.68001565  0.98705905  1
  Al0+  Al93  1  0.57167112  0.17768735  0.31973036  1
  Al0+  Al94  1  0.42859874  0.31991293  0.98350564  1
  Al0+  Al95  1  0.92689679  0.32176366  0.98555133  1
  Si0+  Si96  1  0.42808789  0.82189263  0.98359127  1
  Si0+  Si97  1  0.32446412  0.57017767  0.01710625  1
  Si0+  Si98  1  0.68024561  0.43275979  0.34773687  1
  Si0+  Si99  1  0.07460226  0.67626242  0.64947274  1
  Si0+  Si100  1  0.18007417  0.92999211  0.34867203  1
  Si0+  Si101  1  0.82466448  0.07173297  0.68416240  1
  Si0+  Si102  1  0.57379980  0.17568197  0.65144119  1
  Si0+  Si103  1  0.17753572  0.42571099  0.68297835  1
  Si0+  Si104  1  0.92679771  0.32269329  0.65027337  1
  Si0+  Si105  1  0.17844976  0.93083057  0.67958011  1
  Si0+  Si106  1  0.42539371  0.82429658  0.65034231  1
  Si0+  Si107  1  0.06951205  0.18051929  0.65143099  1
  Si0+  Si108  1  0.42741769  0.82161423  0.31945687  1
  Si0+  Si109  1  0.82428954  0.57208364  0.68259450  1
  Si0+  Si110  1  0.31996322  0.07238663  0.67784724  1
  Si0+  Si111  1  0.92677676  0.82173823  0.31537287  1
  Si0+  Si112  1  0.92714851  0.32278000  0.32018631  1
  Si0+  Si113  1  0.67723354  0.42902784  0.01620761  1
  Si0+  Si114  1  0.82079543  0.56883654  0.01401143  1
  Si0+  Si115  1  0.32180653  0.07302952  0.34872119  1
  Si0+  Si116  1  0.17534750  0.42673694  0.35137826  1
  Si0+  Si117  1  0.67556080  0.92421083  0.35281359  1
  Si0+  Si118  1  0.82226399  0.57394876  0.34842988  1
  Si0+  Si119  1  0.57100862  0.68021775  0.31982698  1
  O2-  O120  1  0.24675385  0.00264991  0.06562648  1
  O2-  O121  1  0.24892179  0.00342433  0.39226759  1
  O2-  O122  1  0.25214006  -0.00109883  0.72023567  1
  O2-  O123  1  0.25139973  0.50692825  0.06147485  1
  O2-  O124  1  0.24592696  0.49410780  0.39493365  1
  O2-  O125  1  0.24283724  0.49791004  0.72587320  1
  O2-  O126  1  0.74439030  0.00227049  0.06636766  1
  O2-  O127  1  0.74239782  -0.00375587  0.39456150  1
  O2-  O128  1  0.75224779  0.00669773  0.72611711  1
  O2-  O129  1  0.75144635  0.49695398  0.05858734  1
  O2-  O130  1  0.75094073  0.50383391  0.39115754  1
  O2-  O131  1  0.75617072  0.50359145  0.72785943  1
  O2-  O132  1  -0.00328235  0.25595626  0.27630842  1
  O2-  O133  1  -0.00275655  0.25050210  0.60917279  1
  O2-  O134  1  -0.00296806  0.24868251  0.93402149  1
  O2-  O135  1  -0.00565144  0.75165199  0.27310544  1
  O2-  O136  1  0.00520159  0.74402824  0.60440811  1
  O2-  O137  1  0.00887328  0.75452623  0.93524694  1
  O2-  O138  1  0.49413788  0.24392279  0.27039263  1
  O2-  O139  1  0.50683229  0.24529781  0.60554360  1
  O2-  O140  1  0.49648125  0.24401114  0.93331519  1
  O2-  O141  1  0.50300971  0.75415346  0.27903501  1
  O2-  O142  1  0.49296962  0.75466447  0.60500855  1
  O2-  O143  1  0.50075524  0.75764940  0.93968077  1
  O2-  O144  1  0.06837611  0.18038010  0.09868295  1
  O2-  O145  1  0.06792636  0.17959787  0.43403244  1
  O2-  O146  1  0.07103713  0.17897598  0.75554696  1
  O2-  O147  1  0.07054460  0.67640270  0.09850670  1
  O2-  O148  1  0.07049382  0.68420111  0.43428227  1
  O2-  O149  1  0.07329803  0.67499599  0.75421463  1
  O2-  O150  1  0.57160751  0.18198120  0.09792988  1
  O2-  O151  1  0.57141218  0.18070694  0.43408524  1
  O2-  O152  1  0.57069627  0.17511744  0.75621892  1
  O2-  O153  1  0.56955260  0.67804531  0.10105489  1
  O2-  O154  1  0.57105718  0.67863042  0.42483243  1
  O2-  O155  1  0.56840196  0.68132733  0.76492711  1
  O2-  O156  1  0.17106082  0.42911391  0.24652982  1
  O2-  O157  1  0.17682109  0.42334586  0.57714801  1
  O2-  O158  1  0.17833181  0.43315139  0.90044120  1
  O2-  O159  1  0.18171890  0.92811324  0.24451640  1
  O2-  O160  1  0.17829264  0.93214490  0.57373494  1
  O2-  O161  1  0.18069622  0.93004550  0.90077274  1
  O2-  O162  1  0.68155764  0.43456780  0.24279768  1
  O2-  O163  1  0.68158862  0.43150992  0.56780967  1
  O2-  O164  1  0.67647804  0.43206041  0.91121072  1
  O2-  O165  1  0.67728541  0.91493250  0.24861776  1
  O2-  O166  1  0.68145252  0.93158605  0.56650664  1
  O2-  O167  1  0.68454936  0.92237212  0.90213253  1
  O2-  O168  1  0.43230138  0.32328789  0.09692801  1
  O2-  O169  1  0.43365181  0.32548703  0.43122590  1
  O2-  O170  1  0.42661744  0.31674886  0.76298812  1
  O2-  O171  1  0.42574120  0.81784166  0.08965347  1
  O2-  O172  1  0.42566291  0.82205372  0.42477510  1
  O2-  O173  1  0.42299706  0.82574164  0.75498043  1
  O2-  O174  1  0.92909695  0.32285304  0.09956042  1
  O2-  O175  1  0.92751767  0.32224424  0.42648054  1
  O2-  O176  1  0.92608851  0.32581250  0.75424552  1
  O2-  O177  1  0.92922366  0.81563322  0.09989069  1
  O2-  O178  1  0.92795672  0.82035344  0.42160472  1
  O2-  O179  1  0.93327016  0.82294838  0.76197933  1
  O2-  O180  1  0.32300657  0.07049716  0.24464410  1
  O2-  O181  1  0.31706870  0.07173073  0.57219568  1
  O2-  O182  1  0.31877853  0.07073337  0.90043438  1
  O2-  O183  1  0.32084477  0.57092083  0.23445155  1
  O2-  O184  1  0.31909693  0.57014806  0.56834264  1
  O2-  O185  1  0.32644495  0.56752805  0.91149098  1
  O2-  O186  1  0.82031360  0.07051750  0.23664570  1
  O2-  O187  1  0.82614992  0.07104851  0.57799830  1
  O2-  O188  1  0.81869635  0.06987855  0.90161099  1
  O2-  O189  1  0.82170099  0.57457365  0.24360554  1
  O2-  O190  1  0.82300813  0.56923190  0.57607628  1
  O2-  O191  1  0.81937338  0.56866773  0.90904994  1
  O2-  O192  1  0.03787993  0.08150885  0.26857078  1
  O2-  O193  1  0.04265844  0.08942905  0.60120037  1
  O2-  O194  1  0.04409263  0.07978685  0.93252420  1
  O2-  O195  1  0.04188418  0.58217429  0.26987011  1
  O2-  O196  1  0.05226227  0.58168429  0.60260430  1
  O2-  O197  1  0.03962868  0.58305193  0.92928791  1
  O2-  O198  1  0.55236096  0.07571803  0.27132922  1
  O2-  O199  1  0.54795893  0.08204561  0.60479825  1
  O2-  O200  1  0.54771065  0.07343183  0.93750248  1
  O2-  O201  1  0.54138729  0.59016585  0.27102192  1
  O2-  O202  1  0.53718051  0.58425063  0.59816186  1
  O2-  O203  1  0.53766186  0.58541942  0.93181239  1
  O2-  O204  1  0.16675422  0.20377899  0.26665318  1
  O2-  O205  1  0.15993088  0.20962803  0.60098058  1
  O2-  O206  1  0.16760025  0.20969218  0.93222715  1
  O2-  O207  1  0.16710927  0.71218340  0.26763071  1
  O2-  O208  1  0.16806585  0.70640358  0.60490923  1
  O2-  O209  1  0.17680924  0.69704016  0.93586598  1
  O2-  O210  1  0.66845638  0.21367302  0.26891528  1
  O2-  O211  1  0.66970492  0.20019085  0.60867099  1
  O2-  O212  1  0.66728494  0.20637304  0.93010007  1
  O2-  O213  1  0.66420396  0.70466049  0.27303047  1
  O2-  O214  1  0.66508237  0.70964583  0.59636758  1
  O2-  O215  1  0.66845331  0.70539617  0.93236983  1
  O2-  O216  1  0.08067058  0.46144676  0.06785756  1
  O2-  O217  1  0.08207557  0.45339171  0.39992296  1
  O2-  O218  1  0.08183625  0.44702159  0.72676752  1
  O2-  O219  1  0.07881803  0.95099472  0.06755965  1
  O2-  O220  1  0.08762564  0.95624892  0.39666989  1
  O2-  O221  1  0.08771359  0.96319732  0.72544511  1
  O2-  O222  1  0.58785891  0.46317541  0.06436548  1
  O2-  O223  1  0.58941062  0.46355722  0.39542129  1
  O2-  O224  1  0.58471859  0.46255390  0.73558609  1
  O2-  O225  1  0.57743309  0.94120108  0.06603974  1
  O2-  O226  1  0.58018529  0.94594132  0.39792552  1
  O2-  O227  1  0.58184071  0.95249712  0.73373003  1
  O2-  O228  1  0.20765229  0.33556786  0.06839688  1
  O2-  O229  1  0.19872288  0.33176969  0.39652952  1
  O2-  O230  1  0.20734821  0.33304740  0.72828324  1
  O2-  O231  1  0.21092610  0.82940622  0.06711022  1
  O2-  O232  1  0.21173680  0.84010250  0.39852350  1
  O2-  O233  1  0.20100883  0.83872322  0.72730209  1
  O2-  O234  1  0.70289402  0.33715102  0.06324717  1
  O2-  O235  1  0.70753844  0.34231013  0.39804915  1
  O2-  O236  1  0.70923567  0.33264350  0.73547534  1
  O2-  O237  1  0.71323035  0.82707735  0.06877912  1
  O2-  O238  1  0.70497024  0.83204587  0.40246337  1
  O2-  O239  1  0.71482522  0.83159736  0.72889362  1
  O2-  O240  1  0.46432801  0.41944110  0.26360721  1
  O2-  O241  1  0.46368230  0.41598118  0.59863919  1
  O2-  O242  1  0.46307560  0.41587108  0.92944852  1
  O2-  O243  1  0.45021591  0.91411620  0.27188816  1
  O2-  O244  1  0.45303363  0.91744342  0.60253818  1
  O2-  O245  1  0.44645662  0.91735307  0.94002842  1
  O2-  O246  1  0.94852969  0.41791176  0.27585243  1
  O2-  O247  1  0.95483242  0.41373250  0.59985886  1
  O2-  O248  1  0.95691827  0.41831504  0.93003649  1
  O2-  O249  1  0.95362335  0.91513898  0.27250352  1
  O2-  O250  1  0.96459547  0.91577044  0.59301090  1
  O2-  O251  1  0.95507202  0.91904781  0.93183402  1
  O2-  O252  1  0.32738976  0.30404550  0.26966077  1
  O2-  O253  1  0.33444310  0.28883733  0.59414175  1
  O2-  O254  1  0.32923269  0.29650331  0.93125130  1
  O2-  O255  1  0.33843014  0.78874684  0.27102922  1
  O2-  O256  1  0.33081930  0.80004940  0.60402207  1
  O2-  O257  1  0.33704969  0.79308461  0.93407875  1
  O2-  O258  1  0.83322260  0.29790701  0.27614283  1
  O2-  O259  1  0.83488458  0.29486670  0.60197612  1
  O2-  O260  1  0.82810930  0.29712773  0.93258476  1
  O2-  O261  1  0.83222631  0.79714438  0.27195546  1
  O2-  O262  1  0.83671707  0.78908985  0.59150252  1
  O2-  O263  1  0.83670670  0.78389130  0.93113180  1
  O2-  O264  1  0.41692014  0.04111961  0.07097819  1
  O2-  O265  1  0.41272586  0.04270638  0.39780226  1
  O2-  O266  1  0.41258435  0.04884584  0.72421587  1
  O2-  O267  1  0.41652489  0.53894505  0.06404612  1
  O2-  O268  1  0.41741126  0.53993353  0.40095854  1
  O2-  O269  1  0.41601499  0.53852995  0.73478784  1
  O2-  O270  1  0.91688579  0.04184434  0.06743988  1
  O2-  O271  1  0.91502227  0.03778548  0.40515143  1
  O2-  O272  1  0.91793108  0.04133110  0.72770565  1
  O2-  O273  1  0.91233383  0.54181410  0.06206806  1
  O2-  O274  1  0.91300428  0.54653864  0.39871261  1
  O2-  O275  1  0.91907056  0.54695115  0.72581403  1
  O2-  O276  1  0.29469376  0.17190314  0.06681224  1
  O2-  O277  1  0.29391413  0.16572380  0.39528772  1
  O2-  O278  1  0.28783109  0.16307512  0.72399528  1
  O2-  O279  1  0.30677942  0.66598753  0.06103288  1
  O2-  O280  1  0.28842820  0.66628276  0.40300047  1
  O2-  O281  1  0.29462491  0.66887629  0.73606653  1
  O2-  O282  1  0.79211292  0.17209115  0.06750042  1
  O2-  O283  1  0.79008111  0.16738031  0.40502199  1
  O2-  O284  1  0.80653469  0.16726921  0.72801451  1
  O2-  O285  1  0.79046752  0.65847206  0.06374612  1
  O2-  O286  1  0.79430685  0.66581683  0.39645259  1
  O2-  O287  1  0.79899938  0.66659618  0.72444335  1
