# generated using pymatgen
data_Ca2Al2SiO7
_symmetry_space_group_name_H-M   'P 1'
_cell_length_a   15.45817327
_cell_length_b   15.45751404
_cell_length_c   15.28318572
_cell_angle_alpha   90.00846292
_cell_angle_beta   90.00849742
_cell_angle_gamma   90.00378338
_symmetry_Int_Tables_number   1
_chemical_formula_structural   Ca2Al2SiO7
_chemical_formula_sum   'Ca48 Al48 Si24 O168'
_cell_volume   3651.83965917
_cell_formula_units_Z   24
loop_
 _symmetry_equiv_pos_site_id
 _symmetry_equiv_pos_as_xyz
  1  'x, y, z'
loop_
 _atom_type_symbol
 _atom_type_oxidation_number
  Ca2+  2.0
  Al0+  0.0
  Si0+  0.0
  O2-  -2.0
loop_
 _atom_site_type_symbol
 _atom_site_label
 _atom_site_symmetry_multiplicity
 _atom_site_fract_x
 _atom_site_fract_y
 _atom_site_fract_z
 _atom_site_occupancy
  Ca2+  Ca0  1  0.16469853  0.08025681  0.16829027  1
  Ca2+  Ca1  1  0.16546040  0.08801876  0.50449600  1
  Ca2+  Ca2  1  0.16553141  0.07839450  0.83727870  1
  Ca2+  Ca3  1  0.18339187  0.58073868  0.17417994  1
  Ca2+  Ca4  1  0.17018684  0.57330635  0.50315606  1
  Ca2+  Ca5  1  0.17442633  0.58056380  0.84071267  1
  Ca2+  Ca6  1  0.66175238  0.07032509  0.17301245  1
  Ca2+  Ca7  1  0.65954934  0.07106019  0.50240362  1
  Ca2+  Ca8  1  0.66237023  0.06852687  0.83807747  1
  Ca2+  Ca9  1  0.66751762  0.58467363  0.17115571  1
  Ca2+  Ca10  1  0.66558748  0.57851984  0.50500202  1
  Ca2+  Ca11  1  0.67167291  0.58980265  0.83531921  1
  Ca2+  Ca12  1  0.08488371  0.33087750  0.16284170  1
  Ca2+  Ca13  1  0.09075938  0.32805375  0.49501095  1
  Ca2+  Ca14  1  0.07825595  0.33445145  0.82610721  1
  Ca2+  Ca15  1  0.07125634  0.83638893  0.15910724  1
  Ca2+  Ca16  1  0.07242917  0.82965298  0.49124455  1
  Ca2+  Ca17  1  0.07885799  0.83487862  0.83387169  1
  Ca2+  Ca18  1  0.58585562  0.32902319  0.16214355  1
  Ca2+  Ca19  1  0.59035578  0.33137801  0.49073674  1
  Ca2+  Ca20  1  0.57688471  0.33954972  0.83044055  1
  Ca2+  Ca21  1  0.58332624  0.82272216  0.15837643  1
  Ca2+  Ca22  1  0.58866474  0.82255414  0.49630620  1
  Ca2+  Ca23  1  0.58275960  0.82477717  0.82845408  1
  Ca2+  Ca24  1  0.33793174  0.42692862  0.17145344  1
  Ca2+  Ca25  1  0.32701936  0.42218506  0.49982585  1
  Ca2+  Ca26  1  0.32993489  0.42028763  0.84072408  1
  Ca2+  Ca27  1  0.32737302  0.90809823  0.16601691  1
  Ca2+  Ca28  1  0.33655454  0.91832656  0.50547108  1
  Ca2+  Ca29  1  0.33067236  0.90930606  0.84244012  1
  Ca2+  Ca30  1  0.83180737  0.42144872  0.16926910  1
  Ca2+  Ca31  1  0.82111663  0.42180169  0.50865220  1
  Ca2+  Ca32  1  0.83043636  0.42790431  0.83909411  1
  Ca2+  Ca33  1  0.82372766  0.90793325  0.16970400  1
  Ca2+  Ca34  1  0.82202109  0.91142669  0.50059194  1
  Ca2+  Ca35  1  0.82107238  0.91148354  0.84001161  1
  Ca2+  Ca36  1  0.42215833  0.17509006  0.16437131  1
  Ca2+  Ca37  1  0.42438337  0.17129944  0.49365005  1
  Ca2+  Ca38  1  0.41423778  0.17371742  0.83347386  1
  Ca2+  Ca39  1  0.42619004  0.66203941  0.15848019  1
  Ca2+  Ca40  1  0.42702584  0.66666731  0.49630752  1
  Ca2+  Ca41  1  0.42488307  0.67361869  0.83058160  1
  Ca2+  Ca42  1  0.92026441  0.17532206  0.16182939  1
  Ca2+  Ca43  1  0.92876909  0.16660152  0.49320674  1
  Ca2+  Ca44  1  0.92100204  0.17375181  0.82994213  1
  Ca2+  Ca45  1  0.91235997  0.67547864  0.16046534  1
  Ca2+  Ca46  1  0.91049291  0.66929043  0.49794711  1
  Ca2+  Ca47  1  0.90657143  0.66825990  0.83347901  1
  Al0+  Al48  1  -0.00025066  -0.00030423  -0.00080198  1
  Al0+  Al49  1  -0.00069894  0.00098028  0.32471645  1
  Al0+  Al50  1  0.00027363  0.00159306  0.66234079  1
  Al0+  Al51  1  -0.00103784  0.49914069  0.00146619  1
  Al0+  Al52  1  0.00160635  0.50102382  0.33691834  1
  Al0+  Al53  1  -0.00091660  0.50072071  0.67261089  1
  Al0+  Al54  1  0.49842919  0.00031625  0.00326941  1
  Al0+  Al55  1  0.49860118  0.00025145  0.33348160  1
  Al0+  Al56  1  0.49751853  0.00246308  0.66936574  1
  Al0+  Al57  1  0.50052208  0.49783660  -0.00572187  1
  Al0+  Al58  1  0.50080814  0.50132706  0.33861591  1
  Al0+  Al59  1  0.49799212  0.50133020  0.66504341  1
  Al0+  Al60  1  0.25149949  0.24738250  -0.00326048  1
  Al0+  Al61  1  0.25061958  0.24870026  0.33059207  1
  Al0+  Al62  1  0.24976565  0.24981413  0.66747135  1
  Al0+  Al63  1  0.24955434  0.74885918  0.00735136  1
  Al0+  Al64  1  0.24981093  0.75080684  0.34095664  1
  Al0+  Al65  1  0.24824032  0.75137307  0.66156215  1
  Al0+  Al66  1  0.75260177  0.24831071  -0.00667981  1
  Al0+  Al67  1  0.75252503  0.24773901  0.33164469  1
  Al0+  Al68  1  0.74997528  0.25038741  0.67000765  1
  Al0+  Al69  1  0.75117589  0.74920601  0.00072882  1
  Al0+  Al70  1  0.74842047  0.75056207  0.32966563  1
  Al0+  Al71  1  0.74850298  0.75089165  0.66907537  1
  Al0+  Al72  1  0.67872016  0.92954566  0.01502920  1
  Al0+  Al73  1  0.18103452  0.42850121  0.68185089  1
  Al0+  Al74  1  0.06978637  0.18100302  0.65266865  1
  Al0+  Al75  1  0.57224190  0.67853502  0.98416940  1
  Al0+  Al76  1  0.43029877  0.32001578  0.98683964  1
  Al0+  Al77  1  0.92976144  0.81835128  0.31917414  1
  Al0+  Al78  1  0.67862476  0.93155832  0.68070625  1
  Al0+  Al79  1  0.68153579  0.42716040  0.34362628  1
  Al0+  Al80  1  0.92979224  0.82046396  0.98451175  1
  Al0+  Al81  1  0.07272543  0.18052370  0.31686602  1
  Al0+  Al82  1  0.42710748  0.82339122  0.65085700  1
  Al0+  Al83  1  0.17916875  0.42775655  0.34703333  1
  Al0+  Al84  1  0.92920432  0.32298087  0.98498857  1
  Al0+  Al85  1  0.32369758  0.57342818  0.35136448  1
  Al0+  Al86  1  0.56884834  0.67887834  0.31852168  1
  Al0+  Al87  1  0.57331826  0.17747636  0.32054623  1
  Al0+  Al88  1  0.67860496  0.92924977  0.34708936  1
  Al0+  Al89  1  0.17886484  0.92935544  0.01383217  1
  Al0+  Al90  1  0.57153549  0.68025068  0.64901951  1
  Al0+  Al91  1  0.32216605  0.56913810  0.01220296  1
  Al0+  Al92  1  0.42678179  0.82100625  0.98779669  1
  Al0+  Al93  1  0.81924644  0.57113827  0.68210351  1
  Al0+  Al94  1  0.82043559  0.57003153  0.01651237  1
  Al0+  Al95  1  0.67540437  0.42644555  0.68315119  1
  Si0+  Si96  1  0.92829875  0.32384642  0.31820050  1
  Si0+  Si97  1  0.42603493  0.82327385  0.31717812  1
  Si0+  Si98  1  0.82380754  0.07146420  0.34912970  1
  Si0+  Si99  1  0.57100681  0.17980953  0.65307397  1
  Si0+  Si100  1  0.31965833  0.07116678  0.68219733  1
  Si0+  Si101  1  0.07442048  0.67668431  0.31745718  1
  Si0+  Si102  1  0.07175239  0.17851769  0.98194223  1
  Si0+  Si103  1  0.07160784  0.67765912  0.65182521  1
  Si0+  Si104  1  0.82167147  0.57318085  0.34860780  1
  Si0+  Si105  1  0.67850361  0.42563446  0.01533633  1
  Si0+  Si106  1  0.42825478  0.32080472  0.65097096  1
  Si0+  Si107  1  0.17712994  0.92906966  0.67941554  1
  Si0+  Si108  1  0.17607925  0.93085658  0.34933655  1
  Si0+  Si109  1  0.57290285  0.17655186  0.98258865  1
  Si0+  Si110  1  0.07244068  0.67814948  0.98533709  1
  Si0+  Si111  1  0.82231675  0.07293404  0.01664751  1
  Si0+  Si112  1  0.32184963  0.07401269  0.01920002  1
  Si0+  Si113  1  0.32016171  0.57426431  0.68433860  1
  Si0+  Si114  1  0.92770620  0.32397865  0.64908868  1
  Si0+  Si115  1  0.43008516  0.32118489  0.31870076  1
  Si0+  Si116  1  0.31973625  0.07030616  0.34883799  1
  Si0+  Si117  1  0.82510667  0.07161327  0.68268151  1
  Si0+  Si118  1  0.17823139  0.42582561  0.01539612  1
  Si0+  Si119  1  0.92956919  0.82097461  0.65213744  1
  O2-  O120  1  0.25519434  0.00231898  0.06167093  1
  O2-  O121  1  0.24854731  -0.00017142  0.39243430  1
  O2-  O122  1  0.25153061  -0.00378842  0.72209208  1
  O2-  O123  1  0.24800229  0.49308473  0.05895384  1
  O2-  O124  1  0.24860194  0.50185331  0.39784016  1
  O2-  O125  1  0.25326285  0.50432833  0.72969027  1
  O2-  O126  1  0.75270834  0.00590084  0.06144426  1
  O2-  O127  1  0.75275786  0.00543593  0.39392034  1
  O2-  O128  1  0.75382762  0.00625039  0.72735232  1
  O2-  O129  1  0.74551990  0.49468499  0.06137944  1
  O2-  O130  1  0.75664693  0.50077456  0.39158651  1
  O2-  O131  1  0.74682477  0.49931646  0.73212511  1
  O2-  O132  1  0.00072163  0.25884055  0.27326186  1
  O2-  O133  1  -0.00385897  0.25542548  0.60382174  1
  O2-  O134  1  0.00631469  0.25012847  0.93838432  1
  O2-  O135  1  0.00517852  0.74405744  0.27265117  1
  O2-  O136  1  -0.00097558  0.74805007  0.61050514  1
  O2-  O137  1  0.00366185  0.74504695  0.93748286  1
  O2-  O138  1  0.50352764  0.25707888  0.27473289  1
  O2-  O139  1  0.50637437  0.25661622  0.60988201  1
  O2-  O140  1  0.50585068  0.24675173  0.93817869  1
  O2-  O141  1  0.49184891  0.75224971  0.27367102  1
  O2-  O142  1  0.49933826  0.75308800  0.59953176  1
  O2-  O143  1  0.50078461  0.75287666  0.93621562  1
  O2-  O144  1  0.07147115  0.17914364  0.08764539  1
  O2-  O145  1  0.07187890  0.17917408  0.43017406  1
  O2-  O146  1  0.06830332  0.17922842  0.76549694  1
  O2-  O147  1  0.07141496  0.68057691  0.09088849  1
  O2-  O148  1  0.07317936  0.67887565  0.42358318  1
  O2-  O149  1  0.07645140  0.68046607  0.75667985  1
  O2-  O150  1  0.57249665  0.17767097  0.08834109  1
  O2-  O151  1  0.56895178  0.17661334  0.43410759  1
  O2-  O152  1  0.56630429  0.17676142  0.75799229  1
  O2-  O153  1  0.57120270  0.67755942  0.09805662  1
  O2-  O154  1  0.57145714  0.67984026  0.43137997  1
  O2-  O155  1  0.57199261  0.68231642  0.76218362  1
  O2-  O156  1  0.18139652  0.42766964  0.23341815  1
  O2-  O157  1  0.18408174  0.42744619  0.56894564  1
  O2-  O158  1  0.17940138  0.42654447  0.90950959  1
  O2-  O159  1  0.17674779  0.93151906  0.24437887  1
  O2-  O160  1  0.17459120  0.93186384  0.57426375  1
  O2-  O161  1  0.17777946  0.93214336  0.90007557  1
  O2-  O162  1  0.68273126  0.42630171  0.23061722  1
  O2-  O163  1  0.67951665  0.42351024  0.56927668  1
  O2-  O164  1  0.68025483  0.42523038  0.91003877  1
  O2-  O165  1  0.67961753  0.92930430  0.23431331  1
  O2-  O166  1  0.68070299  0.93186052  0.56736783  1
  O2-  O167  1  0.67966881  0.93151636  0.90159542  1
  O2-  O168  1  0.43075308  0.31823429  0.09996707  1
  O2-  O169  1  0.42792720  0.31655093  0.42465422  1
  O2-  O170  1  0.42545490  0.31640657  0.75608549  1
  O2-  O171  1  0.42678698  0.81850013  0.10139478  1
  O2-  O172  1  0.42791311  0.82574026  0.42273198  1
  O2-  O173  1  0.42456634  0.82203832  0.76402335  1
  O2-  O174  1  0.92982149  0.32055770  0.09835270  1
  O2-  O175  1  0.92669443  0.32066669  0.42362533  1
  O2-  O176  1  0.93023207  0.32179650  0.75469034  1
  O2-  O177  1  0.93089346  0.82019755  0.09752370  1
  O2-  O178  1  0.93067477  0.81786943  0.43317143  1
  O2-  O179  1  0.93209978  0.82328007  0.75707243  1
  O2-  O180  1  0.31938316  0.07094072  0.24410323  1
  O2-  O181  1  0.31917645  0.07328337  0.57686654  1
  O2-  O182  1  0.31926005  0.07781257  0.91341285  1
  O2-  O183  1  0.32407079  0.57132388  0.23748873  1
  O2-  O184  1  0.31758873  0.57261405  0.57885752  1
  O2-  O185  1  0.31839930  0.56860290  0.89898194  1
  O2-  O186  1  0.82423676  0.07154802  0.24372073  1
  O2-  O187  1  0.82772862  0.06917907  0.57709045  1
  O2-  O188  1  0.82211228  0.07228825  0.91079050  1
  O2-  O189  1  0.82129297  0.57304268  0.24304022  1
  O2-  O190  1  0.82047728  0.57031896  0.56799711  1
  O2-  O191  1  0.82059892  0.56936794  0.90384922  1
  O2-  O192  1  0.03987179  0.08577393  0.26105750  1
  O2-  O193  1  0.03991148  0.08443870  0.59620343  1
  O2-  O194  1  0.04266814  0.08621525  0.93543509  1
  O2-  O195  1  0.05271898  0.58187735  0.27259676  1
  O2-  O196  1  0.04307380  0.58561625  0.60525712  1
  O2-  O197  1  0.04955205  0.58342909  0.94071240  1
  O2-  O198  1  0.53531983  0.08389882  0.26525337  1
  O2-  O199  1  0.53607128  0.09102717  0.60381842  1
  O2-  O200  1  0.54249162  0.08438940  0.93646710  1
  O2-  O201  1  0.54032706  0.58057652  0.26662450  1
  O2-  O202  1  0.54249595  0.58055624  0.59760408  1
  O2-  O203  1  0.54471067  0.58040599  0.93113307  1
  O2-  O204  1  0.16986291  0.20742485  0.26175441  1
  O2-  O205  1  0.16745405  0.21077846  0.59942955  1
  O2-  O206  1  0.16668596  0.19886290  0.93657925  1
  O2-  O207  1  0.16851593  0.70454378  0.27390458  1
  O2-  O208  1  0.16072219  0.70706304  0.60006471  1
  O2-  O209  1  0.16513411  0.70610388  0.93909248  1
  O2-  O210  1  0.67119908  0.20186080  0.26631908  1
  O2-  O211  1  0.66583634  0.19949669  0.60785278  1
  O2-  O212  1  0.66705632  0.19715749  0.93594503  1
  O2-  O213  1  0.66437253  0.71149743  0.26420205  1
  O2-  O214  1  0.67033184  0.71098171  0.59687983  1
  O2-  O215  1  0.67002139  0.70902726  0.93239776  1
  O2-  O216  1  0.08479821  0.45006996  0.06128972  1
  O2-  O217  1  0.08014522  0.45294387  0.40208471  1
  O2-  O218  1  0.08360147  0.45697620  0.73449654  1
  O2-  O219  1  0.08307646  0.96363362  0.06821860  1
  O2-  O220  1  0.08438918  0.96148912  0.39534327  1
  O2-  O221  1  0.08684730  0.96111205  0.72784101  1
  O2-  O222  1  0.58335794  0.44747735  0.05888137  1
  O2-  O223  1  0.58525482  0.45497644  0.39914284  1
  O2-  O224  1  0.57434464  0.45158818  0.73167990  1
  O2-  O225  1  0.58186438  0.96020051  0.06891650  1
  O2-  O226  1  0.58198801  0.96161226  0.40054683  1
  O2-  O227  1  0.58258760  0.96523695  0.73421785  1
  O2-  O228  1  0.20298843  0.33059096  0.05838029  1
  O2-  O229  1  0.21064650  0.32916374  0.39909296  1
  O2-  O230  1  0.21322027  0.33229286  0.73615145  1
  O2-  O231  1  0.20625394  0.83377587  0.07140964  1
  O2-  O232  1  0.19956501  0.83865047  0.39830440  1
  O2-  O233  1  0.20024590  0.83566111  0.72568006  1
  O2-  O234  1  0.70580270  0.33067577  0.05873909  1
  O2-  O235  1  0.71089683  0.32962432  0.39817927  1
  O2-  O236  1  0.70150936  0.32704656  0.73637708  1
  O2-  O237  1  0.71316864  0.83418052  0.06780231  1
  O2-  O238  1  0.71406452  0.83379002  0.40069978  1
  O2-  O239  1  0.71167827  0.83656533  0.73457253  1
  O2-  O240  1  0.45157406  0.41640786  0.27624240  1
  O2-  O241  1  0.44643014  0.41506818  0.60525083  1
  O2-  O242  1  0.45847644  0.41423774  0.92775901  1
  O2-  O243  1  0.45055365  0.91685846  0.27104398  1
  O2-  O244  1  0.45181988  0.92497075  0.60145382  1
  O2-  O245  1  0.44714357  0.92345333  0.93901170  1
  O2-  O246  1  0.94992162  0.41953665  0.27439284  1
  O2-  O247  1  0.95278774  0.41832043  0.60507061  1
  O2-  O248  1  0.95934668  0.41929377  0.93035196  1
  O2-  O249  1  0.96066981  0.91402477  0.26399684  1
  O2-  O250  1  0.96010350  0.91116591  0.60286734  1
  O2-  O251  1  0.96147501  0.91709984  0.93067923  1
  O2-  O252  1  0.33978846  0.28917483  0.27012449  1
  O2-  O253  1  0.34021943  0.28354696  0.60240888  1
  O2-  O254  1  0.33462638  0.28642929  0.93056780  1
  O2-  O255  1  0.32916703  0.80133001  0.27598323  1
  O2-  O256  1  0.32725233  0.79826112  0.59697970  1
  O2-  O257  1  0.32746044  0.79159093  0.93653798  1
  O2-  O258  1  0.83776619  0.29352978  0.26846058  1
  O2-  O259  1  0.83313339  0.29774950  0.60502947  1
  O2-  O260  1  0.83483412  0.28983165  0.92749145  1
  O2-  O261  1  0.83445818  0.78694439  0.26431941  1
  O2-  O262  1  0.83777220  0.79356037  0.60528985  1
  O2-  O263  1  0.83420899  0.78858839  0.93069603  1
  O2-  O264  1  0.41622441  0.05356141  0.06515235  1
  O2-  O265  1  0.41071426  0.04258009  0.39850239  1
  O2-  O266  1  0.41137741  0.04895895  0.73197564  1
  O2-  O267  1  0.41860472  0.53533211  0.06491580  1
  O2-  O268  1  0.41908707  0.54094115  0.40733682  1
  O2-  O269  1  0.41440108  0.54985740  0.72798052  1
  O2-  O270  1  0.91607303  0.04772911  0.06204442  1
  O2-  O271  1  0.91709345  0.04221153  0.39484778  1
  O2-  O272  1  0.91766944  0.04320469  0.73002691  1
  O2-  O273  1  0.91780968  0.53962370  0.07043973  1
  O2-  O274  1  0.91727877  0.55413482  0.39388318  1
  O2-  O275  1  0.91798548  0.54565065  0.73654507  1
  O2-  O276  1  0.29188377  0.16577027  0.06763575  1
  O2-  O277  1  0.29211607  0.16182070  0.39713442  1
  O2-  O278  1  0.28710349  0.16036034  0.73188538  1
  O2-  O279  1  0.29007449  0.66301525  0.07013265  1
  O2-  O280  1  0.29582828  0.67156685  0.40590357  1
  O2-  O281  1  0.29070820  0.66798436  0.72807644  1
  O2-  O282  1  0.79859251  0.16769558  0.06179900  1
  O2-  O283  1  0.80273875  0.16562595  0.39579192  1
  O2-  O284  1  0.80316988  0.16644988  0.72747948  1
  O2-  O285  1  0.79077207  0.66667295  0.07007054  1
  O2-  O286  1  0.79175872  0.66505501  0.39509983  1
  O2-  O287  1  0.79209882  0.66996600  0.73484716  1
