# generated using pymatgen
data_Ca2Al2SiO7
_symmetry_space_group_name_H-M   'P 1'
_cell_length_a   15.46441705
_cell_length_b   15.46294137
_cell_length_c   15.28824116
_cell_angle_alpha   89.99606119
_cell_angle_beta   89.98791096
_cell_angle_gamma   90.00933178
_symmetry_Int_Tables_number   1
_chemical_formula_structural   Ca2Al2SiO7
_chemical_formula_sum   'Ca48 Al48 Si24 O168'
_cell_volume   3655.80625083
_cell_formula_units_Z   24
loop_
 _symmetry_equiv_pos_site_id
 _symmetry_equiv_pos_as_xyz
  1  'x, y, z'
loop_
 _atom_type_symbol
 _atom_type_oxidation_number
  Ca2+  2.0
  Al0+  0.0
  Si0+  0.0
  O2-  -2.0
loop_
 _atom_site_type_symbol
 _atom_site_label
 _atom_site_symmetry_multiplicity
 _atom_site_fract_x
 _atom_site_fract_y
 _atom_site_fract_z
 _atom_site_occupancy
  Ca2+  Ca0  1  0.14878186  0.07869795  0.16548070  1
  Ca2+  Ca1  1  0.16207360  0.07710270  0.50699046  1
  Ca2+  Ca2  1  0.16004475  0.07100648  0.84037600  1
  Ca2+  Ca3  1  0.16974868  0.58044236  0.16474336  1
  Ca2+  Ca4  1  0.16870531  0.57421185  0.50855605  1
  Ca2+  Ca5  1  0.16565894  0.57525894  0.83956202  1
  Ca2+  Ca6  1  0.68134512  0.08423228  0.16825573  1
  Ca2+  Ca7  1  0.67717247  0.09300464  0.50497480  1
  Ca2+  Ca8  1  0.67657946  0.08986663  0.83589652  1
  Ca2+  Ca9  1  0.67934711  0.57798455  0.16687773  1
  Ca2+  Ca10  1  0.68117763  0.58235155  0.50359876  1
  Ca2+  Ca11  1  0.67684637  0.57883432  0.84144695  1
  Ca2+  Ca12  1  0.07260902  0.32618223  0.15764083  1
  Ca2+  Ca13  1  0.08032689  0.32664641  0.49186333  1
  Ca2+  Ca14  1  0.08131208  0.33792017  0.83246056  1
  Ca2+  Ca15  1  0.07787538  0.82628356  0.15375858  1
  Ca2+  Ca16  1  0.08776974  0.82643378  0.50239654  1
  Ca2+  Ca17  1  0.08561778  0.82320282  0.83376937  1
  Ca2+  Ca18  1  0.57841163  0.34501667  0.16359239  1
  Ca2+  Ca19  1  0.57394013  0.33390733  0.49965694  1
  Ca2+  Ca20  1  0.57997337  0.33318205  0.82720512  1
  Ca2+  Ca21  1  0.58034282  0.83097230  0.16195244  1
  Ca2+  Ca22  1  0.57730290  0.83457810  0.50005652  1
  Ca2+  Ca23  1  0.57470473  0.83217769  0.82617236  1
  Ca2+  Ca24  1  0.32793522  0.42400191  0.17039056  1
  Ca2+  Ca25  1  0.33129038  0.41484072  0.50445361  1
  Ca2+  Ca26  1  0.32238210  0.41615472  0.84027616  1
  Ca2+  Ca27  1  0.32352154  0.91915067  0.16703487  1
  Ca2+  Ca28  1  0.32778359  0.91857373  0.51006212  1
  Ca2+  Ca29  1  0.32250612  0.91092837  0.83605166  1
  Ca2+  Ca30  1  0.84197643  0.42195522  0.16724782  1
  Ca2+  Ca31  1  0.84388239  0.42519603  0.50320634  1
  Ca2+  Ca32  1  0.83056504  0.42502873  0.84316162  1
  Ca2+  Ca33  1  0.84763258  0.92946361  0.16607933  1
  Ca2+  Ca34  1  0.83483490  0.93214943  0.50624302  1
  Ca2+  Ca35  1  0.84330013  0.92844913  0.83848109  1
  Ca2+  Ca36  1  0.41817352  0.17522410  0.16386219  1
  Ca2+  Ca37  1  0.41870788  0.17948885  0.49759400  1
  Ca2+  Ca38  1  0.42630457  0.17367829  0.82156946  1
  Ca2+  Ca39  1  0.41293108  0.65949642  0.16152054  1
  Ca2+  Ca40  1  0.41131803  0.67168514  0.49606827  1
  Ca2+  Ca41  1  0.41296706  0.66865740  0.82913752  1
  Ca2+  Ca42  1  0.91987484  0.17224561  0.15944556  1
  Ca2+  Ca43  1  0.91893076  0.17067882  0.49002160  1
  Ca2+  Ca44  1  0.91589866  0.16944228  0.83524594  1
  Ca2+  Ca45  1  0.91720650  0.67059524  0.15327484  1
  Ca2+  Ca46  1  0.92232630  0.65969001  0.49769324  1
  Ca2+  Ca47  1  0.92560340  0.66032991  0.83027675  1
  Al0+  Al48  1  0.00019459  -0.00044339  0.00089852  1
  Al0+  Al49  1  -0.00147653  -0.00357849  0.33821869  1
  Al0+  Al50  1  -0.00010213  -0.00136938  0.67469183  1
  Al0+  Al51  1  0.00100986  0.49909105  0.00069223  1
  Al0+  Al52  1  0.00283878  0.49867776  0.33322151  1
  Al0+  Al53  1  0.00280431  0.50069176  0.66928215  1
  Al0+  Al54  1  0.49970587  0.00066915  -0.00005656  1
  Al0+  Al55  1  0.49725611  -0.00088581  0.33222433  1
  Al0+  Al56  1  0.50213003  0.00034702  0.65653717  1
  Al0+  Al57  1  0.50080753  0.50143222  0.00363051  1
  Al0+  Al58  1  0.50026436  0.50247576  0.33499082  1
  Al0+  Al59  1  0.50176717  0.50198265  0.66080399  1
  Al0+  Al60  1  0.25115505  0.24877659  -0.00037903  1
  Al0+  Al61  1  0.25176025  0.24664567  0.32394243  1
  Al0+  Al62  1  0.24946602  0.24886260  0.66669636  1
  Al0+  Al63  1  0.24904739  0.75242783  0.00504789  1
  Al0+  Al64  1  0.24983444  0.75031292  0.33603558  1
  Al0+  Al65  1  0.24910769  0.74934469  0.66108179  1
  Al0+  Al66  1  0.74827479  0.24948352  0.00469499  1
  Al0+  Al67  1  0.74835278  0.25056662  0.33433875  1
  Al0+  Al68  1  0.75095806  0.25240152  0.66609146  1
  Al0+  Al69  1  0.74672583  0.75202122  -0.00275952  1
  Al0+  Al70  1  0.74778838  0.74927813  0.33811307  1
  Al0+  Al71  1  0.75156403  0.75355398  0.66950472  1
  Al0+  Al72  1  0.07193396  0.17900563  0.98208805  1
  Al0+  Al73  1  0.92701411  0.32072750  0.98318112  1
  Al0+  Al74  1  0.18003189  0.93142240  0.01491918  1
  Al0+  Al75  1  0.42647188  0.32254893  0.65267609  1
  Al0+  Al76  1  0.81997040  0.06910032  0.01402967  1
  Al0+  Al77  1  0.82290629  0.57035722  0.34739844  1
  Al0+  Al78  1  0.07186897  0.67853994  0.98579518  1
  Al0+  Al79  1  0.31961179  0.57091984  0.01262519  1
  Al0+  Al80  1  0.67890188  0.42831261  0.01452957  1
  Al0+  Al81  1  0.07000959  0.17455533  0.31972682  1
  Al0+  Al82  1  0.06899461  0.67864515  0.65148329  1
  Al0+  Al83  1  0.57420176  0.18050186  0.65080683  1
  Al0+  Al84  1  0.82196442  0.57224820  0.01355253  1
  Al0+  Al85  1  0.82000971  0.07300300  0.68182157  1
  Al0+  Al86  1  0.17751083  0.42495412  0.01707384  1
  Al0+  Al87  1  0.32038364  0.57072868  0.34956904  1
  Al0+  Al88  1  0.18113686  0.42665275  0.67886896  1
  Al0+  Al89  1  0.42898841  0.81877303  0.65268729  1
  Al0+  Al90  1  0.43066098  0.32255934  0.31683524  1
  Al0+  Al91  1  0.82229126  0.57215557  0.68084888  1
  Al0+  Al92  1  0.18092242  0.92786271  0.68144407  1
  Al0+  Al93  1  0.92835837  0.32230912  0.31879253  1
  Al0+  Al94  1  0.92614085  0.82131339  0.98466665  1
  Al0+  Al95  1  0.81949166  0.06988737  0.34767631  1
  Si0+  Si96  1  0.32361887  0.07141704  0.68118350  1
  Si0+  Si97  1  0.92831694  0.82420838  0.64876019  1
  Si0+  Si98  1  0.18079332  0.42550347  0.34918995  1
  Si0+  Si99  1  0.06950736  0.17591991  0.65373181  1
  Si0+  Si100  1  0.43060164  0.32306623  0.98531676  1
  Si0+  Si101  1  0.67325478  0.92838033  0.01583740  1
  Si0+  Si102  1  0.42923588  0.82220517  0.98651131  1
  Si0+  Si103  1  0.67425857  0.92766612  0.35094981  1
  Si0+  Si104  1  0.93109631  0.32132086  0.65301981  1
  Si0+  Si105  1  0.32336354  0.07091321  0.34907724  1
  Si0+  Si106  1  0.17957848  0.92991733  0.34997956  1
  Si0+  Si107  1  0.57592318  0.67881099  0.64847591  1
  Si0+  Si108  1  0.32534641  0.07176569  0.01638540  1
  Si0+  Si109  1  0.32312893  0.57180489  0.68017912  1
  Si0+  Si110  1  0.67754299  0.43033695  0.68157342  1
  Si0+  Si111  1  0.57129848  0.17673263  0.31457387  1
  Si0+  Si112  1  0.42713639  0.82078815  0.31587193  1
  Si0+  Si113  1  0.56967790  0.17775555  0.98606034  1
  Si0+  Si114  1  0.07200132  0.67947911  0.31932032  1
  Si0+  Si115  1  0.67677561  0.42906295  0.35214429  1
  Si0+  Si116  1  0.57129938  0.68104876  0.31742925  1
  Si0+  Si117  1  0.92736336  0.81783361  0.32181572  1
  Si0+  Si118  1  0.56957323  0.67848514  0.98472930  1
  Si0+  Si119  1  0.67624665  0.92897905  0.68318414  1
  O2-  O120  1  0.25114934  0.00965707  0.06207179  1
  O2-  O121  1  0.24789678  0.00423785  0.39083141  1
  O2-  O122  1  0.25689069  0.00220691  0.72699783  1
  O2-  O123  1  0.24854058  0.49962408  0.06474546  1
  O2-  O124  1  0.24919914  0.49334841  0.39602199  1
  O2-  O125  1  0.26059727  0.49798562  0.72336416  1
  O2-  O126  1  0.74738216  -0.00914102  0.05968494  1
  O2-  O127  1  0.74138836  -0.00205853  0.39449558  1
  O2-  O128  1  0.74357903  -0.00141568  0.72692607  1
  O2-  O129  1  0.75519517  0.49572265  0.06466337  1
  O2-  O130  1  0.75257398  0.49110430  0.39496596  1
  O2-  O131  1  0.74402792  0.50073274  0.72536185  1
  O2-  O132  1  -0.00142977  0.24739866  0.27085634  1
  O2-  O133  1  -0.00026517  0.24757145  0.61096316  1
  O2-  O134  1  0.00239811  0.25285276  0.93098907  1
  O2-  O135  1  -0.00572290  0.74363404  0.27900013  1
  O2-  O136  1  -0.00735023  0.75190320  0.60342520  1
  O2-  O137  1  -0.00581779  0.74502917  0.93569024  1
  O2-  O138  1  0.50679448  0.24887678  0.26936308  1
  O2-  O139  1  0.49922956  0.25068179  0.60264696  1
  O2-  O140  1  0.50036322  0.25044514  0.94403660  1
  O2-  O141  1  0.49849509  0.75044884  0.27403226  1
  O2-  O142  1  0.50408715  0.74482438  0.60416584  1
  O2-  O143  1  0.49797201  0.74968010  0.94372622  1
  O2-  O144  1  0.06662142  0.17802094  0.09570903  1
  O2-  O145  1  0.06938392  0.17390345  0.43429525  1
  O2-  O146  1  0.06921071  0.17476872  0.75797331  1
  O2-  O147  1  0.07398073  0.68334786  0.10014148  1
  O2-  O148  1  0.07348685  0.68170203  0.42463947  1
  O2-  O149  1  0.07072216  0.67825256  0.76365706  1
  O2-  O150  1  0.56588360  0.17301131  0.09096032  1
  O2-  O151  1  0.56827083  0.17574751  0.41996195  1
  O2-  O152  1  0.57295807  0.18210185  0.76488032  1
  O2-  O153  1  0.56959006  0.68015693  0.09005790  1
  O2-  O154  1  0.57207179  0.68443361  0.42247886  1
  O2-  O155  1  0.57516481  0.67955243  0.75403234  1
  O2-  O156  1  0.18134256  0.42857831  0.24424101  1
  O2-  O157  1  0.17925199  0.42713324  0.56535298  1
  O2-  O158  1  0.18234286  0.42488374  0.90320731  1
  O2-  O159  1  0.18065323  0.92788743  0.24519081  1
  O2-  O160  1  0.18132819  0.93035832  0.56749476  1
  O2-  O161  1  0.18474310  0.92840141  0.90212908  1
  O2-  O162  1  0.67272497  0.43434328  0.24706482  1
  O2-  O163  1  0.67787436  0.43060715  0.57588149  1
  O2-  O164  1  0.67472173  0.43227097  0.90072874  1
  O2-  O165  1  0.67182136  0.92656532  0.24554596  1
  O2-  O166  1  0.67786837  0.92702429  0.57741270  1
  O2-  O167  1  0.66400331  0.93287331  0.91105082  1
  O2-  O168  1  0.43294840  0.32293944  0.09058153  1
  O2-  O169  1  0.43076680  0.32054506  0.42982307  1
  O2-  O170  1  0.42823089  0.32108158  0.76643014  1
  O2-  O171  1  0.43195998  0.82437243  0.09187770  1
  O2-  O172  1  0.42701707  0.82102875  0.42088073  1
  O2-  O173  1  0.42942347  0.81673448  0.76610574  1
  O2-  O174  1  0.92592028  0.31737599  0.09667909  1
  O2-  O175  1  0.93258767  0.32266763  0.43342321  1
  O2-  O176  1  0.93016429  0.32141784  0.75748210  1
  O2-  O177  1  0.92969195  0.82116538  0.09945771  1
  O2-  O178  1  0.93010324  0.81960969  0.42695243  1
  O2-  O179  1  0.93020523  0.82599260  0.75360271  1
  O2-  O180  1  0.33054732  0.06624917  0.24456850  1
  O2-  O181  1  0.31957180  0.07096928  0.57512264  1
  O2-  O182  1  0.33190078  0.06628320  0.91123242  1
  O2-  O183  1  0.31776736  0.57283146  0.23701513  1
  O2-  O184  1  0.31984008  0.57269341  0.57434094  1
  O2-  O185  1  0.32286617  0.56986694  0.89889362  1
  O2-  O186  1  0.82033073  0.06558129  0.23501187  1
  O2-  O187  1  0.82098898  0.07170049  0.56833726  1
  O2-  O188  1  0.81648328  0.06981789  0.90103466  1
  O2-  O189  1  0.81987908  0.57629494  0.23526832  1
  O2-  O190  1  0.82232938  0.56880288  0.56710634  1
  O2-  O191  1  0.81690045  0.57262052  0.90004705  1
  O2-  O192  1  0.03863730  0.07536628  0.26927379  1
  O2-  O193  1  0.04058234  0.08400553  0.60651825  1
  O2-  O194  1  0.04047291  0.08053896  0.93153774  1
  O2-  O195  1  0.05255883  0.58522361  0.27487026  1
  O2-  O196  1  0.03821661  0.58203470  0.59601866  1
  O2-  O197  1  0.05065318  0.57821143  0.93492104  1
  O2-  O198  1  0.54120632  0.08370154  0.26910553  1
  O2-  O199  1  0.55117705  0.08172716  0.59591387  1
  O2-  O200  1  0.53970503  0.08736356  0.93626546  1
  O2-  O201  1  0.54405214  0.58945289  0.27085786  1
  O2-  O202  1  0.55487562  0.58497270  0.60102638  1
  O2-  O203  1  0.54062855  0.58779472  0.93603263  1
  O2-  O204  1  0.17031424  0.19400875  0.26718637  1
  O2-  O205  1  0.16218762  0.20118186  0.60635059  1
  O2-  O206  1  0.17462637  0.19841346  0.93315863  1
  O2-  O207  1  0.16120266  0.71535326  0.27210973  1
  O2-  O208  1  0.16385847  0.71184680  0.59482693  1
  O2-  O209  1  0.16896740  0.71511834  0.93400680  1
  O2-  O210  1  0.66653684  0.19806762  0.27100629  1
  O2-  O211  1  0.67078592  0.21343241  0.59587976  1
  O2-  O212  1  0.66155391  0.20414807  0.93967791  1
  O2-  O213  1  0.66199789  0.71170324  0.26891400  1
  O2-  O214  1  0.66823196  0.70941477  0.60163386  1
  O2-  O215  1  0.65934308  0.70697244  0.93430167  1
  O2-  O216  1  0.07903565  0.45151760  0.06917788  1
  O2-  O217  1  0.08774781  0.45192995  0.39623807  1
  O2-  O218  1  0.08751774  0.46241542  0.73412487  1
  O2-  O219  1  0.08347710  0.95951229  0.06994798  1
  O2-  O220  1  0.08782869  0.95369388  0.39940114  1
  O2-  O221  1  0.08565685  0.95823691  0.73628878  1
  O2-  O222  1  0.58404939  0.46463999  0.07028939  1
  O2-  O223  1  0.58685905  0.46308302  0.40100477  1
  O2-  O224  1  0.58270110  0.45415886  0.72661195  1
  O2-  O225  1  0.58287715  0.95911403  0.06730813  1
  O2-  O226  1  0.57933825  0.95160657  0.39619661  1
  O2-  O227  1  0.58084365  0.95255834  0.72665145  1
  O2-  O228  1  0.20859393  0.32691730  0.06930338  1
  O2-  O229  1  0.20671505  0.32987838  0.39130006  1
  O2-  O230  1  0.20724498  0.32936982  0.73376002  1
  O2-  O231  1  0.21516404  0.83834176  0.07303561  1
  O2-  O232  1  0.21254495  0.84008009  0.39842364  1
  O2-  O233  1  0.21451494  0.83115880  0.73261507  1
  O2-  O234  1  0.69660802  0.32832548  0.06776850  1
  O2-  O235  1  0.69269160  0.33217085  0.39460359  1
  O2-  O236  1  0.70441317  0.33766260  0.72778052  1
  O2-  O237  1  0.69156428  0.83247705  0.05958662  1
  O2-  O238  1  0.70021742  0.83499521  0.39870435  1
  O2-  O239  1  0.69995723  0.83577448  0.73085933  1
  O2-  O240  1  0.46149155  0.42065244  0.26565476  1
  O2-  O241  1  0.45442572  0.42103999  0.59830230  1
  O2-  O242  1  0.46070785  0.41413734  0.93831568  1
  O2-  O243  1  0.45451912  0.91256755  0.26799124  1
  O2-  O244  1  0.45832564  0.91466024  0.59519166  1
  O2-  O245  1  0.45932142  0.91254879  0.93751662  1
  O2-  O246  1  0.95953141  0.42007619  0.26556750  1
  O2-  O247  1  0.96306009  0.41151004  0.60512486  1
  O2-  O248  1  0.95170538  0.42109104  0.93286532  1
  O2-  O249  1  0.96035080  0.90783584  0.27435687  1
  O2-  O250  1  0.96013909  0.91652368  0.60220742  1
  O2-  O251  1  0.96055761  0.91761233  0.93262426  1
  O2-  O252  1  0.33625402  0.28926437  0.26052033  1
  O2-  O253  1  0.32929720  0.29077706  0.59754428  1
  O2-  O254  1  0.33875343  0.29606095  0.93880854  1
  O2-  O255  1  0.33521112  0.79203502  0.26924296  1
  O2-  O256  1  0.33441911  0.78791737  0.59464348  1
  O2-  O257  1  0.33721370  0.79544928  0.94062534  1
  O2-  O258  1  0.82676674  0.29976696  0.27057421  1
  O2-  O259  1  0.83876006  0.29710883  0.60508947  1
  O2-  O260  1  0.82742173  0.28951043  0.93275791  1
  O2-  O261  1  0.83326335  0.79601397  0.27679960  1
  O2-  O262  1  0.83218400  0.80502234  0.60477141  1
  O2-  O263  1  0.82387178  0.80462332  0.93422778  1
  O2-  O264  1  0.41520320  0.03901776  0.06711533  1
  O2-  O265  1  0.41228685  0.03790923  0.39969753  1
  O2-  O266  1  0.41954177  0.04738661  0.72243500  1
  O2-  O267  1  0.41756402  0.54282529  0.06719885  1
  O2-  O268  1  0.41921077  0.54590074  0.40201356  1
  O2-  O269  1  0.42061396  0.55546909  0.72170472  1
  O2-  O270  1  0.91574427  0.03799257  0.06863872  1
  O2-  O271  1  0.91381527  0.03392079  0.40419188  1
  O2-  O272  1  0.91469895  0.03955535  0.73684059  1
  O2-  O273  1  0.92159531  0.55015139  0.06512894  1
  O2-  O274  1  0.92141348  0.54228081  0.40044234  1
  O2-  O275  1  0.91716432  0.53787235  0.73375558  1
  O2-  O276  1  0.30727200  0.16750992  0.05980513  1
  O2-  O277  1  0.29987982  0.16500247  0.39330257  1
  O2-  O278  1  0.29906119  0.16445634  0.72776446  1
  O2-  O279  1  0.29479749  0.66970570  0.06716057  1
  O2-  O280  1  0.28805696  0.66790083  0.40281976  1
  O2-  O281  1  0.29300702  0.66391662  0.72546844  1
  O2-  O282  1  0.78516395  0.16293461  0.06982853  1
  O2-  O283  1  0.79125377  0.16800121  0.40079236  1
  O2-  O284  1  0.78947553  0.17012974  0.73442900  1
  O2-  O285  1  0.78724531  0.67055075  0.06471542  1
  O2-  O286  1  0.78680078  0.66525923  0.40343973  1
  O2-  O287  1  0.79595648  0.67110074  0.73160055  1
