# generated using pymatgen
data_Ca2Al2SiO7
_symmetry_space_group_name_H-M   'P 1'
_cell_length_a   15.45586190
_cell_length_b   15.45619186
_cell_length_c   15.28253022
_cell_angle_alpha   90.00850716
_cell_angle_beta   89.99659443
_cell_angle_gamma   89.99328292
_symmetry_Int_Tables_number   1
_chemical_formula_structural   Ca2Al2SiO7
_chemical_formula_sum   'Ca48 Al48 Si24 O168'
_cell_volume   3650.82472708
_cell_formula_units_Z   24
loop_
 _symmetry_equiv_pos_site_id
 _symmetry_equiv_pos_as_xyz
  1  'x, y, z'
loop_
 _atom_type_symbol
 _atom_type_oxidation_number
  Ca2+  2.0
  Al0+  0.0
  Si0+  0.0
  O2-  -2.0
loop_
 _atom_site_type_symbol
 _atom_site_label
 _atom_site_symmetry_multiplicity
 _atom_site_fract_x
 _atom_site_fract_y
 _atom_site_fract_z
 _atom_site_occupancy
  Ca2+  Ca0  1  0.16810649  0.08294831  0.16595152  1
  Ca2+  Ca1  1  0.16122329  0.07878595  0.50553471  1
  Ca2+  Ca2  1  0.17214108  0.07013192  0.84428183  1
  Ca2+  Ca3  1  0.17217919  0.58643198  0.16908689  1
  Ca2+  Ca4  1  0.17720696  0.58689532  0.50586205  1
  Ca2+  Ca5  1  0.16963941  0.59069906  0.83641750  1
  Ca2+  Ca6  1  0.66232808  0.07739875  0.16865690  1
  Ca2+  Ca7  1  0.67343262  0.07811487  0.50302449  1
  Ca2+  Ca8  1  0.67062945  0.08887057  0.83886767  1
  Ca2+  Ca9  1  0.66811005  0.57439989  0.17333066  1
  Ca2+  Ca10  1  0.67576049  0.57282703  0.49897585  1
  Ca2+  Ca11  1  0.66192769  0.57253717  0.83981687  1
  Ca2+  Ca12  1  0.07222763  0.33272451  0.16422162  1
  Ca2+  Ca13  1  0.07642583  0.32298624  0.48694566  1
  Ca2+  Ca14  1  0.07534789  0.33462836  0.83195059  1
  Ca2+  Ca15  1  0.07283056  0.82797299  0.15773237  1
  Ca2+  Ca16  1  0.07973554  0.83095567  0.49761498  1
  Ca2+  Ca17  1  0.09170220  0.82737177  0.83272173  1
  Ca2+  Ca18  1  0.57793805  0.33598268  0.15852081  1
  Ca2+  Ca19  1  0.57763377  0.34419346  0.49839873  1
  Ca2+  Ca20  1  0.57701440  0.33562295  0.83335817  1
  Ca2+  Ca21  1  0.58195658  0.82565478  0.15575086  1
  Ca2+  Ca22  1  0.58374861  0.83240780  0.49238421  1
  Ca2+  Ca23  1  0.57733257  0.82849474  0.83536553  1
  Ca2+  Ca24  1  0.33960357  0.42048229  0.17390260  1
  Ca2+  Ca25  1  0.34070872  0.42546616  0.50372925  1
  Ca2+  Ca26  1  0.33941339  0.41890012  0.83614713  1
  Ca2+  Ca27  1  0.33324038  0.91956120  0.16465744  1
  Ca2+  Ca28  1  0.32318835  0.92086418  0.50886800  1
  Ca2+  Ca29  1  0.32504581  0.91712491  0.84531935  1
  Ca2+  Ca30  1  0.82487441  0.41674114  0.17357637  1
  Ca2+  Ca31  1  0.82473512  0.41080329  0.50231612  1
  Ca2+  Ca32  1  0.82142234  0.41352281  0.84307880  1
  Ca2+  Ca33  1  0.82961835  0.90929268  0.17444792  1
  Ca2+  Ca34  1  0.83257835  0.91900967  0.50070878  1
  Ca2+  Ca35  1  0.83875981  0.92389017  0.83791553  1
  Ca2+  Ca36  1  0.42253210  0.17628039  0.15590142  1
  Ca2+  Ca37  1  0.41591474  0.18265523  0.49265018  1
  Ca2+  Ca38  1  0.41717797  0.17353547  0.83348650  1
  Ca2+  Ca39  1  0.42244639  0.66989911  0.15886908  1
  Ca2+  Ca40  1  0.41452391  0.66212248  0.49732626  1
  Ca2+  Ca41  1  0.41854582  0.66600955  0.83387515  1
  Ca2+  Ca42  1  0.91807249  0.17698316  0.16543489  1
  Ca2+  Ca43  1  0.92012831  0.16752631  0.49272647  1
  Ca2+  Ca44  1  0.90971170  0.17152325  0.83172915  1
  Ca2+  Ca45  1  0.91429153  0.67386838  0.15921046  1
  Ca2+  Ca46  1  0.92123146  0.66782726  0.49182394  1
  Ca2+  Ca47  1  0.92974379  0.67252445  0.83137994  1
  Al0+  Al48  1  0.00016648  0.00092460  0.00391318  1
  Al0+  Al49  1  0.00073585  -0.00232189  0.32498059  1
  Al0+  Al50  1  -0.00122706  -0.00036830  0.67584386  1
  Al0+  Al51  1  -0.00002097  0.50078428  -0.00793264  1
  Al0+  Al52  1  0.00254718  0.49967637  0.33287398  1
  Al0+  Al53  1  0.00065877  0.50129460  0.65972686  1
  Al0+  Al54  1  0.50091230  0.00097668  -0.00442277  1
  Al0+  Al55  1  0.49790353  0.00101855  0.34026752  1
  Al0+  Al56  1  0.50059678  0.00038312  0.66469448  1
  Al0+  Al57  1  0.50023357  0.49933907  -0.00177785  1
  Al0+  Al58  1  0.50041665  0.50196903  0.33759278  1
  Al0+  Al59  1  0.50039938  0.50114928  0.67063330  1
  Al0+  Al60  1  0.24906381  0.25065446  0.00040482  1
  Al0+  Al61  1  0.25141476  0.24970125  0.32542214  1
  Al0+  Al62  1  0.24962421  0.25186825  0.66114602  1
  Al0+  Al63  1  0.24942570  0.75034239  0.00112414  1
  Al0+  Al64  1  0.25009130  0.75151673  0.33782004  1
  Al0+  Al65  1  0.25042465  0.74950182  0.66935924  1
  Al0+  Al66  1  0.74881324  0.25034190  -0.00037577  1
  Al0+  Al67  1  0.74870759  0.24709582  0.33502097  1
  Al0+  Al68  1  0.74786207  0.24865036  0.67301987  1
  Al0+  Al69  1  0.75187844  0.74996071  -0.01195083  1
  Al0+  Al70  1  0.74907675  0.74829645  0.33956040  1
  Al0+  Al71  1  0.74954135  0.74971350  0.66636038  1
  Al0+  Al72  1  0.82414545  0.57113542  0.34658223  1
  Al0+  Al73  1  0.92789761  0.82411221  0.98333536  1
  Al0+  Al74  1  0.67738679  0.92794510  0.34504764  1
  Al0+  Al75  1  0.07141116  0.67932092  0.98577679  1
  Al0+  Al76  1  0.92821787  0.81712666  0.32147704  1
  Al0+  Al77  1  0.42926786  0.82125286  0.98660626  1
  Al0+  Al78  1  0.43029444  0.32101837  0.65110902  1
  Al0+  Al79  1  0.07190631  0.17670299  0.31683221  1
  Al0+  Al80  1  0.18053268  0.93081542  0.68065060  1
  Al0+  Al81  1  0.17876454  0.92720083  0.02006249  1
  Al0+  Al82  1  0.92890408  0.32001121  0.98589131  1
  Al0+  Al83  1  0.81856463  0.06845595  0.68042934  1
  Al0+  Al84  1  0.57191036  0.67727324  0.98511079  1
  Al0+  Al85  1  0.68137933  0.43147115  0.68309020  1
  Al0+  Al86  1  0.31924546  0.57102233  0.34617851  1
  Al0+  Al87  1  0.67906361  0.43002030  0.01514269  1
  Al0+  Al88  1  0.32289880  0.07229807  0.01581195  1
  Al0+  Al89  1  0.07218904  0.68019209  0.64954414  1
  Al0+  Al90  1  0.92622649  0.32239569  0.31944262  1
  Al0+  Al91  1  0.42667111  0.32184512  0.98480492  1
  Al0+  Al92  1  0.67975377  0.42652819  0.34839049  1
  Al0+  Al93  1  0.43313437  0.32310261  0.31934684  1
  Al0+  Al94  1  0.31930519  0.56876082  0.68282092  1
  Al0+  Al95  1  0.57141945  0.17865653  0.98528773  1
  Si0+  Si96  1  0.82548261  0.57362081  0.68440992  1
  Si0+  Si97  1  0.07180268  0.17868213  0.98200701  1
  Si0+  Si98  1  0.42712495  0.82335087  0.32135691  1
  Si0+  Si99  1  0.06913148  0.17844510  0.65482136  1
  Si0+  Si100  1  0.68097707  0.92772059  0.01216048  1
  Si0+  Si101  1  0.82308564  0.57207004  0.01300003  1
  Si0+  Si102  1  0.57079446  0.17454970  0.31854578  1
  Si0+  Si103  1  0.57084899  0.67913865  0.64914197  1
  Si0+  Si104  1  0.92833838  0.82333718  0.64936245  1
  Si0+  Si105  1  0.32039991  0.56925508  0.01525789  1
  Si0+  Si106  1  0.67518241  0.92540569  0.68519191  1
  Si0+  Si107  1  0.42945203  0.82112359  0.65051810  1
  Si0+  Si108  1  0.56922820  0.68153188  0.32122283  1
  Si0+  Si109  1  0.82092334  0.07235006  0.01786317  1
  Si0+  Si110  1  0.57348474  0.17716453  0.64730108  1
  Si0+  Si111  1  0.17571445  0.42619099  0.68166395  1
  Si0+  Si112  1  0.82329451  0.06933393  0.34745563  1
  Si0+  Si113  1  0.07521842  0.67848552  0.31797232  1
  Si0+  Si114  1  0.32273305  0.07522800  0.68139091  1
  Si0+  Si115  1  0.32075126  0.07271256  0.34990175  1
  Si0+  Si116  1  0.17896956  0.93054382  0.34910173  1
  Si0+  Si117  1  0.17865797  0.42540455  0.34881613  1
  Si0+  Si118  1  0.17573938  0.42874088  0.01419038  1
  Si0+  Si119  1  0.92658098  0.31989420  0.65244663  1
  O2-  O120  1  0.25141299  0.00028366  0.06810510  1
  O2-  O121  1  0.24761860  0.00365213  0.39245040  1
  O2-  O122  1  0.25619174  0.00523857  0.72568095  1
  O2-  O123  1  0.24990113  0.49705711  0.05638953  1
  O2-  O124  1  0.24527463  0.49578091  0.39379001  1
  O2-  O125  1  0.24362583  0.49432419  0.72799596  1
  O2-  O126  1  0.75285492  -0.00322426  0.05719685  1
  O2-  O127  1  0.75319042  0.00175417  0.39167934  1
  O2-  O128  1  0.74374659  -0.00579240  0.72843175  1
  O2-  O129  1  0.75327893  0.50619858  0.05947588  1
  O2-  O130  1  0.75879353  0.49257409  0.39703158  1
  O2-  O131  1  0.75865150  0.50400815  0.72946724  1
  O2-  O132  1  0.00014955  0.25118875  0.27049301  1
  O2-  O133  1  0.00041378  0.25113531  0.61116326  1
  O2-  O134  1  0.00242561  0.24547481  0.93604387  1
  O2-  O135  1  -0.00041945  0.73941115  0.27476192  1
  O2-  O136  1  -0.00616796  0.75215378  0.60412093  1
  O2-  O137  1  0.00335111  0.75501458  0.93522350  1
  O2-  O138  1  0.50868648  0.24884499  0.27461030  1
  O2-  O139  1  0.50306057  0.24413766  0.60345799  1
  O2-  O140  1  0.49762865  0.24871553  0.93539489  1
  O2-  O141  1  0.49990893  0.75457227  0.27945016  1
  O2-  O142  1  0.50332866  0.75395079  0.60642156  1
  O2-  O143  1  0.49928669  0.74864778  0.93450268  1
  O2-  O144  1  0.07042549  0.18126732  0.08747963  1
  O2-  O145  1  0.06965301  0.17519074  0.43173813  1
  O2-  O146  1  0.06898521  0.17982241  0.75948432  1
  O2-  O147  1  0.06993786  0.67767384  0.09965355  1
  O2-  O148  1  0.07875126  0.68426477  0.42359669  1
  O2-  O149  1  0.07284333  0.68206178  0.76205073  1
  O2-  O150  1  0.57204200  0.17838023  0.09925404  1
  O2-  O151  1  0.56661262  0.16985323  0.42411309  1
  O2-  O152  1  0.57387838  0.17633223  0.75238132  1
  O2-  O153  1  0.57134056  0.67896430  0.09943864  1
  O2-  O154  1  0.56743522  0.68254581  0.42674496  1
  O2-  O155  1  0.56937236  0.68002042  0.75390815  1
  O2-  O156  1  0.17938062  0.42666240  0.24311124  1
  O2-  O157  1  0.17636689  0.42513243  0.57615452  1
  O2-  O158  1  0.17447740  0.42951964  0.90894169  1
  O2-  O159  1  0.18184500  0.92783099  0.24494732  1
  O2-  O160  1  0.17958629  0.93368953  0.56657238  1
  O2-  O161  1  0.18082539  0.92869279  0.90610626  1
  O2-  O162  1  0.67667949  0.43060555  0.23523375  1
  O2-  O163  1  0.68268554  0.43227641  0.56986171  1
  O2-  O164  1  0.67995549  0.43061346  0.90180643  1
  O2-  O165  1  0.67568402  0.92743649  0.23195794  1
  O2-  O166  1  0.67505017  0.92593526  0.57922686  1
  O2-  O167  1  0.68182654  0.92941582  0.90703286  1
  O2-  O168  1  0.42980074  0.32383798  0.09853752  1
  O2-  O169  1  0.43296763  0.32247020  0.43281835  1
  O2-  O170  1  0.43008565  0.31963583  0.76347573  1
  O2-  O171  1  0.43218037  0.81934229  0.10105893  1
  O2-  O172  1  0.42672929  0.82265162  0.42689240  1
  O2-  O173  1  0.43022061  0.82089773  0.75504024  1
  O2-  O174  1  0.92985895  0.31959370  0.09862298  1
  O2-  O175  1  0.92780813  0.31712041  0.43392975  1
  O2-  O176  1  0.92721629  0.31862101  0.75754819  1
  O2-  O177  1  0.92418117  0.81952835  0.09722174  1
  O2-  O178  1  0.93200808  0.82050999  0.43481719  1
  O2-  O179  1  0.92950690  0.82374615  0.75440095  1
  O2-  O180  1  0.32467460  0.06988200  0.24560251  1
  O2-  O181  1  0.32020641  0.07374450  0.57515453  1
  O2-  O182  1  0.31910162  0.07181184  0.90168241  1
  O2-  O183  1  0.31942844  0.57330732  0.23312451  1
  O2-  O184  1  0.31963668  0.56880989  0.56936863  1
  O2-  O185  1  0.31996694  0.56922816  0.91013453  1
  O2-  O186  1  0.82253282  0.06888734  0.24212928  1
  O2-  O187  1  0.81980845  0.06710411  0.56693297  1
  O2-  O188  1  0.81936749  0.07307666  0.91244235  1
  O2-  O189  1  0.81752512  0.57571899  0.23324394  1
  O2-  O190  1  0.82399806  0.57335064  0.57869833  1
  O2-  O191  1  0.82327940  0.56823221  0.90729385  1
  O2-  O192  1  0.04330949  0.08019038  0.26133242  1
  O2-  O193  1  0.03797108  0.08685479  0.60828034  1
  O2-  O194  1  0.04704771  0.08406142  0.93877024  1
  O2-  O195  1  0.06139032  0.58130983  0.27631532  1
  O2-  O196  1  0.04597990  0.58225702  0.59431260  1
  O2-  O197  1  0.04271011  0.58330530  0.92782052  1
  O2-  O198  1  0.53855502  0.08293690  0.27126222  1
  O2-  O199  1  0.55141909  0.08167756  0.60179043  1
  O2-  O200  1  0.54741472  0.08059882  0.92956229  1
  O2-  O201  1  0.53861730  0.59129696  0.27358985  1
  O2-  O202  1  0.53800719  0.58923815  0.60214594  1
  O2-  O203  1  0.53950854  0.58148594  0.93059972  1
  O2-  O204  1  0.16988389  0.20350082  0.26308253  1
  O2-  O205  1  0.16093156  0.20257447  0.60462001  1
  O2-  O206  1  0.16460482  0.20483902  0.93553667  1
  O2-  O207  1  0.16600490  0.71249882  0.27063984  1
  O2-  O208  1  0.16875340  0.71458867  0.59674260  1
  O2-  O209  1  0.17024503  0.70623245  0.93331581  1
  O2-  O210  1  0.66744808  0.19061028  0.27627945  1
  O2-  O211  1  0.66714052  0.20480370  0.60205449  1
  O2-  O212  1  0.66851389  0.20904960  0.93117646  1
  O2-  O213  1  0.66098837  0.70812887  0.27470665  1
  O2-  O214  1  0.66435015  0.70397200  0.60241167  1
  O2-  O215  1  0.66787119  0.70485944  0.92762457  1
  O2-  O216  1  0.08507354  0.46064922  0.06191703  1
  O2-  O217  1  0.08422672  0.44650428  0.39537693  1
  O2-  O218  1  0.08084751  0.45131723  0.72587109  1
  O2-  O219  1  0.07969239  0.95699537  0.07167570  1
  O2-  O220  1  0.08598427  0.95760968  0.39493764  1
  O2-  O221  1  0.08544664  0.96057234  0.73664869  1
  O2-  O222  1  0.58200878  0.46149358  0.06790061  1
  O2-  O223  1  0.58541996  0.46550762  0.40358368  1
  O2-  O224  1  0.58624194  0.46616226  0.73626882  1
  O2-  O225  1  0.58911785  0.95527891  0.05928921  1
  O2-  O226  1  0.58198434  0.95889985  0.40351325  1
  O2-  O227  1  0.58060216  0.95051794  0.72953275  1
  O2-  O228  1  0.19872885  0.33606381  0.06151369  1
  O2-  O229  1  0.20528591  0.33121654  0.39376709  1
  O2-  O230  1  0.20019307  0.33189768  0.72745102  1
  O2-  O231  1  0.20754636  0.82860910  0.07269227  1
  O2-  O232  1  0.20978762  0.84077534  0.39970550  1
  O2-  O233  1  0.21401705  0.83548523  0.73361198  1
  O2-  O234  1  0.71115772  0.33344306  0.06781368  1
  O2-  O235  1  0.70015586  0.32548070  0.40125448  1
  O2-  O236  1  0.70886447  0.33386676  0.73599159  1
  O2-  O237  1  0.70798397  0.83414855  0.05706706  1
  O2-  O238  1  0.70725180  0.83354229  0.40363047  1
  O2-  O239  1  0.69925279  0.83088609  0.72967570  1
  O2-  O240  1  0.46230425  0.42098648  0.26737216  1
  O2-  O241  1  0.46493622  0.41829360  0.59991539  1
  O2-  O242  1  0.45736452  0.41880169  0.93134963  1
  O2-  O243  1  0.45237072  0.91650200  0.27644621  1
  O2-  O244  1  0.45321027  0.91475385  0.60265707  1
  O2-  O245  1  0.45805213  0.91770661  0.93100124  1
  O2-  O246  1  0.95390952  0.42137853  0.26692577  1
  O2-  O247  1  0.94991306  0.41265292  0.60521435  1
  O2-  O248  1  0.95997541  0.41471628  0.92891390  1
  O2-  O249  1  0.95917171  0.91166137  0.26479164  1
  O2-  O250  1  0.95784973  0.91692035  0.60483163  1
  O2-  O251  1  0.95300211  0.92520940  0.93492212  1
  O2-  O252  1  0.33660970  0.29355275  0.26581888  1
  O2-  O253  1  0.33236684  0.29376096  0.59564540  1
  O2-  O254  1  0.32690289  0.29694820  0.93258263  1
  O2-  O255  1  0.33626863  0.79348239  0.27404753  1
  O2-  O256  1  0.33879954  0.79028064  0.60274721  1
  O2-  O257  1  0.33118416  0.79268483  0.93489649  1
  O2-  O258  1  0.82780166  0.29181510  0.26746871  1
  O2-  O259  1  0.83563461  0.28726341  0.60665337  1
  O2-  O260  1  0.83382010  0.28629985  0.93160214  1
  O2-  O261  1  0.82947520  0.78925473  0.27005803  1
  O2-  O262  1  0.83208469  0.80181583  0.60564841  1
  O2-  O263  1  0.83265660  0.79621794  0.92429784  1
  O2-  O264  1  0.42245806  0.04343047  0.06708657  1
  O2-  O265  1  0.40985457  0.04338525  0.40235643  1
  O2-  O266  1  0.41819306  0.05170206  0.72396050  1
  O2-  O267  1  0.41226682  0.54206419  0.06266897  1
  O2-  O268  1  0.41499377  0.54115907  0.40258068  1
  O2-  O269  1  0.41543889  0.53856502  0.73691144  1
  O2-  O270  1  0.91408519  0.05035854  0.06445287  1
  O2-  O271  1  0.91671372  0.04066693  0.39310534  1
  O2-  O272  1  0.91337268  0.03957649  0.73902578  1
  O2-  O273  1  0.91676660  0.54579073  0.05833943  1
  O2-  O274  1  0.92620009  0.55254679  0.39712985  1
  O2-  O275  1  0.92095126  0.54992503  0.72694090  1
  O2-  O276  1  0.29310017  0.17118548  0.06842283  1
  O2-  O277  1  0.29346355  0.16572255  0.39545555  1
  O2-  O278  1  0.29597890  0.16893765  0.72553744  1
  O2-  O279  1  0.29261693  0.66068759  0.06328817  1
  O2-  O280  1  0.28905890  0.66756627  0.40301360  1
  O2-  O281  1  0.28949874  0.66564122  0.73581824  1
  O2-  O282  1  0.78854743  0.16198849  0.06609040  1
  O2-  O283  1  0.79923396  0.16217018  0.39611853  1
  O2-  O284  1  0.78784170  0.16383290  0.73707517  1
  O2-  O285  1  0.79900164  0.66818856  0.05443029  1
  O2-  O286  1  0.78845449  0.66492937  0.40584796  1
  O2-  O287  1  0.79904296  0.66796186  0.72853598  1
