# generated using pymatgen
data_Ca2Al2SiO7
_symmetry_space_group_name_H-M   'P 1'
_cell_length_a   15.46014975
_cell_length_b   15.46136283
_cell_length_c   15.28496477
_cell_angle_alpha   90.01397287
_cell_angle_beta   90.00009358
_cell_angle_gamma   90.01045663
_symmetry_Int_Tables_number   1
_chemical_formula_structural   Ca2Al2SiO7
_chemical_formula_sum   'Ca48 Al48 Si24 O168'
_cell_volume   3653.64115111
_cell_formula_units_Z   24
loop_
 _symmetry_equiv_pos_site_id
 _symmetry_equiv_pos_as_xyz
  1  'x, y, z'
loop_
 _atom_type_symbol
 _atom_type_oxidation_number
  Ca2+  2.0
  Al0+  0.0
  Si0+  0.0
  O2-  -2.0
loop_
 _atom_site_type_symbol
 _atom_site_label
 _atom_site_symmetry_multiplicity
 _atom_site_fract_x
 _atom_site_fract_y
 _atom_site_fract_z
 _atom_site_occupancy
  Ca2+  Ca0  1  0.17515731  0.07520771  0.17783770  1
  Ca2+  Ca1  1  0.17212822  0.07088672  0.49997392  1
  Ca2+  Ca2  1  0.16785993  0.07747968  0.83447495  1
  Ca2+  Ca3  1  0.17320488  0.57358939  0.17364919  1
  Ca2+  Ca4  1  0.17162501  0.57743096  0.50188833  1
  Ca2+  Ca5  1  0.16102708  0.57744590  0.83268654  1
  Ca2+  Ca6  1  0.66504348  0.07657804  0.17336446  1
  Ca2+  Ca7  1  0.65910099  0.07388424  0.49786345  1
  Ca2+  Ca8  1  0.66323136  0.07274672  0.83962909  1
  Ca2+  Ca9  1  0.67199439  0.58906483  0.17194782  1
  Ca2+  Ca10  1  0.68027108  0.58751977  0.50346938  1
  Ca2+  Ca11  1  0.67215276  0.58818209  0.83769196  1
  Ca2+  Ca12  1  0.08164172  0.33679597  0.16217445  1
  Ca2+  Ca13  1  0.08138502  0.34218986  0.49860218  1
  Ca2+  Ca14  1  0.07668709  0.34188404  0.82845582  1
  Ca2+  Ca15  1  0.07695768  0.83523537  0.16153218  1
  Ca2+  Ca16  1  0.09136375  0.82905119  0.49590587  1
  Ca2+  Ca17  1  0.07742941  0.82930385  0.82259986  1
  Ca2+  Ca18  1  0.58001123  0.32075641  0.16413846  1
  Ca2+  Ca19  1  0.57626004  0.32440742  0.48634286  1
  Ca2+  Ca20  1  0.58735790  0.32326226  0.82990670  1
  Ca2+  Ca21  1  0.57559620  0.83516188  0.15962163  1
  Ca2+  Ca22  1  0.57581657  0.84042414  0.49513123  1
  Ca2+  Ca23  1  0.57730069  0.83635651  0.83242926  1
  Ca2+  Ca24  1  0.32525769  0.41930033  0.17891783  1
  Ca2+  Ca25  1  0.32613259  0.41499092  0.50287683  1
  Ca2+  Ca26  1  0.31925597  0.41663287  0.84184875  1
  Ca2+  Ca27  1  0.33414970  0.91722027  0.17686593  1
  Ca2+  Ca28  1  0.33186159  0.91458566  0.50136454  1
  Ca2+  Ca29  1  0.33269814  0.90752792  0.83213542  1
  Ca2+  Ca30  1  0.83368848  0.42214692  0.17172650  1
  Ca2+  Ca31  1  0.83810996  0.42651901  0.50491452  1
  Ca2+  Ca32  1  0.84318778  0.42172898  0.83445885  1
  Ca2+  Ca33  1  0.82156642  0.91823519  0.17446141  1
  Ca2+  Ca34  1  0.81978557  0.92274309  0.50266316  1
  Ca2+  Ca35  1  0.82124525  0.91044017  0.84059078  1
  Ca2+  Ca36  1  0.42541387  0.16126841  0.16902950  1
  Ca2+  Ca37  1  0.41833339  0.16986090  0.48751729  1
  Ca2+  Ca38  1  0.42292268  0.16354883  0.83404717  1
  Ca2+  Ca39  1  0.41697627  0.67623084  0.16286776  1
  Ca2+  Ca40  1  0.41146125  0.67697163  0.49239083  1
  Ca2+  Ca41  1  0.42201581  0.67617030  0.82996859  1
  Ca2+  Ca42  1  0.91583220  0.16956911  0.16148051  1
  Ca2+  Ca43  1  0.91472813  0.17071301  0.49399227  1
  Ca2+  Ca44  1  0.91533594  0.18138084  0.82853321  1
  Ca2+  Ca45  1  0.91579400  0.67274902  0.16262972  1
  Ca2+  Ca46  1  0.92173201  0.65947725  0.49878699  1
  Ca2+  Ca47  1  0.92027007  0.67058913  0.82780801  1
  Al0+  Al48  1  -0.00082707  0.00150545  -0.00568559  1
  Al0+  Al49  1  -0.00182659  0.00030499  0.33970404  1
  Al0+  Al50  1  -0.00015349  0.00213182  0.67063822  1
  Al0+  Al51  1  0.00013796  0.50019306  0.00255886  1
  Al0+  Al52  1  0.00052725  0.50100296  0.33696135  1
  Al0+  Al53  1  0.00025958  0.50175035  0.66617735  1
  Al0+  Al54  1  0.49928075  0.00027630  -0.00455458  1
  Al0+  Al55  1  0.49902863  -0.00015486  0.33226277  1
  Al0+  Al56  1  0.50054984  -0.00000332  0.66750015  1
  Al0+  Al57  1  0.50035035  0.50026121  -0.00340340  1
  Al0+  Al58  1  0.50001290  0.50095950  0.33248123  1
  Al0+  Al59  1  0.50170429  0.50033886  0.66705756  1
  Al0+  Al60  1  0.24913836  0.24793899  0.00499476  1
  Al0+  Al61  1  0.24651448  0.24836306  0.33678188  1
  Al0+  Al62  1  0.24986053  0.24884556  0.67257617  1
  Al0+  Al63  1  0.24947261  0.74815936  -0.00292825  1
  Al0+  Al64  1  0.24898997  0.74540760  0.33193856  1
  Al0+  Al65  1  0.25003142  0.74995370  0.66347646  1
  Al0+  Al66  1  0.75097395  0.25140964  -0.00928800  1
  Al0+  Al67  1  0.75076702  0.25081916  0.33096794  1
  Al0+  Al68  1  0.75079556  0.25060095  0.65950348  1
  Al0+  Al69  1  0.74994718  0.75044711  -0.00159213  1
  Al0+  Al70  1  0.75134943  0.75058214  0.34281535  1
  Al0+  Al71  1  0.75040632  0.75065278  0.67509298  1
  Al0+  Al72  1  0.82163408  0.07413918  0.34686632  1
  Al0+  Al73  1  0.06897764  0.68123457  0.65151834  1
  Al0+  Al74  1  0.93181012  0.32032336  0.65007095  1
  Al0+  Al75  1  0.82053583  0.56908490  0.68323025  1
  Al0+  Al76  1  0.82003228  0.57071323  0.34622773  1
  Al0+  Al77  1  0.67953374  0.92975144  0.01483708  1
  Al0+  Al78  1  0.67779665  0.92962518  0.34761435  1
  Al0+  Al79  1  0.32419338  0.57060033  0.34766881  1
  Al0+  Al80  1  0.92908410  0.82259291  0.98772553  1
  Al0+  Al81  1  0.17920539  0.42795792  0.34930850  1
  Al0+  Al82  1  0.57239728  0.67737537  0.98546801  1
  Al0+  Al83  1  0.57014845  0.18046648  0.98468285  1
  Al0+  Al84  1  0.18155648  0.43005619  0.68205795  1
  Al0+  Al85  1  0.17765793  0.92577785  0.34568053  1
  Al0+  Al86  1  0.42750598  0.82151154  0.98393770  1
  Al0+  Al87  1  0.93140745  0.32136361  0.98710183  1
  Al0+  Al88  1  0.17892282  0.42981310  0.01519001  1
  Al0+  Al89  1  0.67943031  0.93191034  0.68360317  1
  Al0+  Al90  1  0.42877609  0.81854535  0.31990445  1
  Al0+  Al91  1  0.32138124  0.06948031  0.34738141  1
  Al0+  Al92  1  0.57143837  0.17893372  0.31751606  1
  Al0+  Al93  1  0.42498794  0.32291494  0.31919451  1
  Al0+  Al94  1  0.43165619  0.81910772  0.65041168  1
  Al0+  Al95  1  0.17936691  0.92767821  0.68137539  1
  Si0+  Si96  1  0.67802456  0.42626625  0.01343839  1
  Si0+  Si97  1  0.92585099  0.82442849  0.64913292  1
  Si0+  Si98  1  0.92845403  0.82160956  0.32121046  1
  Si0+  Si99  1  0.32218565  0.07122487  0.68551735  1
  Si0+  Si100  1  0.32438879  0.57303411  0.68465728  1
  Si0+  Si101  1  0.82174553  0.07454738  0.01362100  1
  Si0+  Si102  1  0.42590484  0.32184966  0.98394120  1
  Si0+  Si103  1  0.06887877  0.17610102  0.31878685  1
  Si0+  Si104  1  0.67746522  0.42634533  0.68282694  1
  Si0+  Si105  1  0.32383216  0.57222552  0.01587873  1
  Si0+  Si106  1  0.57475864  0.67669231  0.64892303  1
  Si0+  Si107  1  0.57616908  0.67862258  0.31951049  1
  Si0+  Si108  1  0.07437716  0.17742588  0.98280523  1
  Si0+  Si109  1  0.81962499  0.56987745  0.01545885  1
  Si0+  Si110  1  0.06935159  0.67783139  0.31648913  1
  Si0+  Si111  1  0.93088232  0.32270383  0.31785840  1
  Si0+  Si112  1  0.82239522  0.07535445  0.68502833  1
  Si0+  Si113  1  0.42731336  0.32155553  0.65463690  1
  Si0+  Si114  1  0.56955675  0.18009067  0.65069692  1
  Si0+  Si115  1  0.32029900  0.06935668  0.01531557  1
  Si0+  Si116  1  0.17672570  0.92766035  0.01243703  1
  Si0+  Si117  1  0.07025153  0.67867135  0.98448111  1
  Si0+  Si118  1  0.07442317  0.17644523  0.64860900  1
  Si0+  Si119  1  0.67779189  0.42718028  0.34744867  1
  O2-  O120  1  0.24947498  -0.00361504  0.05486030  1
  O2-  O121  1  0.25270641  -0.00594817  0.39638434  1
  O2-  O122  1  0.25324536  0.00249526  0.72969737  1
  O2-  O123  1  0.25782702  0.50058237  0.05963623  1
  O2-  O124  1  0.25713671  0.49409001  0.39784813  1
  O2-  O125  1  0.25875151  0.50165342  0.72983209  1
  O2-  O126  1  0.75569550  0.00460456  0.05907202  1
  O2-  O127  1  0.74740191  0.00493828  0.39680192  1
  O2-  O128  1  0.75724216  0.00427405  0.73020224  1
  O2-  O129  1  0.74593146  0.50048427  0.05615618  1
  O2-  O130  1  0.74378417  0.49766088  0.39267595  1
  O2-  O131  1  0.74416793  0.49550084  0.72955239  1
  O2-  O132  1  -0.00085272  0.24889579  0.27619034  1
  O2-  O133  1  0.00556951  0.24463723  0.60357752  1
  O2-  O134  1  0.00685427  0.24771207  0.93963008  1
  O2-  O135  1  0.00066992  0.75242958  0.27651457  1
  O2-  O136  1  -0.00297351  0.75903173  0.60384591  1
  O2-  O137  1  0.00704166  0.75198345  0.94003446  1
  O2-  O138  1  0.49803716  0.25141695  0.26912339  1
  O2-  O139  1  0.50039612  0.25385061  0.61119306  1
  O2-  O140  1  0.49656075  0.25662366  0.93709890  1
  O2-  O141  1  0.50535492  0.74461464  0.27493167  1
  O2-  O142  1  0.50545618  0.74330172  0.60373342  1
  O2-  O143  1  0.50025802  0.74913500  0.93548023  1
  O2-  O144  1  0.07371812  0.17494970  0.08836363  1
  O2-  O145  1  0.06726074  0.17436732  0.42364817  1
  O2-  O146  1  0.07394758  0.17720682  0.75450769  1
  O2-  O147  1  0.06805137  0.67832568  0.09020662  1
  O2-  O148  1  0.06794410  0.67546372  0.42140382  1
  O2-  O149  1  0.06631972  0.68160434  0.76524514  1
  O2-  O150  1  0.57037340  0.18065322  0.09700709  1
  O2-  O151  1  0.57091650  0.18151375  0.43160532  1
  O2-  O152  1  0.56929706  0.18064621  0.75619441  1
  O2-  O153  1  0.57349436  0.67796597  0.09909565  1
  O2-  O154  1  0.57888170  0.68061423  0.42499335  1
  O2-  O155  1  0.57323455  0.67585584  0.75441982  1
  O2-  O156  1  0.17529509  0.43216053  0.23545911  1
  O2-  O157  1  0.18345272  0.43003264  0.56964281  1
  O2-  O158  1  0.17772705  0.43282788  0.90189717  1
  O2-  O159  1  0.17486433  0.92937497  0.23130226  1
  O2-  O160  1  0.18144208  0.92865961  0.56887032  1
  O2-  O161  1  0.17637064  0.92957487  0.90733666  1
  O2-  O162  1  0.68164834  0.42640849  0.24151899  1
  O2-  O163  1  0.67724058  0.42638246  0.57745531  1
  O2-  O164  1  0.68035976  0.42495852  0.90829535  1
  O2-  O165  1  0.68028520  0.92707116  0.23389614  1
  O2-  O166  1  0.67762322  0.93469154  0.57083833  1
  O2-  O167  1  0.68024477  0.93199375  0.90154125  1
  O2-  O168  1  0.42636208  0.31997116  0.08893669  1
  O2-  O169  1  0.42832276  0.32053592  0.43367690  1
  O2-  O170  1  0.42789429  0.31919835  0.76002914  1
  O2-  O171  1  0.42574318  0.82107804  0.09742651  1
  O2-  O172  1  0.42930696  0.81801421  0.43296972  1
  O2-  O173  1  0.43271244  0.81806789  0.76347795  1
  O2-  O174  1  0.93120487  0.32150489  0.10036789  1
  O2-  O175  1  0.93243296  0.32420567  0.42282529  1
  O2-  O176  1  0.93310564  0.32042526  0.76348495  1
  O2-  O177  1  0.93012785  0.82096654  0.10139860  1
  O2-  O178  1  0.92833303  0.81972338  0.42601733  1
  O2-  O179  1  0.92720364  0.82122758  0.75517759  1
  O2-  O180  1  0.31900594  0.06817077  0.23317138  1
  O2-  O181  1  0.32246887  0.07341988  0.58051371  1
  O2-  O182  1  0.31849393  0.07284077  0.91004801  1
  O2-  O183  1  0.31871657  0.57278350  0.23373873  1
  O2-  O184  1  0.32415703  0.57124629  0.57937355  1
  O2-  O185  1  0.32241543  0.57180099  0.91015728  1
  O2-  O186  1  0.82398875  0.07158240  0.23286524  1
  O2-  O187  1  0.82058609  0.07604318  0.57968558  1
  O2-  O188  1  0.81991390  0.07525926  0.90805055  1
  O2-  O189  1  0.82086573  0.57022596  0.23258450  1
  O2-  O190  1  0.82010251  0.56719010  0.57009326  1
  O2-  O191  1  0.82219583  0.56794442  0.91053106  1
  O2-  O192  1  0.03942153  0.08507048  0.26966603  1
  O2-  O193  1  0.04913517  0.08213927  0.60365746  1
  O2-  O194  1  0.04836012  0.08536868  0.93328354  1
  O2-  O195  1  0.03576702  0.58805398  0.26790848  1
  O2-  O196  1  0.03459910  0.58643514  0.59710421  1
  O2-  O197  1  0.03777084  0.58748514  0.93783679  1
  O2-  O198  1  0.54179340  0.08138510  0.26410808  1
  O2-  O199  1  0.53839789  0.08962299  0.60429702  1
  O2-  O200  1  0.53545921  0.08638643  0.92857843  1
  O2-  O201  1  0.55638907  0.58330670  0.27425658  1
  O2-  O202  1  0.55380357  0.58084528  0.60419052  1
  O2-  O203  1  0.54780071  0.57795006  0.93023931  1
  O2-  O204  1  0.16059973  0.20249376  0.27073580  1
  O2-  O205  1  0.16908752  0.20228767  0.60537626  1
  O2-  O206  1  0.16847047  0.20167410  0.93697378  1
  O2-  O207  1  0.16075481  0.70208227  0.26713921  1
  O2-  O208  1  0.16625336  0.70854411  0.59774830  1
  O2-  O209  1  0.16514520  0.69697759  0.93864832  1
  O2-  O210  1  0.66998414  0.20847040  0.26389826  1
  O2-  O211  1  0.66140249  0.20539307  0.60278801  1
  O2-  O212  1  0.66519842  0.21159385  0.92730075  1
  O2-  O213  1  0.67003609  0.70625978  0.27371690  1
  O2-  O214  1  0.66945168  0.70431113  0.60655379  1
  O2-  O215  1  0.67031122  0.70570723  0.93176361  1
  O2-  O216  1  0.08365229  0.46394283  0.07001969  1
  O2-  O217  1  0.08374958  0.46431541  0.40293793  1
  O2-  O218  1  0.08574953  0.46569225  0.73414191  1
  O2-  O219  1  0.08478187  0.95741496  0.05906540  1
  O2-  O220  1  0.08173670  0.95669804  0.40139883  1
  O2-  O221  1  0.08182180  0.95786576  0.73567329  1
  O2-  O222  1  0.58407182  0.44870595  0.05889291  1
  O2-  O223  1  0.58315921  0.44782206  0.39260251  1
  O2-  O224  1  0.58288146  0.44819140  0.72986164  1
  O2-  O225  1  0.58155356  0.96202424  0.06462501  1
  O2-  O226  1  0.58034475  0.95874806  0.40078802  1
  O2-  O227  1  0.58389766  0.96689728  0.73751614  1
  O2-  O228  1  0.20459041  0.33084792  0.06721728  1
  O2-  O229  1  0.19742438  0.32765614  0.40127741  1
  O2-  O230  1  0.20860503  0.33235338  0.73720351  1
  O2-  O231  1  0.19960851  0.83361405  0.05747719  1
  O2-  O232  1  0.20201423  0.82612395  0.39552691  1
  O2-  O233  1  0.21047567  0.83095604  0.73504886  1
  O2-  O234  1  0.71086062  0.33601168  0.06069910  1
  O2-  O235  1  0.70559623  0.33520347  0.39503011  1
  O2-  O236  1  0.70515193  0.33222095  0.72724875  1
  O2-  O237  1  0.71133893  0.83281382  0.06713352  1
  O2-  O238  1  0.70965648  0.83458575  0.40486840  1
  O2-  O239  1  0.70777892  0.83485463  0.73783991  1
  O2-  O240  1  0.45176156  0.42226649  0.26629683  1
  O2-  O241  1  0.45112054  0.41506950  0.60870607  1
  O2-  O242  1  0.44657490  0.41652584  0.93824115  1
  O2-  O243  1  0.45721189  0.91574620  0.26664003  1
  O2-  O244  1  0.46276841  0.91739039  0.59984829  1
  O2-  O245  1  0.45510544  0.91917309  0.92962082  1
  O2-  O246  1  0.96193353  0.41363059  0.26994187  1
  O2-  O247  1  0.96429790  0.41660678  0.59756193  1
  O2-  O248  1  0.96333726  0.41807902  0.93341592  1
  O2-  O249  1  0.95440454  0.91404790  0.27402132  1
  O2-  O250  1  0.94697237  0.92112125  0.60819605  1
  O2-  O251  1  0.95444391  0.91954295  0.93130304  1
  O2-  O252  1  0.32516864  0.29480067  0.26884503  1
  O2-  O253  1  0.33602698  0.29104165  0.60831583  1
  O2-  O254  1  0.33294261  0.29113857  0.93825151  1
  O2-  O255  1  0.33208335  0.78658621  0.26525766  1
  O2-  O256  1  0.33440930  0.78952975  0.59804506  1
  O2-  O257  1  0.32872766  0.79195209  0.93056644  1
  O2-  O258  1  0.83806747  0.29924064  0.27044469  1
  O2-  O259  1  0.83425646  0.29268593  0.59551212  1
  O2-  O260  1  0.83658911  0.29263560  0.92840112  1
  O2-  O261  1  0.83740661  0.78987948  0.27410022  1
  O2-  O262  1  0.83217454  0.79537541  0.60596664  1
  O2-  O263  1  0.83544262  0.78710418  0.93231566  1
  O2-  O264  1  0.41228814  0.04184242  0.06098905  1
  O2-  O265  1  0.41989415  0.04569196  0.40039828  1
  O2-  O266  1  0.41504743  0.04410482  0.73218925  1
  O2-  O267  1  0.41907544  0.55095027  0.06027912  1
  O2-  O268  1  0.42518704  0.55249146  0.39962706  1
  O2-  O269  1  0.41984756  0.55078863  0.72944697  1
  O2-  O270  1  0.91779682  0.05261286  0.05696906  1
  O2-  O271  1  0.91702117  0.04420633  0.40435033  1
  O2-  O272  1  0.91790056  0.05654527  0.73020305  1
  O2-  O273  1  0.91001873  0.53979364  0.06439623  1
  O2-  O274  1  0.91441933  0.53634227  0.40128021  1
  O2-  O275  1  0.91604510  0.53582775  0.73729657  1
  O2-  O276  1  0.29218422  0.15983996  0.06511481  1
  O2-  O277  1  0.28960838  0.16587453  0.40178512  1
  O2-  O278  1  0.29634971  0.16371155  0.73504141  1
  O2-  O279  1  0.29401006  0.66480580  0.06230160  1
  O2-  O280  1  0.28736583  0.66512167  0.40231144  1
  O2-  O281  1  0.29396860  0.66493544  0.73039306  1
  O2-  O282  1  0.79541313  0.16881921  0.05806514  1
  O2-  O283  1  0.79848539  0.17447452  0.39838113  1
  O2-  O284  1  0.79289974  0.16916466  0.72935801  1
  O2-  O285  1  0.79321087  0.66192554  0.06269589  1
  O2-  O286  1  0.79323881  0.66545249  0.40508351  1
  O2-  O287  1  0.79247386  0.66576991  0.73843220  1
