# generated using pymatgen
data_Ca2Al2SiO7
_symmetry_space_group_name_H-M   'P 1'
_cell_length_a   15.45576337
_cell_length_b   15.45516152
_cell_length_c   15.28184052
_cell_angle_alpha   89.99269058
_cell_angle_beta   90.00856763
_cell_angle_gamma   89.99216272
_symmetry_Int_Tables_number   1
_chemical_formula_structural   Ca2Al2SiO7
_chemical_formula_sum   'Ca48 Al48 Si24 O168'
_cell_volume   3650.39330103
_cell_formula_units_Z   24
loop_
 _symmetry_equiv_pos_site_id
 _symmetry_equiv_pos_as_xyz
  1  'x, y, z'
loop_
 _atom_type_symbol
 _atom_type_oxidation_number
  Ca2+  2.0
  Al0+  0.0
  Si0+  0.0
  O2-  -2.0
loop_
 _atom_site_type_symbol
 _atom_site_label
 _atom_site_symmetry_multiplicity
 _atom_site_fract_x
 _atom_site_fract_y
 _atom_site_fract_z
 _atom_site_occupancy
  Ca2+  Ca0  1  0.15546046  0.07449541  0.17061337  1
  Ca2+  Ca1  1  0.16971217  0.07906590  0.50468409  1
  Ca2+  Ca2  1  0.17514374  0.07919985  0.83972750  1
  Ca2+  Ca3  1  0.17584524  0.58694185  0.17767022  1
  Ca2+  Ca4  1  0.16751830  0.57449549  0.49973418  1
  Ca2+  Ca5  1  0.17464298  0.57830990  0.84168787  1
  Ca2+  Ca6  1  0.65856800  0.07564752  0.16688826  1
  Ca2+  Ca7  1  0.67347513  0.08628212  0.51109338  1
  Ca2+  Ca8  1  0.66683541  0.08490846  0.83968835  1
  Ca2+  Ca9  1  0.67202257  0.59041705  0.17429357  1
  Ca2+  Ca10  1  0.66795548  0.58563507  0.50326370  1
  Ca2+  Ca11  1  0.65456222  0.57955432  0.83573518  1
  Ca2+  Ca12  1  0.08415692  0.32968486  0.16745316  1
  Ca2+  Ca13  1  0.08294873  0.33139190  0.48889035  1
  Ca2+  Ca14  1  0.08628203  0.32915183  0.82888968  1
  Ca2+  Ca15  1  0.09351404  0.82423262  0.16433948  1
  Ca2+  Ca16  1  0.08323296  0.82883835  0.49015564  1
  Ca2+  Ca17  1  0.09315292  0.82756781  0.83634746  1
  Ca2+  Ca18  1  0.58188685  0.32724268  0.16024173  1
  Ca2+  Ca19  1  0.58236316  0.33375908  0.50427075  1
  Ca2+  Ca20  1  0.57667072  0.32664844  0.82238889  1
  Ca2+  Ca21  1  0.57833003  0.82358524  0.16188242  1
  Ca2+  Ca22  1  0.57080038  0.82661814  0.49456914  1
  Ca2+  Ca23  1  0.58212163  0.82402177  0.82530820  1
  Ca2+  Ca24  1  0.32998893  0.43137134  0.17425640  1
  Ca2+  Ca25  1  0.32480588  0.41674955  0.50487849  1
  Ca2+  Ca26  1  0.33416995  0.41920004  0.83430965  1
  Ca2+  Ca27  1  0.32314482  0.91432779  0.17296621  1
  Ca2+  Ca28  1  0.33362344  0.91523833  0.50104850  1
  Ca2+  Ca29  1  0.33736490  0.92080071  0.83553627  1
  Ca2+  Ca30  1  0.83308294  0.42075618  0.17539792  1
  Ca2+  Ca31  1  0.83099605  0.42048900  0.50269322  1
  Ca2+  Ca32  1  0.82378728  0.41686159  0.83221593  1
  Ca2+  Ca33  1  0.82532604  0.91291417  0.16760974  1
  Ca2+  Ca34  1  0.83232387  0.92559956  0.50726309  1
  Ca2+  Ca35  1  0.82491875  0.92275616  0.83832635  1
  Ca2+  Ca36  1  0.41946006  0.17136567  0.16167993  1
  Ca2+  Ca37  1  0.41405985  0.16945207  0.50415125  1
  Ca2+  Ca38  1  0.42637817  0.16652448  0.82197785  1
  Ca2+  Ca39  1  0.41795387  0.66562515  0.16370728  1
  Ca2+  Ca40  1  0.42256302  0.67223784  0.49235135  1
  Ca2+  Ca41  1  0.42250529  0.67130118  0.82702193  1
  Ca2+  Ca42  1  0.92789245  0.17151633  0.16652810  1
  Ca2+  Ca43  1  0.92126354  0.17330157  0.49069177  1
  Ca2+  Ca44  1  0.92219500  0.16141630  0.83118856  1
  Ca2+  Ca45  1  0.93130711  0.65831968  0.16635031  1
  Ca2+  Ca46  1  0.92154166  0.66375297  0.49096736  1
  Ca2+  Ca47  1  0.92407399  0.66805422  0.83325077  1
  Al0+  Al48  1  -0.00127401  0.00166902  -0.00013898  1
  Al0+  Al49  1  -0.00200362  0.00019018  0.33457076  1
  Al0+  Al50  1  -0.00038568  -0.00154554  0.67245370  1
  Al0+  Al51  1  -0.00135405  0.49985199  -0.00687728  1
  Al0+  Al52  1  -0.00235133  0.50020808  0.33302976  1
  Al0+  Al53  1  0.00024938  0.49853583  0.67340915  1
  Al0+  Al54  1  0.50058522  0.00089705  0.00223728  1
  Al0+  Al55  1  0.49837545  -0.00168308  0.33029295  1
  Al0+  Al56  1  0.50031175  -0.00176426  0.66208063  1
  Al0+  Al57  1  0.49948845  0.49971448  0.00231049  1
  Al0+  Al58  1  0.50134806  0.49884051  0.33368792  1
  Al0+  Al59  1  0.49992893  0.49912552  0.66236151  1
  Al0+  Al60  1  0.24823576  0.25130595  -0.00385369  1
  Al0+  Al61  1  0.25198505  0.24816916  0.32994553  1
  Al0+  Al62  1  0.25014477  0.24705070  0.67236792  1
  Al0+  Al63  1  0.25087793  0.75029984  0.00139948  1
  Al0+  Al64  1  0.25026470  0.75238366  0.33665343  1
  Al0+  Al65  1  0.24897022  0.74763786  0.66205136  1
  Al0+  Al66  1  0.75099617  0.25071274  -0.00197296  1
  Al0+  Al67  1  0.75059064  0.24951556  0.32791729  1
  Al0+  Al68  1  0.75277638  0.25237971  0.67315686  1
  Al0+  Al69  1  0.74988171  0.75039114  -0.00048008  1
  Al0+  Al70  1  0.74842948  0.75059182  0.33755909  1
  Al0+  Al71  1  0.75439038  0.75139692  0.66359475  1
  Al0+  Al72  1  0.42693114  0.82115896  0.65103733  1
  Al0+  Al73  1  0.17953398  0.42795752  0.34606279  1
  Al0+  Al74  1  0.57121700  0.67787070  0.31716677  1
  Al0+  Al75  1  0.07007574  0.17859212  0.98347323  1
  Al0+  Al76  1  0.82145276  0.07241875  0.68102492  1
  Al0+  Al77  1  0.07288799  0.67973091  0.98607876  1
  Al0+  Al78  1  0.17779275  0.93106857  0.34761939  1
  Al0+  Al79  1  0.17862228  0.42804205  0.68181989  1
  Al0+  Al80  1  0.32057242  0.56935252  0.01277815  1
  Al0+  Al81  1  0.06905347  0.68052022  0.32257582  1
  Al0+  Al82  1  0.92836513  0.32193448  0.31889985  1
  Al0+  Al83  1  0.17992519  0.93146901  0.01330860  1
  Al0+  Al84  1  0.57407419  0.17937915  0.65197612  1
  Al0+  Al85  1  0.32319951  0.57236620  0.35101606  1
  Al0+  Al86  1  0.67866311  0.43254082  0.68018980  1
  Al0+  Al87  1  0.81951512  0.57094995  0.34586295  1
  Al0+  Al88  1  0.56958849  0.17875784  0.98686166  1
  Al0+  Al89  1  0.07324930  0.17764631  0.32005112  1
  Al0+  Al90  1  0.32139592  0.06812795  0.67987955  1
  Al0+  Al91  1  0.67848999  0.92888473  0.01365851  1
  Al0+  Al92  1  0.57329491  0.67772247  0.65062915  1
  Al0+  Al93  1  0.42808340  0.82142501  0.31450112  1
  Al0+  Al94  1  0.57199545  0.67926524  0.98605497  1
  Al0+  Al95  1  0.42652103  0.31985716  0.65103322  1
  Si0+  Si96  1  0.42808488  0.82163848  0.98383640  1
  Si0+  Si97  1  0.82318830  0.57435378  0.68580428  1
  Si0+  Si98  1  0.92609170  0.82420890  0.31767790  1
  Si0+  Si99  1  0.67711092  0.92961662  0.35002289  1
  Si0+  Si100  1  0.81832839  0.07093262  0.34709540  1
  Si0+  Si101  1  0.06923229  0.67706898  0.65191874  1
  Si0+  Si102  1  0.67955745  0.42887281  0.01503331  1
  Si0+  Si103  1  0.93083783  0.32143730  0.65276607  1
  Si0+  Si104  1  0.93130817  0.82228799  0.65187622  1
  Si0+  Si105  1  0.32091006  0.57223287  0.68272306  1
  Si0+  Si106  1  0.17703792  0.92558525  0.68385229  1
  Si0+  Si107  1  0.17507437  0.42764251  0.01683986  1
  Si0+  Si108  1  0.92721894  0.82198178  0.98356793  1
  Si0+  Si109  1  0.42841250  0.32277737  0.98413566  1
  Si0+  Si110  1  0.92752877  0.32305131  0.97892459  1
  Si0+  Si111  1  0.07016579  0.17747197  0.65332418  1
  Si0+  Si112  1  0.57222889  0.17893044  0.31880893  1
  Si0+  Si113  1  0.82135044  0.57088696  0.01391746  1
  Si0+  Si114  1  0.32478636  0.07242077  0.34976664  1
  Si0+  Si115  1  0.42864915  0.32082740  0.31776592  1
  Si0+  Si116  1  0.32262277  0.07458488  0.01679014  1
  Si0+  Si117  1  0.82145740  0.07353683  0.02004752  1
  Si0+  Si118  1  0.67810245  0.42398337  0.34915461  1
  Si0+  Si119  1  0.67935993  0.92818268  0.68158450  1
  O2-  O120  1  0.25238304  0.00801360  0.06132321  1
  O2-  O121  1  0.25228822  0.00669250  0.39238898  1
  O2-  O122  1  0.24936784  -0.00925367  0.72681830  1
  O2-  O123  1  0.24282898  0.49729576  0.05957496  1
  O2-  O124  1  0.25112894  0.49873062  0.39889536  1
  O2-  O125  1  0.25426085  0.50193128  0.72816490  1
  O2-  O126  1  0.75105689  0.00566903  0.06306495  1
  O2-  O127  1  0.74744633  0.00150620  0.39182110  1
  O2-  O128  1  0.74243317  0.00177653  0.72690066  1
  O2-  O129  1  0.74931379  0.50105088  0.05665395  1
  O2-  O130  1  0.74394568  0.49651475  0.39129955  1
  O2-  O131  1  0.74793323  0.51233386  0.72908724  1
  O2-  O132  1  0.00467099  0.25354340  0.27041488  1
  O2-  O133  1  0.00129170  0.25006432  0.61058488  1
  O2-  O134  1  -0.00272536  0.25482659  0.93561376  1
  O2-  O135  1  -0.00517603  0.75555806  0.27416855  1
  O2-  O136  1  0.00030119  0.74995450  0.60968895  1
  O2-  O137  1  -0.00085157  0.75613569  0.93921394  1
  O2-  O138  1  0.50132460  0.25015746  0.27700788  1
  O2-  O139  1  0.50073630  0.24927799  0.60072313  1
  O2-  O140  1  0.49273741  0.25013942  0.94011408  1
  O2-  O141  1  0.49685995  0.74595834  0.26518224  1
  O2-  O142  1  0.49922672  0.74835437  0.60263739  1
  O2-  O143  1  0.49872080  0.75501628  0.93958346  1
  O2-  O144  1  0.06713305  0.17870066  0.09619676  1
  O2-  O145  1  0.06897461  0.17602407  0.43416164  1
  O2-  O146  1  0.06743013  0.17751596  0.75854318  1
  O2-  O147  1  0.07147169  0.67870678  0.09884403  1
  O2-  O148  1  0.06526065  0.68104279  0.43610141  1
  O2-  O149  1  0.06854583  0.67881280  0.75736198  1
  O2-  O150  1  0.56852726  0.18147699  0.10072690  1
  O2-  O151  1  0.57611694  0.17921296  0.42337008  1
  O2-  O152  1  0.57289539  0.18123276  0.76564845  1
  O2-  O153  1  0.57386675  0.67968284  0.09850196  1
  O2-  O154  1  0.57357114  0.68230319  0.43038011  1
  O2-  O155  1  0.57154091  0.68018479  0.76486089  1
  O2-  O156  1  0.18244799  0.42854204  0.23228205  1
  O2-  O157  1  0.17439317  0.42953260  0.56912533  1
  O2-  O158  1  0.17634680  0.42823545  0.91089459  1
  O2-  O159  1  0.17739379  0.93222515  0.23439144  1
  O2-  O160  1  0.17140746  0.92848189  0.57861512  1
  O2-  O161  1  0.18324848  0.93127933  0.89993749  1
  O2-  O162  1  0.67996539  0.42011727  0.24313023  1
  O2-  O163  1  0.68507227  0.42951995  0.56739523  1
  O2-  O164  1  0.67986057  0.42901282  0.91002705  1
  O2-  O165  1  0.67855651  0.93050998  0.24466734  1
  O2-  O166  1  0.68501999  0.92812260  0.57588576  1
  O2-  O167  1  0.68149251  0.92874640  0.90064982  1
  O2-  O168  1  0.43160213  0.32312858  0.09017533  1
  O2-  O169  1  0.42688091  0.31933130  0.42242588  1
  O2-  O170  1  0.42830134  0.31830979  0.76499899  1
  O2-  O171  1  0.42790157  0.82039473  0.08908169  1
  O2-  O172  1  0.43254361  0.82504339  0.42771044  1
  O2-  O173  1  0.42735112  0.82018150  0.76525760  1
  O2-  O174  1  0.92571043  0.32464415  0.08418600  1
  O2-  O175  1  0.92442286  0.31791440  0.43278134  1
  O2-  O176  1  0.93217294  0.32211544  0.75797785  1
  O2-  O177  1  0.92461057  0.81967246  0.08893299  1
  O2-  O178  1  0.92752167  0.82593660  0.42375019  1
  O2-  O179  1  0.93015172  0.82247099  0.75687216  1
  O2-  O180  1  0.32910530  0.07228562  0.24419767  1
  O2-  O181  1  0.31574982  0.07069738  0.56699511  1
  O2-  O182  1  0.32346092  0.07248502  0.91118036  1
  O2-  O183  1  0.32212776  0.57028006  0.23687104  1
  O2-  O184  1  0.31650034  0.57325341  0.57766599  1
  O2-  O185  1  0.32068214  0.56748791  0.89933014  1
  O2-  O186  1  0.81671284  0.07039721  0.24215327  1
  O2-  O187  1  0.82399504  0.06979915  0.56744341  1
  O2-  O188  1  0.82121114  0.07220907  0.91420706  1
  O2-  O189  1  0.81969770  0.57008923  0.23223828  1
  O2-  O190  1  0.82792403  0.57142802  0.58053632  1
  O2-  O191  1  0.82254962  0.56952047  0.90873815  1
  O2-  O192  1  0.03570346  0.08198235  0.26631715  1
  O2-  O193  1  0.04051057  0.08507388  0.60813545  1
  O2-  O194  1  0.03666612  0.08277971  0.92892187  1
  O2-  O195  1  0.03732719  0.58532446  0.26698896  1
  O2-  O196  1  0.03727645  0.58548854  0.60712175  1
  O2-  O197  1  0.03965222  0.58456747  0.92973361  1
  O2-  O198  1  0.54302235  0.08758075  0.27131776  1
  O2-  O199  1  0.54990134  0.07997176  0.60004969  1
  O2-  O200  1  0.54277490  0.08095694  0.93352143  1
  O2-  O201  1  0.55073363  0.57600770  0.26720605  1
  O2-  O202  1  0.54934355  0.57864241  0.59872186  1
  O2-  O203  1  0.53970343  0.58161177  0.93492673  1
  O2-  O204  1  0.17264664  0.19907419  0.26579536  1
  O2-  O205  1  0.16260671  0.20308209  0.60822904  1
  O2-  O206  1  0.16783896  0.20693895  0.92949845  1
  O2-  O207  1  0.16537329  0.71220805  0.26994138  1
  O2-  O208  1  0.16099981  0.70102178  0.60387812  1
  O2-  O209  1  0.16837688  0.71197538  0.93042369  1
  O2-  O210  1  0.66230371  0.20605098  0.26740096  1
  O2-  O211  1  0.67359389  0.21090382  0.60217151  1
  O2-  O212  1  0.66727585  0.20931766  0.93533790  1
  O2-  O213  1  0.66987085  0.71145594  0.26631513  1
  O2-  O214  1  0.67385200  0.70568890  0.60093941  1
  O2-  O215  1  0.66922468  0.70790300  0.93179333  1
  O2-  O216  1  0.07936452  0.45162520  0.05853969  1
  O2-  O217  1  0.08009775  0.45513459  0.39742713  1
  O2-  O218  1  0.08347605  0.46017282  0.73925889  1
  O2-  O219  1  0.08142421  0.95985712  0.06502127  1
  O2-  O220  1  0.07990955  0.95963027  0.40216974  1
  O2-  O221  1  0.08567129  0.95370044  0.73351068  1
  O2-  O222  1  0.58744454  0.45316336  0.06305567  1
  O2-  O223  1  0.58368454  0.44506693  0.39421303  1
  O2-  O224  1  0.57998009  0.45713619  0.73412405  1
  O2-  O225  1  0.58274657  0.95988556  0.07005415  1
  O2-  O226  1  0.58532984  0.95872380  0.39568514  1
  O2-  O227  1  0.58356864  0.94614837  0.72451010  1
  O2-  O228  1  0.19992777  0.33298347  0.06094019  1
  O2-  O229  1  0.20758588  0.32788350  0.39693353  1
  O2-  O230  1  0.20796557  0.33156681  0.73669987  1
  O2-  O231  1  0.21116134  0.83494182  0.06685586  1
  O2-  O232  1  0.20786640  0.83585578  0.40379367  1
  O2-  O233  1  0.19973792  0.82960651  0.72649886  1
  O2-  O234  1  0.70962068  0.33748610  0.06283832  1
  O2-  O235  1  0.70783922  0.33157146  0.39591148  1
  O2-  O236  1  0.71518052  0.33905876  0.73786380  1
  O2-  O237  1  0.71313574  0.83353387  0.06883197  1
  O2-  O238  1  0.70597276  0.83954950  0.39925014  1
  O2-  O239  1  0.71267916  0.83671984  0.72870355  1
  O2-  O240  1  0.45707470  0.41183009  0.26927965  1
  O2-  O241  1  0.45296907  0.41805643  0.59790734  1
  O2-  O242  1  0.45938207  0.41384257  0.93667552  1
  O2-  O243  1  0.45938364  0.91922831  0.26043280  1
  O2-  O244  1  0.45459153  0.91854875  0.59595545  1
  O2-  O245  1  0.45215666  0.91691735  0.94068268  1
  O2-  O246  1  0.95244777  0.42032848  0.26496248  1
  O2-  O247  1  0.95838494  0.41410652  0.60682071  1
  O2-  O248  1  0.95126680  0.41602222  0.93026946  1
  O2-  O249  1  0.94935625  0.91747606  0.27048590  1
  O2-  O250  1  0.96075077  0.91370549  0.60380204  1
  O2-  O251  1  0.94894524  0.91693350  0.93888741  1
  O2-  O252  1  0.33956211  0.29140164  0.26592922  1
  O2-  O253  1  0.32853103  0.28661222  0.59949410  1
  O2-  O254  1  0.33271705  0.30412239  0.94010102  1
  O2-  O255  1  0.32769765  0.79681687  0.26538328  1
  O2-  O256  1  0.32784034  0.79405726  0.59776212  1
  O2-  O257  1  0.33590778  0.79452058  0.93631357  1
  O2-  O258  1  0.83263386  0.28869020  0.26146451  1
  O2-  O259  1  0.83924249  0.29386125  0.60642858  1
  O2-  O260  1  0.83439294  0.29510421  0.93253865  1
  O2-  O261  1  0.83200403  0.79852104  0.27371679  1
  O2-  O262  1  0.84002792  0.79808197  0.60154026  1
  O2-  O263  1  0.83641123  0.79170750  0.93398812  1
  O2-  O264  1  0.41585168  0.04974124  0.06392759  1
  O2-  O265  1  0.41700425  0.04354781  0.39755535  1
  O2-  O266  1  0.41991531  0.03990508  0.73266099  1
  O2-  O267  1  0.41553095  0.53562066  0.06935820  1
  O2-  O268  1  0.42250853  0.54301014  0.40135935  1
  O2-  O269  1  0.41588161  0.54846030  0.72619776  1
  O2-  O270  1  0.91394821  0.04535012  0.06619611  1
  O2-  O271  1  0.90914388  0.04307288  0.39632301  1
  O2-  O272  1  0.91505885  0.03513442  0.73819662  1
  O2-  O273  1  0.91338169  0.54055990  0.06011050  1
  O2-  O274  1  0.91447909  0.53964777  0.40254156  1
  O2-  O275  1  0.91287733  0.54080183  0.73589922  1
  O2-  O276  1  0.29894444  0.17021561  0.06002306  1
  O2-  O277  1  0.30200510  0.16686325  0.39471291  1
  O2-  O278  1  0.28877600  0.16192941  0.73814028  1
  O2-  O279  1  0.29150102  0.66627730  0.06599451  1
  O2-  O280  1  0.29415400  0.67045316  0.40241133  1
  O2-  O281  1  0.29207090  0.66506215  0.72977022  1
  O2-  O282  1  0.79741958  0.16849412  0.06389557  1
  O2-  O283  1  0.79026108  0.16312398  0.39393012  1
  O2-  O284  1  0.79732598  0.16901289  0.73751120  1
  O2-  O285  1  0.79578788  0.66292048  0.06076522  1
  O2-  O286  1  0.79176202  0.66783058  0.40257821  1
  O2-  O287  1  0.80631647  0.67126083  0.72867381  1
