# generated using pymatgen
data_Ca2Al2SiO7
_symmetry_space_group_name_H-M   'P 1'
_cell_length_a   15.46144613
_cell_length_b   15.46151040
_cell_length_c   15.28601525
_cell_angle_alpha   90.01437713
_cell_angle_beta   90.01111287
_cell_angle_gamma   90.02045687
_symmetry_Int_Tables_number   1
_chemical_formula_structural   Ca2Al2SiO7
_chemical_formula_sum   'Ca48 Al48 Si24 O168'
_cell_volume   3654.23327153
_cell_formula_units_Z   24
loop_
 _symmetry_equiv_pos_site_id
 _symmetry_equiv_pos_as_xyz
  1  'x, y, z'
loop_
 _atom_type_symbol
 _atom_type_oxidation_number
  Ca2+  2.0
  Al0+  0.0
  Si0+  0.0
  O2-  -2.0
loop_
 _atom_site_type_symbol
 _atom_site_label
 _atom_site_symmetry_multiplicity
 _atom_site_fract_x
 _atom_site_fract_y
 _atom_site_fract_z
 _atom_site_occupancy
  Ca2+  Ca0  1  0.16757722  0.07511903  0.16651997  1
  Ca2+  Ca1  1  0.16842833  0.07660955  0.50546936  1
  Ca2+  Ca2  1  0.16781953  0.07146334  0.83918790  1
  Ca2+  Ca3  1  0.16843346  0.57968222  0.17108249  1
  Ca2+  Ca4  1  0.17865347  0.57428216  0.50329223  1
  Ca2+  Ca5  1  0.17028108  0.57579422  0.83838649  1
  Ca2+  Ca6  1  0.66935633  0.07783357  0.17104063  1
  Ca2+  Ca7  1  0.66543125  0.08408622  0.49285704  1
  Ca2+  Ca8  1  0.67256345  0.08154935  0.84694204  1
  Ca2+  Ca9  1  0.66052750  0.57353976  0.17289920  1
  Ca2+  Ca10  1  0.66495803  0.57489537  0.50520852  1
  Ca2+  Ca11  1  0.66727359  0.57194513  0.83481514  1
  Ca2+  Ca12  1  0.07763164  0.34102924  0.16338932  1
  Ca2+  Ca13  1  0.07767646  0.34414760  0.49374545  1
  Ca2+  Ca14  1  0.08814435  0.33577419  0.82846376  1
  Ca2+  Ca15  1  0.07798707  0.82713562  0.15222585  1
  Ca2+  Ca16  1  0.08355883  0.83257410  0.49631383  1
  Ca2+  Ca17  1  0.08305358  0.83244194  0.83347666  1
  Ca2+  Ca18  1  0.59542003  0.32363455  0.16292254  1
  Ca2+  Ca19  1  0.58251640  0.33607678  0.49295756  1
  Ca2+  Ca20  1  0.58636741  0.33183599  0.82922885  1
  Ca2+  Ca21  1  0.57665253  0.83687893  0.16169120  1
  Ca2+  Ca22  1  0.57753692  0.82286896  0.48376327  1
  Ca2+  Ca23  1  0.57764223  0.83849730  0.83288806  1
  Ca2+  Ca24  1  0.32063821  0.42294180  0.17556662  1
  Ca2+  Ca25  1  0.33338297  0.42658045  0.50890026  1
  Ca2+  Ca26  1  0.32946958  0.41755025  0.83582000  1
  Ca2+  Ca27  1  0.33230027  0.90552068  0.16777933  1
  Ca2+  Ca28  1  0.33137517  0.91497216  0.50244933  1
  Ca2+  Ca29  1  0.32389235  0.91035072  0.84025751  1
  Ca2+  Ca30  1  0.82464175  0.41393219  0.17210240  1
  Ca2+  Ca31  1  0.82314142  0.41786805  0.50122926  1
  Ca2+  Ca32  1  0.82487968  0.42095219  0.83652000  1
  Ca2+  Ca33  1  0.82725389  0.92484668  0.17062322  1
  Ca2+  Ca34  1  0.82594229  0.92022494  0.49926198  1
  Ca2+  Ca35  1  0.82753759  0.92259080  0.84717166  1
  Ca2+  Ca36  1  0.43231159  0.16563821  0.16122197  1
  Ca2+  Ca37  1  0.42211758  0.17769344  0.49418702  1
  Ca2+  Ca38  1  0.42485427  0.17359983  0.82944672  1
  Ca2+  Ca39  1  0.41870949  0.67189945  0.16872876  1
  Ca2+  Ca40  1  0.41584042  0.66715248  0.49132034  1
  Ca2+  Ca41  1  0.41332939  0.66855202  0.83294167  1
  Ca2+  Ca42  1  0.90692821  0.16924283  0.16651968  1
  Ca2+  Ca43  1  0.91792198  0.17375559  0.48940876  1
  Ca2+  Ca44  1  0.91618719  0.16554733  0.83306476  1
  Ca2+  Ca45  1  0.92438432  0.67238873  0.15507429  1
  Ca2+  Ca46  1  0.91670687  0.66176275  0.49716894  1
  Ca2+  Ca47  1  0.91906056  0.66742214  0.83258108  1
  Al0+  Al48  1  0.00114120  0.00168884  0.00424657  1
  Al0+  Al49  1  -0.00020000  0.00153491  0.33679483  1
  Al0+  Al50  1  -0.00069707  -0.00078974  0.66786726  1
  Al0+  Al51  1  -0.00006313  0.50004622  -0.00279241  1
  Al0+  Al52  1  -0.00105968  0.49948385  0.33054982  1
  Al0+  Al53  1  0.00032601  0.50136016  0.67076182  1
  Al0+  Al54  1  0.50047909  0.00145118  -0.00880803  1
  Al0+  Al55  1  0.49800807  0.00080960  0.33103052  1
  Al0+  Al56  1  0.49995324  0.00048811  0.66349449  1
  Al0+  Al57  1  0.49860119  0.50030862  0.00495147  1
  Al0+  Al58  1  0.49760322  0.50103717  0.33531947  1
  Al0+  Al59  1  0.50021985  0.50029100  0.67188566  1
  Al0+  Al60  1  0.24938839  0.25068620  0.00460383  1
  Al0+  Al61  1  0.24658649  0.24659376  0.33574293  1
  Al0+  Al62  1  0.25261664  0.24809664  0.66350395  1
  Al0+  Al63  1  0.25076106  0.74862955  -0.00411973  1
  Al0+  Al64  1  0.24880295  0.74810407  0.33387284  1
  Al0+  Al65  1  0.24805443  0.74924546  0.67207193  1
  Al0+  Al66  1  0.75113983  0.25073486  -0.00002015  1
  Al0+  Al67  1  0.75181806  0.25110386  0.33443366  1
  Al0+  Al68  1  0.75238589  0.24796008  0.66775821  1
  Al0+  Al69  1  0.74919840  0.74955134  -0.00208536  1
  Al0+  Al70  1  0.74991653  0.75012347  0.33181237  1
  Al0+  Al71  1  0.75070461  0.75155421  0.66883056  1
  Al0+  Al72  1  0.18165537  0.92830710  0.01419392  1
  Al0+  Al73  1  0.18004394  0.42698590  0.68147098  1
  Al0+  Al74  1  0.07099486  0.67789848  0.98215891  1
  Al0+  Al75  1  0.82196952  0.07162720  0.01553691  1
  Al0+  Al76  1  0.82061936  0.07091016  0.35080141  1
  Al0+  Al77  1  0.92817350  0.82322821  0.98493670  1
  Al0+  Al78  1  0.57210701  0.18173319  0.98529967  1
  Al0+  Al79  1  0.17921893  0.93039918  0.68035619  1
  Al0+  Al80  1  0.82168446  0.57375499  0.68184811  1
  Al0+  Al81  1  0.17628020  0.42731213  0.34830131  1
  Al0+  Al82  1  0.67622399  0.92795889  0.34828534  1
  Al0+  Al83  1  0.32239604  0.57158134  0.68463244  1
  Al0+  Al84  1  0.67942078  0.42985794  0.34585078  1
  Al0+  Al85  1  0.43104946  0.32148110  0.65350317  1
  Al0+  Al86  1  0.67973750  0.42725837  0.68147274  1
  Al0+  Al87  1  0.93163918  0.32023317  0.31948156  1
  Al0+  Al88  1  0.56977517  0.18256197  0.31969177  1
  Al0+  Al89  1  0.67593874  0.92754183  0.01379702  1
  Al0+  Al90  1  0.31918301  0.57059102  0.34836682  1
  Al0+  Al91  1  0.43139616  0.81987509  0.98431239  1
  Al0+  Al92  1  0.42782355  0.82071906  0.31915254  1
  Al0+  Al93  1  0.67928837  0.43063734  0.01455193  1
  Al0+  Al94  1  0.57295556  0.67613831  0.31866132  1
  Al0+  Al95  1  0.17836236  0.42844367  0.01496716  1
  Si0+  Si96  1  0.07302507  0.17404855  0.31499719  1
  Si0+  Si97  1  0.92870620  0.82412090  0.31937088  1
  Si0+  Si98  1  0.82225493  0.57191481  0.01654143  1
  Si0+  Si99  1  0.42709704  0.82045180  0.65162321  1
  Si0+  Si100  1  0.32231199  0.07254719  0.01598709  1
  Si0+  Si101  1  0.32166353  0.57250963  0.01925619  1
  Si0+  Si102  1  0.57255892  0.67417879  0.98157426  1
  Si0+  Si103  1  0.06837973  0.68066554  0.31980004  1
  Si0+  Si104  1  0.07054358  0.17691266  0.65254597  1
  Si0+  Si105  1  0.07380440  0.17963157  0.98488219  1
  Si0+  Si106  1  0.17942192  0.92886868  0.34725081  1
  Si0+  Si107  1  0.32205132  0.07161567  0.34870756  1
  Si0+  Si108  1  0.57490136  0.17726383  0.64802159  1
  Si0+  Si109  1  0.57187071  0.68128860  0.65363960  1
  Si0+  Si110  1  0.42605058  0.32228382  0.98586387  1
  Si0+  Si111  1  0.67798901  0.92934358  0.68032056  1
  Si0+  Si112  1  0.82293669  0.57336202  0.34649507  1
  Si0+  Si113  1  0.32413356  0.07140689  0.68323775  1
  Si0+  Si114  1  0.92886600  0.82229755  0.64952875  1
  Si0+  Si115  1  0.93021711  0.32101554  0.65228268  1
  Si0+  Si116  1  0.82079862  0.06944771  0.68151729  1
  Si0+  Si117  1  0.92986713  0.32012315  0.98302784  1
  Si0+  Si118  1  0.07074651  0.67934314  0.64946209  1
  Si0+  Si119  1  0.42423631  0.32307198  0.31682895  1
  O2-  O120  1  0.25820646  0.00026211  0.06205385  1
  O2-  O121  1  0.25078309  -0.00068744  0.38957147  1
  O2-  O122  1  0.25611264  0.00242225  0.72752605  1
  O2-  O123  1  0.25218849  0.50336053  0.06117595  1
  O2-  O124  1  0.25353783  0.49264196  0.39839753  1
  O2-  O125  1  0.25230006  0.49700657  0.73330153  1
  O2-  O126  1  0.75102808  -0.00293974  0.06244928  1
  O2-  O127  1  0.74844485  -0.00101732  0.40091180  1
  O2-  O128  1  0.74584178  0.00293239  0.72267952  1
  O2-  O129  1  0.75086875  0.50770155  0.06201902  1
  O2-  O130  1  0.74931345  0.51016199  0.39075512  1
  O2-  O131  1  0.75156362  0.49979751  0.73101302  1
  O2-  O132  1  0.00771593  0.24642405  0.27247918  1
  O2-  O133  1  0.00495841  0.25293592  0.61056595  1
  O2-  O134  1  0.00306083  0.25050436  0.94166520  1
  O2-  O135  1  -0.00275821  0.75115548  0.27762644  1
  O2-  O136  1  -0.00177903  0.74962170  0.60664308  1
  O2-  O137  1  -0.00077767  0.75118452  0.93245485  1
  O2-  O138  1  0.49568892  0.25788910  0.27177737  1
  O2-  O139  1  0.50847788  0.24908151  0.60606209  1
  O2-  O140  1  0.49780269  0.25756870  0.94006292  1
  O2-  O141  1  0.50419921  0.75263730  0.27035397  1
  O2-  O142  1  0.49908406  0.75063741  0.61037166  1
  O2-  O143  1  0.50794587  0.74698325  0.93681994  1
  O2-  O144  1  0.07663795  0.17989930  0.08957890  1
  O2-  O145  1  0.07158645  0.16856172  0.42080156  1
  O2-  O146  1  0.06723801  0.17378276  0.75768209  1
  O2-  O147  1  0.06908911  0.67892004  0.09663849  1
  O2-  O148  1  0.06791472  0.68266518  0.42531576  1
  O2-  O149  1  0.07056088  0.68104440  0.75400176  1
  O2-  O150  1  0.57197195  0.18175224  0.09826744  1
  O2-  O151  1  0.56692383  0.18391627  0.43326626  1
  O2-  O152  1  0.57446735  0.17442679  0.75346299  1
  O2-  O153  1  0.56955819  0.67102068  0.08670356  1
  O2-  O154  1  0.57205672  0.67691955  0.43316514  1
  O2-  O155  1  0.57305212  0.68542482  0.75867011  1
  O2-  O156  1  0.17545817  0.43243176  0.23476231  1
  O2-  O157  1  0.17868942  0.43016616  0.56830762  1
  O2-  O158  1  0.18140682  0.42616051  0.90205794  1
  O2-  O159  1  0.17828188  0.92895875  0.24254040  1
  O2-  O160  1  0.17874765  0.93197566  0.56657027  1
  O2-  O161  1  0.18150863  0.93166863  0.90100507  1
  O2-  O162  1  0.68371906  0.42825107  0.23293239  1
  O2-  O163  1  0.68120962  0.42746473  0.56783690  1
  O2-  O164  1  0.68181910  0.43008652  0.90141985  1
  O2-  O165  1  0.67728868  0.92929987  0.23543000  1
  O2-  O166  1  0.67906732  0.92808399  0.57557981  1
  O2-  O167  1  0.67664145  0.93258347  0.89899671  1
  O2-  O168  1  0.42352429  0.31834683  0.09112726  1
  O2-  O169  1  0.42484884  0.31994294  0.42270331  1
  O2-  O170  1  0.43024841  0.31687667  0.76670492  1
  O2-  O171  1  0.42979651  0.81802556  0.09686884  1
  O2-  O172  1  0.42523378  0.81908142  0.43356483  1
  O2-  O173  1  0.42864490  0.82228731  0.75657382  1
  O2-  O174  1  0.92968164  0.32011727  0.08801982  1
  O2-  O175  1  0.93281932  0.31995379  0.43324071  1
  O2-  O176  1  0.92833612  0.31740436  0.75746714  1
  O2-  O177  1  0.93160494  0.82142870  0.09902103  1
  O2-  O178  1  0.93168162  0.82487585  0.42513056  1
  O2-  O179  1  0.92962554  0.82576574  0.75393680  1
  O2-  O180  1  0.32093832  0.07381619  0.24392354  1
  O2-  O181  1  0.32345759  0.06940239  0.57736036  1
  O2-  O182  1  0.31759366  0.07424170  0.91018485  1
  O2-  O183  1  0.31427230  0.57395409  0.23503183  1
  O2-  O184  1  0.32038993  0.57384978  0.57126539  1
  O2-  O185  1  0.32270098  0.57070108  0.91359329  1
  O2-  O186  1  0.82194832  0.06822937  0.23807431  1
  O2-  O187  1  0.82356188  0.06901973  0.57689231  1
  O2-  O188  1  0.82067861  0.07253265  0.90084141  1
  O2-  O189  1  0.82739662  0.57079974  0.24128308  1
  O2-  O190  1  0.82009553  0.57383191  0.56794380  1
  O2-  O191  1  0.82312152  0.56796277  0.91090912  1
  O2-  O192  1  0.04367079  0.08183666  0.26732979  1
  O2-  O193  1  0.03705588  0.08737325  0.60275849  1
  O2-  O194  1  0.04504466  0.08822081  0.93695888  1
  O2-  O195  1  0.04059853  0.58981910  0.27131355  1
  O2-  O196  1  0.04276839  0.58724072  0.60231316  1
  O2-  O197  1  0.04061915  0.58005101  0.92830000  1
  O2-  O198  1  0.53724525  0.08631421  0.26655759  1
  O2-  O199  1  0.54551329  0.08454524  0.60061655  1
  O2-  O200  1  0.54063678  0.08741234  0.92690855  1
  O2-  O201  1  0.53998052  0.57937653  0.26449842  1
  O2-  O202  1  0.54680484  0.58768214  0.60944785  1
  O2-  O203  1  0.54074369  0.58206883  0.93433356  1
  O2-  O204  1  0.16830491  0.19363571  0.26989826  1
  O2-  O205  1  0.16481550  0.19606167  0.60629920  1
  O2-  O206  1  0.16533799  0.20735876  0.93606216  1
  O2-  O207  1  0.15897788  0.70986305  0.27196986  1
  O2-  O208  1  0.16187730  0.71104508  0.60235754  1
  O2-  O209  1  0.16917308  0.70548801  0.92967356  1
  O2-  O210  1  0.66703147  0.21252033  0.26786683  1
  O2-  O211  1  0.67037938  0.19896065  0.60383780  1
  O2-  O212  1  0.66827828  0.21376792  0.93021312  1
  O2-  O213  1  0.67372999  0.69780865  0.26714511  1
  O2-  O214  1  0.66309100  0.71078815  0.60544593  1
  O2-  O215  1  0.66800461  0.69339056  0.93684528  1
  O2-  O216  1  0.08029674  0.45885898  0.06569131  1
  O2-  O217  1  0.07979662  0.46312915  0.40074681  1
  O2-  O218  1  0.08150865  0.45510575  0.73374204  1
  O2-  O219  1  0.08696443  0.96205556  0.06906701  1
  O2-  O220  1  0.08887776  0.95784119  0.39700241  1
  O2-  O221  1  0.08337607  0.96389850  0.73406150  1
  O2-  O222  1  0.58124230  0.45599514  0.06794699  1
  O2-  O223  1  0.58086415  0.45492172  0.39812949  1
  O2-  O224  1  0.58284410  0.45576478  0.73593867  1
  O2-  O225  1  0.57748466  0.95985266  0.06321319  1
  O2-  O226  1  0.57746012  0.95747551  0.40087166  1
  O2-  O227  1  0.58419160  0.95432685  0.72543407  1
  O2-  O228  1  0.20715796  0.33197740  0.07048458  1
  O2-  O229  1  0.19256915  0.32410792  0.39611673  1
  O2-  O230  1  0.20532812  0.32573248  0.73041366  1
  O2-  O231  1  0.21057010  0.83051748  0.06583296  1
  O2-  O232  1  0.20612629  0.83751205  0.39588297  1
  O2-  O233  1  0.20725081  0.83437140  0.73468257  1
  O2-  O234  1  0.71595083  0.33580671  0.06680767  1
  O2-  O235  1  0.71571612  0.33660236  0.40200107  1
  O2-  O236  1  0.70983389  0.32832559  0.73328192  1
  O2-  O237  1  0.69745263  0.82608814  0.06250431  1
  O2-  O238  1  0.70633589  0.82914833  0.40127749  1
  O2-  O239  1  0.70762277  0.83956354  0.72928012  1
  O2-  O240  1  0.44391471  0.41840529  0.27370422  1
  O2-  O241  1  0.45919425  0.41984664  0.60132576  1
  O2-  O242  1  0.44824467  0.41773617  0.94255551  1
  O2-  O243  1  0.44908255  0.92077933  0.26726233  1
  O2-  O244  1  0.45248485  0.91373981  0.60471869  1
  O2-  O245  1  0.45750365  0.91671939  0.92688896  1
  O2-  O246  1  0.96090277  0.41635625  0.26279541  1
  O2-  O247  1  0.95490972  0.41434998  0.60651444  1
  O2-  O248  1  0.95600440  0.41182319  0.93502429  1
  O2-  O249  1  0.96042742  0.91474490  0.27281539  1
  O2-  O250  1  0.96016937  0.91302592  0.60067599  1
  O2-  O251  1  0.95862016  0.92262156  0.93391266  1
  O2-  O252  1  0.33035687  0.29357980  0.27287506  1
  O2-  O253  1  0.33576379  0.28781009  0.59658842  1
  O2-  O254  1  0.33379084  0.29223473  0.93830673  1
  O2-  O255  1  0.32970776  0.78844907  0.26644485  1
  O2-  O256  1  0.33419692  0.79303153  0.60626991  1
  O2-  O257  1  0.33560431  0.78716450  0.92923461  1
  O2-  O258  1  0.83629556  0.28730369  0.26501559  1
  O2-  O259  1  0.83990533  0.28878860  0.60381769  1
  O2-  O260  1  0.84010622  0.28923137  0.93353108  1
  O2-  O261  1  0.83610432  0.80093400  0.27302444  1
  O2-  O262  1  0.83622611  0.79562945  0.60245145  1
  O2-  O263  1  0.82879862  0.79689711  0.93161755  1
  O2-  O264  1  0.41776337  0.04968726  0.05711379  1
  O2-  O265  1  0.41209404  0.04432412  0.39893387  1
  O2-  O266  1  0.41849551  0.04695941  0.72860381  1
  O2-  O267  1  0.41435366  0.54739971  0.06670284  1
  O2-  O268  1  0.41840688  0.54789744  0.40147995  1
  O2-  O269  1  0.42084003  0.54694033  0.73823794  1
  O2-  O270  1  0.92117003  0.04883726  0.06854605  1
  O2-  O271  1  0.91955525  0.04226706  0.40467005  1
  O2-  O272  1  0.91101607  0.03846219  0.73001486  1
  O2-  O273  1  0.91493337  0.54293244  0.06225529  1
  O2-  O274  1  0.91363826  0.54174175  0.39555775  1
  O2-  O275  1  0.91971194  0.54668463  0.73493715  1
  O2-  O276  1  0.29298612  0.16333075  0.06517622  1
  O2-  O277  1  0.29231698  0.16145679  0.39985253  1
  O2-  O278  1  0.29829202  0.16434386  0.72904853  1
  O2-  O279  1  0.29432079  0.66572202  0.06348218  1
  O2-  O280  1  0.28424062  0.66683554  0.40356612  1
  O2-  O281  1  0.29035438  0.66857529  0.73794301  1
  O2-  O282  1  0.79148243  0.16932449  0.06707341  1
  O2-  O283  1  0.79174696  0.16885111  0.40394269  1
  O2-  O284  1  0.79794169  0.16206109  0.72952602  1
  O2-  O285  1  0.80269004  0.66773041  0.05956680  1
  O2-  O286  1  0.80596406  0.66900745  0.39193977  1
  O2-  O287  1  0.79360898  0.67211489  0.73549022  1
