# generated using pymatgen
data_Ca2Al2SiO7
_symmetry_space_group_name_H-M   'P 1'
_cell_length_a   15.46603440
_cell_length_b   15.46654581
_cell_length_c   15.29061805
_cell_angle_alpha   90.00086284
_cell_angle_beta   89.99588997
_cell_angle_gamma   90.01547269
_symmetry_Int_Tables_number   1
_chemical_formula_structural   Ca2Al2SiO7
_chemical_formula_sum   'Ca48 Al48 Si24 O168'
_cell_volume   3657.60941966
_cell_formula_units_Z   24
loop_
 _symmetry_equiv_pos_site_id
 _symmetry_equiv_pos_as_xyz
  1  'x, y, z'
loop_
 _atom_type_symbol
 _atom_type_oxidation_number
  Ca2+  2.0
  Al0+  0.0
  Si0+  0.0
  O2-  -2.0
loop_
 _atom_site_type_symbol
 _atom_site_label
 _atom_site_symmetry_multiplicity
 _atom_site_fract_x
 _atom_site_fract_y
 _atom_site_fract_z
 _atom_site_occupancy
  Ca2+  Ca0  1  0.16837613  0.07694179  0.16728242  1
  Ca2+  Ca1  1  0.17305146  0.08113487  0.49793017  1
  Ca2+  Ca2  1  0.16420089  0.07706792  0.84211788  1
  Ca2+  Ca3  1  0.17609011  0.58423729  0.16985592  1
  Ca2+  Ca4  1  0.17869805  0.57551762  0.50377170  1
  Ca2+  Ca5  1  0.17356729  0.57724718  0.84039747  1
  Ca2+  Ca6  1  0.66659943  0.07271677  0.17344734  1
  Ca2+  Ca7  1  0.66500826  0.07407452  0.50329700  1
  Ca2+  Ca8  1  0.67527595  0.08322423  0.83566216  1
  Ca2+  Ca9  1  0.66570541  0.58272704  0.17347303  1
  Ca2+  Ca10  1  0.67175659  0.58486874  0.49768720  1
  Ca2+  Ca11  1  0.67072308  0.58336594  0.84044404  1
  Ca2+  Ca12  1  0.09062565  0.33188676  0.16113709  1
  Ca2+  Ca13  1  0.08137170  0.34527730  0.49739646  1
  Ca2+  Ca14  1  0.08727914  0.33287844  0.82752956  1
  Ca2+  Ca15  1  0.07830776  0.82810635  0.15353818  1
  Ca2+  Ca16  1  0.07787601  0.82926791  0.49703308  1
  Ca2+  Ca17  1  0.08629607  0.82657757  0.83937624  1
  Ca2+  Ca18  1  0.57733256  0.34550952  0.16589746  1
  Ca2+  Ca19  1  0.57841212  0.33307028  0.48960916  1
  Ca2+  Ca20  1  0.58589267  0.33614777  0.83319401  1
  Ca2+  Ca21  1  0.57633946  0.82161111  0.16453010  1
  Ca2+  Ca22  1  0.57559015  0.82669523  0.48984971  1
  Ca2+  Ca23  1  0.57123352  0.82512640  0.83129384  1
  Ca2+  Ca24  1  0.32611541  0.42850286  0.17285400  1
  Ca2+  Ca25  1  0.33065072  0.42569729  0.50210307  1
  Ca2+  Ca26  1  0.32611040  0.42858018  0.84122200  1
  Ca2+  Ca27  1  0.33667278  0.91554119  0.16989072  1
  Ca2+  Ca28  1  0.34418038  0.91901211  0.50128492  1
  Ca2+  Ca29  1  0.33216381  0.91305336  0.84081858  1
  Ca2+  Ca30  1  0.82063549  0.42381134  0.17294232  1
  Ca2+  Ca31  1  0.83093458  0.42588094  0.50389543  1
  Ca2+  Ca32  1  0.83085633  0.41897569  0.83443888  1
  Ca2+  Ca33  1  0.82779615  0.91159130  0.17301680  1
  Ca2+  Ca34  1  0.82319723  0.92040680  0.50391524  1
  Ca2+  Ca35  1  0.84126136  0.92284199  0.83953673  1
  Ca2+  Ca36  1  0.40999519  0.17276455  0.16989467  1
  Ca2+  Ca37  1  0.41296341  0.17427716  0.48859539  1
  Ca2+  Ca38  1  0.41866573  0.17005608  0.82995367  1
  Ca2+  Ca39  1  0.42230723  0.66497762  0.15996654  1
  Ca2+  Ca40  1  0.41575391  0.67208547  0.49069626  1
  Ca2+  Ca41  1  0.41164541  0.66933197  0.83205094  1
  Ca2+  Ca42  1  0.92618943  0.17063111  0.15725779  1
  Ca2+  Ca43  1  0.91431306  0.17260216  0.50008886  1
  Ca2+  Ca44  1  0.92227608  0.17386751  0.82654605  1
  Ca2+  Ca45  1  0.92201691  0.66853875  0.15920620  1
  Ca2+  Ca46  1  0.91595213  0.65557623  0.49480926  1
  Ca2+  Ca47  1  0.92185033  0.66449101  0.83183292  1
  Al0+  Al48  1  0.00296742  0.00394106  -0.00258050  1
  Al0+  Al49  1  0.00082428  0.00121074  0.33428581  1
  Al0+  Al50  1  0.00017438  0.00041886  0.66779613  1
  Al0+  Al51  1  -0.00217444  0.49896385  -0.00062477  1
  Al0+  Al52  1  -0.00072666  0.49932134  0.33480573  1
  Al0+  Al53  1  -0.00144603  0.49850904  0.66953445  1
  Al0+  Al54  1  0.50292318  0.00180175  -0.00373245  1
  Al0+  Al55  1  0.50014550  0.00088969  0.33772148  1
  Al0+  Al56  1  0.50035588  -0.00137744  0.66584529  1
  Al0+  Al57  1  0.50053747  0.49963646  0.00045568  1
  Al0+  Al58  1  0.49975533  0.49958813  0.33344156  1
  Al0+  Al59  1  0.50058379  0.49975811  0.66862722  1
  Al0+  Al60  1  0.25152973  0.24958003  -0.00320234  1
  Al0+  Al61  1  0.24894637  0.24677674  0.33605911  1
  Al0+  Al62  1  0.25061757  0.24606354  0.66774155  1
  Al0+  Al63  1  0.24792595  0.75197810  0.00108974  1
  Al0+  Al64  1  0.24616437  0.75131858  0.33420141  1
  Al0+  Al65  1  0.24856717  0.75080938  0.66334506  1
  Al0+  Al66  1  0.75042697  0.24994202  0.00462611  1
  Al0+  Al67  1  0.75150660  0.25026532  0.33335265  1
  Al0+  Al68  1  0.75251849  0.24745823  0.66518456  1
  Al0+  Al69  1  0.74863954  0.75303650  -0.00817711  1
  Al0+  Al70  1  0.74872931  0.75201502  0.33913311  1
  Al0+  Al71  1  0.74828591  0.74993916  0.67122519  1
  Al0+  Al72  1  0.57041774  0.67628651  0.98312881  1
  Al0+  Al73  1  0.07079757  0.67643408  0.98504782  1
  Al0+  Al74  1  0.31939967  0.06773035  0.34582334  1
  Al0+  Al75  1  0.31964946  0.57253644  0.01544779  1
  Al0+  Al76  1  0.32224450  0.57299777  0.68225304  1
  Al0+  Al77  1  0.67906178  0.93033551  0.34683452  1
  Al0+  Al78  1  0.17996141  0.93088008  0.01296656  1
  Al0+  Al79  1  0.57108482  0.67899840  0.31940894  1
  Al0+  Al80  1  0.82078645  0.06943790  0.68090636  1
  Al0+  Al81  1  0.18000201  0.42777770  0.68189158  1
  Al0+  Al82  1  0.42679670  0.82295466  0.31803072  1
  Al0+  Al83  1  0.42786710  0.32076754  0.31996198  1
  Al0+  Al84  1  0.93066332  0.32047692  0.65137360  1
  Al0+  Al85  1  0.67731305  0.42736591  0.34905757  1
  Al0+  Al86  1  0.92856331  0.82246447  0.98581057  1
  Al0+  Al87  1  0.81986930  0.57119526  0.34595815  1
  Al0+  Al88  1  0.82017329  0.57149919  0.68262192  1
  Al0+  Al89  1  0.42799747  0.81903390  0.65118846  1
  Al0+  Al90  1  0.17695919  0.42662537  0.01462520  1
  Al0+  Al91  1  0.17964523  0.42753594  0.34772071  1
  Al0+  Al92  1  0.68049960  0.42892322  0.01340871  1
  Al0+  Al93  1  0.32192471  0.57383470  0.34789918  1
  Al0+  Al94  1  0.07277409  0.18250306  0.98571409  1
  Al0+  Al95  1  0.42883750  0.82231696  0.98554879  1
  Si0+  Si96  1  0.06972812  0.17792893  0.31764259  1
  Si0+  Si97  1  0.43044537  0.31995549  0.98439440  1
  Si0+  Si98  1  0.57161404  0.17894584  0.65181447  1
  Si0+  Si99  1  0.07320570  0.17601600  0.64688481  1
  Si0+  Si100  1  0.67677180  0.92874552  0.68680315  1
  Si0+  Si101  1  0.92954231  0.82276838  0.32175445  1
  Si0+  Si102  1  0.92784279  0.82270710  0.65139257  1
  Si0+  Si103  1  0.17800189  0.92957786  0.68145715  1
  Si0+  Si104  1  0.57344388  0.17833447  0.31682692  1
  Si0+  Si105  1  0.42901647  0.31939504  0.65263237  1
  Si0+  Si106  1  0.67862278  0.42588885  0.68223430  1
  Si0+  Si107  1  0.06868472  0.67808420  0.31950564  1
  Si0+  Si108  1  0.06816598  0.67898935  0.65039456  1
  Si0+  Si109  1  0.32606823  0.07203781  0.01559523  1
  Si0+  Si110  1  0.57369360  0.17885603  0.98486048  1
  Si0+  Si111  1  0.67940589  0.93012502  0.01425672  1
  Si0+  Si112  1  0.82072314  0.57551593  0.01523628  1
  Si0+  Si113  1  0.92550105  0.32045968  0.98397329  1
  Si0+  Si114  1  0.32265106  0.06914190  0.68238300  1
  Si0+  Si115  1  0.17421246  0.92778620  0.35131564  1
  Si0+  Si116  1  0.82459269  0.07209215  0.34925185  1
  Si0+  Si117  1  0.92910940  0.32205959  0.31654009  1
  Si0+  Si118  1  0.82170626  0.07088834  0.01572827  1
  Si0+  Si119  1  0.57346069  0.67646964  0.64887527  1
  O2-  O120  1  0.25966913  0.00087671  0.05846922  1
  O2-  O121  1  0.24958796  -0.01060540  0.39492107  1
  O2-  O122  1  0.25168715  -0.00161050  0.72325846  1
  O2-  O123  1  0.24444381  0.50256171  0.06389788  1
  O2-  O124  1  0.25245483  0.49855033  0.39698893  1
  O2-  O125  1  0.25237576  0.49865131  0.73154280  1
  O2-  O126  1  0.75472787  -0.00340677  0.05783077  1
  O2-  O127  1  0.75282348  0.00699109  0.39319090  1
  O2-  O128  1  0.74928633  -0.00635346  0.73098816  1
  O2-  O129  1  0.75155594  0.50734510  0.05885107  1
  O2-  O130  1  0.74834192  0.50001164  0.39831522  1
  O2-  O131  1  0.74362479  0.49757983  0.72697932  1
  O2-  O132  1  0.00015295  0.25035084  0.27554347  1
  O2-  O133  1  0.00892744  0.24894319  0.60316584  1
  O2-  O134  1  0.00142139  0.26014787  0.93921312  1
  O2-  O135  1  -0.00141417  0.75116286  0.27901900  1
  O2-  O136  1  -0.00627447  0.74778416  0.60773483  1
  O2-  O137  1  -0.00338497  0.74735615  0.93470622  1
  O2-  O138  1  0.50777970  0.24985365  0.27295206  1
  O2-  O139  1  0.50174361  0.25023574  0.60964383  1
  O2-  O140  1  0.50302042  0.24959308  0.94213914  1
  O2-  O141  1  0.49394762  0.74606083  0.26942521  1
  O2-  O142  1  0.50102675  0.74211871  0.60631146  1
  O2-  O143  1  0.49552520  0.74615451  0.93414669  1
  O2-  O144  1  0.06970229  0.17993878  0.09912497  1
  O2-  O145  1  0.06690923  0.17307641  0.42249373  1
  O2-  O146  1  0.07183948  0.17379818  0.75230160  1
  O2-  O147  1  0.06818824  0.67904628  0.09910148  1
  O2-  O148  1  0.06708112  0.67895754  0.42505105  1
  O2-  O149  1  0.06885531  0.68131335  0.75505482  1
  O2-  O150  1  0.57486006  0.17569712  0.08930952  1
  O2-  O151  1  0.57249763  0.17742671  0.42289140  1
  O2-  O152  1  0.57079993  0.17862128  0.75733121  1
  O2-  O153  1  0.57368230  0.67858284  0.09628919  1
  O2-  O154  1  0.57431145  0.68313513  0.43314727  1
  O2-  O155  1  0.57567149  0.67813323  0.75424234  1
  O2-  O156  1  0.17908158  0.42855569  0.23457246  1
  O2-  O157  1  0.18198856  0.42981330  0.56842172  1
  O2-  O158  1  0.18240345  0.42411643  0.90122873  1
  O2-  O159  1  0.16586214  0.93283645  0.24668142  1
  O2-  O160  1  0.17483491  0.93188449  0.57628558  1
  O2-  O161  1  0.17884369  0.93465126  0.89941454  1
  O2-  O162  1  0.68188599  0.42578393  0.23565291  1
  O2-  O163  1  0.67919519  0.42340577  0.57714803  1
  O2-  O164  1  0.68475015  0.42434327  0.90003228  1
  O2-  O165  1  0.68278786  0.93160504  0.23351015  1
  O2-  O166  1  0.67663097  0.93196045  0.58111470  1
  O2-  O167  1  0.67851354  0.93564988  0.90935540  1
  O2-  O168  1  0.42964243  0.31748442  0.08913095  1
  O2-  O169  1  0.42815136  0.31597359  0.43367786  1
  O2-  O170  1  0.43008067  0.31592045  0.75795450  1
  O2-  O171  1  0.43464638  0.82744402  0.09826699  1
  O2-  O172  1  0.43173329  0.82328543  0.43196226  1
  O2-  O173  1  0.42938687  0.82263416  0.76390365  1
  O2-  O174  1  0.92112908  0.31414968  0.08946190  1
  O2-  O175  1  0.92885419  0.32083819  0.42157915  1
  O2-  O176  1  0.92803604  0.31656696  0.76436872  1
  O2-  O177  1  0.92817855  0.82271520  0.10007911  1
  O2-  O178  1  0.93267069  0.82601985  0.42711521  1
  O2-  O179  1  0.93206070  0.82566458  0.75583362  1
  O2-  O180  1  0.31606809  0.07008480  0.23299159  1
  O2-  O181  1  0.32312087  0.07041219  0.57746888  1
  O2-  O182  1  0.32671614  0.07283319  0.90948107  1
  O2-  O183  1  0.31875461  0.57465556  0.23477627  1
  O2-  O184  1  0.32152490  0.57253572  0.56885078  1
  O2-  O185  1  0.32005130  0.56926323  0.90171773  1
  O2-  O186  1  0.82726464  0.06938722  0.24353202  1
  O2-  O187  1  0.81847022  0.06748619  0.56777997  1
  O2-  O188  1  0.81869765  0.07273021  0.91060120  1
  O2-  O189  1  0.82256985  0.57076242  0.23256934  1
  O2-  O190  1  0.81968460  0.57043304  0.56981750  1
  O2-  O191  1  0.82008280  0.57341347  0.90947157  1
  O2-  O192  1  0.03893210  0.08717608  0.26839221  1
  O2-  O193  1  0.04177671  0.08409348  0.59986087  1
  O2-  O194  1  0.03805804  0.08849654  0.92920908  1
  O2-  O195  1  0.03910271  0.58760235  0.27127038  1
  O2-  O196  1  0.04039431  0.58699540  0.60420086  1
  O2-  O197  1  0.04351302  0.57756719  0.93136611  1
  O2-  O198  1  0.54348448  0.08627629  0.27057783  1
  O2-  O199  1  0.54275411  0.08717816  0.60495687  1
  O2-  O200  1  0.54648198  0.08919319  0.93265603  1
  O2-  O201  1  0.55027714  0.57837562  0.26868753  1
  O2-  O202  1  0.55339926  0.58023711  0.60571184  1
  O2-  O203  1  0.54625315  0.57652086  0.93033638  1
  O2-  O204  1  0.16181860  0.20311830  0.27099360  1
  O2-  O205  1  0.16953686  0.19523910  0.60319885  1
  O2-  O206  1  0.17054956  0.20595596  0.92976819  1
  O2-  O207  1  0.15978659  0.70580760  0.27188010  1
  O2-  O208  1  0.15767185  0.71131632  0.60102419  1
  O2-  O209  1  0.16684312  0.71001124  0.93098495  1
  O2-  O210  1  0.66931609  0.19758314  0.27191186  1
  O2-  O211  1  0.66350424  0.20380694  0.60391348  1
  O2-  O212  1  0.66527491  0.20835811  0.93691129  1
  O2-  O213  1  0.66908354  0.71423705  0.26765974  1
  O2-  O214  1  0.66645838  0.70675148  0.60309392  1
  O2-  O215  1  0.66681394  0.70895810  0.92786445  1
  O2-  O216  1  0.07416251  0.44514852  0.06251817  1
  O2-  O217  1  0.08149388  0.45824230  0.39960826  1
  O2-  O218  1  0.08113396  0.45476190  0.73302549  1
  O2-  O219  1  0.08542417  0.96847038  0.06788860  1
  O2-  O220  1  0.08463377  0.96239352  0.40227234  1
  O2-  O221  1  0.08806004  0.96057220  0.73010301  1
  O2-  O222  1  0.58255483  0.45479046  0.06519494  1
  O2-  O223  1  0.57841368  0.45122179  0.40141370  1
  O2-  O224  1  0.58387440  0.44687931  0.72801961  1
  O2-  O225  1  0.59039568  0.96509620  0.06227105  1
  O2-  O226  1  0.58527130  0.96352667  0.40427460  1
  O2-  O227  1  0.58532243  0.96104389  0.73339285  1
  O2-  O228  1  0.21060945  0.32846887  0.06594304  1
  O2-  O229  1  0.20331884  0.32795333  0.40002558  1
  O2-  O230  1  0.20582349  0.32634837  0.73080850  1
  O2-  O231  1  0.20245290  0.83388933  0.06818512  1
  O2-  O232  1  0.19057570  0.83242206  0.39622419  1
  O2-  O233  1  0.20351093  0.83709129  0.72702795  1
  O2-  O234  1  0.71225877  0.33325152  0.06956175  1
  O2-  O235  1  0.70646903  0.32778559  0.40088633  1
  O2-  O236  1  0.70742486  0.33288831  0.72834135  1
  O2-  O237  1  0.70398591  0.83705500  0.05969320  1
  O2-  O238  1  0.71273050  0.83793632  0.40608975  1
  O2-  O239  1  0.69798180  0.83419971  0.73086847  1
  O2-  O240  1  0.45527321  0.41722664  0.26532822  1
  O2-  O241  1  0.45459140  0.41234078  0.60689940  1
  O2-  O242  1  0.45933268  0.41027784  0.93558882  1
  O2-  O243  1  0.45959882  0.92155168  0.26798339  1
  O2-  O244  1  0.46185237  0.91679845  0.59927088  1
  O2-  O245  1  0.46202073  0.92022351  0.93089100  1
  O2-  O246  1  0.95699804  0.41307420  0.26836812  1
  O2-  O247  1  0.95830437  0.41821227  0.59771298  1
  O2-  O248  1  0.94012426  0.41709574  0.94152148  1
  O2-  O249  1  0.95787565  0.91432498  0.27343284  1
  O2-  O250  1  0.96039831  0.91276716  0.60223254  1
  O2-  O251  1  0.96131267  0.92023061  0.93344096  1
  O2-  O252  1  0.33352400  0.28111894  0.26687698  1
  O2-  O253  1  0.33868532  0.28693883  0.60521223  1
  O2-  O254  1  0.34129321  0.28883963  0.93387389  1
  O2-  O255  1  0.32289916  0.80554131  0.27216860  1
  O2-  O256  1  0.32933673  0.79552247  0.59712306  1
  O2-  O257  1  0.32789180  0.80082837  0.93578686  1
  O2-  O258  1  0.83747969  0.29348535  0.26856234  1
  O2-  O259  1  0.83560111  0.28388623  0.59652659  1
  O2-  O260  1  0.83566151  0.28455206  0.93574466  1
  O2-  O261  1  0.83668876  0.79784066  0.27656329  1
  O2-  O262  1  0.83254169  0.80060956  0.60833715  1
  O2-  O263  1  0.82960949  0.80270037  0.93052426  1
  O2-  O264  1  0.42105111  0.05056491  0.06062483  1
  O2-  O265  1  0.41662593  0.04453580  0.40245865  1
  O2-  O266  1  0.41490921  0.04290771  0.73012307  1
  O2-  O267  1  0.41751578  0.53945174  0.06586374  1
  O2-  O268  1  0.42051127  0.54736106  0.39981753  1
  O2-  O269  1  0.42198508  0.54630867  0.73371787  1
  O2-  O270  1  0.91496336  0.04758003  0.06130977  1
  O2-  O271  1  0.91597160  0.04326640  0.39814366  1
  O2-  O272  1  0.91808870  0.04038860  0.73463244  1
  O2-  O273  1  0.91428199  0.55009649  0.06085789  1
  O2-  O274  1  0.91665912  0.53916528  0.40057357  1
  O2-  O275  1  0.91552698  0.53889179  0.73684665  1
  O2-  O276  1  0.29679181  0.16450050  0.06082043  1
  O2-  O277  1  0.28346081  0.16080128  0.40412081  1
  O2-  O278  1  0.29578836  0.16033935  0.73139090  1
  O2-  O279  1  0.29473393  0.67183418  0.06651210  1
  O2-  O280  1  0.28873744  0.67130344  0.40133168  1
  O2-  O281  1  0.28951359  0.67152575  0.73208498  1
  O2-  O282  1  0.78975530  0.15985984  0.06571162  1
  O2-  O283  1  0.80259062  0.16686541  0.39343832  1
  O2-  O284  1  0.78756665  0.16477498  0.73590983  1
  O2-  O285  1  0.79683347  0.67100619  0.05773656  1
  O2-  O286  1  0.79561021  0.66959839  0.40120992  1
  O2-  O287  1  0.79347163  0.66951377  0.73623624  1
