# generated using pymatgen
data_Ca2Al2SiO7
_symmetry_space_group_name_H-M   'P 1'
_cell_length_a   15.45288577
_cell_length_b   15.45332264
_cell_length_c   15.28004061
_cell_angle_alpha   89.99601437
_cell_angle_beta   89.99744857
_cell_angle_gamma   90.00274096
_symmetry_Int_Tables_number   1
_chemical_formula_structural   Ca2Al2SiO7
_chemical_formula_sum   'Ca48 Al48 Si24 O168'
_cell_volume   3648.84968410
_cell_formula_units_Z   24
loop_
 _symmetry_equiv_pos_site_id
 _symmetry_equiv_pos_as_xyz
  1  'x, y, z'
loop_
 _atom_type_symbol
 _atom_type_oxidation_number
  Ca2+  2.0
  Al0+  0.0
  Si0+  0.0
  O2-  -2.0
loop_
 _atom_site_type_symbol
 _atom_site_label
 _atom_site_symmetry_multiplicity
 _atom_site_fract_x
 _atom_site_fract_y
 _atom_site_fract_z
 _atom_site_occupancy
  Ca2+  Ca0  1  0.17423878  0.08540972  0.17264083  1
  Ca2+  Ca1  1  0.17391803  0.08802162  0.50298329  1
  Ca2+  Ca2  1  0.17584324  0.09135351  0.83716801  1
  Ca2+  Ca3  1  0.16639210  0.57935276  0.16257801  1
  Ca2+  Ca4  1  0.17122660  0.57252607  0.50743817  1
  Ca2+  Ca5  1  0.16781999  0.57126408  0.84520387  1
  Ca2+  Ca6  1  0.66466165  0.08121707  0.17104448  1
  Ca2+  Ca7  1  0.66914351  0.07600196  0.50385287  1
  Ca2+  Ca8  1  0.67046486  0.08972323  0.83848767  1
  Ca2+  Ca9  1  0.67890284  0.57715962  0.17576488  1
  Ca2+  Ca10  1  0.67225413  0.58244721  0.50405325  1
  Ca2+  Ca11  1  0.67348144  0.58642271  0.83594960  1
  Ca2+  Ca12  1  0.08121236  0.32461131  0.15844396  1
  Ca2+  Ca13  1  0.08885000  0.32120840  0.49751473  1
  Ca2+  Ca14  1  0.08734819  0.32986534  0.83277219  1
  Ca2+  Ca15  1  0.08691489  0.82801442  0.16194539  1
  Ca2+  Ca16  1  0.08300621  0.83412906  0.49264352  1
  Ca2+  Ca17  1  0.08604845  0.82340723  0.83308798  1
  Ca2+  Ca18  1  0.58119104  0.33047123  0.16445671  1
  Ca2+  Ca19  1  0.57159066  0.33635465  0.49305375  1
  Ca2+  Ca20  1  0.57541534  0.32917483  0.82967118  1
  Ca2+  Ca21  1  0.57117773  0.84104897  0.16351131  1
  Ca2+  Ca22  1  0.58204351  0.83013226  0.49396573  1
  Ca2+  Ca23  1  0.57608508  0.82647381  0.83056970  1
  Ca2+  Ca24  1  0.33067651  0.41682933  0.16752072  1
  Ca2+  Ca25  1  0.33060373  0.40742811  0.50739543  1
  Ca2+  Ca26  1  0.32347209  0.41535039  0.83803442  1
  Ca2+  Ca27  1  0.33345014  0.92556612  0.17458408  1
  Ca2+  Ca28  1  0.33297728  0.92688109  0.49828117  1
  Ca2+  Ca29  1  0.33724123  0.92682458  0.84027063  1
  Ca2+  Ca30  1  0.83373283  0.42154581  0.16990688  1
  Ca2+  Ca31  1  0.82747965  0.42444957  0.50285969  1
  Ca2+  Ca32  1  0.83836105  0.42467558  0.84144074  1
  Ca2+  Ca33  1  0.82422777  0.91707159  0.17368737  1
  Ca2+  Ca34  1  0.82768698  0.92082508  0.50386039  1
  Ca2+  Ca35  1  0.83290529  0.92392418  0.83293088  1
  Ca2+  Ca36  1  0.41758687  0.16624583  0.16300799  1
  Ca2+  Ca37  1  0.40636651  0.17488603  0.49636409  1
  Ca2+  Ca38  1  0.41598793  0.16699150  0.83006221  1
  Ca2+  Ca39  1  0.40947790  0.68046883  0.15898777  1
  Ca2+  Ca40  1  0.42590431  0.67096857  0.49205459  1
  Ca2+  Ca41  1  0.41511921  0.67037009  0.82979415  1
  Ca2+  Ca42  1  0.92945997  0.17114710  0.15660496  1
  Ca2+  Ca43  1  0.92872378  0.15840460  0.49629103  1
  Ca2+  Ca44  1  0.92765505  0.17222717  0.82707152  1
  Ca2+  Ca45  1  0.91871515  0.66221937  0.16009473  1
  Ca2+  Ca46  1  0.91389519  0.66148408  0.49783663  1
  Ca2+  Ca47  1  0.91952836  0.65804189  0.83317514  1
  Al0+  Al48  1  -0.00037096  -0.00004873  -0.00400083  1
  Al0+  Al49  1  0.00144858  -0.00303769  0.32853827  1
  Al0+  Al50  1  -0.00076537  -0.00167666  0.66742896  1
  Al0+  Al51  1  -0.00003023  0.50043101  0.00210552  1
  Al0+  Al52  1  0.00149313  0.49918895  0.33804121  1
  Al0+  Al53  1  -0.00062550  0.49844307  0.67174230  1
  Al0+  Al54  1  0.49983584  0.00008378  -0.00617537  1
  Al0+  Al55  1  0.50029765  0.00069969  0.34016247  1
  Al0+  Al56  1  0.49943708  -0.00079968  0.66977223  1
  Al0+  Al57  1  0.50070623  0.50129386  0.00386540  1
  Al0+  Al58  1  0.50114322  0.50030131  0.32979375  1
  Al0+  Al59  1  0.50057697  0.50144889  0.65873034  1
  Al0+  Al60  1  0.25096236  0.24975188  0.00624098  1
  Al0+  Al61  1  0.25058553  0.25066034  0.32626219  1
  Al0+  Al62  1  0.24920744  0.24875396  0.66816323  1
  Al0+  Al63  1  0.24871846  0.75085840  -0.00835649  1
  Al0+  Al64  1  0.25020783  0.75017009  0.33419821  1
  Al0+  Al65  1  0.24907685  0.75089319  0.66306592  1
  Al0+  Al66  1  0.75052363  0.25081229  -0.00651125  1
  Al0+  Al67  1  0.75034583  0.25232962  0.33866642  1
  Al0+  Al68  1  0.74961274  0.25044049  0.66926607  1
  Al0+  Al69  1  0.74868437  0.75124286  0.00409194  1
  Al0+  Al70  1  0.75161959  0.75051694  0.33969834  1
  Al0+  Al71  1  0.74952196  0.74942954  0.66745750  1
  Al0+  Al72  1  0.31960381  0.07282388  0.34895985  1
  Al0+  Al73  1  0.43013508  0.31786980  0.65524259  1
  Al0+  Al74  1  0.06919033  0.17966787  0.65207449  1
  Al0+  Al75  1  0.42854217  0.82065567  0.98513527  1
  Al0+  Al76  1  0.31908677  0.06915511  0.68161438  1
  Al0+  Al77  1  0.17824124  0.92679815  0.34730862  1
  Al0+  Al78  1  0.32260940  0.57371615  0.01400991  1
  Al0+  Al79  1  0.67650126  0.42765193  0.34970660  1
  Al0+  Al80  1  0.43052187  0.82073056  0.32037037  1
  Al0+  Al81  1  0.07374875  0.17780124  0.98330236  1
  Al0+  Al82  1  0.57088302  0.68086039  0.65207158  1
  Al0+  Al83  1  0.92990425  0.32156505  0.98502599  1
  Al0+  Al84  1  0.32169424  0.06929628  0.01435812  1
  Al0+  Al85  1  0.06865863  0.68043550  0.98678337  1
  Al0+  Al86  1  0.81940943  0.57099306  0.01444465  1
  Al0+  Al87  1  0.56994048  0.17926549  0.98719090  1
  Al0+  Al88  1  0.67847824  0.93069575  0.34662146  1
  Al0+  Al89  1  0.82266049  0.56982879  0.35000396  1
  Al0+  Al90  1  0.42920547  0.32201262  0.31713983  1
  Al0+  Al91  1  0.81864177  0.56980952  0.68322469  1
  Al0+  Al92  1  0.18119426  0.42912561  0.67971982  1
  Al0+  Al93  1  0.06994558  0.17773857  0.31819516  1
  Al0+  Al94  1  0.17962012  0.42872843  0.01791648  1
  Al0+  Al95  1  0.82150238  0.07161258  0.68060322  1
  Si0+  Si96  1  0.92790707  0.32288928  0.31898350  1
  Si0+  Si97  1  0.92620919  0.32377921  0.64827810  1
  Si0+  Si98  1  0.92982616  0.81957478  0.65127800  1
  Si0+  Si99  1  0.57456028  0.67922088  0.31455615  1
  Si0+  Si100  1  0.67714209  0.42555684  0.01598425  1
  Si0+  Si101  1  0.07044642  0.67659699  0.65086295  1
  Si0+  Si102  1  0.42665510  0.82394511  0.64734130  1
  Si0+  Si103  1  0.32334948  0.57414298  0.68001734  1
  Si0+  Si104  1  0.82389873  0.07228938  0.34668767  1
  Si0+  Si105  1  0.32112486  0.57287783  0.34760024  1
  Si0+  Si106  1  0.18136224  0.42957423  0.34860087  1
  Si0+  Si107  1  0.92345422  0.82290778  0.98280905  1
  Si0+  Si108  1  0.82174796  0.07240424  0.01401992  1
  Si0+  Si109  1  0.57329683  0.67783038  0.98596994  1
  Si0+  Si110  1  0.57440561  0.17618722  0.64895535  1
  Si0+  Si111  1  0.92807329  0.81981609  0.31846283  1
  Si0+  Si112  1  0.67850789  0.92822230  0.68557200  1
  Si0+  Si113  1  0.67973732  0.93075818  0.01385652  1
  Si0+  Si114  1  0.42843435  0.32420447  0.98432937  1
  Si0+  Si115  1  0.17620402  0.92519450  0.68476717  1
  Si0+  Si116  1  0.17627419  0.92759659  0.01427425  1
  Si0+  Si117  1  0.67460903  0.42842448  0.68447016  1
  Si0+  Si118  1  0.57400037  0.17824501  0.31993504  1
  Si0+  Si119  1  0.07101053  0.67729055  0.32004260  1
  O2-  O120  1  0.24281388  -0.00232360  0.05893444  1
  O2-  O121  1  0.24596573  0.00164220  0.39846717  1
  O2-  O122  1  0.24668257  -0.00815341  0.72838252  1
  O2-  O123  1  0.25345994  0.50043037  0.06672129  1
  O2-  O124  1  0.25494419  0.49797884  0.39124589  1
  O2-  O125  1  0.25417439  0.50674501  0.72431527  1
  O2-  O126  1  0.75126926  0.00117525  0.05688837  1
  O2-  O127  1  0.75296036  0.00638265  0.39200600  1
  O2-  O128  1  0.74231262  0.00184608  0.72927183  1
  O2-  O129  1  0.74479796  0.49589382  0.05947637  1
  O2-  O130  1  0.74814767  0.50039996  0.39933865  1
  O2-  O131  1  0.74609363  0.49335733  0.73009854  1
  O2-  O132  1  -0.00813324  0.25037849  0.27428631  1
  O2-  O133  1  -0.00823494  0.25190637  0.60394993  1
  O2-  O134  1  0.00178732  0.25013731  0.93389908  1
  O2-  O135  1  -0.00085579  0.74808656  0.27820399  1
  O2-  O136  1  0.00074787  0.74858293  0.60809555  1
  O2-  O137  1  -0.00747236  0.75419512  0.93928643  1
  O2-  O138  1  0.50662797  0.24770146  0.27489554  1
  O2-  O139  1  0.50564609  0.24468040  0.60548224  1
  O2-  O140  1  0.49625099  0.25462205  0.94024926  1
  O2-  O141  1  0.50522122  0.74714036  0.27049595  1
  O2-  O142  1  0.49440641  0.75363458  0.60460977  1
  O2-  O143  1  0.49937150  0.74054983  0.94087609  1
  O2-  O144  1  0.07006705  0.17639019  0.09709057  1
  O2-  O145  1  0.06990438  0.17934376  0.43175964  1
  O2-  O146  1  0.06991293  0.18145652  0.76448291  1
  O2-  O147  1  0.06754537  0.68260521  0.10038701  1
  O2-  O148  1  0.07038668  0.67683457  0.42556908  1
  O2-  O149  1  0.07029694  0.67759260  0.75569298  1
  O2-  O150  1  0.57085131  0.17781109  0.10045448  1
  O2-  O151  1  0.57509926  0.17789171  0.42543618  1
  O2-  O152  1  0.57426335  0.17730002  0.75470590  1
  O2-  O153  1  0.57712938  0.68248835  0.09110914  1
  O2-  O154  1  0.57329492  0.68096495  0.42056244  1
  O2-  O155  1  0.57067123  0.68327510  0.76547393  1
  O2-  O156  1  0.17872324  0.43245708  0.24408822  1
  O2-  O157  1  0.18252968  0.43011866  0.56576671  1
  O2-  O158  1  0.18113065  0.42969034  0.90406472  1
  O2-  O159  1  0.17951523  0.92389760  0.23395861  1
  O2-  O160  1  0.17545130  0.92335144  0.57933482  1
  O2-  O161  1  0.17722692  0.92672101  0.90848156  1
  O2-  O162  1  0.67859538  0.42765767  0.23589969  1
  O2-  O163  1  0.67465897  0.43069045  0.57904047  1
  O2-  O164  1  0.67539845  0.42625648  0.91034186  1
  O2-  O165  1  0.67959268  0.93175284  0.23308797  1
  O2-  O166  1  0.68076880  0.92759394  0.57977461  1
  O2-  O167  1  0.68206443  0.92960488  0.90878789  1
  O2-  O168  1  0.43132181  0.32423091  0.08990362  1
  O2-  O169  1  0.42721231  0.32026434  0.43055059  1
  O2-  O170  1  0.43125044  0.31733519  0.76829009  1
  O2-  O171  1  0.43095436  0.82352229  0.09833473  1
  O2-  O172  1  0.43216755  0.81725402  0.43352701  1
  O2-  O173  1  0.42709065  0.82345192  0.75308327  1
  O2-  O174  1  0.92818656  0.31759513  0.09916486  1
  O2-  O175  1  0.93052517  0.32442144  0.42463445  1
  O2-  O176  1  0.92787313  0.32466303  0.75358936  1
  O2-  O177  1  0.92137704  0.82380668  0.08852130  1
  O2-  O178  1  0.92780960  0.82141895  0.42374428  1
  O2-  O179  1  0.93017402  0.81976126  0.75633601  1
  O2-  O180  1  0.32109081  0.07054082  0.23542257  1
  O2-  O181  1  0.31777672  0.06984131  0.56879529  1
  O2-  O182  1  0.32278256  0.06774113  0.90097864  1
  O2-  O183  1  0.31667654  0.57580840  0.24297437  1
  O2-  O184  1  0.32078798  0.57515653  0.57390394  1
  O2-  O185  1  0.32146839  0.57223915  0.89998270  1
  O2-  O186  1  0.82284253  0.07002973  0.24077786  1
  O2-  O187  1  0.82229217  0.06531949  0.56721057  1
  O2-  O188  1  0.82064189  0.07014909  0.90893901  1
  O2-  O189  1  0.82381651  0.56894250  0.23641758  1
  O2-  O190  1  0.81817368  0.56995516  0.57040422  1
  O2-  O191  1  0.81641617  0.57203423  0.90127943  1
  O2-  O192  1  0.04204416  0.08032106  0.26385609  1
  O2-  O193  1  0.03898721  0.08108650  0.60022707  1
  O2-  O194  1  0.04500290  0.07903870  0.93057956  1
  O2-  O195  1  0.04295166  0.58540654  0.27289957  1
  O2-  O196  1  0.04096949  0.58500354  0.60370662  1
  O2-  O197  1  0.03758256  0.58455808  0.93262656  1
  O2-  O198  1  0.54745104  0.08457343  0.27456280  1
  O2-  O199  1  0.54991470  0.08062143  0.60624809  1
  O2-  O200  1  0.54074743  0.08438554  0.92903122  1
  O2-  O201  1  0.55133403  0.58512347  0.26965475  1
  O2-  O202  1  0.54286421  0.58532483  0.59436587  1
  O2-  O203  1  0.55500479  0.58192949  0.94148874  1
  O2-  O204  1  0.16406692  0.21261845  0.26342585  1
  O2-  O205  1  0.16445140  0.21429648  0.59805751  1
  O2-  O206  1  0.17344322  0.20758994  0.93431273  1
  O2-  O207  1  0.16204689  0.70589083  0.27229914  1
  O2-  O208  1  0.16286886  0.70275994  0.60251423  1
  O2-  O209  1  0.16262209  0.71111245  0.92726758  1
  O2-  O210  1  0.66884984  0.20204408  0.27393335  1
  O2-  O211  1  0.66905371  0.19953046  0.60366882  1
  O2-  O212  1  0.66582566  0.20871738  0.93061803  1
  O2-  O213  1  0.66938540  0.70607303  0.27196251  1
  O2-  O214  1  0.66677062  0.71480412  0.59769041  1
  O2-  O215  1  0.66397355  0.71132005  0.93723231  1
  O2-  O216  1  0.08248764  0.46110627  0.07089258  1
  O2-  O217  1  0.09126836  0.45903204  0.39862503  1
  O2-  O218  1  0.08486511  0.45886995  0.73369405  1
  O2-  O219  1  0.08033885  0.94829875  0.05904039  1
  O2-  O220  1  0.07694145  0.94962506  0.39779915  1
  O2-  O221  1  0.08252113  0.94925341  0.73048217  1
  O2-  O222  1  0.58380702  0.44902736  0.06341814  1
  O2-  O223  1  0.57759574  0.45751201  0.40150524  1
  O2-  O224  1  0.58195037  0.45872255  0.73001346  1
  O2-  O225  1  0.58851896  0.96125610  0.05989701  1
  O2-  O226  1  0.58483446  0.96010405  0.40610704  1
  O2-  O227  1  0.58315556  0.94789951  0.73007600  1
  O2-  O228  1  0.20761050  0.33134642  0.07255740  1
  O2-  O229  1  0.20942378  0.33721937  0.39383547  1
  O2-  O230  1  0.21466511  0.33488484  0.73490834  1
  O2-  O231  1  0.20266704  0.83373158  0.05843143  1
  O2-  O232  1  0.20753825  0.82921441  0.40301110  1
  O2-  O233  1  0.20070563  0.82996766  0.72965265  1
  O2-  O234  1  0.70536392  0.33237383  0.06190939  1
  O2-  O235  1  0.70317421  0.32979966  0.40580789  1
  O2-  O236  1  0.69518620  0.33273452  0.72821733  1
  O2-  O237  1  0.70630988  0.84022058  0.06439785  1
  O2-  O238  1  0.71159063  0.83597054  0.40281697  1
  O2-  O239  1  0.71089122  0.83735431  0.73266929  1
  O2-  O240  1  0.45766059  0.41949234  0.26294695  1
  O2-  O241  1  0.45678236  0.41519793  0.59944949  1
  O2-  O242  1  0.45401479  0.41817155  0.93832427  1
  O2-  O243  1  0.46287841  0.91851376  0.26927363  1
  O2-  O244  1  0.45554327  0.91703303  0.60217573  1
  O2-  O245  1  0.46687611  0.91282854  0.92765636  1
  O2-  O246  1  0.95910113  0.41516360  0.27267978  1
  O2-  O247  1  0.95521352  0.41689684  0.60251623  1
  O2-  O248  1  0.95777451  0.42021656  0.93334282  1
  O2-  O249  1  0.95397055  0.91015035  0.26695082  1
  O2-  O250  1  0.95725199  0.91055734  0.60201157  1
  O2-  O251  1  0.94880575  0.91602478  0.93545943  1
  O2-  O252  1  0.33450053  0.29083433  0.26075274  1
  O2-  O253  1  0.33460981  0.28472238  0.60026526  1
  O2-  O254  1  0.33439825  0.29786916  0.94108636  1
  O2-  O255  1  0.33365337  0.78853181  0.26722363  1
  O2-  O256  1  0.33188283  0.80080701  0.60208232  1
  O2-  O257  1  0.33272523  0.79452144  0.92774788  1
  O2-  O258  1  0.83192464  0.30311922  0.27523870  1
  O2-  O259  1  0.83016081  0.30196158  0.60513276  1
  O2-  O260  1  0.83207994  0.29485028  0.92960832  1
  O2-  O261  1  0.83607895  0.79210512  0.27069300  1
  O2-  O262  1  0.83793304  0.79157212  0.60407920  1
  O2-  O263  1  0.83003008  0.79724129  0.93622206  1
  O2-  O264  1  0.41850082  0.03463045  0.06590800  1
  O2-  O265  1  0.41715961  0.04460995  0.40338664  1
  O2-  O266  1  0.41749752  0.04126385  0.73482039  1
  O2-  O267  1  0.42252268  0.55163715  0.06769451  1
  O2-  O268  1  0.41573814  0.55010145  0.39106725  1
  O2-  O269  1  0.41791252  0.54997886  0.72351518  1
  O2-  O270  1  0.91363052  0.04396173  0.06105754  1
  O2-  O271  1  0.91560704  0.04041216  0.39253270  1
  O2-  O272  1  0.91542405  0.03434858  0.73600931  1
  O2-  O273  1  0.91561575  0.54136032  0.06845289  1
  O2-  O274  1  0.92058534  0.54036740  0.40478080  1
  O2-  O275  1  0.91625643  0.54109173  0.73599361  1
  O2-  O276  1  0.29664139  0.16648876  0.06880744  1
  O2-  O277  1  0.28827529  0.17194908  0.39932425  1
  O2-  O278  1  0.28585939  0.16418479  0.73601860  1
  O2-  O279  1  0.28934418  0.67254004  0.06385606  1
  O2-  O280  1  0.28981129  0.66159703  0.39880408  1
  O2-  O281  1  0.29854096  0.66888060  0.72456178  1
  O2-  O282  1  0.79291060  0.16409130  0.06026933  1
  O2-  O283  1  0.80445932  0.16661782  0.39322898  1
  O2-  O284  1  0.79564118  0.16970802  0.73430900  1
  O2-  O285  1  0.79015052  0.66852665  0.06873848  1
  O2-  O286  1  0.79713354  0.66905653  0.40268147  1
  O2-  O287  1  0.78770081  0.66716737  0.73583006  1
