# generated using pymatgen
data_Ca2Al2SiO7
_symmetry_space_group_name_H-M   'P 1'
_cell_length_a   15.46491104
_cell_length_b   15.46635807
_cell_length_c   15.29058374
_cell_angle_alpha   89.98478457
_cell_angle_beta   89.99910803
_cell_angle_gamma   89.99955340
_symmetry_Int_Tables_number   1
_chemical_formula_structural   Ca2Al2SiO7
_chemical_formula_sum   'Ca48 Al48 Si24 O168'
_cell_volume   3657.29116506
_cell_formula_units_Z   24
loop_
 _symmetry_equiv_pos_site_id
 _symmetry_equiv_pos_as_xyz
  1  'x, y, z'
loop_
 _atom_type_symbol
 _atom_type_oxidation_number
  Ca2+  2.0
  Al0+  0.0
  Si0+  0.0
  O2-  -2.0
loop_
 _atom_site_type_symbol
 _atom_site_label
 _atom_site_symmetry_multiplicity
 _atom_site_fract_x
 _atom_site_fract_y
 _atom_site_fract_z
 _atom_site_occupancy
  Ca2+  Ca0  1  0.17299059  0.08095401  0.17540192  1
  Ca2+  Ca1  1  0.17281436  0.08766127  0.49647278  1
  Ca2+  Ca2  1  0.17448437  0.07722179  0.84706294  1
  Ca2+  Ca3  1  0.17163331  0.57510831  0.17324804  1
  Ca2+  Ca4  1  0.16917752  0.57759193  0.50230761  1
  Ca2+  Ca5  1  0.18056932  0.58035766  0.83850911  1
  Ca2+  Ca6  1  0.67334213  0.09001237  0.17394838  1
  Ca2+  Ca7  1  0.66729219  0.08052299  0.50684037  1
  Ca2+  Ca8  1  0.67408821  0.09387099  0.83602973  1
  Ca2+  Ca9  1  0.66686687  0.58000721  0.17136958  1
  Ca2+  Ca10  1  0.66419207  0.58187439  0.50685302  1
  Ca2+  Ca11  1  0.66134951  0.58335990  0.83473383  1
  Ca2+  Ca12  1  0.09023126  0.31879134  0.16788280  1
  Ca2+  Ca13  1  0.07735574  0.33080018  0.49140932  1
  Ca2+  Ca14  1  0.07822306  0.32452941  0.83205764  1
  Ca2+  Ca15  1  0.09614627  0.83289249  0.16412742  1
  Ca2+  Ca16  1  0.08600292  0.82832762  0.48959425  1
  Ca2+  Ca17  1  0.08536290  0.83690395  0.83100684  1
  Ca2+  Ca18  1  0.57162311  0.32104704  0.16489605  1
  Ca2+  Ca19  1  0.57818524  0.31929495  0.49442310  1
  Ca2+  Ca20  1  0.57817884  0.32221388  0.83474766  1
  Ca2+  Ca21  1  0.57642852  0.83893675  0.16271195  1
  Ca2+  Ca22  1  0.58537593  0.83548165  0.50043043  1
  Ca2+  Ca23  1  0.57024490  0.83247415  0.82337413  1
  Ca2+  Ca24  1  0.33846622  0.41811559  0.17317392  1
  Ca2+  Ca25  1  0.33013105  0.41580979  0.50140585  1
  Ca2+  Ca26  1  0.34854214  0.42992450  0.83818518  1
  Ca2+  Ca27  1  0.32958858  0.92862927  0.16640740  1
  Ca2+  Ca28  1  0.33218178  0.91871695  0.49747428  1
  Ca2+  Ca29  1  0.33255206  0.91646538  0.84117319  1
  Ca2+  Ca30  1  0.83250818  0.41807341  0.16995338  1
  Ca2+  Ca31  1  0.83446962  0.41501995  0.50692117  1
  Ca2+  Ca32  1  0.83278157  0.41203344  0.83410871  1
  Ca2+  Ca33  1  0.82420242  0.92835205  0.17442871  1
  Ca2+  Ca34  1  0.82181097  0.92958755  0.50328943  1
  Ca2+  Ca35  1  0.82321150  0.92783801  0.83624670  1
  Ca2+  Ca36  1  0.41849207  0.16819462  0.15808083  1
  Ca2+  Ca37  1  0.42636407  0.16505258  0.48843336  1
  Ca2+  Ca38  1  0.42904959  0.15688216  0.83203779  1
  Ca2+  Ca39  1  0.41157974  0.67547223  0.15810121  1
  Ca2+  Ca40  1  0.41467201  0.67158925  0.50328440  1
  Ca2+  Ca41  1  0.41268780  0.67592404  0.82636379  1
  Ca2+  Ca42  1  0.92803894  0.15032891  0.16487306  1
  Ca2+  Ca43  1  0.91657092  0.16521217  0.49634663  1
  Ca2+  Ca44  1  0.92052885  0.16086586  0.83000688  1
  Ca2+  Ca45  1  0.92602137  0.67056982  0.16550911  1
  Ca2+  Ca46  1  0.92402213  0.67155094  0.49002353  1
  Ca2+  Ca47  1  0.92012637  0.67119921  0.82807767  1
  Al0+  Al48  1  -0.00257312  -0.00318820  0.00073304  1
  Al0+  Al49  1  -0.00295965  -0.00121337  0.33817659  1
  Al0+  Al50  1  -0.00070363  -0.00078297  0.66803270  1
  Al0+  Al51  1  0.00062976  0.50132195  -0.00069126  1
  Al0+  Al52  1  0.00236102  0.50237909  0.33142933  1
  Al0+  Al53  1  0.00019243  0.49822519  0.66572395  1
  Al0+  Al54  1  0.49972382  -0.00228378  -0.00630214  1
  Al0+  Al55  1  0.50118657  -0.00248491  0.33500397  1
  Al0+  Al56  1  0.49787016  -0.00251979  0.66059044  1
  Al0+  Al57  1  0.50290901  0.49927960  0.00421596  1
  Al0+  Al58  1  0.50201945  0.50142416  0.33222933  1
  Al0+  Al59  1  0.50029499  0.50068333  0.66720613  1
  Al0+  Al60  1  0.24837995  0.25371484  -0.00932563  1
  Al0+  Al61  1  0.24741366  0.25361668  0.33710349  1
  Al0+  Al62  1  0.24792054  0.24912849  0.66985900  1
  Al0+  Al63  1  0.25107696  0.74619989  0.00218938  1
  Al0+  Al64  1  0.25166115  0.74884905  0.33128249  1
  Al0+  Al65  1  0.25037177  0.74801943  0.66568253  1
  Al0+  Al66  1  0.75002922  0.25237505  0.00362923  1
  Al0+  Al67  1  0.74889984  0.25400391  0.33354214  1
  Al0+  Al68  1  0.75083436  0.25181052  0.66311893  1
  Al0+  Al69  1  0.75270729  0.74969595  0.00076854  1
  Al0+  Al70  1  0.75149210  0.75048601  0.33480466  1
  Al0+  Al71  1  0.75029392  0.75056037  0.66742722  1
  Al0+  Al72  1  0.57077535  0.17625945  0.31834337  1
  Al0+  Al73  1  0.81883958  0.07223663  0.01464230  1
  Al0+  Al74  1  0.67638127  0.92819274  0.68407530  1
  Al0+  Al75  1  0.42785454  0.32147229  0.32099704  1
  Al0+  Al76  1  0.42694670  0.32327711  0.98452689  1
  Al0+  Al77  1  0.32221086  0.56755642  0.01505511  1
  Al0+  Al78  1  0.81995912  0.07443467  0.34966975  1
  Al0+  Al79  1  0.42630767  0.82069586  0.64792467  1
  Al0+  Al80  1  0.32079284  0.07329035  0.34697072  1
  Al0+  Al81  1  0.17913964  0.42981453  0.34720543  1
  Al0+  Al82  1  0.07006751  0.17639394  0.98703636  1
  Al0+  Al83  1  0.06769238  0.17842893  0.32187002  1
  Al0+  Al84  1  0.57115745  0.17854100  0.98521410  1
  Al0+  Al85  1  0.07275210  0.68005844  0.31814904  1
  Al0+  Al86  1  0.17861456  0.92826243  0.01312906  1
  Al0+  Al87  1  0.81929852  0.07292977  0.68348898  1
  Al0+  Al88  1  0.17953599  0.92782291  0.34815423  1
  Al0+  Al89  1  0.56931673  0.17979792  0.65258231  1
  Al0+  Al90  1  0.67775523  0.92745167  0.34828420  1
  Al0+  Al91  1  0.42905687  0.81845174  0.98685487  1
  Al0+  Al92  1  0.32219523  0.07352335  0.01149399  1
  Al0+  Al93  1  0.93105979  0.31983691  0.65371873  1
  Al0+  Al94  1  0.31943172  0.56826541  0.68010511  1
  Al0+  Al95  1  0.57177621  0.67839596  0.65168162  1
  Si0+  Si96  1  0.32456566  0.57188786  0.35090455  1
  Si0+  Si97  1  0.82331111  0.57313803  0.01560877  1
  Si0+  Si98  1  0.17424451  0.42935097  0.01645278  1
  Si0+  Si99  1  0.68002240  0.43016963  0.68211000  1
  Si0+  Si100  1  0.07014951  0.67866783  0.98303623  1
  Si0+  Si101  1  0.67894478  0.43223471  0.35024624  1
  Si0+  Si102  1  0.68087069  0.43040148  0.01747299  1
  Si0+  Si103  1  0.57513971  0.67798412  0.98578962  1
  Si0+  Si104  1  0.06989829  0.67948984  0.65243001  1
  Si0+  Si105  1  0.92725021  0.32478453  0.31606196  1
  Si0+  Si106  1  0.92911304  0.82162566  0.65098136  1
  Si0+  Si107  1  0.32049162  0.07188254  0.68077964  1
  Si0+  Si108  1  0.57354263  0.67923012  0.31794109  1
  Si0+  Si109  1  0.42681025  0.32293152  0.65123918  1
  Si0+  Si110  1  0.92791894  0.82057035  0.31557797  1
  Si0+  Si111  1  0.92732026  0.81973026  0.98297480  1
  Si0+  Si112  1  0.82180014  0.57050861  0.34822194  1
  Si0+  Si113  1  0.42906103  0.81965590  0.31622844  1
  Si0+  Si114  1  0.92870541  0.32428472  0.98503165  1
  Si0+  Si115  1  0.07232692  0.17525389  0.64947957  1
  Si0+  Si116  1  0.17936442  0.92816189  0.67960006  1
  Si0+  Si117  1  0.82337359  0.57137164  0.68141280  1
  Si0+  Si118  1  0.67832401  0.92609496  0.01503553  1
  Si0+  Si119  1  0.17545924  0.42668885  0.68605919  1
  O2-  O120  1  0.24521552  0.00610382  0.06129984  1
  O2-  O121  1  0.24839598  0.00171764  0.39935529  1
  O2-  O122  1  0.24817032  0.00087694  0.72123574  1
  O2-  O123  1  0.25054266  0.48968851  0.06026954  1
  O2-  O124  1  0.25658108  0.50200895  0.39381222  1
  O2-  O125  1  0.24916041  0.49020944  0.72943828  1
  O2-  O126  1  0.74042047  0.00041231  0.05933729  1
  O2-  O127  1  0.74314263  0.00612790  0.39726097  1
  O2-  O128  1  0.74401935  0.00444597  0.73423181  1
  O2-  O129  1  0.75232075  0.50290707  0.05805193  1
  O2-  O130  1  0.75237259  0.50046735  0.39331996  1
  O2-  O131  1  0.75036499  0.50303229  0.72445745  1
  O2-  O132  1  -0.00947309  0.25094804  0.27329975  1
  O2-  O133  1  0.00454158  0.24538618  0.60653587  1
  O2-  O134  1  -0.00594855  0.25206444  0.94215369  1
  O2-  O135  1  0.00245453  0.75843620  0.27002997  1
  O2-  O136  1  -0.00011146  0.75021082  0.60873740  1
  O2-  O137  1  0.00234955  0.75235110  0.94038173  1
  O2-  O138  1  0.49196033  0.24262947  0.27046647  1
  O2-  O139  1  0.48979345  0.25002264  0.60669687  1
  O2-  O140  1  0.49284106  0.24488914  0.93531085  1
  O2-  O141  1  0.50342794  0.75013553  0.27578923  1
  O2-  O142  1  0.50251905  0.75126832  0.59967262  1
  O2-  O143  1  0.50635972  0.74521383  0.94157660  1
  O2-  O144  1  0.06921345  0.17613065  0.10000890  1
  O2-  O145  1  0.06717954  0.18240972  0.43498035  1
  O2-  O146  1  0.07177485  0.17468903  0.75515760  1
  O2-  O147  1  0.06717052  0.67623299  0.08782872  1
  O2-  O148  1  0.06859311  0.67869508  0.43182055  1
  O2-  O149  1  0.06814546  0.68019847  0.75785183  1
  O2-  O150  1  0.57460343  0.18190400  0.09813176  1
  O2-  O151  1  0.57219378  0.18109310  0.43214636  1
  O2-  O152  1  0.57084034  0.18339700  0.76561256  1
  O2-  O153  1  0.57744482  0.67930334  0.09171073  1
  O2-  O154  1  0.57430657  0.67671178  0.42252299  1
  O2-  O155  1  0.57016490  0.67679491  0.76539345  1
  O2-  O156  1  0.17560256  0.43281801  0.23437944  1
  O2-  O157  1  0.17242831  0.42952386  0.58065610  1
  O2-  O158  1  0.16479500  0.43709159  0.91138400  1
  O2-  O159  1  0.18422318  0.92719762  0.23505825  1
  O2-  O160  1  0.17827106  0.92665587  0.57493940  1
  O2-  O161  1  0.17962362  0.92733485  0.89868023  1
  O2-  O162  1  0.67996205  0.43608471  0.24508052  1
  O2-  O163  1  0.68192288  0.43187457  0.57693407  1
  O2-  O164  1  0.68189181  0.43120253  0.91217645  1
  O2-  O165  1  0.68186259  0.92017317  0.23466789  1
  O2-  O166  1  0.68191746  0.92743939  0.57097759  1
  O2-  O167  1  0.68368837  0.91968622  0.91019127  1
  O2-  O168  1  0.43218188  0.32652577  0.09764171  1
  O2-  O169  1  0.43348059  0.32506723  0.43481118  1
  O2-  O170  1  0.43115834  0.32516186  0.75649994  1
  O2-  O171  1  0.42993006  0.81710253  0.10011640  1
  O2-  O172  1  0.42566349  0.81631809  0.42089250  1
  O2-  O173  1  0.42215709  0.81667759  0.76150353  1
  O2-  O174  1  0.93049708  0.33161767  0.08995809  1
  O2-  O175  1  0.92980020  0.32927507  0.42166037  1
  O2-  O176  1  0.93344515  0.32380009  0.76677600  1
  O2-  O177  1  0.92241516  0.81481009  0.08744643  1
  O2-  O178  1  0.92636900  0.81369891  0.42126572  1
  O2-  O179  1  0.93137960  0.81951260  0.75643980  1
  O2-  O180  1  0.32032235  0.07280884  0.23351239  1
  O2-  O181  1  0.31839232  0.07512975  0.57599801  1
  O2-  O182  1  0.32196694  0.06734245  0.89734046  1
  O2-  O183  1  0.32475751  0.57175118  0.24524635  1
  O2-  O184  1  0.31558201  0.56839606  0.56716466  1
  O2-  O185  1  0.31988736  0.56961067  0.90177448  1
  O2-  O186  1  0.82022015  0.07038567  0.23580311  1
  O2-  O187  1  0.82092674  0.07142010  0.57054569  1
  O2-  O188  1  0.81952368  0.07142763  0.90162501  1
  O2-  O189  1  0.82004526  0.56994487  0.24277598  1
  O2-  O190  1  0.82628602  0.56939264  0.57635792  1
  O2-  O191  1  0.82460182  0.57393384  0.91050802  1
  O2-  O192  1  0.03920464  0.08012088  0.26947802  1
  O2-  O193  1  0.04644270  0.08175800  0.60380061  1
  O2-  O194  1  0.03764517  0.07985392  0.93272463  1
  O2-  O195  1  0.03560905  0.58645654  0.26205884  1
  O2-  O196  1  0.04112729  0.58770671  0.60586667  1
  O2-  O197  1  0.03670702  0.58945227  0.93348344  1
  O2-  O198  1  0.55266421  0.07443062  0.26914160  1
  O2-  O199  1  0.54215957  0.08247767  0.59983640  1
  O2-  O200  1  0.54970849  0.07890822  0.93135508  1
  O2-  O201  1  0.54613488  0.58794870  0.26895795  1
  O2-  O202  1  0.54280445  0.57976260  0.59819033  1
  O2-  O203  1  0.55176862  0.58328450  0.94226872  1
  O2-  O204  1  0.16347175  0.21330437  0.26911856  1
  O2-  O205  1  0.16675591  0.20109126  0.60506404  1
  O2-  O206  1  0.16405554  0.20744134  0.92760525  1
  O2-  O207  1  0.17036650  0.70555150  0.26399655  1
  O2-  O208  1  0.16071930  0.70669659  0.60445226  1
  O2-  O209  1  0.16262056  0.70390069  0.93655374  1
  O2-  O210  1  0.66706060  0.21492790  0.26643720  1
  O2-  O211  1  0.66400898  0.21633448  0.59907634  1
  O2-  O212  1  0.66792790  0.21777615  0.93342073  1
  O2-  O213  1  0.66674312  0.70374165  0.27085933  1
  O2-  O214  1  0.67312318  0.70137337  0.60079506  1
  O2-  O215  1  0.66984915  0.70072827  0.93970069  1
  O2-  O216  1  0.08475250  0.46426265  0.06622649  1
  O2-  O217  1  0.08376991  0.46666207  0.40199431  1
  O2-  O218  1  0.08414076  0.45895796  0.73335356  1
  O2-  O219  1  0.07683458  0.94577175  0.06274722  1
  O2-  O220  1  0.07858640  0.94817642  0.39882451  1
  O2-  O221  1  0.08673440  0.95290818  0.72755035  1
  O2-  O222  1  0.59183720  0.46028781  0.06828032  1
  O2-  O223  1  0.58945005  0.46476251  0.39891373  1
  O2-  O224  1  0.58891288  0.45795921  0.73046215  1
  O2-  O225  1  0.58204188  0.94515972  0.05634279  1
  O2-  O226  1  0.57745738  0.94531931  0.40017639  1
  O2-  O227  1  0.57371314  0.94941547  0.73024430  1
  O2-  O228  1  0.19141316  0.33197862  0.05560039  1
  O2-  O229  1  0.20434938  0.33518083  0.40675593  1
  O2-  O230  1  0.19411056  0.33071104  0.73002327  1
  O2-  O231  1  0.21008888  0.83039622  0.06495214  1
  O2-  O232  1  0.21053601  0.82878056  0.40018028  1
  O2-  O233  1  0.20681781  0.83616636  0.72725196  1
  O2-  O234  1  0.71113719  0.34151504  0.06801099  1
  O2-  O235  1  0.70479733  0.34076829  0.39820081  1
  O2-  O236  1  0.71194246  0.34071623  0.73062565  1
  O2-  O237  1  0.70997220  0.83440640  0.06348470  1
  O2-  O238  1  0.71312359  0.83056625  0.40262567  1
  O2-  O239  1  0.70960294  0.83006897  0.73637760  1
  O2-  O240  1  0.46450777  0.41821991  0.26746402  1
  O2-  O241  1  0.45605311  0.41484591  0.60446696  1
  O2-  O242  1  0.46886643  0.41904713  0.93206639  1
  O2-  O243  1  0.45546056  0.91150530  0.26921261  1
  O2-  O244  1  0.44942422  0.91911018  0.59401537  1
  O2-  O245  1  0.45677341  0.91361044  0.92923106  1
  O2-  O246  1  0.95658464  0.41705173  0.26886298  1
  O2-  O247  1  0.96091151  0.41710243  0.59808453  1
  O2-  O248  1  0.95616127  0.41710705  0.93591088  1
  O2-  O249  1  0.94584404  0.91640667  0.27332825  1
  O2-  O250  1  0.95785667  0.91263144  0.60346334  1
  O2-  O251  1  0.95182935  0.91108350  0.93415286  1
  O2-  O252  1  0.32550822  0.30602912  0.27289539  1
  O2-  O253  1  0.32926447  0.30307856  0.61069931  1
  O2-  O254  1  0.32540791  0.31309367  0.93195211  1
  O2-  O255  1  0.33981875  0.78732553  0.26699884  1
  O2-  O256  1  0.32978016  0.78489925  0.59425753  1
  O2-  O257  1  0.33364763  0.78256860  0.93279317  1
  O2-  O258  1  0.83108853  0.30773971  0.27250884  1
  O2-  O259  1  0.83426230  0.29468738  0.59801238  1
  O2-  O260  1  0.83374262  0.30221891  0.94092465  1
  O2-  O261  1  0.83791816  0.78566987  0.26706507  1
  O2-  O262  1  0.83845226  0.79183844  0.60394910  1
  O2-  O263  1  0.83866314  0.78508822  0.93256980  1
  O2-  O264  1  0.42015138  0.04054817  0.06308176  1
  O2-  O265  1  0.41857191  0.04200187  0.39911391  1
  O2-  O266  1  0.41198568  0.04203763  0.72613864  1
  O2-  O267  1  0.42063175  0.54330673  0.06889178  1
  O2-  O268  1  0.41888769  0.54791669  0.39632530  1
  O2-  O269  1  0.41762903  0.54143266  0.73384386  1
  O2-  O270  1  0.91320165  0.03422754  0.06753591  1
  O2-  O271  1  0.91582462  0.04154275  0.40496105  1
  O2-  O272  1  0.91808500  0.03954439  0.73494436  1
  O2-  O273  1  0.91445462  0.54401688  0.06381823  1
  O2-  O274  1  0.91380493  0.54393687  0.39524682  1
  O2-  O275  1  0.91397040  0.54112345  0.73094490  1
  O2-  O276  1  0.29952465  0.17658318  0.05640695  1
  O2-  O277  1  0.29268050  0.17095341  0.40184106  1
  O2-  O278  1  0.29478194  0.16365818  0.73023760  1
  O2-  O279  1  0.28636332  0.66150913  0.07018791  1
  O2-  O280  1  0.29579513  0.66424090  0.39640316  1
  O2-  O281  1  0.28342444  0.66351268  0.73445655  1
  O2-  O282  1  0.79485836  0.17078339  0.06787071  1
  O2-  O283  1  0.79902030  0.17667891  0.39796238  1
  O2-  O284  1  0.79433472  0.17379254  0.73384283  1
  O2-  O285  1  0.79615219  0.66388524  0.06550306  1
  O2-  O286  1  0.79446591  0.66172607  0.39623561  1
  O2-  O287  1  0.79882432  0.66341340  0.72957193  1
