# generated using pymatgen
data_Ca2Al2SiO7
_symmetry_space_group_name_H-M   'P 1'
_cell_length_a   15.45250281
_cell_length_b   15.45290758
_cell_length_c   15.28016694
_cell_angle_alpha   90.00269314
_cell_angle_beta   89.99464559
_cell_angle_gamma   89.99773682
_symmetry_Int_Tables_number   1
_chemical_formula_structural   Ca2Al2SiO7
_chemical_formula_sum   'Ca48 Al48 Si24 O168'
_cell_volume   3648.69141360
_cell_formula_units_Z   24
loop_
 _symmetry_equiv_pos_site_id
 _symmetry_equiv_pos_as_xyz
  1  'x, y, z'
loop_
 _atom_type_symbol
 _atom_type_oxidation_number
  Ca2+  2.0
  Al0+  0.0
  Si0+  0.0
  O2-  -2.0
loop_
 _atom_site_type_symbol
 _atom_site_label
 _atom_site_symmetry_multiplicity
 _atom_site_fract_x
 _atom_site_fract_y
 _atom_site_fract_z
 _atom_site_occupancy
  Ca2+  Ca0  1  0.16727677  0.08321524  0.17204379  1
  Ca2+  Ca1  1  0.16700020  0.07298762  0.50515582  1
  Ca2+  Ca2  1  0.17901871  0.08752759  0.83689367  1
  Ca2+  Ca3  1  0.16315989  0.57365045  0.16801404  1
  Ca2+  Ca4  1  0.16829611  0.57749086  0.51083735  1
  Ca2+  Ca5  1  0.15588415  0.57203797  0.83323662  1
  Ca2+  Ca6  1  0.67138602  0.07527853  0.17584721  1
  Ca2+  Ca7  1  0.66345148  0.08392223  0.49622231  1
  Ca2+  Ca8  1  0.66880406  0.07644689  0.84157503  1
  Ca2+  Ca9  1  0.67969000  0.58324088  0.17135410  1
  Ca2+  Ca10  1  0.67716090  0.58837673  0.50661189  1
  Ca2+  Ca11  1  0.67594035  0.58679021  0.83660169  1
  Ca2+  Ca12  1  0.08044567  0.32136703  0.15823760  1
  Ca2+  Ca13  1  0.08097663  0.32871523  0.49819561  1
  Ca2+  Ca14  1  0.07965607  0.33582668  0.83198675  1
  Ca2+  Ca15  1  0.07603981  0.83431047  0.16079914  1
  Ca2+  Ca16  1  0.09198092  0.82964847  0.49618984  1
  Ca2+  Ca17  1  0.07821795  0.82922254  0.82702440  1
  Ca2+  Ca18  1  0.58110764  0.32766248  0.16792549  1
  Ca2+  Ca19  1  0.56906710  0.32860924  0.49080547  1
  Ca2+  Ca20  1  0.57470383  0.33108242  0.82328269  1
  Ca2+  Ca21  1  0.57601799  0.84628434  0.16266905  1
  Ca2+  Ca22  1  0.57968569  0.83150329  0.49464486  1
  Ca2+  Ca23  1  0.58047638  0.83197547  0.83267407  1
  Ca2+  Ca24  1  0.32810356  0.41299372  0.16846957  1
  Ca2+  Ca25  1  0.32927462  0.40890547  0.50855098  1
  Ca2+  Ca26  1  0.32053204  0.41050497  0.83620075  1
  Ca2+  Ca27  1  0.33279036  0.91998388  0.17264139  1
  Ca2+  Ca28  1  0.32575857  0.92023386  0.50535092  1
  Ca2+  Ca29  1  0.33074872  0.92476819  0.83842952  1
  Ca2+  Ca30  1  0.84283495  0.42636328  0.16828576  1
  Ca2+  Ca31  1  0.83720212  0.42551761  0.50723992  1
  Ca2+  Ca32  1  0.84605991  0.42618365  0.83693334  1
  Ca2+  Ca33  1  0.82304130  0.91654029  0.17429185  1
  Ca2+  Ca34  1  0.82965349  0.92538094  0.49785799  1
  Ca2+  Ca35  1  0.82658702  0.91159927  0.84174429  1
  Ca2+  Ca36  1  0.41956249  0.16381800  0.16583677  1
  Ca2+  Ca37  1  0.41325859  0.17415919  0.49545605  1
  Ca2+  Ca38  1  0.41189921  0.16599757  0.82867587  1
  Ca2+  Ca39  1  0.41777507  0.68301655  0.16060411  1
  Ca2+  Ca40  1  0.42421135  0.67062943  0.49304189  1
  Ca2+  Ca41  1  0.42343210  0.67264927  0.82655124  1
  Ca2+  Ca42  1  0.92835418  0.16228444  0.15923533  1
  Ca2+  Ca43  1  0.92012524  0.17040701  0.49106399  1
  Ca2+  Ca44  1  0.92389514  0.17828700  0.82888035  1
  Ca2+  Ca45  1  0.91145997  0.66962344  0.16106429  1
  Ca2+  Ca46  1  0.91996712  0.66181201  0.50164028  1
  Ca2+  Ca47  1  0.91589241  0.66814107  0.82918317  1
  Al0+  Al48  1  0.00171759  -0.00076346  -0.01322779  1
  Al0+  Al49  1  -0.00046092  -0.00174856  0.33774191  1
  Al0+  Al50  1  -0.00230067  -0.00030479  0.67141210  1
  Al0+  Al51  1  0.00094303  0.49923723  0.00852003  1
  Al0+  Al52  1  0.00199464  0.49974954  0.33818435  1
  Al0+  Al53  1  0.00012773  0.50188085  0.66539945  1
  Al0+  Al54  1  0.49899347  0.00071355  0.00210607  1
  Al0+  Al55  1  0.49918920  0.00089386  0.33224096  1
  Al0+  Al56  1  0.50071483  -0.00036289  0.67004253  1
  Al0+  Al57  1  0.50072522  0.50033159  0.00073446  1
  Al0+  Al58  1  0.50020848  0.50173834  0.32667063  1
  Al0+  Al59  1  0.50137183  0.49987665  0.65745626  1
  Al0+  Al60  1  0.25118590  0.24911112  0.00690005  1
  Al0+  Al61  1  0.24728235  0.25011566  0.32614552  1
  Al0+  Al62  1  0.24897760  0.24865296  0.67009974  1
  Al0+  Al63  1  0.25073452  0.75039947  -0.00665226  1
  Al0+  Al64  1  0.25058687  0.74764677  0.33102369  1
  Al0+  Al65  1  0.24900494  0.74970314  0.66763162  1
  Al0+  Al66  1  0.74983392  0.25090586  -0.00448267  1
  Al0+  Al67  1  0.74902618  0.25338983  0.33215669  1
  Al0+  Al68  1  0.75020278  0.25130077  0.66261197  1
  Al0+  Al69  1  0.74940605  0.74920373  0.00567178  1
  Al0+  Al70  1  0.75108003  0.74964569  0.34348334  1
  Al0+  Al71  1  0.75040474  0.75073167  0.66556871  1
  Al0+  Al72  1  0.82141753  0.56936837  0.35046620  1
  Al0+  Al73  1  0.42908494  0.82308311  0.98446438  1
  Al0+  Al74  1  0.57185247  0.67983904  0.65299615  1
  Al0+  Al75  1  0.06990577  0.68131616  0.65368590  1
  Al0+  Al76  1  0.57192164  0.17929500  0.31703454  1
  Al0+  Al77  1  0.93019399  0.32206489  0.65149681  1
  Al0+  Al78  1  0.68101854  0.93040484  0.01291919  1
  Al0+  Al79  1  0.42680048  0.32255332  0.31515869  1
  Al0+  Al80  1  0.42894592  0.81963792  0.32087140  1
  Al0+  Al81  1  0.18057138  0.43071911  0.01569391  1
  Al0+  Al82  1  0.06722786  0.17650995  0.32111895  1
  Al0+  Al83  1  0.42774021  0.31861716  0.65530562  1
  Al0+  Al84  1  0.82179425  0.07354238  0.34642265  1
  Al0+  Al85  1  0.92926617  0.32211677  0.98575942  1
  Al0+  Al86  1  0.17887728  0.92698255  0.34470294  1
  Al0+  Al87  1  0.81938618  0.56956317  0.68207244  1
  Al0+  Al88  1  0.81923507  0.56856064  0.01398973  1
  Al0+  Al89  1  0.31954212  0.06915982  0.01703224  1
  Al0+  Al90  1  0.32020282  0.06941454  0.68076679  1
  Al0+  Al91  1  0.67625178  0.93063829  0.35084873  1
  Al0+  Al92  1  0.17665990  0.92523734  0.68398046  1
  Al0+  Al93  1  0.92697393  0.81985799  0.98857381  1
  Al0+  Al94  1  0.18043011  0.43042226  0.67903058  1
  Al0+  Al95  1  0.07445595  0.17790858  0.98244129  1
  Si0+  Si96  1  0.57533010  0.67989736  0.31509174  1
  Si0+  Si97  1  0.92959030  0.81896738  0.32105076  1
  Si0+  Si98  1  0.67508815  0.42911908  0.35087698  1
  Si0+  Si99  1  0.32587094  0.57228656  0.68157697  1
  Si0+  Si100  1  0.82387428  0.07359471  0.01265248  1
  Si0+  Si101  1  0.07167125  0.67728515  0.31820990  1
  Si0+  Si102  1  0.57151092  0.67763102  0.98451540  1
  Si0+  Si103  1  0.43004353  0.32202051  0.98512687  1
  Si0+  Si104  1  0.57314328  0.17602113  0.65062061  1
  Si0+  Si105  1  0.92650286  0.82380696  0.64777081  1
  Si0+  Si106  1  0.07103656  0.17751719  0.64947089  1
  Si0+  Si107  1  0.82087638  0.07492400  0.68319154  1
  Si0+  Si108  1  0.67436535  0.42537163  0.01671109  1
  Si0+  Si109  1  0.18170591  0.42846501  0.34966297  1
  Si0+  Si110  1  0.92863684  0.32414066  0.31747684  1
  Si0+  Si111  1  0.17649177  0.92581050  0.01548860  1
  Si0+  Si112  1  0.32004879  0.07281957  0.34946693  1
  Si0+  Si113  1  0.32116550  0.57114634  0.34662628  1
  Si0+  Si114  1  0.67670823  0.42714517  0.68183208  1
  Si0+  Si115  1  0.57039473  0.17921466  0.98441446  1
  Si0+  Si116  1  0.07170643  0.67737230  0.98490313  1
  Si0+  Si117  1  0.42860585  0.82276083  0.65020346  1
  Si0+  Si118  1  0.68103430  0.93035860  0.68247266  1
  Si0+  Si119  1  0.32493599  0.57383317  0.01579934  1
  O2-  O120  1  0.24321635  -0.00507065  0.06184400  1
  O2-  O121  1  0.25273765  0.00228745  0.39219977  1
  O2-  O122  1  0.24897627  -0.00249621  0.73252907  1
  O2-  O123  1  0.25533278  0.50668115  0.06130849  1
  O2-  O124  1  0.25668870  0.49547805  0.39088028  1
  O2-  O125  1  0.25743211  0.50353612  0.72607541  1
  O2-  O126  1  0.75882848  0.00247998  0.05809759  1
  O2-  O127  1  0.74627400  0.00591532  0.39910788  1
  O2-  O128  1  0.75023669  0.00305033  0.72490198  1
  O2-  O129  1  0.74642409  0.49125357  0.06001883  1
  O2-  O130  1  0.74558470  0.49527182  0.39611038  1
  O2-  O131  1  0.74516105  0.49435576  0.72870060  1
  O2-  O132  1  -0.01065081  0.24838291  0.27427490  1
  O2-  O133  1  0.00095135  0.24420457  0.60410807  1
  O2-  O134  1  0.00017272  0.24939529  0.93495290  1
  O2-  O135  1  0.00004546  0.74783396  0.27718502  1
  O2-  O136  1  0.00062065  0.76018941  0.60442454  1
  O2-  O137  1  0.00407532  0.74758200  0.94202233  1
  O2-  O138  1  0.49870647  0.24995958  0.26581671  1
  O2-  O139  1  0.50300757  0.24440861  0.60878634  1
  O2-  O140  1  0.50272422  0.25335680  0.94209827  1
  O2-  O141  1  0.50835280  0.75035074  0.27155900  1
  O2-  O142  1  0.49437144  0.75138803  0.60587789  1
  O2-  O143  1  0.50153066  0.74493584  0.93985251  1
  O2-  O144  1  0.07219497  0.17746360  0.09653974  1
  O2-  O145  1  0.06886288  0.17939230  0.43438364  1
  O2-  O146  1  0.07075604  0.18002694  0.75479971  1
  O2-  O147  1  0.07256477  0.67791734  0.09108850  1
  O2-  O148  1  0.07311943  0.67647641  0.42314994  1
  O2-  O149  1  0.06468298  0.67877639  0.76670700  1
  O2-  O150  1  0.57006576  0.17919662  0.08902768  1
  O2-  O151  1  0.56853576  0.18153716  0.43095949  1
  O2-  O152  1  0.57489833  0.17670537  0.75663445  1
  O2-  O153  1  0.57047867  0.67622583  0.08993080  1
  O2-  O154  1  0.57268572  0.67901231  0.42089037  1
  O2-  O155  1  0.57245403  0.68262909  0.76640110  1
  O2-  O156  1  0.17932051  0.43156579  0.24462359  1
  O2-  O157  1  0.18221263  0.43089009  0.56550694  1
  O2-  O158  1  0.18107855  0.43257196  0.90242015  1
  O2-  O159  1  0.17838952  0.92591253  0.23165388  1
  O2-  O160  1  0.17987435  0.92648806  0.56984764  1
  O2-  O161  1  0.17959398  0.92487796  0.91026037  1
  O2-  O162  1  0.67468806  0.43181334  0.24505497  1
  O2-  O163  1  0.67735612  0.42788257  0.57646023  1
  O2-  O164  1  0.66800719  0.42723351  0.91144026  1
  O2-  O165  1  0.67977171  0.92899806  0.23725469  1
  O2-  O166  1  0.68029329  0.93106037  0.57772664  1
  O2-  O167  1  0.68110429  0.93134451  0.89905373  1
  O2-  O168  1  0.43209714  0.32251158  0.08992706  1
  O2-  O169  1  0.42552513  0.32118068  0.42905019  1
  O2-  O170  1  0.42984545  0.31867688  0.76880478  1
  O2-  O171  1  0.43022686  0.82178990  0.09776137  1
  O2-  O172  1  0.42751384  0.81452120  0.43400930  1
  O2-  O173  1  0.43233065  0.82308303  0.75589802  1
  O2-  O174  1  0.93085771  0.32193417  0.09957373  1
  O2-  O175  1  0.93360196  0.32697420  0.42316165  1
  O2-  O176  1  0.93212570  0.32169243  0.76434001  1
  O2-  O177  1  0.92714891  0.81791017  0.10224368  1
  O2-  O178  1  0.93126632  0.81844450  0.42603995  1
  O2-  O179  1  0.92280377  0.82000512  0.75348198  1
  O2-  O180  1  0.31892924  0.07168895  0.24382365  1
  O2-  O181  1  0.32030497  0.06953133  0.56695847  1
  O2-  O182  1  0.32196237  0.06900471  0.90406955  1
  O2-  O183  1  0.31634150  0.57323400  0.24159612  1
  O2-  O184  1  0.32426296  0.57193549  0.57557068  1
  O2-  O185  1  0.32856037  0.57132817  0.91042446  1
  O2-  O186  1  0.82413788  0.06733464  0.23271742  1
  O2-  O187  1  0.82089634  0.07469912  0.57825845  1
  O2-  O188  1  0.81757842  0.07424348  0.90673649  1
  O2-  O189  1  0.82196651  0.56919335  0.23710848  1
  O2-  O190  1  0.81875368  0.56853217  0.56908691  1
  O2-  O191  1  0.81765164  0.56979640  0.90101463  1
  O2-  O192  1  0.03889763  0.07899232  0.26706545  1
  O2-  O193  1  0.04524494  0.08224887  0.60677373  1
  O2-  O194  1  0.05090831  0.08038661  0.92585591  1
  O2-  O195  1  0.04208585  0.58540888  0.27130588  1
  O2-  O196  1  0.03581604  0.58711390  0.59671616  1
  O2-  O197  1  0.04222339  0.58421751  0.94138265  1
  O2-  O198  1  0.54480828  0.08039932  0.26475444  1
  O2-  O199  1  0.54826344  0.08178459  0.60572119  1
  O2-  O200  1  0.53866797  0.08925779  0.93594234  1
  O2-  O201  1  0.54960502  0.58711731  0.26768701  1
  O2-  O202  1  0.54588401  0.58380446  0.59515852  1
  O2-  O203  1  0.54752026  0.58363761  0.93732138  1
  O2-  O204  1  0.16129748  0.21026842  0.26454752  1
  O2-  O205  1  0.16400440  0.20501590  0.60404188  1
  O2-  O206  1  0.17308320  0.21160571  0.93337683  1
  O2-  O207  1  0.16242690  0.70375703  0.26859257  1
  O2-  O208  1  0.16909065  0.70520771  0.59927097  1
  O2-  O209  1  0.16551790  0.69802670  0.93710337  1
  O2-  O210  1  0.67049919  0.20858349  0.26304370  1
  O2-  O211  1  0.66580570  0.20147680  0.60305644  1
  O2-  O212  1  0.66275937  0.20283474  0.93529284  1
  O2-  O213  1  0.67093477  0.70413307  0.27314852  1
  O2-  O214  1  0.66639868  0.71522062  0.59775607  1
  O2-  O215  1  0.66425751  0.70650482  0.93933957  1
  O2-  O216  1  0.08670554  0.46248155  0.07457450  1
  O2-  O217  1  0.09193568  0.46046929  0.39847993  1
  O2-  O218  1  0.08565955  0.46595959  0.73300918  1
  O2-  O219  1  0.08006556  0.94961976  0.05687018  1
  O2-  O220  1  0.08371600  0.95582408  0.40193387  1
  O2-  O221  1  0.07589824  0.94968730  0.73421165  1
  O2-  O222  1  0.58279384  0.45428582  0.06629151  1
  O2-  O223  1  0.58080962  0.45663044  0.39546366  1
  O2-  O224  1  0.58236002  0.45367738  0.72656086  1
  O2-  O225  1  0.58618805  0.96547916  0.06632139  1
  O2-  O226  1  0.57702624  0.95710817  0.40369893  1
  O2-  O227  1  0.58884308  0.95558605  0.73094056  1
  O2-  O228  1  0.21344650  0.33591543  0.07123337  1
  O2-  O229  1  0.20636043  0.33504485  0.39506465  1
  O2-  O230  1  0.20961485  0.33450849  0.73426543  1
  O2-  O231  1  0.20128824  0.83071059  0.05970816  1
  O2-  O232  1  0.21124447  0.82998159  0.39810051  1
  O2-  O233  1  0.20327124  0.82616864  0.73684019  1
  O2-  O234  1  0.69772261  0.33028568  0.06095764  1
  O2-  O235  1  0.69621202  0.33443528  0.39590414  1
  O2-  O236  1  0.69953739  0.33223910  0.72709108  1
  O2-  O237  1  0.70785057  0.83407793  0.06873295  1
  O2-  O238  1  0.70798924  0.83388945  0.40527319  1
  O2-  O239  1  0.71187036  0.83966057  0.73003008  1
  O2-  O240  1  0.45450289  0.42164025  0.26184407  1
  O2-  O241  1  0.45580544  0.41457122  0.59828322  1
  O2-  O242  1  0.45478430  0.41504042  0.93812300  1
  O2-  O243  1  0.45448947  0.91775359  0.26806371  1
  O2-  O244  1  0.45865090  0.91523089  0.60424894  1
  O2-  O245  1  0.46489570  0.91787386  0.93056702  1
  O2-  O246  1  0.96443346  0.41494208  0.27097312  1
  O2-  O247  1  0.96447066  0.41687237  0.59695637  1
  O2-  O248  1  0.96274755  0.42082280  0.93577347  1
  O2-  O249  1  0.95701450  0.91013817  0.27326540  1
  O2-  O250  1  0.94574435  0.92049820  0.60537635  1
  O2-  O251  1  0.95218246  0.91490612  0.92888986  1
  O2-  O252  1  0.32875132  0.29474134  0.26182901  1
  O2-  O253  1  0.33173373  0.28647047  0.60061748  1
  O2-  O254  1  0.33839716  0.29122287  0.94071804  1
  O2-  O255  1  0.33506868  0.78312321  0.26390595  1
  O2-  O256  1  0.33340406  0.80042303  0.60710091  1
  O2-  O257  1  0.33279239  0.79433036  0.92879273  1
  O2-  O258  1  0.83138316  0.31150767  0.27561311  1
  O2-  O259  1  0.83201642  0.29498966  0.59797304  1
  O2-  O260  1  0.82930848  0.29930682  0.93193571  1
  O2-  O261  1  0.83701535  0.78949892  0.27594637  1
  O2-  O262  1  0.83556447  0.79286467  0.59984196  1
  O2-  O263  1  0.83103019  0.78590373  0.93426989  1
  O2-  O264  1  0.41550670  0.03667429  0.07101529  1
  O2-  O265  1  0.41415054  0.04970546  0.39437948  1
  O2-  O266  1  0.41988703  0.04348025  0.73454130  1
  O2-  O267  1  0.41764728  0.54759844  0.06424215  1
  O2-  O268  1  0.41657517  0.55037152  0.39032735  1
  O2-  O269  1  0.42057180  0.54761623  0.72567428  1
  O2-  O270  1  0.92049258  0.05004489  0.05203548  1
  O2-  O271  1  0.91617868  0.03867559  0.40417305  1
  O2-  O272  1  0.91228834  0.04871030  0.73173355  1
  O2-  O273  1  0.91521664  0.54074996  0.07122229  1
  O2-  O274  1  0.91858271  0.53790943  0.40395452  1
  O2-  O275  1  0.91599729  0.53848142  0.73459250  1
  O2-  O276  1  0.29241672  0.16569918  0.07247949  1
  O2-  O277  1  0.29125580  0.16680693  0.39303348  1
  O2-  O278  1  0.29047212  0.16652338  0.73639558  1
  O2-  O279  1  0.29902517  0.66871369  0.05965981  1
  O2-  O280  1  0.28870639  0.65972542  0.39708027  1
  O2-  O281  1  0.30132920  0.66598676  0.72734528  1
  O2-  O282  1  0.79685741  0.16688600  0.05859510  1
  O2-  O283  1  0.79836762  0.17463374  0.39727471  1
  O2-  O284  1  0.79190842  0.16669469  0.73044766  1
  O2-  O285  1  0.78614500  0.66308127  0.07110506  1
  O2-  O286  1  0.79252014  0.66503507  0.40671694  1
  O2-  O287  1  0.78791566  0.66747446  0.73350588  1
