# generated using pymatgen
data_Ca2Al2SiO7
_symmetry_space_group_name_H-M   'P 1'
_cell_length_a   15.46357608
_cell_length_b   15.46604259
_cell_length_c   15.28906529
_cell_angle_alpha   89.98719137
_cell_angle_beta   90.00327610
_cell_angle_gamma   90.01345624
_symmetry_Int_Tables_number   1
_chemical_formula_structural   Ca2Al2SiO7
_chemical_formula_sum   'Ca48 Al48 Si24 O168'
_cell_volume   3656.53764267
_cell_formula_units_Z   24
loop_
 _symmetry_equiv_pos_site_id
 _symmetry_equiv_pos_as_xyz
  1  'x, y, z'
loop_
 _atom_type_symbol
 _atom_type_oxidation_number
  Ca2+  2.0
  Al0+  0.0
  Si0+  0.0
  O2-  -2.0
loop_
 _atom_site_type_symbol
 _atom_site_label
 _atom_site_symmetry_multiplicity
 _atom_site_fract_x
 _atom_site_fract_y
 _atom_site_fract_z
 _atom_site_occupancy
  Ca2+  Ca0  1  0.17530885  0.08174267  0.17094419  1
  Ca2+  Ca1  1  0.18179725  0.08462551  0.50413598  1
  Ca2+  Ca2  1  0.17622644  0.08435342  0.84401723  1
  Ca2+  Ca3  1  0.16408219  0.57622665  0.16947744  1
  Ca2+  Ca4  1  0.16844539  0.58741100  0.50642628  1
  Ca2+  Ca5  1  0.16696936  0.57970201  0.83476083  1
  Ca2+  Ca6  1  0.67384452  0.09545237  0.16797553  1
  Ca2+  Ca7  1  0.67223128  0.09212621  0.50598769  1
  Ca2+  Ca8  1  0.67623663  0.08879403  0.83914016  1
  Ca2+  Ca9  1  0.66517971  0.57431098  0.16667429  1
  Ca2+  Ca10  1  0.66311627  0.57345977  0.51161405  1
  Ca2+  Ca11  1  0.66024297  0.57008368  0.83641757  1
  Ca2+  Ca12  1  0.08174245  0.32552111  0.15568773  1
  Ca2+  Ca13  1  0.07362646  0.33468640  0.50032049  1
  Ca2+  Ca14  1  0.07945012  0.32948488  0.83365877  1
  Ca2+  Ca15  1  0.09490961  0.83346871  0.16312976  1
  Ca2+  Ca16  1  0.08622440  0.82814350  0.49670881  1
  Ca2+  Ca17  1  0.07907579  0.83363983  0.82399387  1
  Ca2+  Ca18  1  0.57184358  0.32257663  0.16134363  1
  Ca2+  Ca19  1  0.57879364  0.32363479  0.49722749  1
  Ca2+  Ca20  1  0.58443928  0.32559670  0.83178534  1
  Ca2+  Ca21  1  0.58610875  0.83462979  0.15929589  1
  Ca2+  Ca22  1  0.58518900  0.82507704  0.49994237  1
  Ca2+  Ca23  1  0.58756194  0.82844568  0.82774939  1
  Ca2+  Ca24  1  0.33082118  0.40556417  0.16650610  1
  Ca2+  Ca25  1  0.33587399  0.42048151  0.50591160  1
  Ca2+  Ca26  1  0.33417324  0.42332250  0.84013144  1
  Ca2+  Ca27  1  0.32724707  0.93193079  0.16838880  1
  Ca2+  Ca28  1  0.33093203  0.92579943  0.50188934  1
  Ca2+  Ca29  1  0.32885514  0.92855000  0.83824512  1
  Ca2+  Ca30  1  0.82296670  0.41012279  0.16718874  1
  Ca2+  Ca31  1  0.82530619  0.41392138  0.51222982  1
  Ca2+  Ca32  1  0.82173215  0.40933702  0.83403879  1
  Ca2+  Ca33  1  0.82699446  0.92859001  0.16626402  1
  Ca2+  Ca34  1  0.83560886  0.92789557  0.50510506  1
  Ca2+  Ca35  1  0.83122643  0.92403202  0.83874393  1
  Ca2+  Ca36  1  0.41951537  0.16857771  0.15611705  1
  Ca2+  Ca37  1  0.42620242  0.16298512  0.49272421  1
  Ca2+  Ca38  1  0.42565542  0.16255873  0.82982458  1
  Ca2+  Ca39  1  0.41583071  0.67319479  0.16310982  1
  Ca2+  Ca40  1  0.41893372  0.66234363  0.50097260  1
  Ca2+  Ca41  1  0.41927460  0.66852943  0.82454406  1
  Ca2+  Ca42  1  0.92204782  0.15566597  0.16118763  1
  Ca2+  Ca43  1  0.90737646  0.16965285  0.49954410  1
  Ca2+  Ca44  1  0.91974954  0.16284871  0.82854876  1
  Ca2+  Ca45  1  0.92283638  0.67091137  0.16259391  1
  Ca2+  Ca46  1  0.92725560  0.67452329  0.49644920  1
  Ca2+  Ca47  1  0.92281763  0.67722839  0.82091760  1
  Al0+  Al48  1  -0.00052613  -0.00230205  0.00133082  1
  Al0+  Al49  1  -0.00335185  -0.00110585  0.34179975  1
  Al0+  Al50  1  0.00107051  0.00088254  0.66376846  1
  Al0+  Al51  1  0.00186652  0.50162602  0.00249330  1
  Al0+  Al52  1  -0.00033276  0.50242564  0.32887379  1
  Al0+  Al53  1  -0.00123031  0.49953803  0.65957986  1
  Al0+  Al54  1  0.50007086  -0.00219423  0.00038989  1
  Al0+  Al55  1  0.50296636  -0.00336515  0.33249697  1
  Al0+  Al56  1  0.50079656  -0.00106906  0.66538725  1
  Al0+  Al57  1  0.50117905  0.50114656  0.00352041  1
  Al0+  Al58  1  0.49928841  0.49835260  0.32891368  1
  Al0+  Al59  1  0.49831276  0.49953025  0.67185804  1
  Al0+  Al60  1  0.24862789  0.25397873  -0.00195236  1
  Al0+  Al61  1  0.24688627  0.25169178  0.33827990  1
  Al0+  Al62  1  0.24978822  0.25164016  0.67121940  1
  Al0+  Al63  1  0.25228457  0.74891719  0.00009145  1
  Al0+  Al64  1  0.25100225  0.74774696  0.33148179  1
  Al0+  Al65  1  0.25134021  0.75008969  0.66733092  1
  Al0+  Al66  1  0.74907100  0.25290479  0.00707620  1
  Al0+  Al67  1  0.74711688  0.25237954  0.33428342  1
  Al0+  Al68  1  0.74913859  0.24937929  0.66797205  1
  Al0+  Al69  1  0.75271085  0.75043655  0.00270868  1
  Al0+  Al70  1  0.75300770  0.74949020  0.33168134  1
  Al0+  Al71  1  0.75077750  0.74939544  0.65539227  1
  Al0+  Al72  1  0.56972234  0.67666975  0.65445231  1
  Al0+  Al73  1  0.92844394  0.82482235  0.64926216  1
  Al0+  Al74  1  0.07229346  0.67977659  0.65178434  1
  Al0+  Al75  1  0.42652213  0.32067840  0.31974682  1
  Al0+  Al76  1  0.32254351  0.07327755  0.34845022  1
  Al0+  Al77  1  0.31934412  0.57069318  0.67991207  1
  Al0+  Al78  1  0.17878909  0.43116718  0.01349902  1
  Al0+  Al79  1  0.82009906  0.07221339  0.01428598  1
  Al0+  Al80  1  0.56969602  0.17869009  0.65367645  1
  Al0+  Al81  1  0.82039722  0.07019578  0.68062424  1
  Al0+  Al82  1  0.17980651  0.92723235  0.34942913  1
  Al0+  Al83  1  0.67908157  0.92669548  0.01282760  1
  Al0+  Al84  1  0.42790135  0.32274618  0.98272284  1
  Al0+  Al85  1  0.32345106  0.07244053  0.68134341  1
  Al0+  Al86  1  0.57126385  0.17762652  0.98352571  1
  Al0+  Al87  1  0.67812087  0.42947477  0.01666282  1
  Al0+  Al88  1  0.07184063  0.68119994  0.31571916  1
  Al0+  Al89  1  0.17850967  0.92776720  0.01209776  1
  Al0+  Al90  1  0.67889585  0.42932249  0.68053039  1
  Al0+  Al91  1  0.06911120  0.17736895  0.98845339  1
  Al0+  Al92  1  0.81699427  0.07165164  0.34930602  1
  Al0+  Al93  1  0.92899989  0.31767069  0.65530108  1
  Al0+  Al94  1  0.32108163  0.07335515  0.01307441  1
  Al0+  Al95  1  0.57076549  0.17716723  0.31811943  1
  Si0+  Si96  1  0.07279084  0.67835088  0.98386038  1
  Si0+  Si97  1  0.82270146  0.57250431  0.01639192  1
  Si0+  Si98  1  0.92816361  0.82337708  0.31244705  1
  Si0+  Si99  1  0.06828576  0.17904203  0.32184075  1
  Si0+  Si100  1  0.67936789  0.43325658  0.35025873  1
  Si0+  Si101  1  0.32291994  0.57204601  0.01865385  1
  Si0+  Si102  1  0.67856849  0.92495118  0.68049693  1
  Si0+  Si103  1  0.07507804  0.17806271  0.64929254  1
  Si0+  Si104  1  0.32087843  0.56903615  0.34724314  1
  Si0+  Si105  1  0.17547644  0.42929641  0.34961892  1
  Si0+  Si106  1  0.92810129  0.32230297  0.31847720  1
  Si0+  Si107  1  0.57265183  0.67759850  0.31742498  1
  Si0+  Si108  1  0.67813936  0.92281969  0.35200126  1
  Si0+  Si109  1  0.43025702  0.81891297  0.31756718  1
  Si0+  Si110  1  0.57310487  0.68042298  0.98621968  1
  Si0+  Si111  1  0.92812424  0.32472508  0.98549584  1
  Si0+  Si112  1  0.42869949  0.82151107  0.64894750  1
  Si0+  Si113  1  0.92953775  0.81918802  0.98504291  1
  Si0+  Si114  1  0.17982080  0.92927244  0.68207207  1
  Si0+  Si115  1  0.42846963  0.81981895  0.98398764  1
  Si0+  Si116  1  0.17401386  0.42842654  0.68351839  1
  Si0+  Si117  1  0.82268515  0.57169046  0.34923900  1
  Si0+  Si118  1  0.82248904  0.57281362  0.68056069  1
  Si0+  Si119  1  0.42659217  0.32212683  0.65221540  1
  O2-  O120  1  0.24557250  0.00405537  0.06200465  1
  O2-  O121  1  0.24973089  0.00151016  0.39898513  1
  O2-  O122  1  0.24477342  0.00093342  0.72625407  1
  O2-  O123  1  0.25619295  0.50186718  0.06277050  1
  O2-  O124  1  0.25041837  0.49749013  0.38945869  1
  O2-  O125  1  0.24364330  0.49722956  0.72599636  1
  O2-  O126  1  0.74248980  0.00547807  0.06407587  1
  O2-  O127  1  0.74107075  -0.00293007  0.39483013  1
  O2-  O128  1  0.74814387  -0.00790623  0.72488020  1
  O2-  O129  1  0.75607784  0.50244289  0.06213077  1
  O2-  O130  1  0.75081175  0.50319990  0.39342608  1
  O2-  O131  1  0.75285148  0.50642304  0.72643993  1
  O2-  O132  1  -0.00272898  0.24956662  0.27750690  1
  O2-  O133  1  0.00352791  0.24440149  0.60543400  1
  O2-  O134  1  -0.00818138  0.25090580  0.94279636  1
  O2-  O135  1  0.00079223  0.75871677  0.26747192  1
  O2-  O136  1  0.00189311  0.75274881  0.60092387  1
  O2-  O137  1  0.00435985  0.75166555  0.94304582  1
  O2-  O138  1  0.49023592  0.24108897  0.27039451  1
  O2-  O139  1  0.49020832  0.24926583  0.60790748  1
  O2-  O140  1  0.49729120  0.24807015  0.93311685  1
  O2-  O141  1  0.50572447  0.75173644  0.27479572  1
  O2-  O142  1  0.49696348  0.75167692  0.60480946  1
  O2-  O143  1  0.50348085  0.75179774  0.94334792  1
  O2-  O144  1  0.06785029  0.17892616  0.10233311  1
  O2-  O145  1  0.06859287  0.18341444  0.42687606  1
  O2-  O146  1  0.07552019  0.17899114  0.75480965  1
  O2-  O147  1  0.07138902  0.67734100  0.08908970  1
  O2-  O148  1  0.06994845  0.67899051  0.42831009  1
  O2-  O149  1  0.07031089  0.68061507  0.76585266  1
  O2-  O150  1  0.57073976  0.18023272  0.09706720  1
  O2-  O151  1  0.57328400  0.18321443  0.43196923  1
  O2-  O152  1  0.57200842  0.17975146  0.76618323  1
  O2-  O153  1  0.57169161  0.68110875  0.09194032  1
  O2-  O154  1  0.57027529  0.67519826  0.42236028  1
  O2-  O155  1  0.56860040  0.67804270  0.76763687  1
  O2-  O156  1  0.17240510  0.43030490  0.24473963  1
  O2-  O157  1  0.17420906  0.42796009  0.57750343  1
  O2-  O158  1  0.17322007  0.43727439  0.90095558  1
  O2-  O159  1  0.18373467  0.92861747  0.23601673  1
  O2-  O160  1  0.18312734  0.92802040  0.57653079  1
  O2-  O161  1  0.18122175  0.92509848  0.89852684  1
  O2-  O162  1  0.68112896  0.43575704  0.24525323  1
  O2-  O163  1  0.67968280  0.43092782  0.56688790  1
  O2-  O164  1  0.67883363  0.43155263  0.90366710  1
  O2-  O165  1  0.68202953  0.91523267  0.24703985  1
  O2-  O166  1  0.67754070  0.92514476  0.57480636  1
  O2-  O167  1  0.68630314  0.91659043  0.90005347  1
  O2-  O168  1  0.43005771  0.32271247  0.09645020  1
  O2-  O169  1  0.43233004  0.32900426  0.43316071  1
  O2-  O170  1  0.42799408  0.32434780  0.75725943  1
  O2-  O171  1  0.42606125  0.81532630  0.08930960  1
  O2-  O172  1  0.42994250  0.81525037  0.42258123  1
  O2-  O173  1  0.42904596  0.82023330  0.75455345  1
  O2-  O174  1  0.93159785  0.32861102  0.09151517  1
  O2-  O175  1  0.92828988  0.32412772  0.42363451  1
  O2-  O176  1  0.92970724  0.31779904  0.76815025  1
  O2-  O177  1  0.92667371  0.81556764  0.08994122  1
  O2-  O178  1  0.92534870  0.81865344  0.41752449  1
  O2-  O179  1  0.92893828  0.82229508  0.76353347  1
  O2-  O180  1  0.31983864  0.07375003  0.23521135  1
  O2-  O181  1  0.32367834  0.07012928  0.56814669  1
  O2-  O182  1  0.32096161  0.06883783  0.89944588  1
  O2-  O183  1  0.32116356  0.57058596  0.24232345  1
  O2-  O184  1  0.32078019  0.56787538  0.56621591  1
  O2-  O185  1  0.32192518  0.57442016  0.91318404  1
  O2-  O186  1  0.81892165  0.07111237  0.23656762  1
  O2-  O187  1  0.81597370  0.07193265  0.56749733  1
  O2-  O188  1  0.82230894  0.06898787  0.90080615  1
  O2-  O189  1  0.82155143  0.57041557  0.24395575  1
  O2-  O190  1  0.82113902  0.56917965  0.57468209  1
  O2-  O191  1  0.82169779  0.57455104  0.91112974  1
  O2-  O192  1  0.03961194  0.08632068  0.27733756  1
  O2-  O193  1  0.05388246  0.08397830  0.60352489  1
  O2-  O194  1  0.04090856  0.08027567  0.93368566  1
  O2-  O195  1  0.03646017  0.58539394  0.26103673  1
  O2-  O196  1  0.04433513  0.58193746  0.59712069  1
  O2-  O197  1  0.04184172  0.58781225  0.93626909  1
  O2-  O198  1  0.55813732  0.07333256  0.27102371  1
  O2-  O199  1  0.54360815  0.08074671  0.59935557  1
  O2-  O200  1  0.54800462  0.07628482  0.93332349  1
  O2-  O201  1  0.54069100  0.58827001  0.26769661  1
  O2-  O202  1  0.53501098  0.58129523  0.59954893  1
  O2-  O203  1  0.54401963  0.58897421  0.94016102  1
  O2-  O204  1  0.15999015  0.20752014  0.27501077  1
  O2-  O205  1  0.16738199  0.20863418  0.60235212  1
  O2-  O206  1  0.16336008  0.21214509  0.93296312  1
  O2-  O207  1  0.17027544  0.70630046  0.26217841  1
  O2-  O208  1  0.17160715  0.70715178  0.59952518  1
  O2-  O209  1  0.16640929  0.70220658  0.93859157  1
  O2-  O210  1  0.66578510  0.21749703  0.26503723  1
  O2-  O211  1  0.66395134  0.21548815  0.59936943  1
  O2-  O212  1  0.67118767  0.21129237  0.93541122  1
  O2-  O213  1  0.66641384  0.70127768  0.27158753  1
  O2-  O214  1  0.66523801  0.70313015  0.59566882  1
  O2-  O215  1  0.66581957  0.70622136  0.94020364  1
  O2-  O216  1  0.08420702  0.46530916  0.07131541  1
  O2-  O217  1  0.08464656  0.46244307  0.39652651  1
  O2-  O218  1  0.08055014  0.45575045  0.72858056  1
  O2-  O219  1  0.07868281  0.94748920  0.06461726  1
  O2-  O220  1  0.07937564  0.94932101  0.40019654  1
  O2-  O221  1  0.08438074  0.95078400  0.72526382  1
  O2-  O222  1  0.58476562  0.46687726  0.07294972  1
  O2-  O223  1  0.58760061  0.46416354  0.39553334  1
  O2-  O224  1  0.58404992  0.46132980  0.73582737  1
  O2-  O225  1  0.57713420  0.94234026  0.06217945  1
  O2-  O226  1  0.58183123  0.93931387  0.39531645  1
  O2-  O227  1  0.58472714  0.94850879  0.72625811  1
  O2-  O228  1  0.20487867  0.33439758  0.06877556  1
  O2-  O229  1  0.19717443  0.33781286  0.39990319  1
  O2-  O230  1  0.19791066  0.33520085  0.73031632  1
  O2-  O231  1  0.21220038  0.83037854  0.06538261  1
  O2-  O232  1  0.21264467  0.82856355  0.40031132  1
  O2-  O233  1  0.20741285  0.83657509  0.72881183  1
  O2-  O234  1  0.70842266  0.33569113  0.07538221  1
  O2-  O235  1  0.70770954  0.34191023  0.39708971  1
  O2-  O236  1  0.71428224  0.33545123  0.73525139  1
  O2-  O237  1  0.71423928  0.83136019  0.07074544  1
  O2-  O238  1  0.70887773  0.83029659  0.39946375  1
  O2-  O239  1  0.70258205  0.82919627  0.72332831  1
  O2-  O240  1  0.46096852  0.41653007  0.26311982  1
  O2-  O241  1  0.45689225  0.41428422  0.60565499  1
  O2-  O242  1  0.45964763  0.42299450  0.93386652  1
  O2-  O243  1  0.45439977  0.91088529  0.26934036  1
  O2-  O244  1  0.45623204  0.91322772  0.60066401  1
  O2-  O245  1  0.45173823  0.91168643  0.93594754  1
  O2-  O246  1  0.95682314  0.41311839  0.26990785  1
  O2-  O247  1  0.95733245  0.41376670  0.59724861  1
  O2-  O248  1  0.95881685  0.41670277  0.93846634  1
  O2-  O249  1  0.94866420  0.91965890  0.27084533  1
  O2-  O250  1  0.95706694  0.92256577  0.59511394  1
  O2-  O251  1  0.95383121  0.91114653  0.93735750  1
  O2-  O252  1  0.32290463  0.30292000  0.27304396  1
  O2-  O253  1  0.33034900  0.30370758  0.60804632  1
  O2-  O254  1  0.32649584  0.30494080  0.93235605  1
  O2-  O255  1  0.34186600  0.78398073  0.26828541  1
  O2-  O256  1  0.33603520  0.79464451  0.60229329  1
  O2-  O257  1  0.33960494  0.78588178  0.93394084  1
  O2-  O258  1  0.83514702  0.29690667  0.27279188  1
  O2-  O259  1  0.83369881  0.28658692  0.59866663  1
  O2-  O260  1  0.83183479  0.30506948  0.94443543  1
  O2-  O261  1  0.83654680  0.79080769  0.26488840  1
  O2-  O262  1  0.83189652  0.79601914  0.59249060  1
  O2-  O263  1  0.84000855  0.78599835  0.93602846  1
  O2-  O264  1  0.41752067  0.03962648  0.06622560  1
  O2-  O265  1  0.42195290  0.04113640  0.39809707  1
  O2-  O266  1  0.41873401  0.03653590  0.73433047  1
  O2-  O267  1  0.41727592  0.55147446  0.06495731  1
  O2-  O268  1  0.41369989  0.54173907  0.39383488  1
  O2-  O269  1  0.41409641  0.54009422  0.73720732  1
  O2-  O270  1  0.91582844  0.03620682  0.06828709  1
  O2-  O271  1  0.91287781  0.04201740  0.40541725  1
  O2-  O272  1  0.92026533  0.04420373  0.73065602  1
  O2-  O273  1  0.91654855  0.54891159  0.06314030  1
  O2-  O274  1  0.91450580  0.54263271  0.39539768  1
  O2-  O275  1  0.91616503  0.54670106  0.72568768  1
  O2-  O276  1  0.29495817  0.17288382  0.06288024  1
  O2-  O277  1  0.29265991  0.17120348  0.40334355  1
  O2-  O278  1  0.29543779  0.17014536  0.73395498  1
  O2-  O279  1  0.29417641  0.66422905  0.06604575  1
  O2-  O280  1  0.29304464  0.65994108  0.39556001  1
  O2-  O281  1  0.29248833  0.66814487  0.73479727  1
  O2-  O282  1  0.79994111  0.17202897  0.06808345  1
  O2-  O283  1  0.78703257  0.17014403  0.40144112  1
  O2-  O284  1  0.78773074  0.16526511  0.73511870  1
  O2-  O285  1  0.79458672  0.66373717  0.06619421  1
  O2-  O286  1  0.79731800  0.66456243  0.39505862  1
  O2-  O287  1  0.79888300  0.66827115  0.72293289  1
