# generated using pymatgen
data_Ca2Al2SiO7
_symmetry_space_group_name_H-M   'P 1'
_cell_length_a   15.45800781
_cell_length_b   15.45754455
_cell_length_c   15.28318523
_cell_angle_alpha   89.99797847
_cell_angle_beta   89.99942537
_cell_angle_gamma   90.02531421
_symmetry_Int_Tables_number   1
_chemical_formula_structural   Ca2Al2SiO7
_chemical_formula_sum   'Ca48 Al48 Si24 O168'
_cell_volume   3651.80739029
_cell_formula_units_Z   24
loop_
 _symmetry_equiv_pos_site_id
 _symmetry_equiv_pos_as_xyz
  1  'x, y, z'
loop_
 _atom_type_symbol
 _atom_type_oxidation_number
  Ca2+  2.0
  Al0+  0.0
  Si0+  0.0
  O2-  -2.0
loop_
 _atom_site_type_symbol
 _atom_site_label
 _atom_site_symmetry_multiplicity
 _atom_site_fract_x
 _atom_site_fract_y
 _atom_site_fract_z
 _atom_site_occupancy
  Ca2+  Ca0  1  0.16504698  0.07513288  0.17035481  1
  Ca2+  Ca1  1  0.17996456  0.07920019  0.49836928  1
  Ca2+  Ca2  1  0.17175115  0.08035981  0.84024734  1
  Ca2+  Ca3  1  0.16916678  0.57368540  0.17012237  1
  Ca2+  Ca4  1  0.17118706  0.57106051  0.50726661  1
  Ca2+  Ca5  1  0.17611455  0.57678237  0.83960005  1
  Ca2+  Ca6  1  0.67105760  0.07790536  0.17328339  1
  Ca2+  Ca7  1  0.66483048  0.07888388  0.50256508  1
  Ca2+  Ca8  1  0.68162433  0.08356182  0.83860358  1
  Ca2+  Ca9  1  0.67229523  0.59074125  0.16876720  1
  Ca2+  Ca10  1  0.66716876  0.58287912  0.49842808  1
  Ca2+  Ca11  1  0.66470175  0.57386521  0.84316279  1
  Ca2+  Ca12  1  0.08924776  0.32866367  0.15934823  1
  Ca2+  Ca13  1  0.08888146  0.33471502  0.49359856  1
  Ca2+  Ca14  1  0.08984612  0.33213362  0.83237113  1
  Ca2+  Ca15  1  0.07456486  0.84248677  0.15988949  1
  Ca2+  Ca16  1  0.07687957  0.83376953  0.49220995  1
  Ca2+  Ca17  1  0.08102182  0.83662407  0.83504586  1
  Ca2+  Ca18  1  0.57948690  0.33212225  0.16436715  1
  Ca2+  Ca19  1  0.57704355  0.32703891  0.49005440  1
  Ca2+  Ca20  1  0.58744763  0.33743174  0.82925305  1
  Ca2+  Ca21  1  0.58916585  0.82332869  0.16407687  1
  Ca2+  Ca22  1  0.57841412  0.83108450  0.49074653  1
  Ca2+  Ca23  1  0.57672586  0.82254837  0.82904862  1
  Ca2+  Ca24  1  0.32712566  0.41611006  0.16847909  1
  Ca2+  Ca25  1  0.32797439  0.41755787  0.50361020  1
  Ca2+  Ca26  1  0.32698257  0.42733850  0.83878580  1
  Ca2+  Ca27  1  0.31932065  0.92024838  0.17531602  1
  Ca2+  Ca28  1  0.33896182  0.92567522  0.50456447  1
  Ca2+  Ca29  1  0.33128508  0.91813073  0.83664881  1
  Ca2+  Ca30  1  0.82948229  0.43021565  0.16848829  1
  Ca2+  Ca31  1  0.82677213  0.42403899  0.50452577  1
  Ca2+  Ca32  1  0.82062619  0.42194194  0.84199725  1
  Ca2+  Ca33  1  0.83481577  0.91746041  0.17202363  1
  Ca2+  Ca34  1  0.82669436  0.91751495  0.49793622  1
  Ca2+  Ca35  1  0.84038111  0.92560182  0.83961838  1
  Ca2+  Ca36  1  0.41516835  0.16901966  0.16968975  1
  Ca2+  Ca37  1  0.41574625  0.17041348  0.48758158  1
  Ca2+  Ca38  1  0.41728175  0.16817661  0.82680267  1
  Ca2+  Ca39  1  0.42752751  0.66034116  0.15970890  1
  Ca2+  Ca40  1  0.41955973  0.66896854  0.49701094  1
  Ca2+  Ca41  1  0.41345723  0.66587968  0.82927858  1
  Ca2+  Ca42  1  0.92373352  0.16595248  0.15496455  1
  Ca2+  Ca43  1  0.91599288  0.16804438  0.49773720  1
  Ca2+  Ca44  1  0.92212002  0.16112008  0.83162924  1
  Ca2+  Ca45  1  0.90931195  0.67653416  0.16113475  1
  Ca2+  Ca46  1  0.91670746  0.67072363  0.48821814  1
  Ca2+  Ca47  1  0.91378027  0.66902670  0.83564163  1
  Al0+  Al48  1  0.00151843  0.00204776  -0.00276282  1
  Al0+  Al49  1  0.00008612  0.00092269  0.33530161  1
  Al0+  Al50  1  0.00034957  0.00069971  0.66499547  1
  Al0+  Al51  1  -0.00168398  0.50064807  0.00489820  1
  Al0+  Al52  1  -0.00033700  0.50107167  0.34122238  1
  Al0+  Al53  1  -0.00146602  0.49907425  0.66933639  1
  Al0+  Al54  1  0.50143153  0.00107950  -0.00263509  1
  Al0+  Al55  1  0.50126613  -0.00004758  0.33443857  1
  Al0+  Al56  1  0.50110478  -0.00193013  0.66891611  1
  Al0+  Al57  1  0.49935950  0.49809111  0.00152420  1
  Al0+  Al58  1  0.49968367  0.49928013  0.32502236  1
  Al0+  Al59  1  0.49998024  0.49895290  0.67034712  1
  Al0+  Al60  1  0.25178425  0.24979689  -0.00404461  1
  Al0+  Al61  1  0.24904770  0.24970978  0.33528574  1
  Al0+  Al62  1  0.25007757  0.24695407  0.67182785  1
  Al0+  Al63  1  0.24894384  0.75086794  0.00847650  1
  Al0+  Al64  1  0.24792300  0.74759284  0.33671531  1
  Al0+  Al65  1  0.24893013  0.75045669  0.66276677  1
  Al0+  Al66  1  0.75101577  0.24986631  0.00765538  1
  Al0+  Al67  1  0.75035947  0.25171492  0.32816784  1
  Al0+  Al68  1  0.75223350  0.24939802  0.67245051  1
  Al0+  Al69  1  0.74803613  0.75091698  -0.01139223  1
  Al0+  Al70  1  0.75087150  0.75240612  0.33547208  1
  Al0+  Al71  1  0.74982690  0.75009749  0.66484402  1
  Al0+  Al72  1  0.67730826  0.42775579  0.01833013  1
  Al0+  Al73  1  0.82201987  0.06887820  0.01434524  1
  Al0+  Al74  1  0.82060294  0.06883159  0.67967431  1
  Al0+  Al75  1  0.56896108  0.67855546  0.98414886  1
  Al0+  Al76  1  0.32314114  0.06933978  0.68133168  1
  Al0+  Al77  1  0.57314276  0.17637752  0.31761974  1
  Al0+  Al78  1  0.32049936  0.57254920  0.68011023  1
  Al0+  Al79  1  0.42870045  0.82078143  0.65259759  1
  Al0+  Al80  1  0.68046555  0.92994497  0.34526456  1
  Al0+  Al81  1  0.07128656  0.18106882  0.98494556  1
  Al0+  Al82  1  0.92995019  0.82091342  0.98462706  1
  Al0+  Al83  1  0.93194682  0.82044461  0.32020310  1
  Al0+  Al84  1  0.17909096  0.42760990  0.01526251  1
  Al0+  Al85  1  0.81894948  0.57440069  0.01413930  1
  Al0+  Al86  1  0.81856783  0.57189807  0.34763442  1
  Al0+  Al87  1  0.17731119  0.42727959  0.68290251  1
  Al0+  Al88  1  0.56950651  0.68135523  0.32019756  1
  Al0+  Al89  1  0.32026486  0.06861122  0.34652307  1
  Al0+  Al90  1  0.32110533  0.57240774  0.01695367  1
  Al0+  Al91  1  0.18026764  0.42980137  0.34732800  1
  Al0+  Al92  1  0.68036502  0.42991396  0.67739004  1
  Al0+  Al93  1  0.17584004  0.92637301  0.34998850  1
  Al0+  Al94  1  0.18029294  0.93102436  0.01213623  1
  Al0+  Al95  1  0.42695072  0.31984007  0.31743089  1
  Si0+  Si96  1  0.07315538  0.67655433  0.98424560  1
  Si0+  Si97  1  0.57361640  0.17812608  0.98305081  1
  Si0+  Si98  1  0.92775150  0.32463849  0.31897777  1
  Si0+  Si99  1  0.32549321  0.07262640  0.01598637  1
  Si0+  Si100  1  0.06930052  0.67751347  0.65182813  1
  Si0+  Si101  1  0.67786261  0.92571428  0.68496021  1
  Si0+  Si102  1  0.42515372  0.82299093  0.31666440  1
  Si0+  Si103  1  0.57355854  0.17989025  0.65435430  1
  Si0+  Si104  1  0.57188683  0.67597495  0.64883222  1
  Si0+  Si105  1  0.06826445  0.18157090  0.31976787  1
  Si0+  Si106  1  0.67727986  0.92883934  0.01396139  1
  Si0+  Si107  1  0.82228534  0.57439654  0.68328403  1
  Si0+  Si108  1  0.32563113  0.57143332  0.35009411  1
  Si0+  Si109  1  0.17766973  0.92855984  0.68269111  1
  Si0+  Si110  1  0.42883465  0.31930384  0.65323378  1
  Si0+  Si111  1  0.42548369  0.82300156  0.98547349  1
  Si0+  Si112  1  0.07199926  0.17871830  0.64912382  1
  Si0+  Si113  1  0.67694364  0.42730909  0.34929108  1
  Si0+  Si114  1  0.92855714  0.32022598  0.65235256  1
  Si0+  Si115  1  0.43036965  0.31900754  0.98160406  1
  Si0+  Si116  1  0.82267156  0.07519883  0.34905865  1
  Si0+  Si117  1  0.92933339  0.82230561  0.64975048  1
  Si0+  Si118  1  0.07213641  0.67520063  0.31727981  1
  Si0+  Si119  1  0.92696364  0.32339624  0.98341756  1
  O2-  O120  1  0.25805123  0.00240041  0.05841811  1
  O2-  O121  1  0.25438477  -0.00827516  0.39890547  1
  O2-  O122  1  0.24902090  -0.00597025  0.72723558  1
  O2-  O123  1  0.24796204  0.50129933  0.06625235  1
  O2-  O124  1  0.25493980  0.50437290  0.39378223  1
  O2-  O125  1  0.24871387  0.50053319  0.73027472  1
  O2-  O126  1  0.74698040  -0.00487500  0.05994393  1
  O2-  O127  1  0.75010477  0.01013956  0.39222486  1
  O2-  O128  1  0.74875668  -0.00748315  0.72813908  1
  O2-  O129  1  0.74691799  0.50337101  0.06568624  1
  O2-  O130  1  0.74480748  0.49616545  0.39454567  1
  O2-  O131  1  0.75074525  0.50801943  0.72500688  1
  O2-  O132  1  -0.00373010  0.25125305  0.27724513  1
  O2-  O133  1  0.00358874  0.25359166  0.60826704  1
  O2-  O134  1  -0.00191281  0.25767116  0.93755246  1
  O2-  O135  1  0.00931415  0.74901908  0.27280903  1
  O2-  O136  1  -0.00331780  0.74738232  0.60900279  1
  O2-  O137  1  0.00365680  0.74432681  0.93828003  1
  O2-  O138  1  0.50082831  0.24852589  0.26811009  1
  O2-  O139  1  0.49985010  0.24767029  0.61137945  1
  O2-  O140  1  0.50329684  0.24909715  0.93952453  1
  O2-  O141  1  0.49160441  0.75256705  0.27216146  1
  O2-  O142  1  0.50372180  0.74583117  0.60600241  1
  O2-  O143  1  0.49117983  0.75186440  0.93997075  1
  O2-  O144  1  0.06970268  0.18043262  0.09840831  1
  O2-  O145  1  0.06746722  0.18237341  0.42540493  1
  O2-  O146  1  0.07044578  0.17581351  0.75399086  1
  O2-  O147  1  0.07313554  0.67722656  0.08953756  1
  O2-  O148  1  0.06767764  0.67351068  0.42343151  1
  O2-  O149  1  0.06881136  0.67821673  0.75679490  1
  O2-  O150  1  0.57195183  0.17537556  0.08755074  1
  O2-  O151  1  0.57461383  0.17955298  0.43226921  1
  O2-  O152  1  0.57395904  0.18260439  0.75968790  1
  O2-  O153  1  0.57134751  0.68286969  0.09721429  1
  O2-  O154  1  0.56844719  0.68197239  0.43379782  1
  O2-  O155  1  0.57299380  0.67663781  0.75421046  1
  O2-  O156  1  0.17914904  0.42906464  0.23484393  1
  O2-  O157  1  0.17847180  0.42791068  0.56910151  1
  O2-  O158  1  0.18274867  0.42788985  0.90177330  1
  O2-  O159  1  0.17289998  0.93242539  0.23661056  1
  O2-  O160  1  0.17522147  0.93128103  0.57741198  1
  O2-  O161  1  0.18147423  0.93240457  0.89849762  1
  O2-  O162  1  0.67948367  0.42676497  0.24434182  1
  O2-  O163  1  0.68225404  0.42849579  0.56428384  1
  O2-  O164  1  0.67969628  0.42755998  0.90395139  1
  O2-  O165  1  0.68517659  0.92807122  0.23233909  1
  O2-  O166  1  0.67825415  0.92619354  0.57917990  1
  O2-  O167  1  0.67613455  0.93322467  0.90817635  1
  O2-  O168  1  0.42792078  0.31585083  0.08635624  1
  O2-  O169  1  0.42799900  0.31942196  0.43207746  1
  O2-  O170  1  0.43019400  0.31825692  0.75838566  1
  O2-  O171  1  0.42793201  0.82613147  0.09064264  1
  O2-  O172  1  0.42849452  0.82233410  0.42274578  1
  O2-  O173  1  0.43025072  0.82089845  0.76587599  1
  O2-  O174  1  0.92728399  0.32045656  0.08921600  1
  O2-  O175  1  0.92698766  0.32284876  0.42480313  1
  O2-  O176  1  0.92680827  0.31821896  0.75694857  1
  O2-  O177  1  0.93042839  0.82231787  0.09750543  1
  O2-  O178  1  0.93126782  0.81874857  0.43410382  1
  O2-  O179  1  0.93115888  0.82449542  0.75468718  1
  O2-  O180  1  0.31570650  0.06967268  0.23296624  1
  O2-  O181  1  0.32223227  0.07160918  0.56868564  1
  O2-  O182  1  0.32579543  0.07121358  0.90985256  1
  O2-  O183  1  0.32500526  0.57091855  0.24490226  1
  O2-  O184  1  0.32022722  0.57009724  0.56641334  1
  O2-  O185  1  0.31953719  0.57167679  0.90308334  1
  O2-  O186  1  0.82582412  0.07326100  0.24377998  1
  O2-  O187  1  0.81896641  0.06986055  0.56658966  1
  O2-  O188  1  0.82131609  0.06835582  0.90080998  1
  O2-  O189  1  0.81837696  0.57236594  0.23524744  1
  O2-  O190  1  0.82365015  0.57406890  0.57750628  1
  O2-  O191  1  0.81735785  0.57182785  0.89995483  1
  O2-  O192  1  0.04059221  0.08965420  0.27275171  1
  O2-  O193  1  0.03970798  0.08870226  0.60024991  1
  O2-  O194  1  0.03742006  0.08677052  0.92806803  1
  O2-  O195  1  0.04122087  0.58300076  0.27164021  1
  O2-  O196  1  0.04166468  0.58499388  0.60440515  1
  O2-  O197  1  0.04732763  0.58269362  0.93773982  1
  O2-  O198  1  0.54679561  0.07744832  0.26464099  1
  O2-  O199  1  0.55001327  0.08558953  0.61036258  1
  O2-  O200  1  0.54654523  0.08670898  0.93299761  1
  O2-  O201  1  0.54474463  0.58411290  0.26502669  1
  O2-  O202  1  0.54588340  0.58211392  0.60305920  1
  O2-  O203  1  0.53995280  0.58005492  0.93242859  1
  O2-  O204  1  0.15906367  0.21018335  0.27229408  1
  O2-  O205  1  0.16511608  0.20450171  0.60298188  1
  O2-  O206  1  0.16870823  0.20861972  0.92948167  1
  O2-  O207  1  0.16875457  0.69223934  0.27446138  1
  O2-  O208  1  0.15977241  0.70549072  0.60207827  1
  O2-  O209  1  0.16661655  0.70563177  0.93882300  1
  O2-  O210  1  0.67186435  0.20402097  0.26378308  1
  O2-  O211  1  0.66469254  0.20982001  0.60676442  1
  O2-  O212  1  0.66669994  0.20677096  0.93781577  1
  O2-  O213  1  0.66503224  0.71764975  0.26799218  1
  O2-  O214  1  0.66667587  0.70112274  0.60341767  1
  O2-  O215  1  0.66212766  0.71130477  0.92407433  1
  O2-  O216  1  0.07876725  0.45004402  0.06596941  1
  O2-  O217  1  0.08448177  0.45981297  0.40437351  1
  O2-  O218  1  0.07770577  0.45357147  0.73417872  1
  O2-  O219  1  0.08606526  0.96776334  0.06563325  1
  O2-  O220  1  0.08051852  0.96256293  0.40519928  1
  O2-  O221  1  0.08525925  0.95816275  0.72893975  1
  O2-  O222  1  0.57760345  0.45084754  0.06809732  1
  O2-  O223  1  0.58233797  0.45287501  0.39296837  1
  O2-  O224  1  0.58365386  0.45562183  0.73316472  1
  O2-  O225  1  0.58442073  0.95553402  0.06095539  1
  O2-  O226  1  0.58326776  0.95555318  0.40092209  1
  O2-  O227  1  0.58575210  0.95215764  0.73231988  1
  O2-  O228  1  0.21182622  0.32908164  0.06581664  1
  O2-  O229  1  0.21017133  0.33356222  0.40232240  1
  O2-  O230  1  0.20519517  0.32876483  0.73416799  1
  O2-  O231  1  0.20359070  0.83488693  0.06946240  1
  O2-  O232  1  0.19437103  0.82436276  0.39955288  1
  O2-  O233  1  0.19955230  0.83360842  0.72646069  1
  O2-  O234  1  0.70723428  0.33079356  0.07216172  1
  O2-  O235  1  0.70411312  0.33357841  0.39504740  1
  O2-  O236  1  0.71450489  0.33594987  0.73465127  1
  O2-  O237  1  0.70185952  0.83384752  0.05505451  1
  O2-  O238  1  0.71646008  0.83788258  0.40470014  1
  O2-  O239  1  0.70219266  0.83103539  0.72939157  1
  O2-  O240  1  0.45364100  0.41723458  0.26247280  1
  O2-  O241  1  0.45631011  0.41147851  0.60631587  1
  O2-  O242  1  0.45723336  0.41105212  0.93451482  1
  O2-  O243  1  0.45083852  0.91635747  0.27158730  1
  O2-  O244  1  0.46243669  0.91744428  0.59868208  1
  O2-  O245  1  0.45380956  0.91588819  0.93708950  1
  O2-  O246  1  0.95837317  0.41615856  0.27371549  1
  O2-  O247  1  0.95064796  0.41429018  0.60555272  1
  O2-  O248  1  0.94796281  0.41879186  0.93868647  1
  O2-  O249  1  0.95925920  0.91922600  0.26807233  1
  O2-  O250  1  0.96011800  0.91277691  0.60098401  1
  O2-  O251  1  0.96614998  0.91572805  0.92945519  1
  O2-  O252  1  0.32953038  0.28724084  0.26426708  1
  O2-  O253  1  0.33652566  0.29031224  0.60712667  1
  O2-  O254  1  0.34038361  0.28918305  0.93128183  1
  O2-  O255  1  0.32902563  0.80032195  0.27434110  1
  O2-  O256  1  0.33130417  0.79429671  0.59722711  1
  O2-  O257  1  0.33028203  0.79995974  0.94095665  1
  O2-  O258  1  0.83606062  0.30153880  0.26989911  1
  O2-  O259  1  0.83885268  0.28675130  0.60310392  1
  O2-  O260  1  0.83362548  0.29348725  0.93834256  1
  O2-  O261  1  0.83608693  0.78775973  0.26731363  1
  O2-  O262  1  0.83534635  0.79805874  0.60409939  1
  O2-  O263  1  0.83426764  0.79385190  0.92610629  1
  O2-  O264  1  0.42005212  0.04991298  0.06071110  1
  O2-  O265  1  0.42056163  0.04740135  0.39883679  1
  O2-  O266  1  0.42012803  0.04095763  0.73606795  1
  O2-  O267  1  0.41814059  0.53997056  0.06814367  1
  O2-  O268  1  0.41885678  0.54357275  0.39577837  1
  O2-  O269  1  0.41862816  0.54458800  0.73328030  1
  O2-  O270  1  0.91829765  0.03829253  0.06707884  1
  O2-  O271  1  0.91396014  0.04622581  0.39788036  1
  O2-  O272  1  0.91807883  0.03843867  0.73248958  1
  O2-  O273  1  0.91754759  0.54893800  0.06750014  1
  O2-  O274  1  0.91374995  0.54044861  0.40461903  1
  O2-  O275  1  0.91432189  0.54677929  0.73037879  1
  O2-  O276  1  0.29799907  0.16584234  0.05951603  1
  O2-  O277  1  0.28534067  0.16444484  0.40128586  1
  O2-  O278  1  0.29094391  0.16398809  0.73752578  1
  O2-  O279  1  0.29736610  0.67079047  0.07118625  1
  O2-  O280  1  0.30265902  0.66584398  0.39572055  1
  O2-  O281  1  0.29110198  0.67135583  0.73168710  1
  O2-  O282  1  0.79381203  0.16494234  0.06899228  1
  O2-  O283  1  0.80131572  0.17097269  0.39313848  1
  O2-  O284  1  0.78983618  0.16369072  0.73651208  1
  O2-  O285  1  0.78909089  0.67450874  0.06234753  1
  O2-  O286  1  0.78660479  0.66674597  0.40385602  1
  O2-  O287  1  0.80040631  0.66965922  0.72738399  1
