# generated using pymatgen
data_Ca2Al2SiO7
_symmetry_space_group_name_H-M   'P 1'
_cell_length_a   15.45736435
_cell_length_b   15.45736506
_cell_length_c   15.28314216
_cell_angle_alpha   90.00700801
_cell_angle_beta   89.99170584
_cell_angle_gamma   90.00206452
_symmetry_Int_Tables_number   1
_chemical_formula_structural   Ca2Al2SiO7
_chemical_formula_sum   'Ca48 Al48 Si24 O168'
_cell_volume   3651.60297901
_cell_formula_units_Z   24
loop_
 _symmetry_equiv_pos_site_id
 _symmetry_equiv_pos_as_xyz
  1  'x, y, z'
loop_
 _atom_type_symbol
 _atom_type_oxidation_number
  Ca2+  2.0
  Al0+  0.0
  Si0+  0.0
  O2-  -2.0
loop_
 _atom_site_type_symbol
 _atom_site_label
 _atom_site_symmetry_multiplicity
 _atom_site_fract_x
 _atom_site_fract_y
 _atom_site_fract_z
 _atom_site_occupancy
  Ca2+  Ca0  1  0.16665315  0.07636284  0.16552326  1
  Ca2+  Ca1  1  0.17445347  0.08253184  0.50802067  1
  Ca2+  Ca2  1  0.17163082  0.07847784  0.83575093  1
  Ca2+  Ca3  1  0.17644692  0.58339886  0.16245746  1
  Ca2+  Ca4  1  0.18016368  0.57888863  0.50629937  1
  Ca2+  Ca5  1  0.17331325  0.57498364  0.83916481  1
  Ca2+  Ca6  1  0.66144316  0.07909828  0.16972699  1
  Ca2+  Ca7  1  0.66609127  0.07215655  0.51211509  1
  Ca2+  Ca8  1  0.66501440  0.08744852  0.83126685  1
  Ca2+  Ca9  1  0.67125118  0.58678902  0.16908115  1
  Ca2+  Ca10  1  0.66351945  0.57732667  0.50703460  1
  Ca2+  Ca11  1  0.67393045  0.57490930  0.83554230  1
  Ca2+  Ca12  1  0.07508550  0.34187304  0.16029334  1
  Ca2+  Ca13  1  0.07426299  0.34007172  0.50073340  1
  Ca2+  Ca14  1  0.07544961  0.34735641  0.82910626  1
  Ca2+  Ca15  1  0.08635031  0.82570748  0.15487394  1
  Ca2+  Ca16  1  0.07485387  0.83689282  0.50020424  1
  Ca2+  Ca17  1  0.08472339  0.82674436  0.83024318  1
  Ca2+  Ca18  1  0.57640491  0.32588469  0.15553676  1
  Ca2+  Ca19  1  0.58319459  0.33049945  0.50450005  1
  Ca2+  Ca20  1  0.57551310  0.32744092  0.82584661  1
  Ca2+  Ca21  1  0.57358374  0.83122608  0.16606061  1
  Ca2+  Ca22  1  0.58163949  0.83001150  0.49180884  1
  Ca2+  Ca23  1  0.58108538  0.83168692  0.83005725  1
  Ca2+  Ca24  1  0.33630935  0.42561110  0.16915733  1
  Ca2+  Ca25  1  0.33274563  0.42654720  0.51471689  1
  Ca2+  Ca26  1  0.33049718  0.42163102  0.84059399  1
  Ca2+  Ca27  1  0.33264034  0.90695124  0.16556061  1
  Ca2+  Ca28  1  0.33701206  0.92146069  0.50537459  1
  Ca2+  Ca29  1  0.33540003  0.92295960  0.83994741  1
  Ca2+  Ca30  1  0.84043026  0.41997936  0.16535140  1
  Ca2+  Ca31  1  0.82941111  0.41303480  0.50761194  1
  Ca2+  Ca32  1  0.83038266  0.41094157  0.83866310  1
  Ca2+  Ca33  1  0.82317243  0.91991156  0.17460367  1
  Ca2+  Ca34  1  0.82200216  0.91980228  0.51280630  1
  Ca2+  Ca35  1  0.83145791  0.91903041  0.83183217  1
  Ca2+  Ca36  1  0.42368109  0.17353298  0.15487136  1
  Ca2+  Ca37  1  0.41633516  0.16979467  0.50427344  1
  Ca2+  Ca38  1  0.42219793  0.17507382  0.82609847  1
  Ca2+  Ca39  1  0.41394050  0.67080226  0.16364883  1
  Ca2+  Ca40  1  0.42078409  0.66748052  0.49149422  1
  Ca2+  Ca41  1  0.40466919  0.67037321  0.83211540  1
  Ca2+  Ca42  1  0.91595486  0.18006610  0.16080343  1
  Ca2+  Ca43  1  0.90711074  0.17683295  0.50215876  1
  Ca2+  Ca44  1  0.91774714  0.17480858  0.82534805  1
  Ca2+  Ca45  1  0.92451571  0.66449014  0.15476952  1
  Ca2+  Ca46  1  0.91491012  0.67363824  0.50004664  1
  Ca2+  Ca47  1  0.92336317  0.66504288  0.83015334  1
  Al0+  Al48  1  -0.00162852  0.00170710  0.00667837  1
  Al0+  Al49  1  0.00022876  0.00272030  0.33397675  1
  Al0+  Al50  1  -0.00150230  -0.00056663  0.66453528  1
  Al0+  Al51  1  0.00056757  0.50210231  -0.00134570  1
  Al0+  Al52  1  -0.00033547  0.50108296  0.33153558  1
  Al0+  Al53  1  0.00260028  0.50234996  0.66070971  1
  Al0+  Al54  1  0.50118288  -0.00183182  -0.00620956  1
  Al0+  Al55  1  0.49883748  -0.00070748  0.33343663  1
  Al0+  Al56  1  0.49937684  -0.00096969  0.67151465  1
  Al0+  Al57  1  0.50229918  0.50056667  0.00148028  1
  Al0+  Al58  1  0.50214752  0.50025563  0.33291174  1
  Al0+  Al59  1  0.50190018  0.50149728  0.67303867  1
  Al0+  Al60  1  0.24843618  0.24866580  0.00274408  1
  Al0+  Al61  1  0.24738438  0.24891593  0.33284385  1
  Al0+  Al62  1  0.24853013  0.24996776  0.67043838  1
  Al0+  Al63  1  0.24909726  0.74966939  -0.00251392  1
  Al0+  Al64  1  0.24847896  0.74983203  0.33697094  1
  Al0+  Al65  1  0.24961908  0.74885458  0.66555543  1
  Al0+  Al66  1  0.75105368  0.24868597  -0.00470930  1
  Al0+  Al67  1  0.75084266  0.25142842  0.32701398  1
  Al0+  Al68  1  0.74931525  0.24839434  0.66587750  1
  Al0+  Al69  1  0.74901417  0.75104690  0.00518850  1
  Al0+  Al70  1  0.74948092  0.74996708  0.33348904  1
  Al0+  Al71  1  0.74998272  0.75050667  0.66677520  1
  Al0+  Al72  1  0.07005098  0.68091045  0.98533840  1
  Al0+  Al73  1  0.32099830  0.07058503  0.68074504  1
  Al0+  Al74  1  0.82099053  0.07075447  0.68213679  1
  Al0+  Al75  1  0.57104508  0.17808819  0.98372416  1
  Al0+  Al76  1  0.67782500  0.92669487  0.68438454  1
  Al0+  Al77  1  0.32158616  0.56982764  0.34821491  1
  Al0+  Al78  1  0.17780925  0.42900211  0.68049956  1
  Al0+  Al79  1  0.57249608  0.67637756  0.31774850  1
  Al0+  Al80  1  0.68091656  0.42807644  0.67981021  1
  Al0+  Al81  1  0.92964196  0.32147473  0.65294008  1
  Al0+  Al82  1  0.42665304  0.32354899  0.98590809  1
  Al0+  Al83  1  0.82009051  0.57066031  0.01234836  1
  Al0+  Al84  1  0.93332423  0.32056982  0.98494854  1
  Al0+  Al85  1  0.42985054  0.81671305  0.98464484  1
  Al0+  Al86  1  0.32301395  0.57095366  0.01646761  1
  Al0+  Al87  1  0.42787856  0.82123067  0.31910201  1
  Al0+  Al88  1  0.67876312  0.93016444  0.34704519  1
  Al0+  Al89  1  0.92897376  0.82079480  0.65373902  1
  Al0+  Al90  1  0.17830723  0.42733181  0.01635288  1
  Al0+  Al91  1  0.17922769  0.92978134  0.01219146  1
  Al0+  Al92  1  0.32326384  0.57183684  0.68258087  1
  Al0+  Al93  1  0.93004590  0.32033586  0.31794112  1
  Al0+  Al94  1  0.42765481  0.32298949  0.65214690  1
  Al0+  Al95  1  0.56964312  0.17812408  0.64941699  1
  Si0+  Si96  1  0.68020555  0.42603333  0.01754309  1
  Si0+  Si97  1  0.82144173  0.07359574  0.34955721  1
  Si0+  Si98  1  0.06884054  0.68185806  0.31817009  1
  Si0+  Si99  1  0.42802176  0.82035067  0.65225995  1
  Si0+  Si100  1  0.57591731  0.67790667  0.98219533  1
  Si0+  Si101  1  0.17725485  0.42787028  0.35055109  1
  Si0+  Si102  1  0.56942707  0.17938826  0.31967010  1
  Si0+  Si103  1  0.17769315  0.92841364  0.34915521  1
  Si0+  Si104  1  0.42719887  0.32133495  0.32057932  1
  Si0+  Si105  1  0.67801655  0.92895655  0.01740755  1
  Si0+  Si106  1  0.82294348  0.57081418  0.34868741  1
  Si0+  Si107  1  0.07449086  0.17657957  0.31435814  1
  Si0+  Si108  1  0.32386384  0.06990988  0.01726647  1
  Si0+  Si109  1  0.07330284  0.67897732  0.64554772  1
  Si0+  Si110  1  0.07222805  0.17577156  0.64992781  1
  Si0+  Si111  1  0.92821022  0.82336010  0.31816223  1
  Si0+  Si112  1  0.32025642  0.07204603  0.34722348  1
  Si0+  Si113  1  0.82275588  0.57247436  0.68032376  1
  Si0+  Si114  1  0.82050907  0.07226528  0.01737862  1
  Si0+  Si115  1  0.92559468  0.82448704  0.98624458  1
  Si0+  Si116  1  0.07162837  0.17410177  0.98362883  1
  Si0+  Si117  1  0.57207326  0.67975764  0.65355804  1
  Si0+  Si118  1  0.17704624  0.92777267  0.68157185  1
  Si0+  Si119  1  0.68030193  0.42800109  0.34678293  1
  O2-  O120  1  0.25421639  0.00248236  0.06276079  1
  O2-  O121  1  0.24931399  -0.00014816  0.38898759  1
  O2-  O122  1  0.24611815  -0.00496566  0.72582933  1
  O2-  O123  1  0.25567832  0.49392887  0.06671366  1
  O2-  O124  1  0.25085522  0.49086703  0.39439045  1
  O2-  O125  1  0.25420458  0.49608934  0.72983234  1
  O2-  O126  1  0.74902062  0.00096523  0.05880569  1
  O2-  O127  1  0.75547172  0.00287716  0.39354689  1
  O2-  O128  1  0.74859782  0.00015684  0.73393427  1
  O2-  O129  1  0.74651167  0.49669664  0.06300387  1
  O2-  O130  1  0.74975171  0.50132593  0.38906962  1
  O2-  O131  1  0.76066183  0.49863792  0.72477126  1
  O2-  O132  1  0.00589852  0.24617385  0.27213754  1
  O2-  O133  1  0.00451968  0.24621045  0.60600759  1
  O2-  O134  1  0.01015564  0.24819084  0.93876224  1
  O2-  O135  1  -0.00093737  0.75383444  0.27430179  1
  O2-  O136  1  0.00351556  0.74794818  0.60278922  1
  O2-  O137  1  -0.00559927  0.75683981  0.94167565  1
  O2-  O138  1  0.49770094  0.24976454  0.27796738  1
  O2-  O139  1  0.49811812  0.25063888  0.59865188  1
  O2-  O140  1  0.49839181  0.25073788  0.93714627  1
  O2-  O141  1  0.49865520  0.74759144  0.26938507  1
  O2-  O142  1  0.49904363  0.74906635  0.61136734  1
  O2-  O143  1  0.50212937  0.74008613  0.93702413  1
  O2-  O144  1  0.06578519  0.16938809  0.08940908  1
  O2-  O145  1  0.07778950  0.17356820  0.41944184  1
  O2-  O146  1  0.06994446  0.17053764  0.75505015  1
  O2-  O147  1  0.06901145  0.68292796  0.09939185  1
  O2-  O148  1  0.06625607  0.68358687  0.42316551  1
  O2-  O149  1  0.07337877  0.67929539  0.75080861  1
  O2-  O150  1  0.56970974  0.17814545  0.09901301  1
  O2-  O151  1  0.57048734  0.17953332  0.42408966  1
  O2-  O152  1  0.56794674  0.18011172  0.76231917  1
  O2-  O153  1  0.57961346  0.68282880  0.08767811  1
  O2-  O154  1  0.57290338  0.67610379  0.43168435  1
  O2-  O155  1  0.57613071  0.68177219  0.75831289  1
  O2-  O156  1  0.17601178  0.42933591  0.24528835  1
  O2-  O157  1  0.17646437  0.43356270  0.56604699  1
  O2-  O158  1  0.17557385  0.43198596  0.90357610  1
  O2-  O159  1  0.17535537  0.92787976  0.24425504  1
  O2-  O160  1  0.17785568  0.92885627  0.57523600  1
  O2-  O161  1  0.17853321  0.93250514  0.89941368  1
  O2-  O162  1  0.68150241  0.42572247  0.24190638  1
  O2-  O163  1  0.68106913  0.43133716  0.56568172  1
  O2-  O164  1  0.68291772  0.42583428  0.91219685  1
  O2-  O165  1  0.67931100  0.93370051  0.23350072  1
  O2-  O166  1  0.67887680  0.92523597  0.57028051  1
  O2-  O167  1  0.67980044  0.92563245  0.91304715  1
  O2-  O168  1  0.43041253  0.32052627  0.10121457  1
  O2-  O169  1  0.42692630  0.32038602  0.42525082  1
  O2-  O170  1  0.42913677  0.32217271  0.76499591  1
  O2-  O171  1  0.43170873  0.81830017  0.09782471  1
  O2-  O172  1  0.42933638  0.82283474  0.43292282  1
  O2-  O173  1  0.42627857  0.81924405  0.75715769  1
  O2-  O174  1  0.93234127  0.31868049  0.09862130  1
  O2-  O175  1  0.92857911  0.31968944  0.43083365  1
  O2-  O176  1  0.93117454  0.32166277  0.76552344  1
  O2-  O177  1  0.92632823  0.82299805  0.09260947  1
  O2-  O178  1  0.92951392  0.82255340  0.42323349  1
  O2-  O179  1  0.93091684  0.81828176  0.76666231  1
  O2-  O180  1  0.31927213  0.07443550  0.24242791  1
  O2-  O181  1  0.31969536  0.06731797  0.56649286  1
  O2-  O182  1  0.32304825  0.06763323  0.91197953  1
  O2-  O183  1  0.31919898  0.57064374  0.23561321  1
  O2-  O184  1  0.32191989  0.57417653  0.56819627  1
  O2-  O185  1  0.31834259  0.57270717  0.90364574  1
  O2-  O186  1  0.82048573  0.07271486  0.24359000  1
  O2-  O187  1  0.81967847  0.06837221  0.56783583  1
  O2-  O188  1  0.82394463  0.07142484  0.91306832  1
  O2-  O189  1  0.82575506  0.57003536  0.24367777  1
  O2-  O190  1  0.81889201  0.57439232  0.57408134  1
  O2-  O191  1  0.81839278  0.57112565  0.89949654  1
  O2-  O192  1  0.04746776  0.08281500  0.26761313  1
  O2-  O193  1  0.04639287  0.08311858  0.60050353  1
  O2-  O194  1  0.03923223  0.08281695  0.93630758  1
  O2-  O195  1  0.03956199  0.59054098  0.27108169  1
  O2-  O196  1  0.04705370  0.58754635  0.59564200  1
  O2-  O197  1  0.03592524  0.58699094  0.93007810  1
  O2-  O198  1  0.54077547  0.08825791  0.27143801  1
  O2-  O199  1  0.53887513  0.07829387  0.59912396  1
  O2-  O200  1  0.54521901  0.07986958  0.93101440  1
  O2-  O201  1  0.54836215  0.57713997  0.26401075  1
  O2-  O202  1  0.54600829  0.58757896  0.60632619  1
  O2-  O203  1  0.55942562  0.58091913  0.94109738  1
  O2-  O204  1  0.16775960  0.20038605  0.26585658  1
  O2-  O205  1  0.16611317  0.19992496  0.60365566  1
  O2-  O206  1  0.16891245  0.18973595  0.94306707  1
  O2-  O207  1  0.16061456  0.71038970  0.27210492  1
  O2-  O208  1  0.16568289  0.70789377  0.59761791  1
  O2-  O209  1  0.16389751  0.71412811  0.92938609  1
  O2-  O210  1  0.66056428  0.20737919  0.27032669  1
  O2-  O211  1  0.66835650  0.20565787  0.59637068  1
  O2-  O212  1  0.66954143  0.20509419  0.93205349  1
  O2-  O213  1  0.67145677  0.70601228  0.26503318  1
  O2-  O214  1  0.66265491  0.70807092  0.60329836  1
  O2-  O215  1  0.66710529  0.71101445  0.93501086  1
  O2-  O216  1  0.08221085  0.46456273  0.06985858  1
  O2-  O217  1  0.08499140  0.46007699  0.39637009  1
  O2-  O218  1  0.08065216  0.46468770  0.73203878  1
  O2-  O219  1  0.08304625  0.96003756  0.07025096  1
  O2-  O220  1  0.08578886  0.95799304  0.39714201  1
  O2-  O221  1  0.08362330  0.95258465  0.72695297  1
  O2-  O222  1  0.58621434  0.44929080  0.06380395  1
  O2-  O223  1  0.58844461  0.45314001  0.39510801  1
  O2-  O224  1  0.58823586  0.46330449  0.73708645  1
  O2-  O225  1  0.58626856  0.95865881  0.06402878  1
  O2-  O226  1  0.58209991  0.96131242  0.40048080  1
  O2-  O227  1  0.57938849  0.95211484  0.73672709  1
  O2-  O228  1  0.19556096  0.32501076  0.06807174  1
  O2-  O229  1  0.19529972  0.33090518  0.39311853  1
  O2-  O230  1  0.19408757  0.32804181  0.73093081  1
  O2-  O231  1  0.21035626  0.83393188  0.06699311  1
  O2-  O232  1  0.20324922  0.83781409  0.39930491  1
  O2-  O233  1  0.20133205  0.83343302  0.72535687  1
  O2-  O234  1  0.70865382  0.33273353  0.06359040  1
  O2-  O235  1  0.71142095  0.33671301  0.39396325  1
  O2-  O236  1  0.70852455  0.33145547  0.73295096  1
  O2-  O237  1  0.70671165  0.83880777  0.06816102  1
  O2-  O238  1  0.70871480  0.83241619  0.39942516  1
  O2-  O239  1  0.71072349  0.82957490  0.73741316  1
  O2-  O240  1  0.45714579  0.41188734  0.27289856  1
  O2-  O241  1  0.46026698  0.42217691  0.60150908  1
  O2-  O242  1  0.45530891  0.42251924  0.93544833  1
  O2-  O243  1  0.45658153  0.91967984  0.26500808  1
  O2-  O244  1  0.45570634  0.91218101  0.60559216  1
  O2-  O245  1  0.46247451  0.91244083  0.93068363  1
  O2-  O246  1  0.96062824  0.41810134  0.26532854  1
  O2-  O247  1  0.95923215  0.41841767  0.59671995  1
  O2-  O248  1  0.95959836  0.41819058  0.93251030  1
  O2-  O249  1  0.95384574  0.91703813  0.27278451  1
  O2-  O250  1  0.95956822  0.91617753  0.59604614  1
  O2-  O251  1  0.95031277  0.91919042  0.94320149  1
  O2-  O252  1  0.33465274  0.29423288  0.27378803  1
  O2-  O253  1  0.32793382  0.29440457  0.60037316  1
  O2-  O254  1  0.32661577  0.29605502  0.93707715  1
  O2-  O255  1  0.32731195  0.79431906  0.26928066  1
  O2-  O256  1  0.33572836  0.79459192  0.60355708  1
  O2-  O257  1  0.33277560  0.79031559  0.93035362  1
  O2-  O258  1  0.83456877  0.28919737  0.26069779  1
  O2-  O259  1  0.83367315  0.28947758  0.59783201  1
  O2-  O260  1  0.83703265  0.28737485  0.93312724  1
  O2-  O261  1  0.83648290  0.79593362  0.27127408  1
  O2-  O262  1  0.83347319  0.78737503  0.59763503  1
  O2-  O263  1  0.83171482  0.79900779  0.94178781  1
  O2-  O264  1  0.41739937  0.04145927  0.06238876  1
  O2-  O265  1  0.41138113  0.04421616  0.39521953  1
  O2-  O266  1  0.41486725  0.03801939  0.73691163  1
  O2-  O267  1  0.42466767  0.54990372  0.06796160  1
  O2-  O268  1  0.42061449  0.54262470  0.39940772  1
  O2-  O269  1  0.42229210  0.55132469  0.73571984  1
  O2-  O270  1  0.91059047  0.04499791  0.06944197  1
  O2-  O271  1  0.91701717  0.05242295  0.39381897  1
  O2-  O272  1  0.91949179  0.04048966  0.73402593  1
  O2-  O273  1  0.91581620  0.53988229  0.06789086  1
  O2-  O274  1  0.91362019  0.54160998  0.39795619  1
  O2-  O275  1  0.91952174  0.55419176  0.72077029  1
  O2-  O276  1  0.29945171  0.16333491  0.06448615  1
  O2-  O277  1  0.29082919  0.16299769  0.39661552  1
  O2-  O278  1  0.29033284  0.16587604  0.73555405  1
  O2-  O279  1  0.28677553  0.66791914  0.06839012  1
  O2-  O280  1  0.28662197  0.66555229  0.40246357  1
  O2-  O281  1  0.28920108  0.66966951  0.73353421  1
  O2-  O282  1  0.79090935  0.16357605  0.06552998  1
  O2-  O283  1  0.79329450  0.16758278  0.39296720  1
  O2-  O284  1  0.79447500  0.16908479  0.73438602  1
  O2-  O285  1  0.79088883  0.66747341  0.06944890  1
  O2-  O286  1  0.79793518  0.66396305  0.39494527  1
  O2-  O287  1  0.79240063  0.66311153  0.72858179  1
