# generated using pymatgen
data_Ca2Al2SiO7
_symmetry_space_group_name_H-M   'P 1'
_cell_length_a   15.46070182
_cell_length_b   15.45988376
_cell_length_c   15.28594240
_cell_angle_alpha   89.99927150
_cell_angle_beta   90.01393441
_cell_angle_gamma   89.99783772
_symmetry_Int_Tables_number   1
_chemical_formula_structural   Ca2Al2SiO7
_chemical_formula_sum   'Ca48 Al48 Si24 O168'
_cell_volume   3653.65582536
_cell_formula_units_Z   24
loop_
 _symmetry_equiv_pos_site_id
 _symmetry_equiv_pos_as_xyz
  1  'x, y, z'
loop_
 _atom_type_symbol
 _atom_type_oxidation_number
  Ca2+  2.0
  Al0+  0.0
  Si0+  0.0
  O2-  -2.0
loop_
 _atom_site_type_symbol
 _atom_site_label
 _atom_site_symmetry_multiplicity
 _atom_site_fract_x
 _atom_site_fract_y
 _atom_site_fract_z
 _atom_site_occupancy
  Ca2+  Ca0  1  0.15245041  0.08003495  0.16790361  1
  Ca2+  Ca1  1  0.17031366  0.08016552  0.51022062  1
  Ca2+  Ca2  1  0.16196422  0.07112454  0.83787271  1
  Ca2+  Ca3  1  0.17032270  0.57444496  0.16961999  1
  Ca2+  Ca4  1  0.16320989  0.57242050  0.50410776  1
  Ca2+  Ca5  1  0.16208086  0.57917657  0.84074590  1
  Ca2+  Ca6  1  0.67148833  0.09220315  0.16764782  1
  Ca2+  Ca7  1  0.66632507  0.07803419  0.50831767  1
  Ca2+  Ca8  1  0.67243006  0.07793016  0.84013121  1
  Ca2+  Ca9  1  0.67398896  0.58126331  0.17800469  1
  Ca2+  Ca10  1  0.67112612  0.59376818  0.50165679  1
  Ca2+  Ca11  1  0.66763438  0.58436072  0.83517975  1
  Ca2+  Ca12  1  0.07858823  0.33361941  0.16021602  1
  Ca2+  Ca13  1  0.07969535  0.33486941  0.49346572  1
  Ca2+  Ca14  1  0.07615129  0.33939129  0.82903609  1
  Ca2+  Ca15  1  0.08681834  0.82595468  0.15649225  1
  Ca2+  Ca16  1  0.08518973  0.83206454  0.50254512  1
  Ca2+  Ca17  1  0.08888276  0.82543830  0.82627368  1
  Ca2+  Ca18  1  0.58481625  0.32374787  0.16196243  1
  Ca2+  Ca19  1  0.57854396  0.32546574  0.49266539  1
  Ca2+  Ca20  1  0.58118965  0.32616632  0.83248680  1
  Ca2+  Ca21  1  0.57978118  0.82580794  0.16578663  1
  Ca2+  Ca22  1  0.57997921  0.82819490  0.50114292  1
  Ca2+  Ca23  1  0.57702157  0.82903462  0.82036653  1
  Ca2+  Ca24  1  0.32245040  0.42407839  0.17179380  1
  Ca2+  Ca25  1  0.32040876  0.41755104  0.50439376  1
  Ca2+  Ca26  1  0.31837057  0.42518477  0.84100742  1
  Ca2+  Ca27  1  0.32575262  0.91749205  0.16520576  1
  Ca2+  Ca28  1  0.33136296  0.92382490  0.51098278  1
  Ca2+  Ca29  1  0.32671152  0.91629145  0.83150385  1
  Ca2+  Ca30  1  0.84013994  0.41863695  0.17239273  1
  Ca2+  Ca31  1  0.84105395  0.42005094  0.50101522  1
  Ca2+  Ca32  1  0.83679923  0.41166969  0.83593214  1
  Ca2+  Ca33  1  0.83708546  0.92904321  0.16866667  1
  Ca2+  Ca34  1  0.82758053  0.91574035  0.51062168  1
  Ca2+  Ca35  1  0.83031917  0.91602799  0.83664094  1
  Ca2+  Ca36  1  0.42810626  0.16513582  0.16344568  1
  Ca2+  Ca37  1  0.41874169  0.16326939  0.49541456  1
  Ca2+  Ca38  1  0.42007046  0.15875453  0.83029492  1
  Ca2+  Ca39  1  0.41516215  0.65678715  0.16414054  1
  Ca2+  Ca40  1  0.42280064  0.66807580  0.49577471  1
  Ca2+  Ca41  1  0.41777355  0.67130595  0.82410518  1
  Ca2+  Ca42  1  0.92513891  0.17782583  0.15913429  1
  Ca2+  Ca43  1  0.92418012  0.17899721  0.49275555  1
  Ca2+  Ca44  1  0.92037317  0.17338846  0.83453977  1
  Ca2+  Ca45  1  0.92243901  0.66497175  0.16260845  1
  Ca2+  Ca46  1  0.92073262  0.66987821  0.50210105  1
  Ca2+  Ca47  1  0.93136152  0.67185963  0.82544396  1
  Al0+  Al48  1  -0.00333639  0.00195988  0.00572778  1
  Al0+  Al49  1  -0.00293269  0.00069544  0.33440569  1
  Al0+  Al50  1  0.00017930  0.00159675  0.66705721  1
  Al0+  Al51  1  -0.00118866  0.50170669  -0.00385012  1
  Al0+  Al52  1  -0.00131022  0.50318567  0.33829225  1
  Al0+  Al53  1  -0.00186604  0.50102683  0.66319441  1
  Al0+  Al54  1  0.49984998  -0.00301784  -0.00256048  1
  Al0+  Al55  1  0.49894301  -0.00254667  0.32719462  1
  Al0+  Al56  1  0.50257429  -0.00225901  0.67102880  1
  Al0+  Al57  1  0.50163783  0.49813951  0.00264611  1
  Al0+  Al58  1  0.50071479  0.49996847  0.33268644  1
  Al0+  Al59  1  0.50164094  0.49663453  0.66296418  1
  Al0+  Al60  1  0.25097117  0.24858635  0.00074782  1
  Al0+  Al61  1  0.25066559  0.24734745  0.33231258  1
  Al0+  Al62  1  0.25177833  0.25183879  0.67679898  1
  Al0+  Al63  1  0.25141385  0.75127712  0.00372752  1
  Al0+  Al64  1  0.25041790  0.75181253  0.33692538  1
  Al0+  Al65  1  0.25232179  0.75007184  0.65863247  1
  Al0+  Al66  1  0.74918580  0.24863164  -0.00442526  1
  Al0+  Al67  1  0.75136861  0.25051544  0.32873446  1
  Al0+  Al68  1  0.75064780  0.25167295  0.66257162  1
  Al0+  Al69  1  0.74773313  0.74996246  0.00171888  1
  Al0+  Al70  1  0.74782670  0.75054498  0.33196176  1
  Al0+  Al71  1  0.75179525  0.74987472  0.66732422  1
  Al0+  Al72  1  0.57166117  0.67603128  0.65221418  1
  Al0+  Al73  1  0.07278350  0.17706649  0.31969522  1
  Al0+  Al74  1  0.07303734  0.67895109  0.64983893  1
  Al0+  Al75  1  0.81960644  0.57255683  0.34847879  1
  Al0+  Al76  1  0.17560940  0.42822899  0.01507057  1
  Al0+  Al77  1  0.81830060  0.07116347  0.01465923  1
  Al0+  Al78  1  0.92924109  0.31998676  0.65055506  1
  Al0+  Al79  1  0.93070444  0.32170644  0.98358691  1
  Al0+  Al80  1  0.32265779  0.07193125  0.68217983  1
  Al0+  Al81  1  0.57032468  0.17753594  0.32076911  1
  Al0+  Al82  1  0.07361076  0.17653798  0.98315036  1
  Al0+  Al83  1  0.07089780  0.68172740  0.98896944  1
  Al0+  Al84  1  0.92995078  0.82375913  0.65348189  1
  Al0+  Al85  1  0.17925722  0.42818062  0.34870792  1
  Al0+  Al86  1  0.17906952  0.93125606  0.01385345  1
  Al0+  Al87  1  0.17787928  0.92780630  0.68073343  1
  Al0+  Al88  1  0.93197088  0.32381667  0.31780297  1
  Al0+  Al89  1  0.32207180  0.57167782  0.01326642  1
  Al0+  Al90  1  0.32304896  0.57240915  0.35109447  1
  Al0+  Al91  1  0.56937204  0.17850484  0.98405262  1
  Al0+  Al92  1  0.17687285  0.43181942  0.68212029  1
  Al0+  Al93  1  0.56982214  0.67919420  0.31795140  1
  Al0+  Al94  1  0.42951374  0.82207885  0.65058956  1
  Al0+  Al95  1  0.68204641  0.92806208  0.68047527  1
  Si0+  Si96  1  0.07108498  0.68234672  0.31854806  1
  Si0+  Si97  1  0.57214189  0.67701028  0.98574095  1
  Si0+  Si98  1  0.67952490  0.42861403  0.01460716  1
  Si0+  Si99  1  0.81912614  0.57006699  0.68316575  1
  Si0+  Si100  1  0.32479092  0.57021624  0.68042395  1
  Si0+  Si101  1  0.92551522  0.82293549  0.98641097  1
  Si0+  Si102  1  0.81960081  0.07216486  0.35011436  1
  Si0+  Si103  1  0.32302091  0.06828609  0.34530609  1
  Si0+  Si104  1  0.67605883  0.92632345  0.01945783  1
  Si0+  Si105  1  0.32529566  0.07119843  0.01807871  1
  Si0+  Si106  1  0.82144810  0.07545876  0.68233194  1
  Si0+  Si107  1  0.42865419  0.32332542  0.98294127  1
  Si0+  Si108  1  0.92668956  0.82152757  0.31805356  1
  Si0+  Si109  1  0.67833383  0.93042870  0.34750920  1
  Si0+  Si110  1  0.57036518  0.17934825  0.65307711  1
  Si0+  Si111  1  0.42664086  0.82138864  0.31321434  1
  Si0+  Si112  1  0.42802278  0.32012124  0.65252698  1
  Si0+  Si113  1  0.07462013  0.17910459  0.65263722  1
  Si0+  Si114  1  0.81916933  0.57224142  0.01348010  1
  Si0+  Si115  1  0.42729242  0.32182479  0.31638051  1
  Si0+  Si116  1  0.17647761  0.92994463  0.34843918  1
  Si0+  Si117  1  0.67865064  0.42601039  0.35002095  1
  Si0+  Si118  1  0.42969147  0.81907079  0.98437703  1
  Si0+  Si119  1  0.67777129  0.42622833  0.68176254  1
  O2-  O120  1  0.24945340  0.01020902  0.06255731  1
  O2-  O121  1  0.24637888  0.00350915  0.38724669  1
  O2-  O122  1  0.24849196  0.00137999  0.73086488  1
  O2-  O123  1  0.25004257  0.49941934  0.06267691  1
  O2-  O124  1  0.25171805  0.49957637  0.40029076  1
  O2-  O125  1  0.25040612  0.50924523  0.72638535  1
  O2-  O126  1  0.74422294  -0.00454848  0.06354473  1
  O2-  O127  1  0.74654270  0.00308175  0.39153536  1
  O2-  O128  1  0.75804700  0.00156268  0.72667739  1
  O2-  O129  1  0.74996622  0.49995694  0.05639666  1
  O2-  O130  1  0.74550406  0.49621514  0.39481718  1
  O2-  O131  1  0.74702007  0.49902680  0.72410637  1
  O2-  O132  1  0.00615878  0.25381863  0.26929456  1
  O2-  O133  1  0.00652470  0.24729390  0.60649341  1
  O2-  O134  1  0.00686028  0.25388997  0.93354983  1
  O2-  O135  1  0.00058956  0.75400730  0.27546496  1
  O2-  O136  1  0.00441335  0.75577694  0.60118497  1
  O2-  O137  1  -0.00290751  0.75779581  0.94285501  1
  O2-  O138  1  0.49824750  0.25424313  0.27313499  1
  O2-  O139  1  0.49607553  0.24587510  0.60999296  1
  O2-  O140  1  0.49156876  0.24947909  0.93700329  1
  O2-  O141  1  0.49015207  0.74743260  0.26913280  1
  O2-  O142  1  0.49909356  0.74698199  0.60181687  1
  O2-  O143  1  0.49971014  0.74582576  0.94409922  1
  O2-  O144  1  0.06715003  0.17578563  0.09656247  1
  O2-  O145  1  0.06967793  0.17293697  0.43346003  1
  O2-  O146  1  0.07198847  0.17877593  0.75783844  1
  O2-  O147  1  0.06794727  0.68201428  0.10268505  1
  O2-  O148  1  0.07012736  0.68434942  0.42329689  1
  O2-  O149  1  0.07005489  0.67769335  0.76370332  1
  O2-  O150  1  0.56949532  0.18133465  0.09740624  1
  O2-  O151  1  0.56735481  0.17594919  0.43429157  1
  O2-  O152  1  0.57182254  0.18230531  0.75800176  1
  O2-  O153  1  0.57493962  0.67878264  0.09072952  1
  O2-  O154  1  0.57314559  0.68568729  0.43023697  1
  O2-  O155  1  0.56988948  0.67586253  0.76658511  1
  O2-  O156  1  0.17883559  0.43012017  0.23539262  1
  O2-  O157  1  0.17900977  0.42879264  0.56912977  1
  O2-  O158  1  0.17530805  0.43363885  0.90137099  1
  O2-  O159  1  0.17641909  0.92774924  0.24325253  1
  O2-  O160  1  0.17828164  0.93280261  0.56652225  1
  O2-  O161  1  0.18210866  0.92737835  0.90156861  1
  O2-  O162  1  0.67969054  0.42623266  0.24403245  1
  O2-  O163  1  0.67726069  0.42171180  0.57710574  1
  O2-  O164  1  0.67699467  0.43076129  0.90920943  1
  O2-  O165  1  0.68025565  0.93031819  0.24231263  1
  O2-  O166  1  0.68089907  0.93184926  0.56673795  1
  O2-  O167  1  0.67730128  0.92426004  0.91408605  1
  O2-  O168  1  0.43467844  0.32500642  0.08845849  1
  O2-  O169  1  0.42781855  0.31869990  0.42245913  1
  O2-  O170  1  0.43235950  0.32319364  0.75722447  1
  O2-  O171  1  0.43153278  0.82122555  0.08966392  1
  O2-  O172  1  0.43011045  0.82710849  0.41800966  1
  O2-  O173  1  0.43161153  0.82092311  0.76473806  1
  O2-  O174  1  0.92793038  0.32267443  0.09678733  1
  O2-  O175  1  0.93047684  0.32009251  0.43152676  1
  O2-  O176  1  0.92564794  0.31835645  0.76318880  1
  O2-  O177  1  0.92348813  0.81930111  0.09262492  1
  O2-  O178  1  0.92605616  0.82237578  0.42276810  1
  O2-  O179  1  0.92669988  0.81885548  0.76704943  1
  O2-  O180  1  0.32853404  0.06388993  0.24068184  1
  O2-  O181  1  0.32285631  0.07231953  0.56761225  1
  O2-  O182  1  0.33121980  0.06406523  0.91330842  1
  O2-  O183  1  0.31971211  0.57072592  0.23745038  1
  O2-  O184  1  0.32802281  0.56322501  0.57529888  1
  O2-  O185  1  0.32479564  0.57165500  0.89962046  1
  O2-  O186  1  0.81948684  0.07021919  0.24508736  1
  O2-  O187  1  0.81594356  0.07739300  0.57641932  1
  O2-  O188  1  0.81543395  0.06955892  0.90160702  1
  O2-  O189  1  0.81843814  0.57385861  0.23477706  1
  O2-  O190  1  0.81845038  0.57028778  0.57807076  1
  O2-  O191  1  0.81542506  0.57522022  0.90854635  1
  O2-  O192  1  0.03672570  0.08015778  0.26657935  1
  O2-  O193  1  0.05043093  0.08551046  0.60600162  1
  O2-  O194  1  0.03659249  0.07912066  0.93234505  1
  O2-  O195  1  0.04056082  0.59099149  0.27293075  1
  O2-  O196  1  0.03481538  0.58446184  0.59537623  1
  O2-  O197  1  0.03674185  0.58816765  0.93256618  1
  O2-  O198  1  0.53815532  0.08264403  0.26395614  1
  O2-  O199  1  0.54646458  0.08605948  0.60762038  1
  O2-  O200  1  0.54222749  0.07964392  0.93258055  1
  O2-  O201  1  0.54779790  0.57944772  0.26548298  1
  O2-  O202  1  0.54816589  0.57642994  0.59887117  1
  O2-  O203  1  0.54921510  0.58331200  0.94021868  1
  O2-  O204  1  0.17462255  0.19335126  0.26908054  1
  O2-  O205  1  0.16988725  0.20467529  0.61007340  1
  O2-  O206  1  0.17729112  0.19158117  0.93650716  1
  O2-  O207  1  0.16323962  0.71081452  0.27229639  1
  O2-  O208  1  0.17189129  0.70022187  0.59570456  1
  O2-  O209  1  0.16809250  0.71197910  0.93676396  1
  O2-  O210  1  0.66665215  0.20767945  0.26629147  1
  O2-  O211  1  0.65974286  0.21105347  0.60346181  1
  O2-  O212  1  0.66325412  0.21295718  0.92830793  1
  O2-  O213  1  0.66438614  0.71605081  0.26200432  1
  O2-  O214  1  0.66982934  0.70723799  0.60157513  1
  O2-  O215  1  0.66310883  0.70694576  0.93723394  1
  O2-  O216  1  0.07765331  0.46108787  0.06677542  1
  O2-  O217  1  0.08189244  0.46006041  0.40191625  1
  O2-  O218  1  0.07921442  0.46291482  0.73323731  1
  O2-  O219  1  0.08082838  0.95562668  0.06865565  1
  O2-  O220  1  0.08374945  0.95530476  0.39537692  1
  O2-  O221  1  0.07828396  0.95355750  0.73374711  1
  O2-  O222  1  0.58912035  0.45538379  0.06511201  1
  O2-  O223  1  0.58373069  0.44785648  0.39440910  1
  O2-  O224  1  0.58592861  0.45234068  0.73057375  1
  O2-  O225  1  0.58216801  0.95142549  0.06469114  1
  O2-  O226  1  0.58509961  0.95687119  0.39258855  1
  O2-  O227  1  0.58757329  0.95978371  0.73705370  1
  O2-  O228  1  0.20207492  0.32793339  0.06530700  1
  O2-  O229  1  0.20738204  0.32773623  0.39977034  1
  O2-  O230  1  0.20969752  0.33725125  0.73803778  1
  O2-  O231  1  0.21548510  0.83748067  0.07102697  1
  O2-  O232  1  0.20585314  0.83959473  0.39693288  1
  O2-  O233  1  0.20804189  0.82774084  0.72976447  1
  O2-  O234  1  0.70685790  0.33642827  0.06047899  1
  O2-  O235  1  0.70474871  0.33221066  0.39626997  1
  O2-  O236  1  0.70847615  0.33576942  0.73101983  1
  O2-  O237  1  0.70194351  0.83255935  0.06641377  1
  O2-  O238  1  0.70877433  0.83987357  0.39476531  1
  O2-  O239  1  0.71120730  0.83164691  0.73620489  1
  O2-  O240  1  0.45202139  0.41544737  0.27093959  1
  O2-  O241  1  0.46020794  0.40829956  0.60095703  1
  O2-  O242  1  0.46257098  0.41392327  0.93473656  1
  O2-  O243  1  0.45910014  0.91104955  0.26235811  1
  O2-  O244  1  0.46396996  0.91957016  0.59783982  1
  O2-  O245  1  0.45968233  0.90903907  0.93546458  1
  O2-  O246  1  0.95546967  0.42496549  0.26818225  1
  O2-  O247  1  0.95697970  0.41739719  0.59820243  1
  O2-  O248  1  0.95306385  0.42158003  0.93019554  1
  O2-  O249  1  0.95227577  0.91450349  0.27172710  1
  O2-  O250  1  0.95084385  0.92429275  0.60002510  1
  O2-  O251  1  0.94522842  0.91821446  0.94419433  1
  O2-  O252  1  0.33575200  0.29346944  0.26856035  1
  O2-  O253  1  0.33542820  0.29410479  0.60596623  1
  O2-  O254  1  0.33292915  0.30446929  0.93985722  1
  O2-  O255  1  0.33062507  0.80090782  0.26948250  1
  O2-  O256  1  0.33188607  0.79992605  0.59452828  1
  O2-  O257  1  0.33804329  0.79250415  0.93739310  1
  O2-  O258  1  0.83329550  0.29440290  0.26569722  1
  O2-  O259  1  0.83274407  0.28921362  0.59506603  1
  O2-  O260  1  0.83264549  0.28968602  0.93100843  1
  O2-  O261  1  0.83640282  0.79213919  0.26908322  1
  O2-  O262  1  0.83322330  0.79046853  0.59917820  1
  O2-  O263  1  0.83214432  0.79459983  0.94043782  1
  O2-  O264  1  0.41598806  0.03613855  0.06659827  1
  O2-  O265  1  0.41268173  0.03448085  0.39472874  1
  O2-  O266  1  0.42030073  0.04083609  0.73540552  1
  O2-  O267  1  0.42103200  0.54171627  0.06683995  1
  O2-  O268  1  0.42398033  0.54707401  0.40040899  1
  O2-  O269  1  0.41673280  0.53880538  0.72789028  1
  O2-  O270  1  0.91255624  0.04103612  0.07353126  1
  O2-  O271  1  0.90976209  0.04132828  0.39890040  1
  O2-  O272  1  0.91700793  0.05648605  0.72546727  1
  O2-  O273  1  0.91110293  0.54589867  0.06039616  1
  O2-  O274  1  0.91543940  0.54530682  0.40483118  1
  O2-  O275  1  0.91002968  0.54022030  0.73038745  1
  O2-  O276  1  0.31207658  0.16850449  0.05989031  1
  O2-  O277  1  0.30404848  0.16227079  0.39174440  1
  O2-  O278  1  0.30179524  0.17080399  0.73711702  1
  O2-  O279  1  0.29667909  0.66976129  0.06803951  1
  O2-  O280  1  0.29694060  0.67276841  0.40124009  1
  O2-  O281  1  0.30732890  0.66786237  0.71950561  1
  O2-  O282  1  0.78276747  0.16679369  0.06813408  1
  O2-  O283  1  0.79275710  0.16472424  0.39597545  1
  O2-  O284  1  0.78808775  0.16631518  0.72937806  1
  O2-  O285  1  0.79000297  0.66296680  0.06342579  1
  O2-  O286  1  0.78482628  0.66869518  0.40167154  1
  O2-  O287  1  0.79166034  0.66079608  0.73234889  1
