# generated using pymatgen
data_Ca2Al2SiO7
_symmetry_space_group_name_H-M   'P 1'
_cell_length_a   15.46211841
_cell_length_b   15.46313686
_cell_length_c   15.28591642
_cell_angle_alpha   89.98411892
_cell_angle_beta   89.97975154
_cell_angle_gamma   89.98966600
_symmetry_Int_Tables_number   1
_chemical_formula_structural   Ca2Al2SiO7
_chemical_formula_sum   'Ca48 Al48 Si24 O168'
_cell_volume   3654.75293903
_cell_formula_units_Z   24
loop_
 _symmetry_equiv_pos_site_id
 _symmetry_equiv_pos_as_xyz
  1  'x, y, z'
loop_
 _atom_type_symbol
 _atom_type_oxidation_number
  Ca2+  2.0
  Al0+  0.0
  Si0+  0.0
  O2-  -2.0
loop_
 _atom_site_type_symbol
 _atom_site_label
 _atom_site_symmetry_multiplicity
 _atom_site_fract_x
 _atom_site_fract_y
 _atom_site_fract_z
 _atom_site_occupancy
  Ca2+  Ca0  1  0.17460132  0.08999422  0.17124847  1
  Ca2+  Ca1  1  0.17236633  0.08133830  0.50803005  1
  Ca2+  Ca2  1  0.17244131  0.08789198  0.83512531  1
  Ca2+  Ca3  1  0.16658916  0.57275915  0.17136440  1
  Ca2+  Ca4  1  0.16872885  0.58770209  0.50586003  1
  Ca2+  Ca5  1  0.16109758  0.57635758  0.83662633  1
  Ca2+  Ca6  1  0.67974795  0.08823472  0.16790173  1
  Ca2+  Ca7  1  0.67936732  0.08767268  0.50673269  1
  Ca2+  Ca8  1  0.67655277  0.09143107  0.83570411  1
  Ca2+  Ca9  1  0.67636131  0.58400177  0.17092575  1
  Ca2+  Ca10  1  0.67251084  0.58369051  0.50144180  1
  Ca2+  Ca11  1  0.67313079  0.57913889  0.84008735  1
  Ca2+  Ca12  1  0.08739643  0.32283410  0.16227580  1
  Ca2+  Ca13  1  0.07968527  0.31957575  0.50177221  1
  Ca2+  Ca14  1  0.08216558  0.32360473  0.82880513  1
  Ca2+  Ca15  1  0.06955754  0.83376089  0.16288067  1
  Ca2+  Ca16  1  0.07597084  0.83959271  0.50060992  1
  Ca2+  Ca17  1  0.07513618  0.83194643  0.82435453  1
  Ca2+  Ca18  1  0.57939293  0.32605289  0.16076713  1
  Ca2+  Ca19  1  0.57926911  0.32741188  0.50422616  1
  Ca2+  Ca20  1  0.57740032  0.32123662  0.82494833  1
  Ca2+  Ca21  1  0.57670631  0.83697836  0.16670863  1
  Ca2+  Ca22  1  0.56929001  0.84170108  0.49806295  1
  Ca2+  Ca23  1  0.57641299  0.83468064  0.82813397  1
  Ca2+  Ca24  1  0.32412593  0.41809144  0.17176652  1
  Ca2+  Ca25  1  0.33622581  0.42194222  0.50467554  1
  Ca2+  Ca26  1  0.32617138  0.40957137  0.83693044  1
  Ca2+  Ca27  1  0.33224269  0.92744673  0.17399496  1
  Ca2+  Ca28  1  0.33001330  0.92293896  0.51062034  1
  Ca2+  Ca29  1  0.32752724  0.92359093  0.83208234  1
  Ca2+  Ca30  1  0.83640126  0.42961170  0.17169773  1
  Ca2+  Ca31  1  0.84169873  0.42124559  0.50543424  1
  Ca2+  Ca32  1  0.84173155  0.42204490  0.83763036  1
  Ca2+  Ca33  1  0.83940976  0.92379805  0.17011375  1
  Ca2+  Ca34  1  0.83984453  0.92280656  0.50426439  1
  Ca2+  Ca35  1  0.84321638  0.92692347  0.83449997  1
  Ca2+  Ca36  1  0.42130647  0.15897240  0.15808840  1
  Ca2+  Ca37  1  0.41759772  0.16099840  0.49813886  1
  Ca2+  Ca38  1  0.42469952  0.16113982  0.82579457  1
  Ca2+  Ca39  1  0.40976655  0.67152350  0.16914712  1
  Ca2+  Ca40  1  0.41029801  0.68050050  0.49378860  1
  Ca2+  Ca41  1  0.41769019  0.67423747  0.82354420  1
  Ca2+  Ca42  1  0.92879395  0.15741497  0.16089300  1
  Ca2+  Ca43  1  0.92842463  0.15488779  0.49705375  1
  Ca2+  Ca44  1  0.92578964  0.16538957  0.82398038  1
  Ca2+  Ca45  1  0.90463788  0.67652790  0.16210839  1
  Ca2+  Ca46  1  0.92126621  0.67707087  0.49540389  1
  Ca2+  Ca47  1  0.91893517  0.67698824  0.82639767  1
  Al0+  Al48  1  0.00112307  -0.00114885  -0.00491550  1
  Al0+  Al49  1  0.00141696  -0.00086366  0.32669977  1
  Al0+  Al50  1  0.00114015  -0.00122064  0.66776001  1
  Al0+  Al51  1  0.00109894  0.50026154  0.01190499  1
  Al0+  Al52  1  -0.00079203  0.49799773  0.33889662  1
  Al0+  Al53  1  0.00255396  0.50057291  0.66070394  1
  Al0+  Al54  1  0.50029558  -0.00033842  -0.00160427  1
  Al0+  Al55  1  0.50066626  0.00033405  0.33029610  1
  Al0+  Al56  1  0.50275058  -0.00039808  0.66243378  1
  Al0+  Al57  1  0.49977203  0.50145468  0.00095760  1
  Al0+  Al58  1  0.49901458  0.49946471  0.33583109  1
  Al0+  Al59  1  0.50226212  0.49925065  0.66517283  1
  Al0+  Al60  1  0.24986629  0.25083588  0.00551862  1
  Al0+  Al61  1  0.25010923  0.25029638  0.33449968  1
  Al0+  Al62  1  0.25076354  0.25311093  0.66312413  1
  Al0+  Al63  1  0.24816580  0.75082226  -0.00008681  1
  Al0+  Al64  1  0.24813291  0.74898734  0.32952510  1
  Al0+  Al65  1  0.25103689  0.75043797  0.66606625  1
  Al0+  Al66  1  0.74962061  0.25070623  0.00182099  1
  Al0+  Al67  1  0.74962234  0.25100147  0.33615512  1
  Al0+  Al68  1  0.74833781  0.25341402  0.66462276  1
  Al0+  Al69  1  0.74697284  0.75119090  -0.00167865  1
  Al0+  Al70  1  0.74785460  0.74890320  0.33492630  1
  Al0+  Al71  1  0.75066356  0.74995296  0.66461842  1
  Al0+  Al72  1  0.18038187  0.42947286  0.01406729  1
  Al0+  Al73  1  0.07201804  0.17998107  0.98595429  1
  Al0+  Al74  1  0.42736276  0.82201699  0.31776021  1
  Al0+  Al75  1  0.82214573  0.07099803  0.01260424  1
  Al0+  Al76  1  0.32201651  0.07060946  0.34701187  1
  Al0+  Al77  1  0.43056630  0.82014769  0.65433778  1
  Al0+  Al78  1  0.57125833  0.17785928  0.64972285  1
  Al0+  Al79  1  0.07051305  0.17996010  0.31801323  1
  Al0+  Al80  1  0.57193907  0.17909941  0.98669645  1
  Al0+  Al81  1  0.82212033  0.06955160  0.34609412  1
  Al0+  Al82  1  0.07094323  0.17775764  0.65229757  1
  Al0+  Al83  1  0.81921232  0.57147982  0.01230221  1
  Al0+  Al84  1  0.32044432  0.06848475  0.01304312  1
  Al0+  Al85  1  0.92842361  0.81865244  0.31792087  1
  Al0+  Al86  1  0.82027728  0.57162811  0.35030348  1
  Al0+  Al87  1  0.07162332  0.67869984  0.65259604  1
  Al0+  Al88  1  0.17920976  0.92783120  0.68244693  1
  Al0+  Al89  1  0.31898570  0.57053589  0.34749384  1
  Al0+  Al90  1  0.82051707  0.07179496  0.67974311  1
  Al0+  Al91  1  0.92825984  0.82178833  0.65056959  1
  Al0+  Al92  1  0.42829874  0.32193989  0.65161898  1
  Al0+  Al93  1  0.92741403  0.81968899  0.98478706  1
  Al0+  Al94  1  0.92827450  0.32189512  0.65380491  1
  Al0+  Al95  1  0.32219362  0.07340129  0.68133645  1
  Si0+  Si96  1  0.82225184  0.57038415  0.68169717  1
  Si0+  Si97  1  0.32373842  0.57500391  0.01574677  1
  Si0+  Si98  1  0.17918290  0.43081703  0.68132532  1
  Si0+  Si99  1  0.56963228  0.67668611  0.31592764  1
  Si0+  Si100  1  0.56986140  0.67851598  0.98523055  1
  Si0+  Si101  1  0.67656332  0.92824189  0.01649904  1
  Si0+  Si102  1  0.32285071  0.57138451  0.68144744  1
  Si0+  Si103  1  0.67857471  0.92619165  0.68301442  1
  Si0+  Si104  1  0.17731858  0.92574817  0.01817578  1
  Si0+  Si105  1  0.67709868  0.42772121  0.35218250  1
  Si0+  Si106  1  0.92616376  0.32247399  0.31553980  1
  Si0+  Si107  1  0.42828471  0.32319299  0.98613098  1
  Si0+  Si108  1  0.57211030  0.17946408  0.31636064  1
  Si0+  Si109  1  0.92869933  0.32407429  0.98789308  1
  Si0+  Si110  1  0.07109480  0.67461065  0.31471131  1
  Si0+  Si111  1  0.17831804  0.92802049  0.34742451  1
  Si0+  Si112  1  0.67758090  0.92811839  0.34943327  1
  Si0+  Si113  1  0.42985390  0.32185916  0.31727238  1
  Si0+  Si114  1  0.07182076  0.67615758  0.98574775  1
  Si0+  Si115  1  0.42761196  0.82059889  0.98473338  1
  Si0+  Si116  1  0.57303544  0.67657810  0.64992978  1
  Si0+  Si117  1  0.67573611  0.42814656  0.01720686  1
  Si0+  Si118  1  0.17796216  0.42672038  0.35454682  1
  Si0+  Si119  1  0.67776378  0.43059861  0.68373524  1
  O2-  O120  1  0.24534880  -0.00468916  0.06187527  1
  O2-  O121  1  0.24970539  -0.00640818  0.39173668  1
  O2-  O122  1  0.24818430  0.00363131  0.73201051  1
  O2-  O123  1  0.25582747  0.50524795  0.05878483  1
  O2-  O124  1  0.24345284  0.49917325  0.39762227  1
  O2-  O125  1  0.25244090  0.50033825  0.72410921  1
  O2-  O126  1  0.74692386  -0.00408041  0.05930886  1
  O2-  O127  1  0.74806310  -0.00548691  0.39324612  1
  O2-  O128  1  0.74703664  -0.00490674  0.72680742  1
  O2-  O129  1  0.74609078  0.49539888  0.06069779  1
  O2-  O130  1  0.74802359  0.49420047  0.39660694  1
  O2-  O131  1  0.75186595  0.49923071  0.72519550  1
  O2-  O132  1  -0.00672220  0.25292513  0.27087839  1
  O2-  O133  1  -0.00760758  0.24364914  0.60281509  1
  O2-  O134  1  -0.00703347  0.25223132  0.94279974  1
  O2-  O135  1  -0.00037452  0.74017058  0.27020300  1
  O2-  O136  1  0.00181139  0.75128910  0.60113987  1
  O2-  O137  1  0.00286051  0.74383782  0.94142360  1
  O2-  O138  1  0.49794466  0.24814458  0.27464720  1
  O2-  O139  1  0.49375845  0.24473139  0.59999632  1
  O2-  O140  1  0.49709268  0.25495716  0.94245716  1
  O2-  O141  1  0.50128329  0.74561656  0.27095576  1
  O2-  O142  1  0.50536161  0.74587818  0.60633399  1
  O2-  O143  1  0.49536323  0.74561418  0.94349949  1
  O2-  O144  1  0.07308222  0.18192897  0.09934628  1
  O2-  O145  1  0.07104942  0.17977864  0.43056801  1
  O2-  O146  1  0.07240014  0.18228694  0.76606906  1
  O2-  O147  1  0.07358663  0.67721751  0.09121076  1
  O2-  O148  1  0.07199300  0.67605849  0.41993793  1
  O2-  O149  1  0.06700912  0.67404844  0.76657659  1
  O2-  O150  1  0.57087890  0.18094083  0.10045713  1
  O2-  O151  1  0.57317073  0.18045283  0.42098955  1
  O2-  O152  1  0.57228975  0.18143559  0.76357017  1
  O2-  O153  1  0.57103901  0.67819502  0.09016067  1
  O2-  O154  1  0.56920172  0.67574987  0.42126437  1
  O2-  O155  1  0.57170439  0.67529236  0.75612276  1
  O2-  O156  1  0.18045239  0.42671817  0.24843963  1
  O2-  O157  1  0.17900219  0.43319940  0.57656497  1
  O2-  O158  1  0.18056017  0.43077036  0.90083535  1
  O2-  O159  1  0.17897788  0.92947024  0.24142992  1
  O2-  O160  1  0.18230421  0.92606651  0.56855726  1
  O2-  O161  1  0.18044193  0.92124740  0.91316029  1
  O2-  O162  1  0.67605584  0.42885225  0.24624784  1
  O2-  O163  1  0.67424299  0.43416677  0.57889373  1
  O2-  O164  1  0.67237917  0.43121085  0.91190220  1
  O2-  O165  1  0.67601451  0.92945839  0.24353678  1
  O2-  O166  1  0.67811712  0.92453250  0.57747983  1
  O2-  O167  1  0.67318049  0.92679209  0.91129843  1
  O2-  O168  1  0.43050306  0.32500917  0.09209720  1
  O2-  O169  1  0.43215325  0.32396394  0.42187675  1
  O2-  O170  1  0.43246004  0.32744001  0.76534199  1
  O2-  O171  1  0.42894861  0.81984188  0.08994029  1
  O2-  O172  1  0.42928711  0.82142158  0.43043742  1
  O2-  O173  1  0.43218650  0.81663626  0.76807722  1
  O2-  O174  1  0.93031433  0.32555203  0.09346133  1
  O2-  O175  1  0.92713150  0.32344401  0.42073814  1
  O2-  O176  1  0.93302633  0.32585828  0.76787077  1
  O2-  O177  1  0.92710771  0.81812655  0.09822040  1
  O2-  O178  1  0.93062285  0.81953347  0.43028532  1
  O2-  O179  1  0.92627171  0.81752589  0.76424152  1
  O2-  O180  1  0.32249325  0.07010107  0.23335310  1
  O2-  O181  1  0.32123665  0.06980596  0.56755785  1
  O2-  O182  1  0.32268598  0.06708822  0.90057326  1
  O2-  O183  1  0.31844088  0.56653568  0.23389312  1
  O2-  O184  1  0.32275465  0.57074617  0.57640883  1
  O2-  O185  1  0.32565571  0.57628002  0.91026060  1
  O2-  O186  1  0.82070143  0.06904919  0.23264801  1
  O2-  O187  1  0.81960983  0.06942612  0.56643365  1
  O2-  O188  1  0.82102198  0.07172151  0.89979745  1
  O2-  O189  1  0.81631633  0.57135889  0.23678883  1
  O2-  O190  1  0.81944637  0.56990316  0.57673226  1
  O2-  O191  1  0.81788896  0.56946903  0.89900644  1
  O2-  O192  1  0.04183250  0.08392551  0.26178024  1
  O2-  O193  1  0.04736341  0.07839187  0.60054587  1
  O2-  O194  1  0.04592028  0.08253431  0.93297335  1
  O2-  O195  1  0.04795865  0.57840607  0.27244578  1
  O2-  O196  1  0.04311718  0.58273543  0.59553798  1
  O2-  O197  1  0.04631941  0.58118003  0.94281089  1
  O2-  O198  1  0.54681644  0.08745922  0.26851916  1
  O2-  O199  1  0.55158747  0.07821104  0.59669478  1
  O2-  O200  1  0.54129556  0.08258861  0.93317939  1
  O2-  O201  1  0.54321952  0.58321933  0.26913657  1
  O2-  O202  1  0.54776047  0.58404210  0.60285873  1
  O2-  O203  1  0.54593096  0.58551628  0.93711178  1
  O2-  O204  1  0.16728620  0.21477878  0.26494263  1
  O2-  O205  1  0.16673554  0.21249716  0.59870086  1
  O2-  O206  1  0.16812339  0.21589455  0.93428541  1
  O2-  O207  1  0.16378357  0.70042077  0.26664173  1
  O2-  O208  1  0.17149851  0.70279537  0.60164729  1
  O2-  O209  1  0.16603359  0.69987908  0.93895086  1
  O2-  O210  1  0.66301047  0.21148708  0.26861181  1
  O2-  O211  1  0.66616222  0.21516379  0.59538256  1
  O2-  O212  1  0.66841747  0.21104503  0.93293188  1
  O2-  O213  1  0.66277806  0.70353523  0.26939918  1
  O2-  O214  1  0.66669261  0.70053809  0.60409478  1
  O2-  O215  1  0.65891946  0.70887576  0.93437514  1
  O2-  O216  1  0.08671422  0.45957709  0.07479239  1
  O2-  O217  1  0.08292910  0.44748544  0.39851179  1
  O2-  O218  1  0.08854854  0.46195399  0.72977585  1
  O2-  O219  1  0.08325462  0.95132462  0.06216332  1
  O2-  O220  1  0.08609520  0.95741435  0.39308011  1
  O2-  O221  1  0.07977469  0.95124970  0.73497026  1
  O2-  O222  1  0.58308922  0.45644815  0.06557366  1
  O2-  O223  1  0.58484546  0.45665964  0.39891945  1
  O2-  O224  1  0.58821833  0.46280761  0.73420888  1
  O2-  O225  1  0.58402623  0.95512867  0.06460998  1
  O2-  O226  1  0.58493177  0.95709171  0.39539247  1
  O2-  O227  1  0.58490634  0.95115156  0.72925924  1
  O2-  O228  1  0.21394318  0.33620122  0.07307514  1
  O2-  O229  1  0.20915455  0.33547052  0.40065192  1
  O2-  O230  1  0.20639501  0.33953314  0.72979747  1
  O2-  O231  1  0.20293107  0.83224030  0.06600203  1
  O2-  O232  1  0.19904446  0.83243712  0.39053026  1
  O2-  O233  1  0.21190498  0.83023436  0.73682036  1
  O2-  O234  1  0.69918205  0.33479700  0.06415282  1
  O2-  O235  1  0.70003120  0.33390339  0.39834629  1
  O2-  O236  1  0.70155006  0.33841047  0.73137475  1
  O2-  O237  1  0.69964149  0.83410563  0.06310967  1
  O2-  O238  1  0.69730589  0.83317959  0.39448638  1
  O2-  O239  1  0.70183324  0.83137264  0.72971602  1
  O2-  O240  1  0.46054077  0.41255708  0.26838174  1
  O2-  O241  1  0.46447318  0.41826054  0.59691517  1
  O2-  O242  1  0.45137287  0.41805638  0.94044997  1
  O2-  O243  1  0.46237559  0.91693816  0.26172124  1
  O2-  O244  1  0.46169358  0.91480889  0.59804260  1
  O2-  O245  1  0.46027823  0.90974956  0.93637149  1
  O2-  O246  1  0.95356410  0.41688487  0.27069471  1
  O2-  O247  1  0.96389846  0.41620689  0.59697456  1
  O2-  O248  1  0.95823361  0.41766818  0.94329448  1
  O2-  O249  1  0.96316606  0.91294143  0.26150838  1
  O2-  O250  1  0.95651455  0.91977690  0.59847733  1
  O2-  O251  1  0.96031213  0.91469177  0.93034676  1
  O2-  O252  1  0.33665773  0.29738473  0.27154073  1
  O2-  O253  1  0.32833504  0.30522505  0.59876696  1
  O2-  O254  1  0.33463656  0.29763894  0.94201604  1
  O2-  O255  1  0.33145277  0.79016613  0.26236128  1
  O2-  O256  1  0.33594792  0.78739453  0.59957214  1
  O2-  O257  1  0.33484759  0.79521336  0.93830679  1
  O2-  O258  1  0.83048676  0.30141533  0.27134776  1
  O2-  O259  1  0.82640575  0.30785559  0.60404541  1
  O2-  O260  1  0.83261343  0.30581047  0.94420707  1
  O2-  O261  1  0.82940403  0.78967970  0.26667129  1
  O2-  O262  1  0.82997847  0.79222757  0.59774546  1
  O2-  O263  1  0.83003721  0.78967418  0.93222912  1
  O2-  O264  1  0.41705056  0.03543366  0.06705042  1
  O2-  O265  1  0.42045969  0.04199729  0.39776182  1
  O2-  O266  1  0.42203685  0.04187467  0.73047604  1
  O2-  O267  1  0.41779583  0.55165063  0.06280269  1
  O2-  O268  1  0.41571187  0.53954593  0.40088837  1
  O2-  O269  1  0.41586893  0.54474661  0.72782865  1
  O2-  O270  1  0.91894480  0.03759858  0.06498626  1
  O2-  O271  1  0.91935271  0.03670314  0.39661928  1
  O2-  O272  1  0.91716629  0.04176081  0.73347923  1
  O2-  O273  1  0.91442194  0.54437946  0.07063781  1
  O2-  O274  1  0.91759049  0.54264869  0.40339664  1
  O2-  O275  1  0.91451923  0.54125814  0.72701431  1
  O2-  O276  1  0.29318128  0.16584056  0.06757220  1
  O2-  O277  1  0.29284636  0.16806949  0.39883122  1
  O2-  O278  1  0.29799439  0.17469019  0.73104831  1
  O2-  O279  1  0.29687616  0.66808163  0.06268258  1
  O2-  O280  1  0.29033199  0.66891166  0.39902782  1
  O2-  O281  1  0.29587919  0.66223542  0.73043713  1
  O2-  O282  1  0.79151609  0.16786143  0.06761199  1
  O2-  O283  1  0.79122994  0.16680964  0.39843536  1
  O2-  O284  1  0.78884365  0.16978136  0.73122593  1
  O2-  O285  1  0.78190018  0.66640409  0.06603592  1
  O2-  O286  1  0.78559643  0.66671796  0.40454684  1
  O2-  O287  1  0.79309409  0.66220915  0.72859242  1
