# generated using pymatgen
data_Ca2Al2SiO7
_symmetry_space_group_name_H-M   'P 1'
_cell_length_a   15.45718837
_cell_length_b   15.45591816
_cell_length_c   15.28275250
_cell_angle_alpha   89.99518512
_cell_angle_beta   89.99509803
_cell_angle_gamma   90.01589680
_symmetry_Int_Tables_number   1
_chemical_formula_structural   Ca2Al2SiO7
_chemical_formula_sum   'Ca48 Al48 Si24 O168'
_cell_volume   3651.12640677
_cell_formula_units_Z   24
loop_
 _symmetry_equiv_pos_site_id
 _symmetry_equiv_pos_as_xyz
  1  'x, y, z'
loop_
 _atom_type_symbol
 _atom_type_oxidation_number
  Ca2+  2.0
  Al0+  0.0
  Si0+  0.0
  O2-  -2.0
loop_
 _atom_site_type_symbol
 _atom_site_label
 _atom_site_symmetry_multiplicity
 _atom_site_fract_x
 _atom_site_fract_y
 _atom_site_fract_z
 _atom_site_occupancy
  Ca2+  Ca0  1  0.17758506  0.08452272  0.16647645  1
  Ca2+  Ca1  1  0.16953901  0.08191233  0.50864995  1
  Ca2+  Ca2  1  0.16284395  0.07231396  0.84017813  1
  Ca2+  Ca3  1  0.16523104  0.57918947  0.16081503  1
  Ca2+  Ca4  1  0.16189808  0.57570242  0.50964267  1
  Ca2+  Ca5  1  0.16429927  0.57563809  0.84044488  1
  Ca2+  Ca6  1  0.67408185  0.08368014  0.17551424  1
  Ca2+  Ca7  1  0.67576278  0.08777178  0.49784086  1
  Ca2+  Ca8  1  0.67941154  0.08623693  0.83610016  1
  Ca2+  Ca9  1  0.67051877  0.57690585  0.17588037  1
  Ca2+  Ca10  1  0.68013731  0.57696046  0.50268708  1
  Ca2+  Ca11  1  0.67153921  0.58539716  0.83670152  1
  Ca2+  Ca12  1  0.07092706  0.33446242  0.15863943  1
  Ca2+  Ca13  1  0.07398544  0.33114245  0.50162188  1
  Ca2+  Ca14  1  0.07745656  0.33293583  0.82545383  1
  Ca2+  Ca15  1  0.08417251  0.82792354  0.15883916  1
  Ca2+  Ca16  1  0.08602073  0.82877387  0.50200488  1
  Ca2+  Ca17  1  0.09657623  0.82389783  0.82858650  1
  Ca2+  Ca18  1  0.58233219  0.32866100  0.16231007  1
  Ca2+  Ca19  1  0.58576462  0.32765533  0.49133293  1
  Ca2+  Ca20  1  0.57306170  0.33429128  0.83389014  1
  Ca2+  Ca21  1  0.58711437  0.82845651  0.16128513  1
  Ca2+  Ca22  1  0.57968963  0.84041941  0.49565947  1
  Ca2+  Ca23  1  0.57573400  0.82828316  0.82914710  1
  Ca2+  Ca24  1  0.33162884  0.41609270  0.16301412  1
  Ca2+  Ca25  1  0.32465410  0.41865896  0.50747575  1
  Ca2+  Ca26  1  0.31943416  0.41770985  0.84471789  1
  Ca2+  Ca27  1  0.32998221  0.92528296  0.16735436  1
  Ca2+  Ca28  1  0.33126258  0.92242745  0.50655377  1
  Ca2+  Ca29  1  0.32480309  0.91844253  0.83802753  1
  Ca2+  Ca30  1  0.83168338  0.41808347  0.17526677  1
  Ca2+  Ca31  1  0.83797170  0.41832680  0.50062931  1
  Ca2+  Ca32  1  0.84274377  0.41920573  0.83432432  1
  Ca2+  Ca33  1  0.82831702  0.92954233  0.17377715  1
  Ca2+  Ca34  1  0.83002138  0.92794739  0.50379301  1
  Ca2+  Ca35  1  0.84166389  0.93237195  0.83683295  1
  Ca2+  Ca36  1  0.42024322  0.16455430  0.16199871  1
  Ca2+  Ca37  1  0.42277557  0.16448814  0.48973493  1
  Ca2+  Ca38  1  0.40809414  0.17080802  0.83410773  1
  Ca2+  Ca39  1  0.42449741  0.66456326  0.15427364  1
  Ca2+  Ca40  1  0.41452637  0.67737079  0.49800275  1
  Ca2+  Ca41  1  0.41744194  0.66758910  0.83103718  1
  Ca2+  Ca42  1  0.90614640  0.17633970  0.16194339  1
  Ca2+  Ca43  1  0.91456385  0.17213144  0.49567285  1
  Ca2+  Ca44  1  0.91905306  0.17466425  0.82474858  1
  Ca2+  Ca45  1  0.91896981  0.66766497  0.15970836  1
  Ca2+  Ca46  1  0.91903004  0.65737049  0.49872246  1
  Ca2+  Ca47  1  0.92980435  0.66546154  0.82618927  1
  Al0+  Al48  1  -0.00137407  0.00131047  0.01223069  1
  Al0+  Al49  1  0.00206023  -0.00215744  0.33440669  1
  Al0+  Al50  1  0.00153632  -0.00151784  0.67108980  1
  Al0+  Al51  1  -0.00043897  0.50140547  -0.00283939  1
  Al0+  Al52  1  0.00201419  0.49883812  0.33072642  1
  Al0+  Al53  1  -0.00067284  0.49968003  0.66646676  1
  Al0+  Al54  1  0.50207457  -0.00134240  0.00008447  1
  Al0+  Al55  1  0.49801932  0.00103170  0.33381338  1
  Al0+  Al56  1  0.50044733  -0.00027454  0.66426980  1
  Al0+  Al57  1  0.50047220  0.49869865  -0.00684334  1
  Al0+  Al58  1  0.49837637  0.50141139  0.33928828  1
  Al0+  Al59  1  0.50213218  0.50074553  0.66367083  1
  Al0+  Al60  1  0.24853142  0.24936687  0.00473642  1
  Al0+  Al61  1  0.24919740  0.25038093  0.33759383  1
  Al0+  Al62  1  0.24929151  0.25107037  0.66571468  1
  Al0+  Al63  1  0.25109098  0.74907259  0.00450983  1
  Al0+  Al64  1  0.25053693  0.74997907  0.33044956  1
  Al0+  Al65  1  0.25226831  0.75096185  0.65889805  1
  Al0+  Al66  1  0.74924878  0.25188305  -0.00292298  1
  Al0+  Al67  1  0.74846441  0.25051611  0.33151274  1
  Al0+  Al68  1  0.74731797  0.25143029  0.66838793  1
  Al0+  Al69  1  0.75086190  0.75086518  -0.00701268  1
  Al0+  Al70  1  0.75069037  0.75021929  0.34014219  1
  Al0+  Al71  1  0.74996197  0.74922513  0.67119908  1
  Al0+  Al72  1  0.82038230  0.56986646  0.68313476  1
  Al0+  Al73  1  0.32297113  0.07168722  0.01411448  1
  Al0+  Al74  1  0.43126057  0.82008134  0.65224691  1
  Al0+  Al75  1  0.18046854  0.92855660  0.67891209  1
  Al0+  Al76  1  0.06991889  0.68000844  0.65245675  1
  Al0+  Al77  1  0.92785656  0.32015658  0.65022802  1
  Al0+  Al78  1  0.07093674  0.68187869  0.98647791  1
  Al0+  Al79  1  0.56890940  0.18025598  0.31905718  1
  Al0+  Al80  1  0.67691354  0.42849383  0.34720828  1
  Al0+  Al81  1  0.81920342  0.07348013  0.01441558  1
  Al0+  Al82  1  0.92832090  0.32046492  0.98542347  1
  Al0+  Al83  1  0.93111803  0.31887741  0.31842978  1
  Al0+  Al84  1  0.31860212  0.07086374  0.34819802  1
  Al0+  Al85  1  0.82245969  0.07242495  0.34868484  1
  Al0+  Al86  1  0.07173787  0.17583979  0.65307249  1
  Al0+  Al87  1  0.57278286  0.67763847  0.98641805  1
  Al0+  Al88  1  0.17997203  0.42950499  0.68004257  1
  Al0+  Al89  1  0.17570265  0.42879597  0.01636642  1
  Al0+  Al90  1  0.17839911  0.92696480  0.01678715  1
  Al0+  Al91  1  0.32296905  0.56960697  0.01336803  1
  Al0+  Al92  1  0.82028571  0.07151028  0.68073826  1
  Al0+  Al93  1  0.82352322  0.57036766  0.34668828  1
  Al0+  Al94  1  0.42766830  0.31885445  0.98732185  1
  Al0+  Al95  1  0.67812112  0.92832230  0.34765550  1
  Si0+  Si96  1  0.92615302  0.82268441  0.65026439  1
  Si0+  Si97  1  0.17952985  0.43057707  0.34898902  1
  Si0+  Si98  1  0.42516034  0.32470636  0.31777903  1
  Si0+  Si99  1  0.32349685  0.57233689  0.68089226  1
  Si0+  Si100  1  0.67540694  0.42773322  0.68661212  1
  Si0+  Si101  1  0.07419490  0.17542471  0.31585512  1
  Si0+  Si102  1  0.07142169  0.67881014  0.31687494  1
  Si0+  Si103  1  0.42790296  0.32205868  0.65139346  1
  Si0+  Si104  1  0.82039669  0.57179255  0.01295774  1
  Si0+  Si105  1  0.57491191  0.67721448  0.64633058  1
  Si0+  Si106  1  0.57207755  0.17669889  0.98201905  1
  Si0+  Si107  1  0.67615769  0.92835313  0.68519568  1
  Si0+  Si108  1  0.42878426  0.82080025  0.31547309  1
  Si0+  Si109  1  0.17926401  0.92486861  0.35189353  1
  Si0+  Si110  1  0.57061228  0.67931904  0.32050822  1
  Si0+  Si111  1  0.56941699  0.17992208  0.65181146  1
  Si0+  Si112  1  0.42891617  0.82234458  0.98415828  1
  Si0+  Si113  1  0.07161711  0.17684791  0.98627204  1
  Si0+  Si114  1  0.67831101  0.43053952  0.01308544  1
  Si0+  Si115  1  0.92806206  0.82127734  0.31921089  1
  Si0+  Si116  1  0.67928652  0.92650995  0.01441443  1
  Si0+  Si117  1  0.32151815  0.57311867  0.34920457  1
  Si0+  Si118  1  0.32374621  0.07224252  0.68253356  1
  Si0+  Si119  1  0.92818732  0.82457397  0.98395730  1
  O2-  O120  1  0.25070027  0.00002799  0.06462453  1
  O2-  O121  1  0.24291651  -0.00199306  0.39576778  1
  O2-  O122  1  0.25165813  0.00691091  0.72530275  1
  O2-  O123  1  0.25084037  0.49882979  0.06582491  1
  O2-  O124  1  0.25163362  0.50121086  0.39078753  1
  O2-  O125  1  0.25684418  0.50271483  0.72530681  1
  O2-  O126  1  0.74491461  -0.00275099  0.05902476  1
  O2-  O127  1  0.75047495  -0.00036450  0.39795630  1
  O2-  O128  1  0.74778124  -0.00588979  0.72866652  1
  O2-  O129  1  0.74906666  0.50174004  0.05528136  1
  O2-  O130  1  0.75206915  0.49757223  0.39648080  1
  O2-  O131  1  0.74520003  0.49546746  0.73029209  1
  O2-  O132  1  0.00185024  0.24011481  0.27126175  1
  O2-  O133  1  -0.00281034  0.24457733  0.60148517  1
  O2-  O134  1  0.00359151  0.24548444  0.94120185  1
  O2-  O135  1  -0.00084331  0.74966725  0.27681689  1
  O2-  O136  1  -0.00670893  0.75268325  0.60470866  1
  O2-  O137  1  0.00004832  0.75984352  0.93917661  1
  O2-  O138  1  0.49503021  0.25714556  0.27414823  1
  O2-  O139  1  0.49770775  0.25037275  0.60913711  1
  O2-  O140  1  0.49802523  0.24025482  0.93849095  1
  O2-  O141  1  0.50103932  0.75018172  0.27498012  1
  O2-  O142  1  0.50692579  0.74694123  0.60274458  1
  O2-  O143  1  0.49655973  0.75172903  0.94104312  1
  O2-  O144  1  0.07049194  0.17870418  0.09214185  1
  O2-  O145  1  0.07615277  0.17757754  0.42129671  1
  O2-  O146  1  0.07157430  0.17628279  0.76675475  1
  O2-  O147  1  0.06582124  0.68076446  0.10024136  1
  O2-  O148  1  0.07366629  0.67862709  0.42196721  1
  O2-  O149  1  0.07152375  0.68118201  0.76525445  1
  O2-  O150  1  0.57404949  0.17877362  0.08743038  1
  O2-  O151  1  0.56649238  0.18097027  0.43274608  1
  O2-  O152  1  0.56856269  0.18023637  0.75701385  1
  O2-  O153  1  0.57414564  0.67930802  0.10021747  1
  O2-  O154  1  0.56690437  0.67980958  0.42531706  1
  O2-  O155  1  0.57297851  0.67657701  0.75203049  1
  O2-  O156  1  0.17874484  0.43202830  0.24419390  1
  O2-  O157  1  0.18233241  0.43119599  0.56609037  1
  O2-  O158  1  0.17578124  0.43070245  0.90286598  1
  O2-  O159  1  0.18237176  0.92071502  0.24672244  1
  O2-  O160  1  0.18429815  0.92773250  0.56560632  1
  O2-  O161  1  0.18083535  0.92627244  0.90308820  1
  O2-  O162  1  0.67417594  0.43242615  0.23319631  1
  O2-  O163  1  0.67133123  0.42843881  0.58133956  1
  O2-  O164  1  0.67781861  0.43070691  0.90799017  1
  O2-  O165  1  0.68098188  0.92576524  0.23380306  1
  O2-  O166  1  0.67457752  0.93052560  0.57978546  1
  O2-  O167  1  0.67922625  0.92660455  0.90882351  1
  O2-  O168  1  0.43342018  0.32095444  0.10028653  1
  O2-  O169  1  0.42435563  0.32382427  0.42386506  1
  O2-  O170  1  0.42843128  0.32204917  0.75638373  1
  O2-  O171  1  0.43193539  0.82317245  0.09002719  1
  O2-  O172  1  0.42658449  0.81848358  0.42064690  1
  O2-  O173  1  0.43246607  0.81875829  0.76524927  1
  O2-  O174  1  0.92614615  0.32109324  0.09881079  1
  O2-  O175  1  0.93470142  0.32155581  0.43108352  1
  O2-  O176  1  0.93024690  0.31978311  0.76392170  1
  O2-  O177  1  0.92431053  0.81951648  0.08983296  1
  O2-  O178  1  0.92953271  0.82245359  0.42411566  1
  O2-  O179  1  0.92654657  0.82192951  0.75583944  1
  O2-  O180  1  0.31935991  0.06894078  0.23547087  1
  O2-  O181  1  0.32604025  0.07034499  0.57671183  1
  O2-  O182  1  0.32240598  0.06952030  0.90038193  1
  O2-  O183  1  0.32388619  0.57461722  0.24464987  1
  O2-  O184  1  0.32282344  0.57025104  0.57450708  1
  O2-  O185  1  0.32245111  0.56859069  0.89975384  1
  O2-  O186  1  0.81888497  0.07124501  0.23510547  1
  O2-  O187  1  0.81734516  0.07138810  0.56798050  1
  O2-  O188  1  0.81856607  0.07302511  0.90106606  1
  O2-  O189  1  0.82140035  0.57181168  0.23247466  1
  O2-  O190  1  0.81922273  0.56843165  0.57013176  1
  O2-  O191  1  0.81985197  0.57106774  0.90802487  1
  O2-  O192  1  0.05603923  0.07877558  0.27262393  1
  O2-  O193  1  0.04871101  0.07521026  0.60171133  1
  O2-  O194  1  0.04499221  0.08169208  0.94384815  1
  O2-  O195  1  0.04483616  0.58739284  0.26869212  1
  O2-  O196  1  0.03805650  0.58410563  0.59776236  1
  O2-  O197  1  0.03648195  0.58709150  0.93177882  1
  O2-  O198  1  0.53654556  0.08386369  0.26489542  1
  O2-  O199  1  0.54311388  0.08815389  0.60391662  1
  O2-  O200  1  0.55367019  0.08082510  0.93738261  1
  O2-  O201  1  0.54096349  0.58724807  0.27382478  1
  O2-  O202  1  0.54910237  0.58358802  0.59982321  1
  O2-  O203  1  0.54349349  0.58280183  0.92873836  1
  O2-  O204  1  0.16683090  0.20689250  0.27025165  1
  O2-  O205  1  0.16992945  0.20682405  0.59881566  1
  O2-  O206  1  0.16618116  0.19851587  0.94135052  1
  O2-  O207  1  0.16297966  0.70821047  0.26900741  1
  O2-  O208  1  0.16563349  0.71052407  0.59565798  1
  O2-  O209  1  0.17019184  0.70756325  0.93528697  1
  O2-  O210  1  0.66484098  0.20978974  0.26348736  1
  O2-  O211  1  0.66006004  0.20968354  0.60376107  1
  O2-  O212  1  0.66172317  0.21083237  0.93290611  1
  O2-  O213  1  0.66394856  0.70523178  0.27495441  1
  O2-  O214  1  0.66934055  0.70253459  0.60252003  1
  O2-  O215  1  0.66735250  0.71013517  0.92836606  1
  O2-  O216  1  0.07925413  0.46442184  0.07015605  1
  O2-  O217  1  0.08961876  0.46213514  0.39705855  1
  O2-  O218  1  0.08428295  0.46167341  0.73264672  1
  O2-  O219  1  0.08075132  0.95293526  0.07284848  1
  O2-  O220  1  0.08346691  0.94389905  0.39522319  1
  O2-  O221  1  0.08337616  0.95124445  0.73518064  1
  O2-  O222  1  0.58702138  0.45810023  0.06026640  1
  O2-  O223  1  0.57953072  0.45781342  0.40346289  1
  O2-  O224  1  0.58191138  0.45658863  0.73299268  1
  O2-  O225  1  0.58481273  0.94723342  0.06048933  1
  O2-  O226  1  0.57939621  0.95682004  0.39923786  1
  O2-  O227  1  0.58387038  0.95828343  0.73216365  1
  O2-  O228  1  0.20154531  0.33047668  0.06961586  1
  O2-  O229  1  0.20597630  0.33917254  0.39747996  1
  O2-  O230  1  0.21042963  0.33278863  0.73388983  1
  O2-  O231  1  0.20813066  0.82994893  0.07175238  1
  O2-  O232  1  0.21022219  0.83243336  0.39834268  1
  O2-  O233  1  0.21779082  0.83260584  0.73061856  1
  O2-  O234  1  0.70595642  0.33876771  0.06020487  1
  O2-  O235  1  0.70299873  0.33008449  0.39939509  1
  O2-  O236  1  0.69711378  0.33364446  0.73271435  1
  O2-  O237  1  0.70753952  0.83318293  0.06046806  1
  O2-  O238  1  0.70447116  0.83100264  0.40394481  1
  O2-  O239  1  0.69642597  0.83285349  0.72922090  1
  O2-  O240  1  0.44868555  0.42032253  0.27462042  1
  O2-  O241  1  0.45581123  0.41412549  0.60349048  1
  O2-  O242  1  0.46228533  0.41210708  0.92884382  1
  O2-  O243  1  0.45546804  0.91263735  0.26895565  1
  O2-  O244  1  0.46159454  0.91706825  0.59694351  1
  O2-  O245  1  0.45636681  0.91458617  0.93565633  1
  O2-  O246  1  0.96540098  0.41503061  0.26368016  1
  O2-  O247  1  0.96036205  0.41734184  0.59769937  1
  O2-  O248  1  0.95908790  0.41731181  0.93258565  1
  O2-  O249  1  0.95617177  0.91241414  0.26955047  1
  O2-  O250  1  0.95430812  0.91518708  0.60396177  1
  O2-  O251  1  0.95110006  0.92102634  0.94351750  1
  O2-  O252  1  0.33148803  0.29816336  0.27262735  1
  O2-  O253  1  0.33639831  0.29664199  0.60258502  1
  O2-  O254  1  0.32948880  0.29095521  0.93419466  1
  O2-  O255  1  0.33772388  0.79070250  0.26751700  1
  O2-  O256  1  0.33792196  0.78804868  0.59217419  1
  O2-  O257  1  0.33516056  0.79665292  0.93972027  1
  O2-  O258  1  0.83230916  0.29347093  0.26602667  1
  O2-  O259  1  0.82633880  0.29614382  0.60124813  1
  O2-  O260  1  0.83150728  0.29175532  0.93047122  1
  O2-  O261  1  0.83598866  0.79299062  0.27214412  1
  O2-  O262  1  0.83085362  0.79914509  0.60638731  1
  O2-  O263  1  0.83671157  0.79822825  0.93405352  1
  O2-  O264  1  0.42261238  0.04314534  0.06602072  1
  O2-  O265  1  0.41411085  0.03782281  0.40232127  1
  O2-  O266  1  0.41626328  0.04359500  0.72901983  1
  O2-  O267  1  0.42199249  0.53920988  0.06530991  1
  O2-  O268  1  0.41206325  0.54823875  0.40056444  1
  O2-  O269  1  0.41905432  0.54976979  0.72416618  1
  O2-  O270  1  0.91378775  0.04556685  0.07271878  1
  O2-  O271  1  0.92210614  0.04379824  0.39904871  1
  O2-  O272  1  0.91653699  0.04080207  0.73516119  1
  O2-  O273  1  0.91135399  0.54406840  0.06091524  1
  O2-  O274  1  0.92249561  0.54147901  0.39836158  1
  O2-  O275  1  0.91677812  0.53869173  0.73643673  1
  O2-  O276  1  0.29626386  0.16908296  0.06971120  1
  O2-  O277  1  0.29230227  0.16865151  0.40303853  1
  O2-  O278  1  0.30211905  0.16786211  0.72508066  1
  O2-  O279  1  0.29815094  0.66765179  0.06839812  1
  O2-  O280  1  0.29153540  0.66488961  0.39609129  1
  O2-  O281  1  0.29810383  0.66651419  0.72360138  1
  O2-  O282  1  0.78404099  0.16949341  0.06677720  1
  O2-  O283  1  0.79086403  0.16980579  0.40032226  1
  O2-  O284  1  0.78501580  0.16693759  0.73474648  1
  O2-  O285  1  0.79357028  0.66516673  0.05806403  1
  O2-  O286  1  0.79582330  0.66740305  0.40206158  1
  O2-  O287  1  0.79122066  0.66720450  0.73760716  1
