# generated using pymatgen
data_Ca2Al2SiO7
_symmetry_space_group_name_H-M   'P 1'
_cell_length_a   15.45832829
_cell_length_b   15.45951271
_cell_length_c   15.28316329
_cell_angle_alpha   90.00372879
_cell_angle_beta   90.00852054
_cell_angle_gamma   90.00084531
_symmetry_Int_Tables_number   1
_chemical_formula_structural   Ca2Al2SiO7
_chemical_formula_sum   'Ca48 Al48 Si24 O168'
_cell_volume   3652.34315059
_cell_formula_units_Z   24
loop_
 _symmetry_equiv_pos_site_id
 _symmetry_equiv_pos_as_xyz
  1  'x, y, z'
loop_
 _atom_type_symbol
 _atom_type_oxidation_number
  Ca2+  2.0
  Al0+  0.0
  Si0+  0.0
  O2-  -2.0
loop_
 _atom_site_type_symbol
 _atom_site_label
 _atom_site_symmetry_multiplicity
 _atom_site_fract_x
 _atom_site_fract_y
 _atom_site_fract_z
 _atom_site_occupancy
  Ca2+  Ca0  1  0.16287474  0.07675156  0.17084897  1
  Ca2+  Ca1  1  0.16325147  0.07316854  0.50160549  1
  Ca2+  Ca2  1  0.16567801  0.07442319  0.84051638  1
  Ca2+  Ca3  1  0.17236178  0.58114176  0.16478946  1
  Ca2+  Ca4  1  0.17485444  0.58507291  0.50706181  1
  Ca2+  Ca5  1  0.18063890  0.57968587  0.84291520  1
  Ca2+  Ca6  1  0.66041421  0.07663782  0.17088653  1
  Ca2+  Ca7  1  0.65920590  0.07333207  0.50296822  1
  Ca2+  Ca8  1  0.66153180  0.07571024  0.83755780  1
  Ca2+  Ca9  1  0.67179514  0.57566353  0.17651376  1
  Ca2+  Ca10  1  0.67587817  0.58749095  0.50462123  1
  Ca2+  Ca11  1  0.67117641  0.59380054  0.83334775  1
  Ca2+  Ca12  1  0.08912627  0.32255684  0.15896094  1
  Ca2+  Ca13  1  0.08161537  0.32648083  0.49207591  1
  Ca2+  Ca14  1  0.09403007  0.32831222  0.83574750  1
  Ca2+  Ca15  1  0.07171429  0.84210494  0.16142580  1
  Ca2+  Ca16  1  0.07218648  0.84040023  0.49443797  1
  Ca2+  Ca17  1  0.07274143  0.84325350  0.83004687  1
  Ca2+  Ca18  1  0.58550285  0.32360112  0.15982137  1
  Ca2+  Ca19  1  0.58981943  0.32221522  0.49381393  1
  Ca2+  Ca20  1  0.58175660  0.32292029  0.82938930  1
  Ca2+  Ca21  1  0.57213174  0.84177164  0.16156020  1
  Ca2+  Ca22  1  0.58374179  0.83099006  0.49438401  1
  Ca2+  Ca23  1  0.57833187  0.83427245  0.82861399  1
  Ca2+  Ca24  1  0.33672616  0.41633905  0.16287257  1
  Ca2+  Ca25  1  0.33316506  0.42321987  0.50631029  1
  Ca2+  Ca26  1  0.33752008  0.42659011  0.84284127  1
  Ca2+  Ca27  1  0.32364392  0.90922706  0.17170210  1
  Ca2+  Ca28  1  0.32102070  0.90861780  0.50168915  1
  Ca2+  Ca29  1  0.32103097  0.91128898  0.84189387  1
  Ca2+  Ca30  1  0.82814742  0.42371492  0.17707759  1
  Ca2+  Ca31  1  0.82908817  0.42769438  0.50199531  1
  Ca2+  Ca32  1  0.83390995  0.42491581  0.83585953  1
  Ca2+  Ca33  1  0.82254457  0.91069471  0.17048326  1
  Ca2+  Ca34  1  0.82363988  0.90903617  0.50336611  1
  Ca2+  Ca35  1  0.82232521  0.90844008  0.83675380  1
  Ca2+  Ca36  1  0.42906015  0.17019395  0.15781861  1
  Ca2+  Ca37  1  0.42820101  0.16324487  0.49522564  1
  Ca2+  Ca38  1  0.42584718  0.16841235  0.83352696  1
  Ca2+  Ca39  1  0.41465640  0.67679425  0.16110159  1
  Ca2+  Ca40  1  0.42097774  0.67016608  0.49833811  1
  Ca2+  Ca41  1  0.41742996  0.66733170  0.82964769  1
  Ca2+  Ca42  1  0.92900719  0.16145429  0.16317831  1
  Ca2+  Ca43  1  0.92252507  0.16595541  0.49330832  1
  Ca2+  Ca44  1  0.92271443  0.16554182  0.83348092  1
  Ca2+  Ca45  1  0.91200116  0.67647055  0.16471804  1
  Ca2+  Ca46  1  0.90964189  0.67469825  0.49714280  1
  Ca2+  Ca47  1  0.91599717  0.67772309  0.82650722  1
  Al0+  Al48  1  -0.00184557  0.00126570  -0.00587864  1
  Al0+  Al49  1  -0.00093068  -0.00088402  0.32921091  1
  Al0+  Al50  1  -0.00188494  0.00092439  0.66549905  1
  Al0+  Al51  1  0.00171210  0.50062716  0.00479107  1
  Al0+  Al52  1  0.00167858  0.50106757  0.33779550  1
  Al0+  Al53  1  -0.00046197  0.49976711  0.67070220  1
  Al0+  Al54  1  0.49840426  -0.00201499  -0.00588239  1
  Al0+  Al55  1  0.49830547  0.00070375  0.32961742  1
  Al0+  Al56  1  0.49710049  0.00060757  0.66584132  1
  Al0+  Al57  1  0.50302925  0.50083037  0.00204050  1
  Al0+  Al58  1  0.49980065  0.49874481  0.33841161  1
  Al0+  Al59  1  0.50069419  0.49989826  0.66560538  1
  Al0+  Al60  1  0.25208305  0.25020602  -0.00595169  1
  Al0+  Al61  1  0.25175673  0.24939491  0.33124417  1
  Al0+  Al62  1  0.25075103  0.24862578  0.66404074  1
  Al0+  Al63  1  0.24861472  0.74916332  0.00557604  1
  Al0+  Al64  1  0.24849658  0.74946287  0.33507406  1
  Al0+  Al65  1  0.24759700  0.74861933  0.67621228  1
  Al0+  Al66  1  0.75386715  0.24931274  -0.00427076  1
  Al0+  Al67  1  0.75162980  0.24988359  0.33217508  1
  Al0+  Al68  1  0.75142822  0.24978856  0.66217925  1
  Al0+  Al69  1  0.74991061  0.75200475  0.00220282  1
  Al0+  Al70  1  0.74947473  0.74966093  0.33504958  1
  Al0+  Al71  1  0.74872913  0.75055202  0.66736893  1
  Al0+  Al72  1  0.17690348  0.93065751  0.01508283  1
  Al0+  Al73  1  0.07139012  0.17996380  0.98467542  1
  Al0+  Al74  1  0.92867226  0.81979007  0.98506493  1
  Al0+  Al75  1  0.56984317  0.68033858  0.65309807  1
  Al0+  Al76  1  0.67822247  0.93037849  0.01373958  1
  Al0+  Al77  1  0.67666821  0.93113224  0.34624875  1
  Al0+  Al78  1  0.17759396  0.93066622  0.68127277  1
  Al0+  Al79  1  0.43143261  0.32295331  0.98437812  1
  Al0+  Al80  1  0.17771024  0.92964611  0.34691742  1
  Al0+  Al81  1  0.57397701  0.17734298  0.98325005  1
  Al0+  Al82  1  0.67786122  0.42645890  0.34905416  1
  Al0+  Al83  1  0.07107736  0.17951578  0.31986436  1
  Al0+  Al84  1  0.57195636  0.17971226  0.31868734  1
  Al0+  Al85  1  0.32472636  0.57135554  0.01829465  1
  Al0+  Al86  1  0.67824599  0.93012292  0.67995903  1
  Al0+  Al87  1  0.18024008  0.42731698  0.01600959  1
  Al0+  Al88  1  0.57097138  0.17792372  0.65053932  1
  Al0+  Al89  1  0.92822008  0.81864394  0.31878019  1
  Al0+  Al90  1  0.81990600  0.57122658  0.68289336  1
  Al0+  Al91  1  0.42622376  0.81941222  0.98583764  1
  Al0+  Al92  1  0.92976719  0.82054048  0.65184825  1
  Al0+  Al93  1  0.42799115  0.81924146  0.32117845  1
  Al0+  Al94  1  0.32217935  0.56957804  0.68074135  1
  Al0+  Al95  1  0.82162806  0.57187225  0.34943262  1
  Si0+  Si96  1  0.42383354  0.82141214  0.65121046  1
  Si0+  Si97  1  0.82295948  0.07090069  0.34841881  1
  Si0+  Si98  1  0.32125055  0.07299418  0.34933473  1
  Si0+  Si99  1  0.57154388  0.67712630  0.31753342  1
  Si0+  Si100  1  0.32190039  0.07138152  0.01571499  1
  Si0+  Si101  1  0.42860128  0.32185220  0.64849445  1
  Si0+  Si102  1  0.07077380  0.17990476  0.65041261  1
  Si0+  Si103  1  0.92927156  0.32350960  0.65043647  1
  Si0+  Si104  1  0.82123362  0.57208589  0.01516690  1
  Si0+  Si105  1  0.18058087  0.42667149  0.34884982  1
  Si0+  Si106  1  0.07381644  0.67598564  0.31673393  1
  Si0+  Si107  1  0.82202428  0.07434961  0.68277498  1
  Si0+  Si108  1  0.93018242  0.32400881  0.31726107  1
  Si0+  Si109  1  0.92920139  0.32530189  0.98308389  1
  Si0+  Si110  1  0.67959751  0.42609409  0.68413072  1
  Si0+  Si111  1  0.57256818  0.67891168  0.98587434  1
  Si0+  Si112  1  0.32038578  0.57161388  0.35001606  1
  Si0+  Si113  1  0.07110168  0.67631095  0.98378513  1
  Si0+  Si114  1  0.17812605  0.42575785  0.68213507  1
  Si0+  Si115  1  0.42788763  0.32407409  0.31704763  1
  Si0+  Si116  1  0.68184371  0.42694961  0.01304641  1
  Si0+  Si117  1  0.07200883  0.67675047  0.65212283  1
  Si0+  Si118  1  0.82183112  0.07347455  0.01617418  1
  Si0+  Si119  1  0.32122679  0.07347711  0.68418204  1
  O2-  O120  1  0.25294205  0.00402254  0.06194819  1
  O2-  O121  1  0.25262406  0.00416175  0.39414983  1
  O2-  O122  1  0.25400380  0.00342010  0.72804759  1
  O2-  O123  1  0.25327797  0.49751528  0.06739662  1
  O2-  O124  1  0.25047636  0.49843117  0.39159293  1
  O2-  O125  1  0.24757394  0.49355505  0.72503811  1
  O2-  O126  1  0.74988372  0.00850334  0.06007531  1
  O2-  O127  1  0.75150564  0.00582205  0.39346812  1
  O2-  O128  1  0.75131601  0.00741852  0.72580215  1
  O2-  O129  1  0.75254932  0.49826287  0.05561573  1
  O2-  O130  1  0.74798779  0.50063965  0.39868551  1
  O2-  O131  1  0.74474371  0.49714837  0.73060085  1
  O2-  O132  1  -0.00158832  0.25578333  0.27233414  1
  O2-  O133  1  0.00158093  0.25305144  0.60885482  1
  O2-  O134  1  -0.00029764  0.25851801  0.93837096  1
  O2-  O135  1  0.00310169  0.74295176  0.27337700  1
  O2-  O136  1  0.00526012  0.74581448  0.60571145  1
  O2-  O137  1  0.00462713  0.74627448  0.93836110  1
  O2-  O138  1  0.50010501  0.25845006  0.27448118  1
  O2-  O139  1  0.49694102  0.25362994  0.60346852  1
  O2-  O140  1  0.50324984  0.25120794  0.93403600  1
  O2-  O141  1  0.50376366  0.74600597  0.27303331  1
  O2-  O142  1  0.49490504  0.75535465  0.60663521  1
  O2-  O143  1  0.50094351  0.74397298  0.94114757  1
  O2-  O144  1  0.06845800  0.17930499  0.09776201  1
  O2-  O145  1  0.06918723  0.18167772  0.43367292  1
  O2-  O146  1  0.07074552  0.18065947  0.75525614  1
  O2-  O147  1  0.06756254  0.67418089  0.08950012  1
  O2-  O148  1  0.07684823  0.67570818  0.42251814  1
  O2-  O149  1  0.07016071  0.67542827  0.75746398  1
  O2-  O150  1  0.57370931  0.17976259  0.09693646  1
  O2-  O151  1  0.56883338  0.17893459  0.43200952  1
  O2-  O152  1  0.57071072  0.18009139  0.76317757  1
  O2-  O153  1  0.57429892  0.67894654  0.09149339  1
  O2-  O154  1  0.56995336  0.67787111  0.42336223  1
  O2-  O155  1  0.56944761  0.68193565  0.76632756  1
  O2-  O156  1  0.18091530  0.42535963  0.24445838  1
  O2-  O157  1  0.17843112  0.42498166  0.57587533  1
  O2-  O158  1  0.17974744  0.43111136  0.90212525  1
  O2-  O159  1  0.17735397  0.93115747  0.23415337  1
  O2-  O160  1  0.17715270  0.93232004  0.56783140  1
  O2-  O161  1  0.17670006  0.93319510  0.90170884  1
  O2-  O162  1  0.68023784  0.42789880  0.23467475  1
  O2-  O163  1  0.68347933  0.42465371  0.57889712  1
  O2-  O164  1  0.68374697  0.42660765  0.90793790  1
  O2-  O165  1  0.67654266  0.93201614  0.23325622  1
  O2-  O166  1  0.67925405  0.93035005  0.56662410  1
  O2-  O167  1  0.68024769  0.92839961  0.90048959  1
  O2-  O168  1  0.43483611  0.32131567  0.09833773  1
  O2-  O169  1  0.42404870  0.32280869  0.42280500  1
  O2-  O170  1  0.42828466  0.32109847  0.75361733  1
  O2-  O171  1  0.42744099  0.81950244  0.09919107  1
  O2-  O172  1  0.42581103  0.81551039  0.43449663  1
  O2-  O173  1  0.42337375  0.81966562  0.75673905  1
  O2-  O174  1  0.92706613  0.32499849  0.08842300  1
  O2-  O175  1  0.93310040  0.32360583  0.42335236  1
  O2-  O176  1  0.92849761  0.32372106  0.75539890  1
  O2-  O177  1  0.92685341  0.81746586  0.09820952  1
  O2-  O178  1  0.92938440  0.81908971  0.43200110  1
  O2-  O179  1  0.93051605  0.81987849  0.76494478  1
  O2-  O180  1  0.31989395  0.07480050  0.24408166  1
  O2-  O181  1  0.31898950  0.07632649  0.57843051  1
  O2-  O182  1  0.31979894  0.06925374  0.90975287  1
  O2-  O183  1  0.32019262  0.57208940  0.24558932  1
  O2-  O184  1  0.31931405  0.56878440  0.56683633  1
  O2-  O185  1  0.32375012  0.57042872  0.90459861  1
  O2-  O186  1  0.82455032  0.06952729  0.24293337  1
  O2-  O187  1  0.82480970  0.07540344  0.57718974  1
  O2-  O188  1  0.82275224  0.07390828  0.91037514  1
  O2-  O189  1  0.82043604  0.56969135  0.23515401  1
  O2-  O190  1  0.82021839  0.56904061  0.57034326  1
  O2-  O191  1  0.82036770  0.57236991  0.90990017  1
  O2-  O192  1  0.03772801  0.08490567  0.26453438  1
  O2-  O193  1  0.03914213  0.08992306  0.60204346  1
  O2-  O194  1  0.03500877  0.08694351  0.92730535  1
  O2-  O195  1  0.05085302  0.58092530  0.27183064  1
  O2-  O196  1  0.04768103  0.58216004  0.60613600  1
  O2-  O197  1  0.04503857  0.58287064  0.93714528  1
  O2-  O198  1  0.53679450  0.08544822  0.26358202  1
  O2-  O199  1  0.53666917  0.08203910  0.59630000  1
  O2-  O200  1  0.54127700  0.08101636  0.92939729  1
  O2-  O201  1  0.54535457  0.58232879  0.27374692  1
  O2-  O202  1  0.54165407  0.58254004  0.59897827  1
  O2-  O203  1  0.55300676  0.58407663  0.93982194  1
  O2-  O204  1  0.16815036  0.20928996  0.26687528  1
  O2-  O205  1  0.16315824  0.20524276  0.60228427  1
  O2-  O206  1  0.16755141  0.20789778  0.92847757  1
  O2-  O207  1  0.16616860  0.70273223  0.26958063  1
  O2-  O208  1  0.16677470  0.70155258  0.60772138  1
  O2-  O209  1  0.16604538  0.69986454  0.94099833  1
  O2-  O210  1  0.67039804  0.20638250  0.26596337  1
  O2-  O211  1  0.66876922  0.20756018  0.59758825  1
  O2-  O212  1  0.67338508  0.20452765  0.93113034  1
  O2-  O213  1  0.66562256  0.69993064  0.27231915  1
  O2-  O214  1  0.66556173  0.71198924  0.59840590  1
  O2-  O215  1  0.66457826  0.70868564  0.93860018  1
  O2-  O216  1  0.08157224  0.45530549  0.07044258  1
  O2-  O217  1  0.08880030  0.45273571  0.39767701  1
  O2-  O218  1  0.08461407  0.44904838  0.72850535  1
  O2-  O219  1  0.07955693  0.96483419  0.06558486  1
  O2-  O220  1  0.08154577  0.96348724  0.40030159  1
  O2-  O221  1  0.08168443  0.96615103  0.73374162  1
  O2-  O222  1  0.59113683  0.45413186  0.06189241  1
  O2-  O223  1  0.57816293  0.44947178  0.40228989  1
  O2-  O224  1  0.58408755  0.44787936  0.72663292  1
  O2-  O225  1  0.57946582  0.95875069  0.06452788  1
  O2-  O226  1  0.57979798  0.96183799  0.40004978  1
  O2-  O227  1  0.57941325  0.95818228  0.73129273  1
  O2-  O228  1  0.20789966  0.32732050  0.06602856  1
  O2-  O229  1  0.20940137  0.33547286  0.39798896  1
  O2-  O230  1  0.20341068  0.33128326  0.72659048  1
  O2-  O231  1  0.20355668  0.83309190  0.06829371  1
  O2-  O232  1  0.20801155  0.83271647  0.40133897  1
  O2-  O233  1  0.20365547  0.83376346  0.73640431  1
  O2-  O234  1  0.71130788  0.33541203  0.06038290  1
  O2-  O235  1  0.71031710  0.32893759  0.40215843  1
  O2-  O236  1  0.71019161  0.33360380  0.73019071  1
  O2-  O237  1  0.71223100  0.83520549  0.06918655  1
  O2-  O238  1  0.70703926  0.83391768  0.39875688  1
  O2-  O239  1  0.71127181  0.83513176  0.73475228  1
  O2-  O240  1  0.44936969  0.41937153  0.27276066  1
  O2-  O241  1  0.45292629  0.41548091  0.60204784  1
  O2-  O242  1  0.46130767  0.42174142  0.93257794  1
  O2-  O243  1  0.45542161  0.91612706  0.26689222  1
  O2-  O244  1  0.44407154  0.91668442  0.60677849  1
  O2-  O245  1  0.45555445  0.91456939  0.92918557  1
  O2-  O246  1  0.95588334  0.41810603  0.27243784  1
  O2-  O247  1  0.95782320  0.41504582  0.60246733  1
  O2-  O248  1  0.95317331  0.41990658  0.93774526  1
  O2-  O249  1  0.95938810  0.91454817  0.26441109  1
  O2-  O250  1  0.95937944  0.91806399  0.59842733  1
  O2-  O251  1  0.95720402  0.91626246  0.93045690  1
  O2-  O252  1  0.33581660  0.29597570  0.26928855  1
  O2-  O253  1  0.33423253  0.29645299  0.60188843  1
  O2-  O254  1  0.33340689  0.29678536  0.92993845  1
  O2-  O255  1  0.33167600  0.78615507  0.26749600  1
  O2-  O256  1  0.33032013  0.79114167  0.60667997  1
  O2-  O257  1  0.32852816  0.78866263  0.93391341  1
  O2-  O258  1  0.83658392  0.29981615  0.27144141  1
  O2-  O259  1  0.83902713  0.29490592  0.60074076  1
  O2-  O260  1  0.83785375  0.29771350  0.93305748  1
  O2-  O261  1  0.83146266  0.78710508  0.26477437  1
  O2-  O262  1  0.83352110  0.78745284  0.59948455  1
  O2-  O263  1  0.83263808  0.78547337  0.93172426  1
  O2-  O264  1  0.41574835  0.04544100  0.06034714  1
  O2-  O265  1  0.41406895  0.04586061  0.39572131  1
  O2-  O266  1  0.41515100  0.05039461  0.72964247  1
  O2-  O267  1  0.42410485  0.54488117  0.07108671  1
  O2-  O268  1  0.41221562  0.54539916  0.39840944  1
  O2-  O269  1  0.41910595  0.53943093  0.73414437  1
  O2-  O270  1  0.91420195  0.04373348  0.06186719  1
  O2-  O271  1  0.91514325  0.04285312  0.39633894  1
  O2-  O272  1  0.91486265  0.04754170  0.72983458  1
  O2-  O273  1  0.91317441  0.54697176  0.06298496  1
  O2-  O274  1  0.92070910  0.54435566  0.40291320  1
  O2-  O275  1  0.91651079  0.53923851  0.73717370  1
  O2-  O276  1  0.29881512  0.16629771  0.05918318  1
  O2-  O277  1  0.29634869  0.16652151  0.39735996  1
  O2-  O278  1  0.29381786  0.16680875  0.73051982  1
  O2-  O279  1  0.29103385  0.66739959  0.07285108  1
  O2-  O280  1  0.28902249  0.66112575  0.39975284  1
  O2-  O281  1  0.29057535  0.66394151  0.73784486  1
  O2-  O282  1  0.80308738  0.16914520  0.06179736  1
  O2-  O283  1  0.80334886  0.16660636  0.39286525  1
  O2-  O284  1  0.79981211  0.16917463  0.72848060  1
  O2-  O285  1  0.78971011  0.66182829  0.06374077  1
  O2-  O286  1  0.79131757  0.66902165  0.40315054  1
  O2-  O287  1  0.78727308  0.66679431  0.73695727  1
