# generated using pymatgen
data_Ca2Al2SiO7
_symmetry_space_group_name_H-M   'P 1'
_cell_length_a   15.45992483
_cell_length_b   15.46204909
_cell_length_c   15.28477911
_cell_angle_alpha   90.02265271
_cell_angle_beta   90.00579506
_cell_angle_gamma   89.99322992
_symmetry_Int_Tables_number   1
_chemical_formula_structural   Ca2Al2SiO7
_chemical_formula_sum   'Ca48 Al48 Si24 O168'
_cell_volume   3653.70562185
_cell_formula_units_Z   24
loop_
 _symmetry_equiv_pos_site_id
 _symmetry_equiv_pos_as_xyz
  1  'x, y, z'
loop_
 _atom_type_symbol
 _atom_type_oxidation_number
  Ca2+  2.0
  Al0+  0.0
  Si0+  0.0
  O2-  -2.0
loop_
 _atom_site_type_symbol
 _atom_site_label
 _atom_site_symmetry_multiplicity
 _atom_site_fract_x
 _atom_site_fract_y
 _atom_site_fract_z
 _atom_site_occupancy
  Ca2+  Ca0  1  0.16765365  0.07268764  0.17107828  1
  Ca2+  Ca1  1  0.16919863  0.07573189  0.51296063  1
  Ca2+  Ca2  1  0.16987405  0.07878064  0.83089603  1
  Ca2+  Ca3  1  0.17184122  0.57161206  0.17081245  1
  Ca2+  Ca4  1  0.16630423  0.57208705  0.50614077  1
  Ca2+  Ca5  1  0.16229730  0.57283623  0.83372702  1
  Ca2+  Ca6  1  0.66135271  0.08188999  0.16975391  1
  Ca2+  Ca7  1  0.67278407  0.09372339  0.50621638  1
  Ca2+  Ca8  1  0.67422323  0.08341378  0.83582795  1
  Ca2+  Ca9  1  0.66777009  0.57768679  0.17614887  1
  Ca2+  Ca10  1  0.65999302  0.57523046  0.50512719  1
  Ca2+  Ca11  1  0.66160091  0.57995187  0.82935481  1
  Ca2+  Ca12  1  0.07585546  0.34313417  0.16158589  1
  Ca2+  Ca13  1  0.07850267  0.33270492  0.49756579  1
  Ca2+  Ca14  1  0.07586304  0.33324048  0.82180739  1
  Ca2+  Ca15  1  0.08866869  0.83480301  0.16214727  1
  Ca2+  Ca16  1  0.09409773  0.83012092  0.49995645  1
  Ca2+  Ca17  1  0.09238237  0.82922316  0.82419960  1
  Ca2+  Ca18  1  0.57500401  0.33259719  0.16658157  1
  Ca2+  Ca19  1  0.57311979  0.33545288  0.49207270  1
  Ca2+  Ca20  1  0.57016835  0.33761235  0.82470651  1
  Ca2+  Ca21  1  0.57953012  0.82842822  0.15691336  1
  Ca2+  Ca22  1  0.57993643  0.82392122  0.49698310  1
  Ca2+  Ca23  1  0.57453834  0.83261859  0.82568474  1
  Ca2+  Ca24  1  0.32597818  0.40622652  0.17044061  1
  Ca2+  Ca25  1  0.32643946  0.40875670  0.50758164  1
  Ca2+  Ca26  1  0.32128587  0.40675559  0.83528835  1
  Ca2+  Ca27  1  0.32588762  0.91145774  0.16963582  1
  Ca2+  Ca28  1  0.32849752  0.92371421  0.51004577  1
  Ca2+  Ca29  1  0.33122897  0.91696920  0.83595600  1
  Ca2+  Ca30  1  0.83086479  0.41303387  0.17446683  1
  Ca2+  Ca31  1  0.82122796  0.40398421  0.50477742  1
  Ca2+  Ca32  1  0.83044405  0.41038049  0.83308598  1
  Ca2+  Ca33  1  0.82533794  0.91834187  0.16987202  1
  Ca2+  Ca34  1  0.82981131  0.92733090  0.50945443  1
  Ca2+  Ca35  1  0.82933384  0.92475471  0.83628831  1
  Ca2+  Ca36  1  0.41813486  0.17569026  0.16705577  1
  Ca2+  Ca37  1  0.41501235  0.17560854  0.49811275  1
  Ca2+  Ca38  1  0.41158380  0.17416465  0.82727003  1
  Ca2+  Ca39  1  0.42220098  0.66900599  0.16362408  1
  Ca2+  Ca40  1  0.42536617  0.66830125  0.50134624  1
  Ca2+  Ca41  1  0.41758880  0.68020621  0.82378431  1
  Ca2+  Ca42  1  0.91882717  0.18028343  0.16339470  1
  Ca2+  Ca43  1  0.91933289  0.17349105  0.50174942  1
  Ca2+  Ca44  1  0.92310970  0.17383197  0.82432787  1
  Ca2+  Ca45  1  0.91990440  0.66727869  0.16395206  1
  Ca2+  Ca46  1  0.92363942  0.66571162  0.50204489  1
  Ca2+  Ca47  1  0.92524239  0.67061870  0.82576186  1
  Al0+  Al48  1  -0.00062785  0.00128988  0.00538220  1
  Al0+  Al49  1  -0.00180113  -0.00103764  0.33611531  1
  Al0+  Al50  1  -0.00144936  0.00100464  0.67274832  1
  Al0+  Al51  1  -0.00076356  0.50144197  0.00011458  1
  Al0+  Al52  1  0.00119665  0.50259143  0.33310154  1
  Al0+  Al53  1  -0.00331777  0.50240843  0.66188954  1
  Al0+  Al54  1  0.50120378  -0.00024397  0.00112979  1
  Al0+  Al55  1  0.49890597  -0.00095039  0.33069564  1
  Al0+  Al56  1  0.49954534  0.00123480  0.66614119  1
  Al0+  Al57  1  0.50073677  0.49967681  -0.00390120  1
  Al0+  Al58  1  0.49958024  0.50203711  0.32726175  1
  Al0+  Al59  1  0.49869979  0.50075243  0.66486935  1
  Al0+  Al60  1  0.24895563  0.24753578  0.00300999  1
  Al0+  Al61  1  0.24825713  0.24664958  0.33279423  1
  Al0+  Al62  1  0.24778558  0.24747576  0.66751640  1
  Al0+  Al63  1  0.25238224  0.74803615  0.00081901  1
  Al0+  Al64  1  0.24982702  0.74784809  0.33635999  1
  Al0+  Al65  1  0.25075950  0.74845047  0.65894041  1
  Al0+  Al66  1  0.75124492  0.25086298  -0.00238444  1
  Al0+  Al67  1  0.75101955  0.24987075  0.32820810  1
  Al0+  Al68  1  0.74921593  0.25085592  0.67645330  1
  Al0+  Al69  1  0.75234121  0.74955063  0.00320927  1
  Al0+  Al70  1  0.75136990  0.75037091  0.33043216  1
  Al0+  Al71  1  0.75098501  0.74810112  0.66373183  1
  Al0+  Al72  1  0.57241495  0.17844806  0.31916105  1
  Al0+  Al73  1  0.82024822  0.07209548  0.68149727  1
  Al0+  Al74  1  0.17857033  0.92880355  0.34834243  1
  Al0+  Al75  1  0.42858115  0.82451773  0.64962672  1
  Al0+  Al76  1  0.93184628  0.32100983  0.31969129  1
  Al0+  Al77  1  0.18040387  0.92679011  0.68180888  1
  Al0+  Al78  1  0.68022429  0.42979324  0.34518178  1
  Al0+  Al79  1  0.17727084  0.42961657  0.67872584  1
  Al0+  Al80  1  0.67744141  0.43027655  0.68073398  1
  Al0+  Al81  1  0.18066463  0.92768444  0.01376218  1
  Al0+  Al82  1  0.67987623  0.92953722  0.01335987  1
  Al0+  Al83  1  0.42839189  0.32025910  0.98458958  1
  Al0+  Al84  1  0.07026049  0.17803078  0.65230819  1
  Al0+  Al85  1  0.42971875  0.82015113  0.98675429  1
  Al0+  Al86  1  0.17915694  0.42799324  0.34761438  1
  Al0+  Al87  1  0.07141009  0.67959732  0.65253237  1
  Al0+  Al88  1  0.93055624  0.32260527  0.98477584  1
  Al0+  Al89  1  0.32296654  0.07177856  0.68254617  1
  Al0+  Al90  1  0.92688165  0.32187750  0.65135989  1
  Al0+  Al91  1  0.42752628  0.31985588  0.65446954  1
  Al0+  Al92  1  0.57231818  0.68003337  0.31737690  1
  Al0+  Al93  1  0.42590491  0.32156843  0.31830368  1
  Al0+  Al94  1  0.17885929  0.42880106  0.01298351  1
  Al0+  Al95  1  0.57211926  0.67916302  0.65170214  1
  Si0+  Si96  1  0.81887073  0.07038965  0.34775581  1
  Si0+  Si97  1  0.42791682  0.82052944  0.31570156  1
  Si0+  Si98  1  0.32353756  0.07212019  0.01974284  1
  Si0+  Si99  1  0.07078254  0.17458709  0.31606667  1
  Si0+  Si100  1  0.07151027  0.68043738  0.31587804  1
  Si0+  Si101  1  0.92780114  0.82325033  0.65128398  1
  Si0+  Si102  1  0.82159661  0.57385684  0.68425736  1
  Si0+  Si103  1  0.67835054  0.42940004  0.01534106  1
  Si0+  Si104  1  0.32194206  0.57095663  0.68272328  1
  Si0+  Si105  1  0.82142647  0.57083054  0.01563829  1
  Si0+  Si106  1  0.57244874  0.17813213  0.98208572  1
  Si0+  Si107  1  0.32303520  0.07063598  0.35037030  1
  Si0+  Si108  1  0.32316173  0.57115768  0.01569480  1
  Si0+  Si109  1  0.82134941  0.07355581  0.02047168  1
  Si0+  Si110  1  0.07116545  0.17545815  0.98418900  1
  Si0+  Si111  1  0.07061305  0.68119016  0.98676008  1
  Si0+  Si112  1  0.67862969  0.92562145  0.68103576  1
  Si0+  Si113  1  0.32241140  0.57180466  0.35057217  1
  Si0+  Si114  1  0.57291049  0.17918967  0.65388708  1
  Si0+  Si115  1  0.82283917  0.57451898  0.35095816  1
  Si0+  Si116  1  0.67802944  0.92727859  0.34792152  1
  Si0+  Si117  1  0.92945292  0.82249403  0.31732710  1
  Si0+  Si118  1  0.92859790  0.82238862  0.98672005  1
  Si0+  Si119  1  0.57546537  0.67816549  0.98252865  1
  O2-  O120  1  0.25546623  0.00119226  0.06247386  1
  O2-  O121  1  0.25258739  0.00341896  0.39363586  1
  O2-  O122  1  0.25366114  -0.00334244  0.73252198  1
  O2-  O123  1  0.25898542  0.49803746  0.06002439  1
  O2-  O124  1  0.25943074  0.49717946  0.39324182  1
  O2-  O125  1  0.25298682  0.50267905  0.72739396  1
  O2-  O126  1  0.75180266  0.00528287  0.06424763  1
  O2-  O127  1  0.74420844  0.00251463  0.39008647  1
  O2-  O128  1  0.74565190  -0.00440306  0.72584264  1
  O2-  O129  1  0.75015266  0.50008355  0.05731765  1
  O2-  O130  1  0.75452271  0.50514136  0.39323462  1
  O2-  O131  1  0.75296380  0.50491225  0.72776465  1
  O2-  O132  1  0.00963895  0.24996824  0.27114369  1
  O2-  O133  1  0.00118662  0.25255167  0.60153284  1
  O2-  O134  1  0.00690018  0.24879981  0.94105236  1
  O2-  O135  1  0.00172699  0.75312057  0.27392074  1
  O2-  O136  1  -0.00003484  0.75862480  0.60652585  1
  O2-  O137  1  0.00464323  0.75729415  0.94466972  1
  O2-  O138  1  0.50049159  0.25079742  0.26928798  1
  O2-  O139  1  0.50290199  0.24540040  0.60915644  1
  O2-  O140  1  0.50377206  0.24613815  0.93779209  1
  O2-  O141  1  0.49910253  0.75548022  0.26979688  1
  O2-  O142  1  0.50280430  0.75346936  0.60171465  1
  O2-  O143  1  0.50681138  0.74739167  0.94050082  1
  O2-  O144  1  0.06768765  0.17233364  0.09010597  1
  O2-  O145  1  0.06672461  0.17091600  0.42096676  1
  O2-  O146  1  0.06862556  0.17842697  0.76627146  1
  O2-  O147  1  0.06760267  0.68056375  0.09214171  1
  O2-  O148  1  0.07009796  0.68019992  0.42054452  1
  O2-  O149  1  0.06814560  0.67896583  0.76635203  1
  O2-  O150  1  0.57318008  0.17976796  0.08770078  1
  O2-  O151  1  0.57379256  0.17945211  0.43249823  1
  O2-  O152  1  0.57358604  0.18062950  0.75965441  1
  O2-  O153  1  0.57615232  0.67855918  0.08832813  1
  O2-  O154  1  0.57316065  0.68224167  0.42977735  1
  O2-  O155  1  0.57137725  0.68172014  0.76572889  1
  O2-  O156  1  0.17727311  0.43329074  0.23393575  1
  O2-  O157  1  0.17829157  0.43144600  0.56559722  1
  O2-  O158  1  0.17564097  0.43212101  0.90022550  1
  O2-  O159  1  0.17978566  0.92894479  0.23453530  1
  O2-  O160  1  0.18099122  0.92935808  0.56810334  1
  O2-  O161  1  0.18040070  0.92599337  0.90178580  1
  O2-  O162  1  0.68325761  0.43176559  0.23131179  1
  O2-  O163  1  0.67759572  0.42970241  0.56757924  1
  O2-  O164  1  0.67782751  0.43154333  0.91043640  1
  O2-  O165  1  0.68184108  0.92566295  0.24273150  1
  O2-  O166  1  0.68212733  0.92486833  0.57508275  1
  O2-  O167  1  0.68429638  0.92909315  0.90056452  1
  O2-  O168  1  0.43032574  0.31962529  0.09758995  1
  O2-  O169  1  0.42627587  0.32030797  0.43170012  1
  O2-  O170  1  0.42868462  0.31940643  0.76789241  1
  O2-  O171  1  0.42968034  0.81578222  0.10018962  1
  O2-  O172  1  0.42934158  0.82011401  0.42071518  1
  O2-  O173  1  0.42967916  0.82213368  0.76372441  1
  O2-  O174  1  0.93044852  0.32271362  0.09838386  1
  O2-  O175  1  0.92890147  0.31749007  0.43187107  1
  O2-  O176  1  0.92871977  0.32009857  0.76532276  1
  O2-  O177  1  0.92693660  0.81906568  0.09206203  1
  O2-  O178  1  0.92687855  0.82281556  0.42198484  1
  O2-  O179  1  0.92478164  0.81968832  0.75721884  1
  O2-  O180  1  0.32301927  0.06886147  0.24443046  1
  O2-  O181  1  0.32205252  0.07157994  0.56881237  1
  O2-  O182  1  0.32326970  0.07323005  0.91461868  1
  O2-  O183  1  0.31793886  0.57757691  0.24473546  1
  O2-  O184  1  0.32193086  0.56929255  0.57698270  1
  O2-  O185  1  0.31981344  0.57497525  0.91063798  1
  O2-  O186  1  0.82076016  0.06693172  0.24266623  1
  O2-  O187  1  0.81773315  0.07135462  0.56773163  1
  O2-  O188  1  0.82172255  0.07189884  0.91515355  1
  O2-  O189  1  0.82309902  0.57588080  0.24468589  1
  O2-  O190  1  0.82185286  0.57778015  0.57908855  1
  O2-  O191  1  0.82325069  0.57398319  0.91108589  1
  O2-  O192  1  0.03699966  0.08347024  0.26794699  1
  O2-  O193  1  0.03798476  0.07970887  0.60086910  1
  O2-  O194  1  0.04038638  0.08338888  0.93734795  1
  O2-  O195  1  0.04075431  0.59057869  0.26604102  1
  O2-  O196  1  0.03443957  0.58714745  0.59465987  1
  O2-  O197  1  0.03612699  0.59235429  0.93822450  1
  O2-  O198  1  0.54427108  0.07903470  0.26538236  1
  O2-  O199  1  0.55385692  0.08429195  0.60791441  1
  O2-  O200  1  0.54967320  0.08336299  0.93784450  1
  O2-  O201  1  0.54124542  0.58531628  0.26001724  1
  O2-  O202  1  0.53939323  0.58288039  0.59764896  1
  O2-  O203  1  0.55030437  0.58455831  0.93701619  1
  O2-  O204  1  0.16670361  0.19151049  0.27193584  1
  O2-  O205  1  0.16833856  0.20310840  0.59886313  1
  O2-  O206  1  0.16699147  0.19517016  0.94208493  1
  O2-  O207  1  0.16371672  0.70737770  0.26853461  1
  O2-  O208  1  0.16688348  0.70483937  0.59454788  1
  O2-  O209  1  0.16363538  0.70354347  0.94065598  1
  O2-  O210  1  0.66983152  0.20491814  0.26259718  1
  O2-  O211  1  0.66600400  0.20737214  0.60921891  1
  O2-  O212  1  0.66678309  0.20326573  0.93710251  1
  O2-  O213  1  0.66996512  0.70992379  0.26332847  1
  O2-  O214  1  0.67158787  0.70326752  0.59840910  1
  O2-  O215  1  0.67009348  0.70334447  0.93844693  1
  O2-  O216  1  0.08430508  0.46762232  0.06753245  1
  O2-  O217  1  0.08438309  0.46613486  0.40053180  1
  O2-  O218  1  0.08028009  0.46448255  0.73027237  1
  O2-  O219  1  0.08261448  0.95689152  0.06822702  1
  O2-  O220  1  0.08001610  0.95574316  0.40002561  1
  O2-  O221  1  0.08090106  0.95275306  0.73396416  1
  O2-  O222  1  0.58649539  0.45785067  0.06264784  1
  O2-  O223  1  0.58178544  0.46058471  0.39512777  1
  O2-  O224  1  0.58177128  0.46447604  0.73577302  1
  O2-  O225  1  0.58311985  0.95743184  0.06907589  1
  O2-  O226  1  0.58368202  0.94862688  0.39204140  1
  O2-  O227  1  0.58456880  0.94950462  0.72561357  1
  O2-  O228  1  0.20325977  0.33030023  0.06670891  1
  O2-  O229  1  0.20140741  0.32751232  0.39693019  1
  O2-  O230  1  0.20626823  0.33309555  0.73264588  1
  O2-  O231  1  0.21105865  0.83029145  0.06832568  1
  O2-  O232  1  0.20802239  0.83085737  0.39953750  1
  O2-  O233  1  0.20709543  0.82577327  0.73010007  1
  O2-  O234  1  0.70651333  0.33681813  0.06080064  1
  O2-  O235  1  0.71248481  0.33259532  0.39674956  1
  O2-  O236  1  0.70764068  0.33626350  0.73973078  1
  O2-  O237  1  0.71412684  0.83363812  0.06890233  1
  O2-  O238  1  0.71211802  0.83760067  0.39552556  1
  O2-  O239  1  0.70672480  0.83293106  0.72770529  1
  O2-  O240  1  0.45110006  0.42051204  0.26492828  1
  O2-  O241  1  0.45705197  0.41640174  0.60118913  1
  O2-  O242  1  0.45836518  0.41762033  0.93143501  1
  O2-  O243  1  0.44943904  0.91490714  0.26957139  1
  O2-  O244  1  0.45610012  0.92303904  0.59660913  1
  O2-  O245  1  0.45855322  0.91804318  0.93519028  1
  O2-  O246  1  0.95893815  0.42018647  0.26712932  1
  O2-  O247  1  0.94786569  0.42167179  0.59960053  1
  O2-  O248  1  0.95824350  0.42075168  0.93266225  1
  O2-  O249  1  0.95559145  0.91411588  0.26829333  1
  O2-  O250  1  0.94822676  0.91829818  0.60753943  1
  O2-  O251  1  0.94964659  0.91709436  0.94310664  1
  O2-  O252  1  0.32830223  0.28873399  0.26415369  1
  O2-  O253  1  0.33184131  0.28813534  0.60091717  1
  O2-  O254  1  0.32990682  0.28894441  0.93469635  1
  O2-  O255  1  0.33475892  0.78957187  0.27064627  1
  O2-  O256  1  0.33272313  0.79288022  0.59461509  1
  O2-  O257  1  0.33415796  0.78633333  0.93252672  1
  O2-  O258  1  0.83760374  0.28657390  0.26279298  1
  O2-  O259  1  0.82813268  0.28737784  0.60300151  1
  O2-  O260  1  0.83332825  0.29167427  0.93232535  1
  O2-  O261  1  0.83919303  0.79257121  0.26702616  1
  O2-  O262  1  0.83665185  0.79394356  0.60182612  1
  O2-  O263  1  0.83952139  0.78880217  0.93775785  1
  O2-  O264  1  0.41785516  0.04825006  0.06499956  1
  O2-  O265  1  0.41651162  0.04397969  0.39636730  1
  O2-  O266  1  0.42306223  0.04785412  0.73544859  1
  O2-  O267  1  0.41919097  0.55003454  0.05971243  1
  O2-  O268  1  0.41877787  0.55345400  0.39239478  1
  O2-  O269  1  0.41512302  0.54790313  0.73003927  1
  O2-  O270  1  0.91375271  0.04653732  0.06834866  1
  O2-  O271  1  0.90827992  0.03791374  0.39675495  1
  O2-  O272  1  0.91417554  0.04028998  0.73960734  1
  O2-  O273  1  0.91232237  0.54317802  0.06565905  1
  O2-  O274  1  0.91745092  0.55138794  0.39510258  1
  O2-  O275  1  0.91464845  0.54829450  0.73141551  1
  O2-  O276  1  0.29455890  0.16364610  0.06881832  1
  O2-  O277  1  0.29889203  0.16464980  0.39518933  1
  O2-  O278  1  0.28942016  0.16747000  0.73813752  1
  O2-  O279  1  0.29263004  0.66148245  0.06647306  1
  O2-  O280  1  0.29046657  0.66204916  0.39987671  1
  O2-  O281  1  0.29488052  0.66502632  0.72658577  1
  O2-  O282  1  0.79475593  0.16775089  0.06539727  1
  O2-  O283  1  0.79301905  0.16257920  0.39412383  1
  O2-  O284  1  0.78769717  0.16489604  0.74131941  1
  O2-  O285  1  0.79524936  0.66224665  0.06615058  1
  O2-  O286  1  0.79799724  0.66886367  0.39612398  1
  O2-  O287  1  0.79615183  0.66724104  0.73283406  1
