# generated using pymatgen
data_Ca2Al2SiO7
_symmetry_space_group_name_H-M   'P 1'
_cell_length_a   15.46189115
_cell_length_b   15.46246936
_cell_length_c   15.28672286
_cell_angle_alpha   89.99387540
_cell_angle_beta   89.99599621
_cell_angle_gamma   89.99270576
_symmetry_Int_Tables_number   1
_chemical_formula_structural   Ca2Al2SiO7
_chemical_formula_sum   'Ca48 Al48 Si24 O168'
_cell_volume   3654.73463121
_cell_formula_units_Z   24
loop_
 _symmetry_equiv_pos_site_id
 _symmetry_equiv_pos_as_xyz
  1  'x, y, z'
loop_
 _atom_type_symbol
 _atom_type_oxidation_number
  Ca2+  2.0
  Al0+  0.0
  Si0+  0.0
  O2-  -2.0
loop_
 _atom_site_type_symbol
 _atom_site_label
 _atom_site_symmetry_multiplicity
 _atom_site_fract_x
 _atom_site_fract_y
 _atom_site_fract_z
 _atom_site_occupancy
  Ca2+  Ca0  1  0.17432710  0.08737699  0.16685533  1
  Ca2+  Ca1  1  0.16703460  0.08178819  0.51134227  1
  Ca2+  Ca2  1  0.17584865  0.09441083  0.83332048  1
  Ca2+  Ca3  1  0.15985308  0.57615452  0.16718964  1
  Ca2+  Ca4  1  0.16377243  0.57612984  0.50923588  1
  Ca2+  Ca5  1  0.16815633  0.57580635  0.83974768  1
  Ca2+  Ca6  1  0.67278459  0.07977830  0.17596163  1
  Ca2+  Ca7  1  0.68019634  0.07751530  0.50276563  1
  Ca2+  Ca8  1  0.67088891  0.08925041  0.83558610  1
  Ca2+  Ca9  1  0.66914733  0.57327239  0.17359783  1
  Ca2+  Ca10  1  0.67291021  0.58187580  0.50800294  1
  Ca2+  Ca11  1  0.67232360  0.58613271  0.83143656  1
  Ca2+  Ca12  1  0.08041848  0.33873717  0.16182304  1
  Ca2+  Ca13  1  0.08343659  0.33413850  0.50312816  1
  Ca2+  Ca14  1  0.07917465  0.33687852  0.82553951  1
  Ca2+  Ca15  1  0.07396879  0.82359587  0.16048771  1
  Ca2+  Ca16  1  0.08049132  0.81868064  0.49184166  1
  Ca2+  Ca17  1  0.08596802  0.82055696  0.83061078  1
  Ca2+  Ca18  1  0.57970717  0.32775415  0.15604619  1
  Ca2+  Ca19  1  0.57522012  0.33986257  0.49742736  1
  Ca2+  Ca20  1  0.56781611  0.33172431  0.83111086  1
  Ca2+  Ca21  1  0.58552684  0.83550871  0.16469904  1
  Ca2+  Ca22  1  0.58654732  0.83036369  0.49986788  1
  Ca2+  Ca23  1  0.57881222  0.82590097  0.82684128  1
  Ca2+  Ca24  1  0.32281648  0.41743141  0.16603259  1
  Ca2+  Ca25  1  0.32113509  0.41946545  0.51036941  1
  Ca2+  Ca26  1  0.32383404  0.41824862  0.83835138  1
  Ca2+  Ca27  1  0.33494287  0.92420986  0.16677470  1
  Ca2+  Ca28  1  0.33085444  0.92506385  0.50797855  1
  Ca2+  Ca29  1  0.33296604  0.92877762  0.83667546  1
  Ca2+  Ca30  1  0.82888313  0.41392270  0.17160619  1
  Ca2+  Ca31  1  0.82773167  0.41896672  0.50816727  1
  Ca2+  Ca32  1  0.84420115  0.42036129  0.83408229  1
  Ca2+  Ca33  1  0.83401178  0.91896418  0.17590109  1
  Ca2+  Ca34  1  0.83981189  0.92322132  0.50257194  1
  Ca2+  Ca35  1  0.83786283  0.92092167  0.83597250  1
  Ca2+  Ca36  1  0.42509939  0.17267903  0.15280812  1
  Ca2+  Ca37  1  0.41013351  0.17393706  0.50151981  1
  Ca2+  Ca38  1  0.41159155  0.17464198  0.82850330  1
  Ca2+  Ca39  1  0.41748374  0.66439250  0.16073705  1
  Ca2+  Ca40  1  0.42200812  0.65703110  0.50253459  1
  Ca2+  Ca41  1  0.41881560  0.65637074  0.82513057  1
  Ca2+  Ca42  1  0.91447203  0.17214286  0.16010453  1
  Ca2+  Ca43  1  0.91565997  0.16583928  0.50157066  1
  Ca2+  Ca44  1  0.92137263  0.17960823  0.82326456  1
  Ca2+  Ca45  1  0.92508865  0.67501222  0.16070574  1
  Ca2+  Ca46  1  0.92712943  0.66289895  0.49646210  1
  Ca2+  Ca47  1  0.92937961  0.66552250  0.82713432  1
  Al0+  Al48  1  -0.00005309  0.00015010  -0.00155408  1
  Al0+  Al49  1  0.00341640  0.00077219  0.33236991  1
  Al0+  Al50  1  -0.00102427  0.00022584  0.67065275  1
  Al0+  Al51  1  -0.00036454  0.50178401  -0.00075959  1
  Al0+  Al52  1  0.00038386  0.49730796  0.33287971  1
  Al0+  Al53  1  -0.00314385  0.50007871  0.66495891  1
  Al0+  Al54  1  0.50289645  -0.00155624  0.00030879  1
  Al0+  Al55  1  0.50244280  0.00080167  0.33785241  1
  Al0+  Al56  1  0.49997694  -0.00049089  0.66970826  1
  Al0+  Al57  1  0.50039651  0.49879024  0.00035249  1
  Al0+  Al58  1  0.49803951  0.49992625  0.33354802  1
  Al0+  Al59  1  0.50033080  0.49909580  0.65941165  1
  Al0+  Al60  1  0.25066634  0.25109428  0.00794945  1
  Al0+  Al61  1  0.24959620  0.25321286  0.33525980  1
  Al0+  Al62  1  0.24904670  0.25003897  0.66524234  1
  Al0+  Al63  1  0.25159286  0.75126149  0.00083184  1
  Al0+  Al64  1  0.25320135  0.75066689  0.32783043  1
  Al0+  Al65  1  0.25089197  0.75113811  0.66428760  1
  Al0+  Al66  1  0.75060745  0.24998285  -0.00798332  1
  Al0+  Al67  1  0.74852367  0.24908125  0.34211046  1
  Al0+  Al68  1  0.74739785  0.24827474  0.66751590  1
  Al0+  Al69  1  0.74991777  0.75149292  -0.00192171  1
  Al0+  Al70  1  0.74856567  0.74970138  0.33205980  1
  Al0+  Al71  1  0.74790724  0.74900109  0.66704918  1
  Al0+  Al72  1  0.07261415  0.67583620  0.31661846  1
  Al0+  Al73  1  0.67707343  0.42842862  0.34620099  1
  Al0+  Al74  1  0.57018402  0.67941520  0.65237622  1
  Al0+  Al75  1  0.31998796  0.07081010  0.67962411  1
  Al0+  Al76  1  0.17838192  0.43020590  0.34992041  1
  Al0+  Al77  1  0.32368361  0.57242721  0.01584119  1
  Al0+  Al78  1  0.07197559  0.67943053  0.65250341  1
  Al0+  Al79  1  0.67832806  0.92688364  0.34946791  1
  Al0+  Al80  1  0.32202832  0.57166940  0.67947759  1
  Al0+  Al81  1  0.82440379  0.07035104  0.34814312  1
  Al0+  Al82  1  0.92661061  0.32169590  0.64908965  1
  Al0+  Al83  1  0.92699070  0.82271867  0.98300430  1
  Al0+  Al84  1  0.81920678  0.57027298  0.68019437  1
  Al0+  Al85  1  0.92899932  0.82229362  0.31938514  1
  Al0+  Al86  1  0.07024309  0.17923428  0.65233681  1
  Al0+  Al87  1  0.42920677  0.31951417  0.65129011  1
  Al0+  Al88  1  0.17787585  0.43024741  0.68202239  1
  Al0+  Al89  1  0.17684096  0.43024058  0.01657428  1
  Al0+  Al90  1  0.42788058  0.32083279  0.98547745  1
  Al0+  Al91  1  0.92943571  0.32080271  0.98818081  1
  Al0+  Al92  1  0.07200134  0.67998578  0.98350634  1
  Al0+  Al93  1  0.82136261  0.07098240  0.68428331  1
  Al0+  Al94  1  0.57189962  0.17648906  0.98485348  1
  Al0+  Al95  1  0.32173358  0.07066129  0.01451307  1
  Si0+  Si96  1  0.82062189  0.57052595  0.34774342  1
  Si0+  Si97  1  0.07373890  0.17915742  0.31765579  1
  Si0+  Si98  1  0.32196600  0.57422751  0.35012802  1
  Si0+  Si99  1  0.42785689  0.32101259  0.31653118  1
  Si0+  Si100  1  0.68046022  0.42905461  0.01257992  1
  Si0+  Si101  1  0.07306578  0.17764827  0.98635287  1
  Si0+  Si102  1  0.42976188  0.82205539  0.98571399  1
  Si0+  Si103  1  0.57012433  0.18000325  0.32036695  1
  Si0+  Si104  1  0.67603767  0.42707163  0.68455697  1
  Si0+  Si105  1  0.67857790  0.92789128  0.68621377  1
  Si0+  Si106  1  0.57041150  0.67829656  0.98664041  1
  Si0+  Si107  1  0.18161634  0.92857921  0.34649587  1
  Si0+  Si108  1  0.92734883  0.82147112  0.65095688  1
  Si0+  Si109  1  0.42839158  0.82426652  0.64954743  1
  Si0+  Si110  1  0.43099133  0.82446662  0.31736207  1
  Si0+  Si111  1  0.68048035  0.92763181  0.01506232  1
  Si0+  Si112  1  0.82049547  0.07188085  0.01367048  1
  Si0+  Si113  1  0.32131572  0.07143044  0.34780056  1
  Si0+  Si114  1  0.17686910  0.92680412  0.68317416  1
  Si0+  Si115  1  0.92691997  0.31783477  0.31975943  1
  Si0+  Si116  1  0.57129043  0.17502232  0.64687837  1
  Si0+  Si117  1  0.17774384  0.92773863  0.01809650  1
  Si0+  Si118  1  0.82014550  0.57278514  0.01527964  1
  Si0+  Si119  1  0.56983048  0.67801239  0.31703540  1
  O2-  O120  1  0.24579576  -0.00228077  0.06292183  1
  O2-  O121  1  0.25076124  0.00064310  0.39023877  1
  O2-  O122  1  0.24397556  -0.00228814  0.72661008  1
  O2-  O123  1  0.24900751  0.50347926  0.06616309  1
  O2-  O124  1  0.24904300  0.51021138  0.39302704  1
  O2-  O125  1  0.24862152  0.50364089  0.73158787  1
  O2-  O126  1  0.75155849  -0.00098732  0.05653198  1
  O2-  O127  1  0.75642275  -0.00677214  0.39711644  1
  O2-  O128  1  0.74631315  -0.00352285  0.73150854  1
  O2-  O129  1  0.75122702  0.49928706  0.05718108  1
  O2-  O130  1  0.75103426  0.50322022  0.39250810  1
  O2-  O131  1  0.74816112  0.49216542  0.72876612  1
  O2-  O132  1  -0.00138327  0.24710116  0.27716701  1
  O2-  O133  1  -0.00217054  0.24878659  0.59887560  1
  O2-  O134  1  0.00633323  0.24806655  0.94340956  1
  O2-  O135  1  -0.00069670  0.74860647  0.26938013  1
  O2-  O136  1  -0.00316757  0.75435625  0.60612840  1
  O2-  O137  1  -0.00011278  0.75216794  0.93363572  1
  O2-  O138  1  0.50043439  0.25086557  0.27556517  1
  O2-  O139  1  0.50391502  0.24483136  0.60222864  1
  O2-  O140  1  0.49563266  0.24428606  0.93610333  1
  O2-  O141  1  0.50097705  0.75172520  0.27520959  1
  O2-  O142  1  0.49347371  0.75215140  0.60521948  1
  O2-  O143  1  0.49503467  0.74511279  0.94507396  1
  O2-  O144  1  0.06954871  0.17551688  0.09270563  1
  O2-  O145  1  0.07756416  0.17841029  0.42200802  1
  O2-  O146  1  0.07027026  0.18028017  0.76600386  1
  O2-  O147  1  0.06814639  0.68041573  0.09721525  1
  O2-  O148  1  0.07224829  0.67730332  0.43029974  1
  O2-  O149  1  0.07291879  0.68111572  0.76515273  1
  O2-  O150  1  0.57391472  0.17873863  0.09954154  1
  O2-  O151  1  0.56726852  0.17963174  0.42499971  1
  O2-  O152  1  0.56939017  0.17467865  0.75238382  1
  O2-  O153  1  0.57242192  0.68031654  0.09216042  1
  O2-  O154  1  0.56812988  0.67615968  0.42161575  1
  O2-  O155  1  0.57076072  0.68200070  0.76592833  1
  O2-  O156  1  0.18021162  0.42610207  0.23718813  1
  O2-  O157  1  0.17992331  0.43086751  0.56800459  1
  O2-  O158  1  0.17570459  0.42942196  0.90379823  1
  O2-  O159  1  0.18411344  0.93061312  0.24159010  1
  O2-  O160  1  0.17935508  0.92679953  0.57691841  1
  O2-  O161  1  0.18023380  0.92653238  0.91280275  1
  O2-  O162  1  0.67848585  0.42838841  0.23228817  1
  O2-  O163  1  0.67592405  0.43077541  0.57843679  1
  O2-  O164  1  0.67901615  0.43191952  0.90811014  1
  O2-  O165  1  0.67387660  0.93240597  0.23565565  1
  O2-  O166  1  0.67849894  0.92832609  0.58072942  1
  O2-  O167  1  0.67915742  0.92474433  0.91049503  1
  O2-  O168  1  0.43271183  0.32020439  0.09994273  1
  O2-  O169  1  0.42724078  0.31959409  0.42152093  1
  O2-  O170  1  0.42996394  0.31886985  0.76395498  1
  O2-  O171  1  0.43420592  0.82571873  0.09118815  1
  O2-  O172  1  0.42973386  0.82709594  0.42195519  1
  O2-  O173  1  0.43172312  0.82824438  0.75504630  1
  O2-  O174  1  0.92422938  0.31728940  0.10208656  1
  O2-  O175  1  0.92588789  0.31795387  0.42405660  1
  O2-  O176  1  0.92880786  0.32069602  0.76277050  1
  O2-  O177  1  0.92555065  0.82131630  0.09675276  1
  O2-  O178  1  0.93328240  0.82266993  0.43283404  1
  O2-  O179  1  0.92787038  0.81921695  0.75647164  1
  O2-  O180  1  0.32229238  0.06984964  0.24269309  1
  O2-  O181  1  0.31976630  0.06752548  0.56570965  1
  O2-  O182  1  0.32120492  0.06874366  0.90186148  1
  O2-  O183  1  0.32691765  0.57200348  0.24482907  1
  O2-  O184  1  0.32134410  0.56911660  0.56546891  1
  O2-  O185  1  0.32656600  0.57017754  0.90305300  1
  O2-  O186  1  0.81995899  0.07462391  0.23392787  1
  O2-  O187  1  0.82110252  0.06764047  0.57120471  1
  O2-  O188  1  0.81843866  0.07153618  0.90909316  1
  O2-  O189  1  0.81795989  0.56853321  0.24154083  1
  O2-  O190  1  0.81647403  0.57138547  0.56675154  1
  O2-  O191  1  0.81778276  0.57412335  0.91047866  1
  O2-  O192  1  0.05180091  0.08638519  0.26940088  1
  O2-  O193  1  0.04342961  0.07845324  0.60146786  1
  O2-  O194  1  0.04905776  0.08460504  0.93952029  1
  O2-  O195  1  0.04198089  0.57730492  0.26474982  1
  O2-  O196  1  0.03704959  0.58467781  0.59852304  1
  O2-  O197  1  0.04056589  0.58270403  0.93184858  1
  O2-  O198  1  0.54196457  0.08788070  0.27286925  1
  O2-  O199  1  0.54418036  0.08124493  0.60197721  1
  O2-  O200  1  0.54974687  0.07605161  0.93402328  1
  O2-  O201  1  0.53906269  0.58721497  0.26779904  1
  O2-  O202  1  0.54248071  0.58400023  0.59462454  1
  O2-  O203  1  0.54786789  0.58573175  0.93950853  1
  O2-  O204  1  0.16422881  0.21146346  0.26884834  1
  O2-  O205  1  0.16827760  0.20561120  0.59741571  1
  O2-  O206  1  0.16839768  0.20093193  0.94471731  1
  O2-  O207  1  0.17173340  0.70539404  0.26515808  1
  O2-  O208  1  0.16835045  0.71074128  0.59739869  1
  O2-  O209  1  0.17171514  0.70872800  0.93348167  1
  O2-  O210  1  0.66289293  0.20743294  0.27444132  1
  O2-  O211  1  0.66540848  0.19901030  0.60206117  1
  O2-  O212  1  0.66681398  0.20942279  0.92900674  1
  O2-  O213  1  0.66209352  0.70189786  0.26839336  1
  O2-  O214  1  0.66510441  0.71356663  0.59652406  1
  O2-  O215  1  0.65997972  0.71089934  0.93814806  1
  O2-  O216  1  0.07806618  0.46024379  0.07057271  1
  O2-  O217  1  0.07935058  0.45456375  0.40171105  1
  O2-  O218  1  0.07803321  0.45634915  0.73117592  1
  O2-  O219  1  0.08370462  0.95402525  0.06378411  1
  O2-  O220  1  0.09041366  0.95518576  0.39453808  1
  O2-  O221  1  0.08330227  0.94828360  0.72972117  1
  O2-  O222  1  0.59007652  0.45740271  0.06288694  1
  O2-  O223  1  0.58054468  0.46040687  0.39929364  1
  O2-  O224  1  0.58423491  0.45895852  0.72940053  1
  O2-  O225  1  0.58907482  0.95418673  0.06433689  1
  O2-  O226  1  0.58243813  0.96035248  0.40557527  1
  O2-  O227  1  0.58457743  0.95292005  0.73202059  1
  O2-  O228  1  0.20467332  0.33234500  0.07245345  1
  O2-  O229  1  0.21387057  0.33471443  0.40396010  1
  O2-  O230  1  0.20741818  0.33157235  0.73233769  1
  O2-  O231  1  0.20589951  0.83595634  0.06630292  1
  O2-  O232  1  0.21188761  0.83710835  0.39348849  1
  O2-  O233  1  0.20723176  0.83536015  0.73043120  1
  O2-  O234  1  0.70941732  0.33661869  0.05897826  1
  O2-  O235  1  0.70530967  0.33373650  0.40348077  1
  O2-  O236  1  0.69421270  0.33127312  0.72774066  1
  O2-  O237  1  0.70742784  0.83606579  0.06488365  1
  O2-  O238  1  0.69738444  0.82504009  0.39882341  1
  O2-  O239  1  0.70332797  0.83418235  0.73210062  1
  O2-  O240  1  0.45515435  0.41342965  0.27054340  1
  O2-  O241  1  0.46195355  0.41385828  0.59360598  1
  O2-  O242  1  0.46252512  0.41714979  0.93258660  1
  O2-  O243  1  0.46152508  0.91585603  0.26916732  1
  O2-  O244  1  0.45899615  0.91586214  0.60094948  1
  O2-  O245  1  0.46436212  0.91010541  0.93546969  1
  O2-  O246  1  0.95370391  0.40961231  0.27154774  1
  O2-  O247  1  0.95239686  0.42017680  0.59590070  1
  O2-  O248  1  0.95566914  0.41858700  0.93609747  1
  O2-  O249  1  0.95922489  0.92079166  0.26579385  1
  O2-  O250  1  0.95188588  0.91608591  0.60751700  1
  O2-  O251  1  0.95362572  0.92245791  0.93219028  1
  O2-  O252  1  0.33691705  0.29048091  0.26930626  1
  O2-  O253  1  0.33416741  0.28626886  0.59586383  1
  O2-  O254  1  0.32775270  0.29420578  0.93702121  1
  O2-  O255  1  0.34004555  0.79903670  0.26689310  1
  O2-  O256  1  0.33404781  0.80445113  0.60305227  1
  O2-  O257  1  0.33596887  0.80361277  0.93994765  1
  O2-  O258  1  0.83417942  0.28951257  0.27316755  1
  O2-  O259  1  0.82601959  0.29351109  0.59981612  1
  O2-  O260  1  0.83563401  0.28980373  0.93003385  1
  O2-  O261  1  0.82829630  0.79712697  0.26784234  1
  O2-  O262  1  0.83324832  0.79639646  0.60635635  1
  O2-  O263  1  0.82807898  0.79494888  0.93077843  1
  O2-  O264  1  0.41838948  0.03571403  0.06793904  1
  O2-  O265  1  0.41237693  0.04338583  0.39575231  1
  O2-  O266  1  0.41591766  0.03866810  0.73408809  1
  O2-  O267  1  0.42250444  0.54239698  0.07008200  1
  O2-  O268  1  0.41403664  0.54367399  0.39689332  1
  O2-  O269  1  0.42198048  0.54237646  0.72825370  1
  O2-  O270  1  0.91357472  0.04749179  0.06079760  1
  O2-  O271  1  0.92508909  0.04731637  0.39926020  1
  O2-  O272  1  0.91762924  0.04118799  0.73929288  1
  O2-  O273  1  0.91132728  0.54622291  0.06323193  1
  O2-  O274  1  0.91349713  0.54303157  0.39288661  1
  O2-  O275  1  0.91520938  0.54139850  0.73520329  1
  O2-  O276  1  0.29334247  0.16572620  0.07282246  1
  O2-  O277  1  0.29268081  0.16331488  0.39354236  1
  O2-  O278  1  0.28915680  0.16649757  0.73351343  1
  O2-  O279  1  0.30258314  0.67430449  0.06629565  1
  O2-  O280  1  0.30492799  0.67125227  0.39258760  1
  O2-  O281  1  0.30287880  0.67419603  0.72782215  1
  O2-  O282  1  0.79026921  0.16365494  0.06052014  1
  O2-  O283  1  0.78949968  0.16491522  0.40450194  1
  O2-  O284  1  0.78842546  0.16768445  0.73697235  1
  O2-  O285  1  0.78787378  0.66330953  0.06330273  1
  O2-  O286  1  0.79567351  0.66424329  0.39264159  1
  O2-  O287  1  0.78358522  0.66510022  0.73518879  1
