# generated using pymatgen
data_Ca2Al2SiO7
_symmetry_space_group_name_H-M   'P 1'
_cell_length_a   15.45571286
_cell_length_b   15.45614146
_cell_length_c   15.28215793
_cell_angle_alpha   89.98201758
_cell_angle_beta   89.99418268
_cell_angle_gamma   89.99506988
_symmetry_Int_Tables_number   1
_chemical_formula_structural   Ca2Al2SiO7
_chemical_formula_sum   'Ca48 Al48 Si24 O168'
_cell_volume   3650.68854547
_cell_formula_units_Z   24
loop_
 _symmetry_equiv_pos_site_id
 _symmetry_equiv_pos_as_xyz
  1  'x, y, z'
loop_
 _atom_type_symbol
 _atom_type_oxidation_number
  Ca2+  2.0
  Al0+  0.0
  Si0+  0.0
  O2-  -2.0
loop_
 _atom_site_type_symbol
 _atom_site_label
 _atom_site_symmetry_multiplicity
 _atom_site_fract_x
 _atom_site_fract_y
 _atom_site_fract_z
 _atom_site_occupancy
  Ca2+  Ca0  1  0.17180636  0.08665117  0.16968327  1
  Ca2+  Ca1  1  0.17728509  0.08252503  0.51051161  1
  Ca2+  Ca2  1  0.16491268  0.08143514  0.83402027  1
  Ca2+  Ca3  1  0.17830768  0.59002165  0.16956764  1
  Ca2+  Ca4  1  0.17318618  0.58361959  0.50114700  1
  Ca2+  Ca5  1  0.17338660  0.58644656  0.84444483  1
  Ca2+  Ca6  1  0.67197154  0.08286532  0.17629472  1
  Ca2+  Ca7  1  0.66780688  0.08059809  0.49751378  1
  Ca2+  Ca8  1  0.67326247  0.07886565  0.84450660  1
  Ca2+  Ca9  1  0.67365119  0.58293562  0.17475483  1
  Ca2+  Ca10  1  0.66452315  0.58443123  0.49732371  1
  Ca2+  Ca11  1  0.66638875  0.58734700  0.84140449  1
  Ca2+  Ca12  1  0.07590980  0.32783094  0.16308081  1
  Ca2+  Ca13  1  0.07720127  0.32786466  0.49497701  1
  Ca2+  Ca14  1  0.08478882  0.32092948  0.83109447  1
  Ca2+  Ca15  1  0.07459709  0.82687650  0.15706702  1
  Ca2+  Ca16  1  0.07908485  0.84128118  0.50179306  1
  Ca2+  Ca17  1  0.07430022  0.83397855  0.83097761  1
  Ca2+  Ca18  1  0.58564448  0.32472097  0.16370519  1
  Ca2+  Ca19  1  0.58539209  0.32668304  0.48946153  1
  Ca2+  Ca20  1  0.57870614  0.32973801  0.83748853  1
  Ca2+  Ca21  1  0.59007308  0.82408188  0.16585101  1
  Ca2+  Ca22  1  0.58231356  0.82639094  0.49453140  1
  Ca2+  Ca23  1  0.58007837  0.82006148  0.82674440  1
  Ca2+  Ca24  1  0.33819642  0.42337545  0.16673777  1
  Ca2+  Ca25  1  0.33873891  0.42474269  0.50012045  1
  Ca2+  Ca26  1  0.33346118  0.42049359  0.84344691  1
  Ca2+  Ca27  1  0.33028505  0.92279643  0.17466001  1
  Ca2+  Ca28  1  0.33207549  0.92687781  0.51008232  1
  Ca2+  Ca29  1  0.33098862  0.91504447  0.83120538  1
  Ca2+  Ca30  1  0.83022182  0.42622682  0.17720759  1
  Ca2+  Ca31  1  0.82981848  0.41674103  0.49529193  1
  Ca2+  Ca32  1  0.83011877  0.42660564  0.84186250  1
  Ca2+  Ca33  1  0.82973938  0.92546752  0.17053365  1
  Ca2+  Ca34  1  0.82810669  0.91562211  0.49911791  1
  Ca2+  Ca35  1  0.83803846  0.91669114  0.84002380  1
  Ca2+  Ca36  1  0.42889923  0.16787710  0.16120950  1
  Ca2+  Ca37  1  0.41835162  0.16213108  0.49129600  1
  Ca2+  Ca38  1  0.41733806  0.16924025  0.83188846  1
  Ca2+  Ca39  1  0.42710532  0.65733606  0.16229367  1
  Ca2+  Ca40  1  0.42390414  0.67167875  0.49360770  1
  Ca2+  Ca41  1  0.42571171  0.66726244  0.82826522  1
  Ca2+  Ca42  1  0.91145095  0.17007857  0.16135789  1
  Ca2+  Ca43  1  0.92182115  0.16749445  0.49120990  1
  Ca2+  Ca44  1  0.92922599  0.15567871  0.83251298  1
  Ca2+  Ca45  1  0.91499490  0.66969981  0.15612869  1
  Ca2+  Ca46  1  0.91402512  0.67139758  0.49488126  1
  Ca2+  Ca47  1  0.91337929  0.67779619  0.83219244  1
  Al0+  Al48  1  -0.00074777  -0.00000193  -0.00021083  1
  Al0+  Al49  1  0.00047255  -0.00079976  0.33379077  1
  Al0+  Al50  1  0.00195105  0.00016406  0.65943919  1
  Al0+  Al51  1  0.00144881  0.49897735  0.00026199  1
  Al0+  Al52  1  0.00106308  0.49952526  0.33327027  1
  Al0+  Al53  1  -0.00102768  0.50014569  0.66846673  1
  Al0+  Al54  1  0.49956898  -0.00110010  -0.00280435  1
  Al0+  Al55  1  0.49891120  -0.00078254  0.33617620  1
  Al0+  Al56  1  0.50151282  0.00001249  0.67005897  1
  Al0+  Al57  1  0.49913820  0.49861286  -0.00385941  1
  Al0+  Al58  1  0.49975277  0.50056877  0.33802266  1
  Al0+  Al59  1  0.50197699  0.49757543  0.66429543  1
  Al0+  Al60  1  0.24897242  0.25057917  -0.00536257  1
  Al0+  Al61  1  0.24922224  0.25094571  0.33651060  1
  Al0+  Al62  1  0.25074706  0.25143678  0.66562581  1
  Al0+  Al63  1  0.24925557  0.75040992  0.00301359  1
  Al0+  Al64  1  0.24959051  0.75040205  0.33870237  1
  Al0+  Al65  1  0.25017537  0.75110987  0.66789039  1
  Al0+  Al66  1  0.74980405  0.24999086  -0.00246261  1
  Al0+  Al67  1  0.75144933  0.25129589  0.33293920  1
  Al0+  Al68  1  0.74917277  0.25213250  0.67040745  1
  Al0+  Al69  1  0.74860411  0.75048622  -0.00399213  1
  Al0+  Al70  1  0.74995534  0.75096135  0.33586517  1
  Al0+  Al71  1  0.75157473  0.74987189  0.65892476  1
  Al0+  Al72  1  0.92953500  0.32089023  0.31927101  1
  Al0+  Al73  1  0.82325481  0.57237114  0.34887201  1
  Al0+  Al74  1  0.31960774  0.07135360  0.34447542  1
  Al0+  Al75  1  0.07298886  0.67715570  0.98652168  1
  Al0+  Al76  1  0.82054815  0.57174110  0.01173241  1
  Al0+  Al77  1  0.56922685  0.68000296  0.98823563  1
  Al0+  Al78  1  0.56983113  0.67954093  0.31777866  1
  Al0+  Al79  1  0.06965677  0.17957852  0.98729245  1
  Al0+  Al80  1  0.57345724  0.17617568  0.98419389  1
  Al0+  Al81  1  0.56989947  0.17796238  0.32145017  1
  Al0+  Al82  1  0.67868931  0.92883309  0.34855571  1
  Al0+  Al83  1  0.57093261  0.67740909  0.64862445  1
  Al0+  Al84  1  0.32125565  0.57093026  0.34834803  1
  Al0+  Al85  1  0.17782292  0.92935089  0.68408131  1
  Al0+  Al86  1  0.42811269  0.82203584  0.65130335  1
  Al0+  Al87  1  0.82218241  0.07250794  0.34863036  1
  Al0+  Al88  1  0.07049675  0.18094831  0.65097618  1
  Al0+  Al89  1  0.32326449  0.07293245  0.68530640  1
  Al0+  Al90  1  0.42976966  0.31942351  0.98586968  1
  Al0+  Al91  1  0.67914597  0.42923656  0.34744972  1
  Al0+  Al92  1  0.82122210  0.07027394  0.01241803  1
  Al0+  Al93  1  0.92891790  0.81974024  0.98647871  1
  Al0+  Al94  1  0.32077581  0.57110861  0.01280840  1
  Al0+  Al95  1  0.93094081  0.82087491  0.64976196  1
  Si0+  Si96  1  0.17780608  0.43005668  0.68211812  1
  Si0+  Si97  1  0.68079029  0.92746624  0.68254436  1
  Si0+  Si98  1  0.67762986  0.42828495  0.01618327  1
  Si0+  Si99  1  0.07253855  0.67882831  0.31947152  1
  Si0+  Si100  1  0.42606251  0.32268392  0.31783904  1
  Si0+  Si101  1  0.42605095  0.82143516  0.31639437  1
  Si0+  Si102  1  0.32160353  0.56936701  0.68180008  1
  Si0+  Si103  1  0.07249201  0.67538162  0.64980895  1
  Si0+  Si104  1  0.92925822  0.82074493  0.31703917  1
  Si0+  Si105  1  0.42973894  0.32011917  0.65030311  1
  Si0+  Si106  1  0.17862538  0.93008364  0.01595797  1
  Si0+  Si107  1  0.17816592  0.42530254  0.01728978  1
  Si0+  Si108  1  0.17758721  0.42789607  0.35102481  1
  Si0+  Si109  1  0.92652017  0.32421319  0.65048721  1
  Si0+  Si110  1  0.07260774  0.17746700  0.31655738  1
  Si0+  Si111  1  0.17759893  0.92740796  0.34999597  1
  Si0+  Si112  1  0.67584663  0.92778795  0.01508846  1
  Si0+  Si113  1  0.92677306  0.32319219  0.98249172  1
  Si0+  Si114  1  0.42483762  0.82388351  0.98491518  1
  Si0+  Si115  1  0.82030714  0.07162808  0.68054811  1
  Si0+  Si116  1  0.57272618  0.17952247  0.65235799  1
  Si0+  Si117  1  0.67826397  0.42818607  0.68471808  1
  Si0+  Si118  1  0.32107516  0.07246060  0.01461549  1
  Si0+  Si119  1  0.82034009  0.57174762  0.68211710  1
  O2-  O120  1  0.25157046  -0.00002668  0.05738800  1
  O2-  O121  1  0.24457890  -0.00183469  0.39237828  1
  O2-  O122  1  0.25103912  0.00035156  0.73482105  1
  O2-  O123  1  0.24341916  0.49836343  0.05975671  1
  O2-  O124  1  0.24721761  0.49561281  0.39570875  1
  O2-  O125  1  0.24720041  0.50230664  0.72477986  1
  O2-  O126  1  0.74136449  0.00046438  0.05759480  1
  O2-  O127  1  0.74976057  0.00176366  0.39984995  1
  O2-  O128  1  0.75118422  -0.00048089  0.72435947  1
  O2-  O129  1  0.74784661  0.49580496  0.05906241  1
  O2-  O130  1  0.74984969  0.50192757  0.39954870  1
  O2-  O131  1  0.74798989  0.50177840  0.72439962  1
  O2-  O132  1  0.00099525  0.24272584  0.27246846  1
  O2-  O133  1  -0.00610963  0.25451712  0.60620857  1
  O2-  O134  1  -0.00656591  0.25224182  0.93869185  1
  O2-  O135  1  -0.00061185  0.74754604  0.27713553  1
  O2-  O136  1  0.00620104  0.74548614  0.60416473  1
  O2-  O137  1  -0.00141987  0.74549790  0.93550050  1
  O2-  O138  1  0.49451038  0.25303875  0.27557321  1
  O2-  O139  1  0.49738955  0.24564105  0.60949760  1
  O2-  O140  1  0.49947003  0.24610839  0.93387334  1
  O2-  O141  1  0.49387427  0.75304975  0.27052617  1
  O2-  O142  1  0.49857771  0.74965799  0.59996252  1
  O2-  O143  1  0.49342709  0.75405009  0.94250436  1
  O2-  O144  1  0.07162300  0.18183424  0.10023031  1
  O2-  O145  1  0.07366669  0.18006591  0.42211823  1
  O2-  O146  1  0.06875020  0.18158821  0.76434506  1
  O2-  O147  1  0.07460300  0.68206429  0.10041710  1
  O2-  O148  1  0.07367828  0.68018140  0.42479318  1
  O2-  O149  1  0.06986133  0.67196846  0.75497271  1
  O2-  O150  1  0.57250003  0.17630614  0.09770450  1
  O2-  O151  1  0.56759641  0.17942559  0.43527757  1
  O2-  O152  1  0.57526474  0.18314743  0.75710644  1
  O2-  O153  1  0.57033420  0.68003582  0.10113423  1
  O2-  O154  1  0.56736662  0.68084126  0.43054116  1
  O2-  O155  1  0.57002906  0.67689489  0.76274814  1
  O2-  O156  1  0.17704493  0.42687633  0.24576463  1
  O2-  O157  1  0.17778670  0.43152011  0.57699378  1
  O2-  O158  1  0.18030706  0.42339270  0.91127560  1
  O2-  O159  1  0.17814153  0.92582600  0.24397757  1
  O2-  O160  1  0.17800692  0.93350017  0.57025752  1
  O2-  O161  1  0.17779721  0.93035136  0.91137066  1
  O2-  O162  1  0.67997927  0.43011833  0.23390582  1
  O2-  O163  1  0.67827001  0.42337786  0.58034021  1
  O2-  O164  1  0.67873713  0.42941185  0.90972673  1
  O2-  O165  1  0.68141004  0.92808916  0.23475890  1
  O2-  O166  1  0.68097395  0.92863853  0.57776964  1
  O2-  O167  1  0.67658453  0.92729726  0.90903223  1
  O2-  O168  1  0.43014455  0.31846112  0.09940506  1
  O2-  O169  1  0.42547519  0.32115854  0.42402076  1
  O2-  O170  1  0.43114107  0.32340440  0.75505494  1
  O2-  O171  1  0.42400900  0.82673343  0.09042557  1
  O2-  O172  1  0.42505740  0.81965208  0.42173575  1
  O2-  O173  1  0.43037375  0.81797297  0.76535875  1
  O2-  O174  1  0.92804564  0.32334564  0.08790438  1
  O2-  O175  1  0.93375734  0.32085266  0.43279585  1
  O2-  O176  1  0.92760973  0.32652279  0.75602551  1
  O2-  O177  1  0.93075491  0.82073162  0.10024153  1
  O2-  O178  1  0.93165055  0.82164989  0.42227432  1
  O2-  O179  1  0.92882278  0.81935412  0.76264830  1
  O2-  O180  1  0.31787704  0.07059240  0.23074806  1
  O2-  O181  1  0.32171372  0.07391231  0.57146102  1
  O2-  O182  1  0.32013796  0.07218843  0.90998685  1
  O2-  O183  1  0.31983783  0.57031472  0.23535998  1
  O2-  O184  1  0.32095414  0.56604380  0.57660605  1
  O2-  O185  1  0.32037576  0.56901479  0.89915592  1
  O2-  O186  1  0.82293957  0.06983648  0.23491614  1
  O2-  O187  1  0.81697890  0.07410685  0.57590539  1
  O2-  O188  1  0.82271600  0.06623226  0.89851704  1
  O2-  O189  1  0.82353083  0.57202844  0.23515227  1
  O2-  O190  1  0.82296715  0.56943146  0.57752576  1
  O2-  O191  1  0.81740488  0.57110273  0.89789765  1
  O2-  O192  1  0.05229854  0.08182585  0.27245778  1
  O2-  O193  1  0.04147590  0.08570420  0.59513048  1
  O2-  O194  1  0.03869019  0.08358618  0.93261116  1
  O2-  O195  1  0.05027916  0.58572081  0.27317917  1
  O2-  O196  1  0.04473372  0.58220696  0.60263266  1
  O2-  O197  1  0.05293490  0.57601428  0.93571951  1
  O2-  O198  1  0.53880345  0.08148067  0.26741085  1
  O2-  O199  1  0.55073474  0.08537015  0.60809680  1
  O2-  O200  1  0.54641335  0.07733808  0.93120797  1
  O2-  O201  1  0.53835625  0.58152843  0.26706072  1
  O2-  O202  1  0.54301002  0.57779310  0.59797938  1
  O2-  O203  1  0.53965765  0.58401224  0.93263740  1
  O2-  O204  1  0.16524432  0.20774088  0.27036204  1
  O2-  O205  1  0.16682608  0.21492305  0.59801193  1
  O2-  O206  1  0.16413570  0.21139571  0.93010057  1
  O2-  O207  1  0.16383397  0.70999735  0.27225689  1
  O2-  O208  1  0.16754416  0.69823974  0.60576229  1
  O2-  O209  1  0.17038085  0.70907143  0.93325057  1
  O2-  O210  1  0.66651195  0.20897466  0.26859845  1
  O2-  O211  1  0.66320447  0.21280426  0.60497794  1
  O2-  O212  1  0.67053766  0.20679444  0.92880880  1
  O2-  O213  1  0.66773586  0.71146795  0.26660455  1
  O2-  O214  1  0.66905203  0.70580318  0.59662680  1
  O2-  O215  1  0.66342078  0.71217884  0.93048109  1
  O2-  O216  1  0.08320644  0.44575244  0.06227835  1
  O2-  O217  1  0.08586220  0.45586576  0.39945530  1
  O2-  O218  1  0.08500552  0.45416174  0.73007176  1
  O2-  O219  1  0.08836655  0.96034234  0.06490294  1
  O2-  O220  1  0.08371361  0.95141351  0.39540601  1
  O2-  O221  1  0.07861668  0.96103355  0.73462403  1
  O2-  O222  1  0.58391903  0.45348154  0.06034418  1
  O2-  O223  1  0.58084024  0.45450738  0.40269154  1
  O2-  O224  1  0.58590237  0.45522976  0.73206703  1
  O2-  O225  1  0.58065038  0.94802229  0.06062843  1
  O2-  O226  1  0.58017753  0.95524858  0.40202508  1
  O2-  O227  1  0.58947109  0.95386032  0.73129712  1
  O2-  O228  1  0.20834664  0.33357463  0.06506549  1
  O2-  O229  1  0.20228140  0.33489105  0.39939999  1
  O2-  O230  1  0.20832093  0.33926166  0.72946239  1
  O2-  O231  1  0.20531571  0.83876569  0.06533405  1
  O2-  O232  1  0.20265694  0.83529639  0.39900547  1
  O2-  O233  1  0.20296964  0.82888294  0.73597636  1
  O2-  O234  1  0.70159381  0.33354575  0.06001419  1
  O2-  O235  1  0.71028410  0.33244647  0.40265801  1
  O2-  O236  1  0.70825865  0.33827021  0.73591365  1
  O2-  O237  1  0.70606963  0.83595739  0.06148066  1
  O2-  O238  1  0.71049226  0.83280621  0.40402434  1
  O2-  O239  1  0.71088337  0.83498655  0.72780709  1
  O2-  O240  1  0.45173312  0.41656635  0.27369506  1
  O2-  O241  1  0.46167893  0.40985194  0.60096112  1
  O2-  O242  1  0.45984772  0.41571776  0.92871256  1
  O2-  O243  1  0.45086037  0.91540427  0.27113213  1
  O2-  O244  1  0.45749563  0.92179120  0.60131769  1
  O2-  O245  1  0.44914027  0.91644578  0.93620523  1
  O2-  O246  1  0.96381577  0.41666165  0.26465467  1
  O2-  O247  1  0.95395614  0.41715421  0.60366861  1
  O2-  O248  1  0.95506339  0.41544396  0.93475433  1
  O2-  O249  1  0.95909986  0.91218428  0.26937137  1
  O2-  O250  1  0.96141272  0.91614653  0.59348100  1
  O2-  O251  1  0.96167677  0.91639982  0.93284702  1
  O2-  O252  1  0.33144669  0.29917253  0.27276569  1
  O2-  O253  1  0.33656760  0.29852711  0.60296672  1
  O2-  O254  1  0.33170901  0.29334135  0.93066833  1
  O2-  O255  1  0.33105537  0.79652341  0.27190646  1
  O2-  O256  1  0.32816252  0.79642175  0.59973259  1
  O2-  O257  1  0.33155931  0.79824673  0.93906756  1
  O2-  O258  1  0.83311994  0.29399027  0.26424640  1
  O2-  O259  1  0.83182187  0.29871744  0.60677689  1
  O2-  O260  1  0.83269967  0.30158596  0.93605879  1
  O2-  O261  1  0.83713050  0.79468084  0.27102540  1
  O2-  O262  1  0.83600280  0.78882655  0.59389191  1
  O2-  O263  1  0.83112999  0.79371616  0.93106550  1
  O2-  O264  1  0.41396421  0.04554539  0.06079530  1
  O2-  O265  1  0.41454596  0.04072093  0.40062369  1
  O2-  O266  1  0.42284290  0.04619703  0.73764610  1
  O2-  O267  1  0.41632428  0.53552414  0.06612114  1
  O2-  O268  1  0.41542814  0.53945506  0.40560397  1
  O2-  O269  1  0.41294911  0.53644180  0.72739592  1
  O2-  O270  1  0.91644430  0.03798353  0.06828722  1
  O2-  O271  1  0.92122730  0.04280118  0.40045062  1
  O2-  O272  1  0.91356134  0.04309240  0.72363980  1
  O2-  O273  1  0.91915308  0.54419593  0.06375978  1
  O2-  O274  1  0.92185711  0.54304668  0.40176016  1
  O2-  O275  1  0.91182929  0.54296948  0.73069028  1
  O2-  O276  1  0.29020737  0.16375889  0.06080074  1
  O2-  O277  1  0.29130292  0.16817092  0.40026158  1
  O2-  O278  1  0.29355960  0.17298911  0.73501910  1
  O2-  O279  1  0.29234533  0.66784127  0.06856950  1
  O2-  O280  1  0.28786193  0.66614587  0.40409814  1
  O2-  O281  1  0.29824603  0.66262123  0.72740806  1
  O2-  O282  1  0.79487118  0.16959277  0.06313788  1
  O2-  O283  1  0.79671319  0.17113677  0.40112018  1
  O2-  O284  1  0.79290922  0.16342287  0.72920486  1
  O2-  O285  1  0.78912011  0.66864950  0.06433362  1
  O2-  O286  1  0.79559737  0.67036170  0.40170812  1
  O2-  O287  1  0.79268391  0.66467192  0.72710145  1
