# generated using pymatgen
data_Ca2Al2SiO7
_symmetry_space_group_name_H-M   'P 1'
_cell_length_a   15.45495770
_cell_length_b   15.45509437
_cell_length_c   15.28178458
_cell_angle_alpha   89.99875138
_cell_angle_beta   90.00692723
_cell_angle_gamma   90.00061820
_symmetry_Int_Tables_number   1
_chemical_formula_structural   Ca2Al2SiO7
_chemical_formula_sum   'Ca48 Al48 Si24 O168'
_cell_volume   3650.17387040
_cell_formula_units_Z   24
loop_
 _symmetry_equiv_pos_site_id
 _symmetry_equiv_pos_as_xyz
  1  'x, y, z'
loop_
 _atom_type_symbol
 _atom_type_oxidation_number
  Ca2+  2.0
  Al0+  0.0
  Si0+  0.0
  O2-  -2.0
loop_
 _atom_site_type_symbol
 _atom_site_label
 _atom_site_symmetry_multiplicity
 _atom_site_fract_x
 _atom_site_fract_y
 _atom_site_fract_z
 _atom_site_occupancy
  Ca2+  Ca0  1  0.16680736  0.07516271  0.16818956  1
  Ca2+  Ca1  1  0.16136768  0.07743007  0.49863071  1
  Ca2+  Ca2  1  0.17491984  0.07933308  0.84725327  1
  Ca2+  Ca3  1  0.16444794  0.57802749  0.16913571  1
  Ca2+  Ca4  1  0.17434737  0.57924077  0.51552725  1
  Ca2+  Ca5  1  0.16623909  0.57639738  0.83256488  1
  Ca2+  Ca6  1  0.67381450  0.07743657  0.18115048  1
  Ca2+  Ca7  1  0.66074656  0.08173608  0.49899784  1
  Ca2+  Ca8  1  0.66636166  0.08377911  0.83628589  1
  Ca2+  Ca9  1  0.66633345  0.57660243  0.17171754  1
  Ca2+  Ca10  1  0.67550043  0.58644630  0.50605847  1
  Ca2+  Ca11  1  0.66571032  0.58641845  0.83826011  1
  Ca2+  Ca12  1  0.08477528  0.32114528  0.15988655  1
  Ca2+  Ca13  1  0.08375301  0.33018001  0.49396119  1
  Ca2+  Ca14  1  0.09574782  0.32994937  0.83161892  1
  Ca2+  Ca15  1  0.07853664  0.83965597  0.15985840  1
  Ca2+  Ca16  1  0.08119782  0.82842125  0.49767123  1
  Ca2+  Ca17  1  0.07354187  0.83404674  0.82829052  1
  Ca2+  Ca18  1  0.59263489  0.33104420  0.16501184  1
  Ca2+  Ca19  1  0.58274283  0.32854997  0.49579644  1
  Ca2+  Ca20  1  0.57743961  0.32958688  0.82431251  1
  Ca2+  Ca21  1  0.57443141  0.83501389  0.15984825  1
  Ca2+  Ca22  1  0.57874489  0.82877344  0.49339389  1
  Ca2+  Ca23  1  0.57744313  0.82150874  0.83027691  1
  Ca2+  Ca24  1  0.32799441  0.41610719  0.16491510  1
  Ca2+  Ca25  1  0.32790411  0.41910254  0.51160869  1
  Ca2+  Ca26  1  0.32883249  0.41825678  0.83335315  1
  Ca2+  Ca27  1  0.32885599  0.91471641  0.17002865  1
  Ca2+  Ca28  1  0.33018720  0.91202637  0.49874119  1
  Ca2+  Ca29  1  0.32844463  0.92277329  0.84529290  1
  Ca2+  Ca30  1  0.82134800  0.42341289  0.17525538  1
  Ca2+  Ca31  1  0.82924372  0.42734701  0.50239990  1
  Ca2+  Ca32  1  0.82658736  0.42644453  0.83913024  1
  Ca2+  Ca33  1  0.82783344  0.91861141  0.17461146  1
  Ca2+  Ca34  1  0.83063895  0.92053571  0.50006056  1
  Ca2+  Ca35  1  0.83630526  0.91134358  0.83529857  1
  Ca2+  Ca36  1  0.42193174  0.16259169  0.16457177  1
  Ca2+  Ca37  1  0.42623736  0.17359122  0.49784110  1
  Ca2+  Ca38  1  0.41870820  0.17128988  0.82561883  1
  Ca2+  Ca39  1  0.42276520  0.68004433  0.15965837  1
  Ca2+  Ca40  1  0.42086419  0.66489872  0.49626351  1
  Ca2+  Ca41  1  0.42487633  0.66255675  0.82869088  1
  Ca2+  Ca42  1  0.92802412  0.15626472  0.16525788  1
  Ca2+  Ca43  1  0.92051580  0.16723200  0.49021099  1
  Ca2+  Ca44  1  0.92626188  0.16931620  0.83237974  1
  Ca2+  Ca45  1  0.91353172  0.67283924  0.16182154  1
  Ca2+  Ca46  1  0.91735697  0.66277130  0.50194021  1
  Ca2+  Ca47  1  0.91897001  0.67736962  0.82299741  1
  Al0+  Al48  1  0.00137646  0.00135668  -0.00801745  1
  Al0+  Al49  1  0.00094405  -0.00136514  0.33796441  1
  Al0+  Al50  1  -0.00237583  0.00062159  0.66375764  1
  Al0+  Al51  1  -0.00162682  0.49953352  0.00628504  1
  Al0+  Al52  1  0.00015152  0.49898437  0.33455979  1
  Al0+  Al53  1  -0.00141553  0.49947573  0.67331425  1
  Al0+  Al54  1  0.50111425  0.00062961  -0.00147777  1
  Al0+  Al55  1  0.49805404  0.00193786  0.32954117  1
  Al0+  Al56  1  0.50030323  -0.00080320  0.66466952  1
  Al0+  Al57  1  0.50045571  0.49835639  0.00242342  1
  Al0+  Al58  1  0.49779131  0.49983953  0.33502860  1
  Al0+  Al59  1  0.49888028  0.49945323  0.66088849  1
  Al0+  Al60  1  0.25236615  0.24942139  0.00534816  1
  Al0+  Al61  1  0.25050065  0.24840131  0.32816593  1
  Al0+  Al62  1  0.25152118  0.24740784  0.66362695  1
  Al0+  Al63  1  0.24886035  0.74989767  -0.00012992  1
  Al0+  Al64  1  0.24917857  0.74953236  0.33198295  1
  Al0+  Al65  1  0.24832185  0.74997144  0.67099528  1
  Al0+  Al66  1  0.75237448  0.25116476  0.00306802  1
  Al0+  Al67  1  0.75070975  0.25221824  0.33655184  1
  Al0+  Al68  1  0.75309717  0.24790976  0.66458407  1
  Al0+  Al69  1  0.75066743  0.75113227  -0.00731397  1
  Al0+  Al70  1  0.75054955  0.74965200  0.34016387  1
  Al0+  Al71  1  0.74843320  0.75286498  0.66254954  1
  Al0+  Al72  1  0.06994286  0.17800918  0.31884522  1
  Al0+  Al73  1  0.07042247  0.67804066  0.65280263  1
  Al0+  Al74  1  0.81851786  0.57262813  0.68336193  1
  Al0+  Al75  1  0.56921200  0.67827704  0.98621451  1
  Al0+  Al76  1  0.93102742  0.82054963  0.98778348  1
  Al0+  Al77  1  0.32323694  0.57270300  0.68244455  1
  Al0+  Al78  1  0.57177746  0.18225152  0.31791684  1
  Al0+  Al79  1  0.56926657  0.67904017  0.65138875  1
  Al0+  Al80  1  0.17877191  0.42947814  0.01597749  1
  Al0+  Al81  1  0.82179672  0.07011303  0.34774738  1
  Al0+  Al82  1  0.42835012  0.32027944  0.65185421  1
  Al0+  Al83  1  0.67617498  0.42936719  0.35117260  1
  Al0+  Al84  1  0.67500527  0.92947425  0.34801497  1
  Al0+  Al85  1  0.17863316  0.42611892  0.68089682  1
  Al0+  Al86  1  0.18002270  0.92845112  0.34836566  1
  Al0+  Al87  1  0.42673618  0.82349020  0.98334808  1
  Al0+  Al88  1  0.07160464  0.18192939  0.98555028  1
  Al0+  Al89  1  0.57372346  0.17745705  0.65190970  1
  Al0+  Al90  1  0.32416885  0.07100285  0.01618834  1
  Al0+  Al91  1  0.42815665  0.81984467  0.31988346  1
  Al0+  Al92  1  0.92854230  0.82270082  0.64677850  1
  Al0+  Al93  1  0.67851796  0.42883393  0.01233047  1
  Al0+  Al94  1  0.82242350  0.57195489  0.34922278  1
  Al0+  Al95  1  0.17780987  0.92842926  0.01355148  1
  Si0+  Si96  1  0.92914549  0.32128677  0.65275626  1
  Si0+  Si97  1  0.57445874  0.17988924  0.98668036  1
  Si0+  Si98  1  0.18042593  0.42704020  0.34669720  1
  Si0+  Si99  1  0.42720608  0.32382585  0.31347996  1
  Si0+  Si100  1  0.92963514  0.81962307  0.31959200  1
  Si0+  Si101  1  0.67816422  0.93112175  0.68325709  1
  Si0+  Si102  1  0.92733020  0.32271842  0.98387519  1
  Si0+  Si103  1  0.07140431  0.67748810  0.31825851  1
  Si0+  Si104  1  0.31792412  0.57119657  0.34646745  1
  Si0+  Si105  1  0.57341533  0.67788667  0.31719334  1
  Si0+  Si106  1  0.82256984  0.07190939  0.68430915  1
  Si0+  Si107  1  0.32106034  0.06835689  0.67949213  1
  Si0+  Si108  1  0.32319653  0.57193803  0.01830539  1
  Si0+  Si109  1  0.07228471  0.67319688  0.98458019  1
  Si0+  Si110  1  0.82005118  0.57470878  0.01607576  1
  Si0+  Si111  1  0.07138848  0.17963678  0.65178407  1
  Si0+  Si112  1  0.82127878  0.07152762  0.01280204  1
  Si0+  Si113  1  0.92909550  0.32429347  0.31554667  1
  Si0+  Si114  1  0.67904209  0.42625645  0.68246338  1
  Si0+  Si115  1  0.42634600  0.82278530  0.65082545  1
  Si0+  Si116  1  0.32163708  0.07343592  0.35224146  1
  Si0+  Si117  1  0.17667793  0.92970267  0.68190482  1
  Si0+  Si118  1  0.68083897  0.92902103  0.01180672  1
  Si0+  Si119  1  0.42988310  0.32021126  0.98628333  1
  O2-  O120  1  0.25375870  -0.00394244  0.06435093  1
  O2-  O121  1  0.25406630  0.00339097  0.39652227  1
  O2-  O122  1  0.25028389  -0.00183591  0.72289121  1
  O2-  O123  1  0.24996297  0.50754429  0.06325902  1
  O2-  O124  1  0.25035544  0.49751878  0.38958478  1
  O2-  O125  1  0.25002294  0.49976652  0.72978680  1
  O2-  O126  1  0.75026564  0.00091539  0.05469069  1
  O2-  O127  1  0.74619942  0.00250234  0.39893621  1
  O2-  O128  1  0.74977186  0.00231650  0.72588177  1
  O2-  O129  1  0.75101935  0.50594705  0.05883993  1
  O2-  O130  1  0.74661543  0.50372426  0.39934270  1
  O2-  O131  1  0.74172573  0.49922837  0.72926647  1
  O2-  O132  1  -0.00579835  0.25173019  0.27176414  1
  O2-  O133  1  0.00355114  0.25355513  0.61044444  1
  O2-  O134  1  0.00095665  0.26021049  0.93764357  1
  O2-  O135  1  -0.00196917  0.74635723  0.27666369  1
  O2-  O136  1  -0.00030333  0.74888140  0.59843373  1
  O2-  O137  1  0.00644697  0.74567673  0.94259165  1
  O2-  O138  1  0.49957521  0.25881083  0.26931229  1
  O2-  O139  1  0.50495553  0.25267551  0.60297933  1
  O2-  O140  1  0.50205091  0.24944441  0.94495749  1
  O2-  O141  1  0.50843029  0.75040800  0.27365954  1
  O2-  O142  1  0.49012396  0.74997185  0.60613610  1
  O2-  O143  1  0.49491347  0.74740983  0.93455442  1
  O2-  O144  1  0.06814903  0.17945160  0.09837980  1
  O2-  O145  1  0.06984074  0.18159685  0.43259593  1
  O2-  O146  1  0.07083881  0.17867624  0.75691001  1
  O2-  O147  1  0.06848953  0.67107576  0.09077699  1
  O2-  O148  1  0.07400184  0.67699399  0.42288229  1
  O2-  O149  1  0.06874810  0.68067480  0.76645174  1
  O2-  O150  1  0.57656783  0.18065634  0.09149270  1
  O2-  O151  1  0.56750433  0.18232718  0.43066415  1
  O2-  O152  1  0.57203543  0.17741921  0.76635219  1
  O2-  O153  1  0.57062310  0.68050960  0.10001893  1
  O2-  O154  1  0.57027033  0.67722359  0.42278454  1
  O2-  O155  1  0.57015309  0.68142691  0.76449720  1
  O2-  O156  1  0.18072592  0.42877302  0.24154141  1
  O2-  O157  1  0.18011979  0.42473367  0.56659876  1
  O2-  O158  1  0.18249193  0.42814475  0.90342125  1
  O2-  O159  1  0.17877562  0.92849756  0.23573782  1
  O2-  O160  1  0.17654261  0.93090917  0.57653559  1
  O2-  O161  1  0.17584651  0.93476382  0.89959946  1
  O2-  O162  1  0.67860595  0.43168970  0.23703712  1
  O2-  O163  1  0.68407204  0.42487399  0.57729248  1
  O2-  O164  1  0.68062569  0.42546546  0.89933259  1
  O2-  O165  1  0.67868308  0.92935902  0.23353093  1
  O2-  O166  1  0.67652875  0.93333344  0.57845784  1
  O2-  O167  1  0.68174125  0.93072813  0.90653731  1
  O2-  O168  1  0.43048606  0.32105782  0.09141447  1
  O2-  O169  1  0.42326335  0.32187282  0.41861667  1
  O2-  O170  1  0.42733307  0.31609114  0.76606699  1
  O2-  O171  1  0.43090337  0.82307774  0.09711795  1
  O2-  O172  1  0.42574415  0.81411548  0.43312909  1
  O2-  O173  1  0.43048835  0.82690749  0.75597170  1
  O2-  O174  1  0.92586009  0.31903244  0.08913909  1
  O2-  O175  1  0.93413061  0.32705472  0.42147401  1
  O2-  O176  1  0.92520983  0.31695631  0.75776619  1
  O2-  O177  1  0.92797531  0.82032251  0.10136259  1
  O2-  O178  1  0.93242364  0.82079790  0.42413048  1
  O2-  O179  1  0.93179330  0.82460800  0.76072100  1
  O2-  O180  1  0.32069339  0.07406852  0.24688990  1
  O2-  O181  1  0.32022317  0.06795951  0.57447407  1
  O2-  O182  1  0.32271850  0.07269016  0.90165342  1
  O2-  O183  1  0.31554431  0.57106219  0.24129954  1
  O2-  O184  1  0.32057296  0.57215105  0.56811291  1
  O2-  O185  1  0.32576943  0.56816041  0.91322443  1
  O2-  O186  1  0.82357696  0.06428337  0.23344590  1
  O2-  O187  1  0.82604927  0.07249701  0.57982521  1
  O2-  O188  1  0.81918227  0.07401704  0.90746889  1
  O2-  O189  1  0.82343366  0.57161844  0.23515421  1
  O2-  O190  1  0.81915737  0.56869405  0.57062313  1
  O2-  O191  1  0.82003264  0.57396214  0.91060005  1
  O2-  O192  1  0.03760047  0.08070791  0.26684675  1
  O2-  O193  1  0.03881393  0.08981798  0.60361679  1
  O2-  O194  1  0.03695100  0.08889110  0.92712179  1
  O2-  O195  1  0.04507374  0.58470737  0.27088261  1
  O2-  O196  1  0.04314870  0.57759883  0.60283428  1
  O2-  O197  1  0.04401227  0.58014697  0.93854695  1
  O2-  O198  1  0.54003233  0.08587620  0.26337126  1
  O2-  O199  1  0.54031902  0.08079096  0.59857100  1
  O2-  O200  1  0.54887556  0.08797804  0.93851741  1
  O2-  O201  1  0.54278986  0.58511094  0.27166523  1
  O2-  O202  1  0.54452317  0.58174530  0.59642494  1
  O2-  O203  1  0.54289722  0.57835327  0.93457502  1
  O2-  O204  1  0.16606223  0.20897029  0.26417541  1
  O2-  O205  1  0.16341933  0.20239373  0.60310237  1
  O2-  O206  1  0.17016210  0.21127014  0.93461815  1
  O2-  O207  1  0.16113191  0.70717109  0.26816608  1
  O2-  O208  1  0.16981195  0.70691567  0.60091692  1
  O2-  O209  1  0.16785597  0.69276670  0.94138222  1
  O2-  O210  1  0.67083533  0.20946708  0.26576764  1
  O2-  O211  1  0.67397893  0.20050360  0.60070923  1
  O2-  O212  1  0.66602339  0.20868530  0.93854054  1
  O2-  O213  1  0.66946737  0.69894864  0.27455261  1
  O2-  O214  1  0.66324811  0.71529634  0.59673397  1
  O2-  O215  1  0.66590611  0.70970701  0.93111545  1
  O2-  O216  1  0.08070724  0.45543956  0.07104661  1
  O2-  O217  1  0.08800252  0.45265599  0.39299669  1
  O2-  O218  1  0.08043378  0.45090206  0.73582589  1
  O2-  O219  1  0.07995450  0.96362225  0.06497244  1
  O2-  O220  1  0.08553214  0.96087606  0.40490643  1
  O2-  O221  1  0.08537605  0.96205259  0.72747823  1
  O2-  O222  1  0.58217530  0.45557776  0.06873116  1
  O2-  O223  1  0.57525464  0.45274165  0.40117181  1
  O2-  O224  1  0.58218510  0.44621049  0.72287306  1
  O2-  O225  1  0.58900808  0.95561329  0.05884098  1
  O2-  O226  1  0.57632883  0.95821488  0.40005612  1
  O2-  O227  1  0.58657620  0.95952353  0.73184454  1
  O2-  O228  1  0.21405993  0.33506532  0.07133130  1
  O2-  O229  1  0.20841025  0.33476711  0.39270560  1
  O2-  O230  1  0.21033945  0.32714374  0.73235471  1
  O2-  O231  1  0.19693743  0.82698593  0.06483966  1
  O2-  O232  1  0.21178176  0.83158294  0.40184569  1
  O2-  O233  1  0.19968256  0.83763488  0.72991543  1
  O2-  O234  1  0.71375219  0.33408576  0.06882760  1
  O2-  O235  1  0.70611471  0.33187095  0.40381199  1
  O2-  O236  1  0.70953371  0.33332541  0.72856593  1
  O2-  O237  1  0.71048489  0.83780828  0.05876381  1
  O2-  O238  1  0.70329505  0.83178720  0.40153930  1
  O2-  O239  1  0.70734314  0.83998509  0.73043560  1
  O2-  O240  1  0.44781801  0.41948135  0.26870049  1
  O2-  O241  1  0.45006286  0.41890541  0.59767510  1
  O2-  O242  1  0.45698346  0.41166180  0.93852885  1
  O2-  O243  1  0.45254272  0.91832170  0.26702493  1
  O2-  O244  1  0.45683145  0.91381935  0.60177220  1
  O2-  O245  1  0.45927526  0.92100070  0.93001017  1
  O2-  O246  1  0.95882152  0.41578074  0.26656242  1
  O2-  O247  1  0.95448350  0.41363977  0.60653848  1
  O2-  O248  1  0.94692793  0.41925704  0.94170945  1
  O2-  O249  1  0.96058004  0.91043752  0.27241033  1
  O2-  O250  1  0.95874231  0.92128752  0.59469354  1
  O2-  O251  1  0.96048576  0.91562723  0.92938017  1
  O2-  O252  1  0.33541661  0.29366622  0.26516628  1
  O2-  O253  1  0.33273875  0.28584569  0.59530176  1
  O2-  O254  1  0.33889780  0.29094307  0.93904150  1
  O2-  O255  1  0.33368177  0.78348607  0.26418576  1
  O2-  O256  1  0.32992533  0.80316409  0.60888106  1
  O2-  O257  1  0.32526148  0.80131636  0.93431299  1
  O2-  O258  1  0.83353918  0.30329630  0.27291496  1
  O2-  O259  1  0.84033443  0.28961535  0.60185001  1
  O2-  O260  1  0.83657472  0.29062073  0.93490159  1
  O2-  O261  1  0.83607211  0.79436170  0.27354905  1
  O2-  O262  1  0.82912992  0.79778866  0.59651135  1
  O2-  O263  1  0.83612557  0.79074070  0.92951020  1
  O2-  O264  1  0.42415711  0.04526023  0.06801057  1
  O2-  O265  1  0.41515594  0.04831193  0.39732830  1
  O2-  O266  1  0.41305666  0.04151497  0.72765793  1
  O2-  O267  1  0.41383559  0.54044571  0.06728523  1
  O2-  O268  1  0.41078565  0.54733422  0.39327005  1
  O2-  O269  1  0.42209811  0.54247869  0.73375639  1
  O2-  O270  1  0.91325101  0.04160701  0.05716008  1
  O2-  O271  1  0.91755249  0.03825453  0.40393905  1
  O2-  O272  1  0.91374691  0.04156075  0.73296155  1
  O2-  O273  1  0.91304614  0.55016174  0.06402778  1
  O2-  O274  1  0.92035005  0.53913849  0.40253740  1
  O2-  O275  1  0.91369128  0.54007882  0.73882349  1
  O2-  O276  1  0.29524265  0.16778456  0.07107836  1
  O2-  O277  1  0.29294147  0.16688523  0.39750882  1
  O2-  O278  1  0.29288532  0.15977435  0.72709546  1
  O2-  O279  1  0.30138988  0.66732087  0.06250166  1
  O2-  O280  1  0.28682840  0.66052761  0.39546213  1
  O2-  O281  1  0.29582203  0.67102220  0.73683672  1
  O2-  O282  1  0.79507917  0.16230724  0.06258892  1
  O2-  O283  1  0.80113011  0.17111976  0.39759407  1
  O2-  O284  1  0.79671964  0.16395598  0.73309577  1
  O2-  O285  1  0.79376306  0.66865510  0.06119039  1
  O2-  O286  1  0.79930302  0.67044703  0.40373230  1
  O2-  O287  1  0.78883965  0.67171972  0.73298135  1
