# generated using pymatgen
data_Ca2Al2SiO7
_symmetry_space_group_name_H-M   'P 1'
_cell_length_a   15.46932393
_cell_length_b   15.47265421
_cell_length_c   15.29228690
_cell_angle_alpha   90.00261338
_cell_angle_beta   90.00463887
_cell_angle_gamma   90.01643263
_symmetry_Int_Tables_number   1
_chemical_formula_structural   Ca2Al2SiO7
_chemical_formula_sum   'Ca48 Al48 Si24 O168'
_cell_volume   3660.23164376
_cell_formula_units_Z   24
loop_
 _symmetry_equiv_pos_site_id
 _symmetry_equiv_pos_as_xyz
  1  'x, y, z'
loop_
 _atom_type_symbol
 _atom_type_oxidation_number
  Ca2+  2.0
  Al0+  0.0
  Si0+  0.0
  O2-  -2.0
loop_
 _atom_site_type_symbol
 _atom_site_label
 _atom_site_symmetry_multiplicity
 _atom_site_fract_x
 _atom_site_fract_y
 _atom_site_fract_z
 _atom_site_occupancy
  Ca2+  Ca0  1  0.16249752  0.06648053  0.16890545  1
  Ca2+  Ca1  1  0.17064840  0.07579419  0.50606233  1
  Ca2+  Ca2  1  0.17004939  0.07984300  0.83451888  1
  Ca2+  Ca3  1  0.16523342  0.57515466  0.17945881  1
  Ca2+  Ca4  1  0.16444747  0.58941793  0.50112430  1
  Ca2+  Ca5  1  0.16223578  0.58146622  0.83601140  1
  Ca2+  Ca6  1  0.67409322  0.07201386  0.16825011  1
  Ca2+  Ca7  1  0.66575556  0.07284586  0.50701376  1
  Ca2+  Ca8  1  0.66932896  0.07219324  0.83632363  1
  Ca2+  Ca9  1  0.68096272  0.59027392  0.17071054  1
  Ca2+  Ca10  1  0.67755894  0.58657208  0.51027977  1
  Ca2+  Ca11  1  0.67923435  0.59487831  0.83150752  1
  Ca2+  Ca12  1  0.08938859  0.33490956  0.16320522  1
  Ca2+  Ca13  1  0.09079722  0.32674442  0.49778459  1
  Ca2+  Ca14  1  0.08411078  0.32768022  0.82658240  1
  Ca2+  Ca15  1  0.07476074  0.83375416  0.16166484  1
  Ca2+  Ca16  1  0.07137985  0.82542652  0.49024929  1
  Ca2+  Ca17  1  0.07032125  0.83357777  0.82599172  1
  Ca2+  Ca18  1  0.58182639  0.33184479  0.16161486  1
  Ca2+  Ca19  1  0.59502864  0.32593629  0.49992331  1
  Ca2+  Ca20  1  0.58786348  0.32543620  0.82214923  1
  Ca2+  Ca21  1  0.58102977  0.84016729  0.16766809  1
  Ca2+  Ca22  1  0.57491237  0.83958605  0.49889592  1
  Ca2+  Ca23  1  0.58314416  0.83410971  0.82249526  1
  Ca2+  Ca24  1  0.32265067  0.42457624  0.17417412  1
  Ca2+  Ca25  1  0.33041115  0.42531837  0.49824154  1
  Ca2+  Ca26  1  0.32663892  0.41940986  0.83786566  1
  Ca2+  Ca27  1  0.32028118  0.90894797  0.17394987  1
  Ca2+  Ca28  1  0.32981350  0.91148005  0.50513118  1
  Ca2+  Ca29  1  0.33058348  0.91905975  0.83324138  1
  Ca2+  Ca30  1  0.83824463  0.43253069  0.17147674  1
  Ca2+  Ca31  1  0.83223089  0.43151415  0.50718123  1
  Ca2+  Ca32  1  0.83036396  0.42998296  0.83274361  1
  Ca2+  Ca33  1  0.82564949  0.90732298  0.16942483  1
  Ca2+  Ca34  1  0.82408011  0.90309555  0.50382309  1
  Ca2+  Ca35  1  0.82556420  0.91160268  0.83918322  1
  Ca2+  Ca36  1  0.41738726  0.16743026  0.16420810  1
  Ca2+  Ca37  1  0.41976185  0.16206629  0.50199330  1
  Ca2+  Ca38  1  0.42113879  0.16699818  0.82079808  1
  Ca2+  Ca39  1  0.41249505  0.66990361  0.17011735  1
  Ca2+  Ca40  1  0.42165307  0.67444290  0.49528998  1
  Ca2+  Ca41  1  0.42625635  0.67645649  0.82154714  1
  Ca2+  Ca42  1  0.91423943  0.16885823  0.15988411  1
  Ca2+  Ca43  1  0.92209035  0.16803452  0.49876642  1
  Ca2+  Ca44  1  0.91921783  0.16577464  0.82736658  1
  Ca2+  Ca45  1  0.91548737  0.67288536  0.16665900  1
  Ca2+  Ca46  1  0.91908988  0.67039727  0.49745480  1
  Ca2+  Ca47  1  0.91678940  0.67396731  0.82649058  1
  Al0+  Al48  1  0.00104741  0.00196672  0.00109525  1
  Al0+  Al49  1  -0.00029872  0.00129134  0.33310036  1
  Al0+  Al50  1  -0.00044991  0.00102739  0.65706661  1
  Al0+  Al51  1  -0.00036375  0.49841660  0.00656269  1
  Al0+  Al52  1  -0.00128488  0.49684957  0.33931407  1
  Al0+  Al53  1  -0.00069132  0.49957340  0.66906742  1
  Al0+  Al54  1  0.50083883  0.00164217  0.00279763  1
  Al0+  Al55  1  0.50143854  0.00035913  0.32956810  1
  Al0+  Al56  1  0.49944126  0.00344053  0.66726460  1
  Al0+  Al57  1  0.49950948  0.50010248  -0.00234582  1
  Al0+  Al58  1  0.49895259  0.49698893  0.33403928  1
  Al0+  Al59  1  0.49759549  0.49868623  0.66752491  1
  Al0+  Al60  1  0.25131634  0.25169550  0.00265807  1
  Al0+  Al61  1  0.25172370  0.25019177  0.33376441  1
  Al0+  Al62  1  0.25075488  0.24863048  0.66596656  1
  Al0+  Al63  1  0.25138107  0.74965686  0.00081835  1
  Al0+  Al64  1  0.25073942  0.74822246  0.33397414  1
  Al0+  Al65  1  0.24856358  0.74958666  0.66476522  1
  Al0+  Al66  1  0.74997269  0.25012681  0.00077775  1
  Al0+  Al67  1  0.75179331  0.24754279  0.32885110  1
  Al0+  Al68  1  0.75058633  0.25100401  0.66424594  1
  Al0+  Al69  1  0.74956506  0.74999900  0.00513676  1
  Al0+  Al70  1  0.74884721  0.74956441  0.33873232  1
  Al0+  Al71  1  0.74923494  0.74989803  0.66958959  1
  Al0+  Al72  1  0.92949831  0.82111373  0.98642154  1
  Al0+  Al73  1  0.92739881  0.82180253  0.65223505  1
  Al0+  Al74  1  0.82113503  0.57164458  0.68408375  1
  Al0+  Al75  1  0.67669467  0.42757340  0.68072551  1
  Al0+  Al76  1  0.92731430  0.82119620  0.31617848  1
  Al0+  Al77  1  0.17979373  0.92879020  0.01099220  1
  Al0+  Al78  1  0.67858793  0.92847480  0.01655638  1
  Al0+  Al79  1  0.42967462  0.82106762  0.31859612  1
  Al0+  Al80  1  0.18029216  0.42992640  0.01248519  1
  Al0+  Al81  1  0.68015811  0.93117872  0.67941777  1
  Al0+  Al82  1  0.67965620  0.93103779  0.34927084  1
  Al0+  Al83  1  0.17843818  0.42786017  0.35125411  1
  Al0+  Al84  1  0.32195602  0.57160876  0.35005543  1
  Al0+  Al85  1  0.31912689  0.06997480  0.67935684  1
  Al0+  Al86  1  0.82236329  0.07275942  0.01330207  1
  Al0+  Al87  1  0.17750438  0.92803582  0.34760771  1
  Al0+  Al88  1  0.07056740  0.67668658  0.65346925  1
  Al0+  Al89  1  0.57171089  0.18125092  0.65284820  1
  Al0+  Al90  1  0.81999154  0.57055736  0.01512415  1
  Al0+  Al91  1  0.06998933  0.67685968  0.31780561  1
  Al0+  Al92  1  0.07274254  0.17937300  0.65281358  1
  Al0+  Al93  1  0.42963083  0.82334192  0.65321746  1
  Al0+  Al94  1  0.81918869  0.57035343  0.34901620  1
  Al0+  Al95  1  0.57095063  0.67739267  0.65265588  1
  Si0+  Si96  1  0.82430850  0.07352881  0.68060400  1
  Si0+  Si97  1  0.42894271  0.32079532  0.98394044  1
  Si0+  Si98  1  0.82212607  0.07465569  0.35133723  1
  Si0+  Si99  1  0.57075553  0.18006130  0.98399908  1
  Si0+  Si100  1  0.42789181  0.82273171  0.98530576  1
  Si0+  Si101  1  0.57105243  0.67551681  0.31680213  1
  Si0+  Si102  1  0.07265273  0.67613103  0.98570800  1
  Si0+  Si103  1  0.92921267  0.32137067  0.64992484  1
  Si0+  Si104  1  0.92871822  0.32210490  0.98463773  1
  Si0+  Si105  1  0.18072907  0.42870273  0.68176635  1
  Si0+  Si106  1  0.42879417  0.32036602  0.31586819  1
  Si0+  Si107  1  0.57218683  0.17899521  0.31483971  1
  Si0+  Si108  1  0.42579638  0.32230232  0.64875354  1
  Si0+  Si109  1  0.92922134  0.31856547  0.31716613  1
  Si0+  Si110  1  0.07355729  0.17992406  0.31579822  1
  Si0+  Si111  1  0.07273590  0.18057045  0.98527753  1
  Si0+  Si112  1  0.32102112  0.57331337  0.68319897  1
  Si0+  Si113  1  0.67775724  0.42484654  0.34691066  1
  Si0+  Si114  1  0.32415757  0.57191074  0.01553452  1
  Si0+  Si115  1  0.32196262  0.07104222  0.34834875  1
  Si0+  Si116  1  0.57017199  0.67958763  0.98670582  1
  Si0+  Si117  1  0.67674339  0.42736078  0.01609226  1
  Si0+  Si118  1  0.17589683  0.92698959  0.68211847  1
  Si0+  Si119  1  0.32229518  0.07266962  0.01653651  1
  O2-  O120  1  0.25631475  0.00164392  0.05968245  1
  O2-  O121  1  0.25543269  0.00093211  0.39231154  1
  O2-  O122  1  0.24562212  -0.00509680  0.72681673  1
  O2-  O123  1  0.25086546  0.50793843  0.05875900  1
  O2-  O124  1  0.24513145  0.50462430  0.40076357  1
  O2-  O125  1  0.24832819  0.50271337  0.72456782  1
  O2-  O126  1  0.75502915  -0.00258407  0.06469428  1
  O2-  O127  1  0.75855338  0.00182158  0.39485675  1
  O2-  O128  1  0.75860759  0.00277447  0.72522468  1
  O2-  O129  1  0.74400832  0.49587862  0.06137116  1
  O2-  O130  1  0.74096395  0.49686263  0.39162015  1
  O2-  O131  1  0.74423623  0.50252742  0.73233469  1
  O2-  O132  1  0.00184009  0.24991184  0.27319258  1
  O2-  O133  1  -0.00238223  0.25280281  0.60498827  1
  O2-  O134  1  -0.00037441  0.25010862  0.94337344  1
  O2-  O135  1  0.00182041  0.75145988  0.26563550  1
  O2-  O136  1  0.00062647  0.75021796  0.60421807  1
  O2-  O137  1  0.00603582  0.74662948  0.94157545  1
  O2-  O138  1  0.50178015  0.25128194  0.27303129  1
  O2-  O139  1  0.50071255  0.25972056  0.60545278  1
  O2-  O140  1  0.50002166  0.25101067  0.94094563  1
  O2-  O141  1  0.50283146  0.74440580  0.27128940  1
  O2-  O142  1  0.50010144  0.75025242  0.60272603  1
  O2-  O143  1  0.50036745  0.75248306  0.94520264  1
  O2-  O144  1  0.07484595  0.18320399  0.09042207  1
  O2-  O145  1  0.07432541  0.18179551  0.42075065  1
  O2-  O146  1  0.07319661  0.18253529  0.76644523  1
  O2-  O147  1  0.07326497  0.67514321  0.09080745  1
  O2-  O148  1  0.06653638  0.67809884  0.43095403  1
  O2-  O149  1  0.07020831  0.67627036  0.76792970  1
  O2-  O150  1  0.56840142  0.18222238  0.08940739  1
  O2-  O151  1  0.57306372  0.18018593  0.41956198  1
  O2-  O152  1  0.56890803  0.18118035  0.76632540  1
  O2-  O153  1  0.56796350  0.67615141  0.09170479  1
  O2-  O154  1  0.56939737  0.67379416  0.42178817  1
  O2-  O155  1  0.56874157  0.68028086  0.76730413  1
  O2-  O156  1  0.18294911  0.42517614  0.23738021  1
  O2-  O157  1  0.18335615  0.42599258  0.57738582  1
  O2-  O158  1  0.18253799  0.42694094  0.89915253  1
  O2-  O159  1  0.17786456  0.93150569  0.23383188  1
  O2-  O160  1  0.17740366  0.92890067  0.57676972  1
  O2-  O161  1  0.18139227  0.93202070  0.89803862  1
  O2-  O162  1  0.67974729  0.42326913  0.24084401  1
  O2-  O163  1  0.68266873  0.42482744  0.56714685  1
  O2-  O164  1  0.67673784  0.42494890  0.91118562  1
  O2-  O165  1  0.67821787  0.93466933  0.23611752  1
  O2-  O166  1  0.67824234  0.93427038  0.56658879  1
  O2-  O167  1  0.67487648  0.93067459  0.90322621  1
  O2-  O168  1  0.42970290  0.31965087  0.08913794  1
  O2-  O169  1  0.42700312  0.31920284  0.42033790  1
  O2-  O170  1  0.42168086  0.31858210  0.75481600  1
  O2-  O171  1  0.42598528  0.82177173  0.09025649  1
  O2-  O172  1  0.43268763  0.82458876  0.43093787  1
  O2-  O173  1  0.42984544  0.82179420  0.76785373  1
  O2-  O174  1  0.92886698  0.32149837  0.08986814  1
  O2-  O175  1  0.92571954  0.31410912  0.42175467  1
  O2-  O176  1  0.93109694  0.32055455  0.75599594  1
  O2-  O177  1  0.92944611  0.81915961  0.09916042  1
  O2-  O178  1  0.92680375  0.81987031  0.42914943  1
  O2-  O179  1  0.92913985  0.82302883  0.76660680  1
  O2-  O180  1  0.32017413  0.07305482  0.24223938  1
  O2-  O181  1  0.31729282  0.07196860  0.56651996  1
  O2-  O182  1  0.32221802  0.07542879  0.91120342  1
  O2-  O183  1  0.32447974  0.56560251  0.23591353  1
  O2-  O184  1  0.32265591  0.57210791  0.57882273  1
  O2-  O185  1  0.32662116  0.56922484  0.90989280  1
  O2-  O186  1  0.81806639  0.08159002  0.24599947  1
  O2-  O187  1  0.82186707  0.07688002  0.57516206  1
  O2-  O188  1  0.81910839  0.07675705  0.89999562  1
  O2-  O189  1  0.81834427  0.56838444  0.23526723  1
  O2-  O190  1  0.82257089  0.56801615  0.57090933  1
  O2-  O191  1  0.81993878  0.56968352  0.90266942  1
  O2-  O192  1  0.04549987  0.08837916  0.26839548  1
  O2-  O193  1  0.04460185  0.08484943  0.59465935  1
  O2-  O194  1  0.04806353  0.08891606  0.93710517  1
  O2-  O195  1  0.03988919  0.57610942  0.26867352  1
  O2-  O196  1  0.04392571  0.57738280  0.60184289  1
  O2-  O197  1  0.04538536  0.58175086  0.94126427  1
  O2-  O198  1  0.54141721  0.08977030  0.26478352  1
  O2-  O199  1  0.53545857  0.08799268  0.59726444  1
  O2-  O200  1  0.54255547  0.08792471  0.93793696  1
  O2-  O201  1  0.54633732  0.58106763  0.27016551  1
  O2-  O202  1  0.54335918  0.57793420  0.60185167  1
  O2-  O203  1  0.54212381  0.58799059  0.93803512  1
  O2-  O204  1  0.16507749  0.20922161  0.26817407  1
  O2-  O205  1  0.16744251  0.21344330  0.59747173  1
  O2-  O206  1  0.16434532  0.21172841  0.93830819  1
  O2-  O207  1  0.17179224  0.69772778  0.26862664  1
  O2-  O208  1  0.17017629  0.70034138  0.60202277  1
  O2-  O209  1  0.16836158  0.69780902  0.94081160  1
  O2-  O210  1  0.66335685  0.20737831  0.26564057  1
  O2-  O211  1  0.66828403  0.20954465  0.59674505  1
  O2-  O212  1  0.66258999  0.20805547  0.93741481  1
  O2-  O213  1  0.66414932  0.70401461  0.27179050  1
  O2-  O214  1  0.67004424  0.70310093  0.60305869  1
  O2-  O215  1  0.66216512  0.70720058  0.94071178  1
  O2-  O216  1  0.08331091  0.45343712  0.06815366  1
  O2-  O217  1  0.07785170  0.44503200  0.40217233  1
  O2-  O218  1  0.08792322  0.45203638  0.72927425  1
  O2-  O219  1  0.08589421  0.96352887  0.06711706  1
  O2-  O220  1  0.08228980  0.96316687  0.40107476  1
  O2-  O221  1  0.08239920  0.95717320  0.72580834  1
  O2-  O222  1  0.58172745  0.45167998  0.06093767  1
  O2-  O223  1  0.58176267  0.44122499  0.39017837  1
  O2-  O224  1  0.57442726  0.44503055  0.73094051  1
  O2-  O225  1  0.58130249  0.96212003  0.07028464  1
  O2-  O226  1  0.58383369  0.96835936  0.40051053  1
  O2-  O227  1  0.58517092  0.96658026  0.73387504  1
  O2-  O228  1  0.21519124  0.33525886  0.06877816  1
  O2-  O229  1  0.21470314  0.33080928  0.40286188  1
  O2-  O230  1  0.21286625  0.33851995  0.73028758  1
  O2-  O231  1  0.20923791  0.83192540  0.06545363  1
  O2-  O232  1  0.20682389  0.83139987  0.39939675  1
  O2-  O233  1  0.19993839  0.83344964  0.72889600  1
  O2-  O234  1  0.70180082  0.33409074  0.06297829  1
  O2-  O235  1  0.70818737  0.33185272  0.39152936  1
  O2-  O236  1  0.71023686  0.33017466  0.73459900  1
  O2-  O237  1  0.70304745  0.83020683  0.07061950  1
  O2-  O238  1  0.70393009  0.83299314  0.40162453  1
  O2-  O239  1  0.70664850  0.83440397  0.73450909  1
  O2-  O240  1  0.45555640  0.41150653  0.26599683  1
  O2-  O241  1  0.44311492  0.41796338  0.60527502  1
  O2-  O242  1  0.45378268  0.41338200  0.93629475  1
  O2-  O243  1  0.46143757  0.91741557  0.26262176  1
  O2-  O244  1  0.45748974  0.92133818  0.60080079  1
  O2-  O245  1  0.45378216  0.91655144  0.94083052  1
  O2-  O246  1  0.95572909  0.41069689  0.27065686  1
  O2-  O247  1  0.95677332  0.41392141  0.60445977  1
  O2-  O248  1  0.95882808  0.41309688  0.93729931  1
  O2-  O249  1  0.95202545  0.92308175  0.26683189  1
  O2-  O250  1  0.95090364  0.92006925  0.59715881  1
  O2-  O251  1  0.95943610  0.91934771  0.93455747  1
  O2-  O252  1  0.33866901  0.28851754  0.26621320  1
  O2-  O253  1  0.33643647  0.28842137  0.60000373  1
  O2-  O254  1  0.33733687  0.29191840  0.93634687  1
  O2-  O255  1  0.33346026  0.78972714  0.26378986  1
  O2-  O256  1  0.33023312  0.79615824  0.60314910  1
  O2-  O257  1  0.33691265  0.79445215  0.93600726  1
  O2-  O258  1  0.83895437  0.28914369  0.26595278  1
  O2-  O259  1  0.83681843  0.29609625  0.60219877  1
  O2-  O260  1  0.83642986  0.29514081  0.93764089  1
  O2-  O261  1  0.82797513  0.78862340  0.26628310  1
  O2-  O262  1  0.82956864  0.79129151  0.60158831  1
  O2-  O263  1  0.83119516  0.78936175  0.93594989  1
  O2-  O264  1  0.41638410  0.05085685  0.06289749  1
  O2-  O265  1  0.41732022  0.04917619  0.39110154  1
  O2-  O266  1  0.41511977  0.04219118  0.73570848  1
  O2-  O267  1  0.41544686  0.54074855  0.06341238  1
  O2-  O268  1  0.41844936  0.53490535  0.40304221  1
  O2-  O269  1  0.41123266  0.54346804  0.73307056  1
  O2-  O270  1  0.92316939  0.05412919  0.06456685  1
  O2-  O271  1  0.91857444  0.05698833  0.39315457  1
  O2-  O272  1  0.92019792  0.05220327  0.72397134  1
  O2-  O273  1  0.91457435  0.53668501  0.07064713  1
  O2-  O274  1  0.91265891  0.53382284  0.40346176  1
  O2-  O275  1  0.91772234  0.53693401  0.73857948  1
  O2-  O276  1  0.29528432  0.16551553  0.06384298  1
  O2-  O277  1  0.29529553  0.16389121  0.39451885  1
  O2-  O278  1  0.28721663  0.16614539  0.73543730  1
  O2-  O279  1  0.30438146  0.66707207  0.05981543  1
  O2-  O280  1  0.30142224  0.67131759  0.40140322  1
  O2-  O281  1  0.29395793  0.66463005  0.73247823  1
  O2-  O282  1  0.78972484  0.16999859  0.06875641  1
  O2-  O283  1  0.79107325  0.16640387  0.39883663  1
  O2-  O284  1  0.79792839  0.16674857  0.72691709  1
  O2-  O285  1  0.78690597  0.66477819  0.07109838  1
  O2-  O286  1  0.78878082  0.66542821  0.40368888  1
  O2-  O287  1  0.79279059  0.66923050  0.73849436  1
