# generated using pymatgen
data_Ca2Al2SiO7
_symmetry_space_group_name_H-M   'P 1'
_cell_length_a   15.47917213
_cell_length_b   15.47460615
_cell_length_c   15.29827255
_cell_angle_alpha   89.98701477
_cell_angle_beta   89.98576354
_cell_angle_gamma   90.01599924
_symmetry_Int_Tables_number   1
_chemical_formula_structural   Ca2Al2SiO7
_chemical_formula_sum   'Ca48 Al48 Si24 O168'
_cell_volume   3664.45747776
_cell_formula_units_Z   24
loop_
 _symmetry_equiv_pos_site_id
 _symmetry_equiv_pos_as_xyz
  1  'x, y, z'
loop_
 _atom_type_symbol
 _atom_type_oxidation_number
  Ca2+  2.0
  Al0+  0.0
  Si0+  0.0
  O2-  -2.0
loop_
 _atom_site_type_symbol
 _atom_site_label
 _atom_site_symmetry_multiplicity
 _atom_site_fract_x
 _atom_site_fract_y
 _atom_site_fract_z
 _atom_site_occupancy
  Ca2+  Ca0  1  0.15774580  0.07185134  0.16684915  1
  Ca2+  Ca1  1  0.15500600  0.07354056  0.50342423  1
  Ca2+  Ca2  1  0.16185884  0.07016343  0.83900507  1
  Ca2+  Ca3  1  0.16333378  0.58713234  0.16848079  1
  Ca2+  Ca4  1  0.16602808  0.57690358  0.51507779  1
  Ca2+  Ca5  1  0.15669781  0.58277493  0.83449267  1
  Ca2+  Ca6  1  0.68157484  0.08112012  0.16933571  1
  Ca2+  Ca7  1  0.68156012  0.07820446  0.50725961  1
  Ca2+  Ca8  1  0.68047247  0.07753621  0.83305396  1
  Ca2+  Ca9  1  0.68185700  0.58723350  0.16901163  1
  Ca2+  Ca10  1  0.68001558  0.58375679  0.50356593  1
  Ca2+  Ca11  1  0.68175180  0.58945718  0.83350135  1
  Ca2+  Ca12  1  0.07862710  0.31998428  0.16564743  1
  Ca2+  Ca13  1  0.08193605  0.32206928  0.49677582  1
  Ca2+  Ca14  1  0.09067771  0.31874728  0.82827258  1
  Ca2+  Ca15  1  0.07635799  0.83340962  0.16060383  1
  Ca2+  Ca16  1  0.07345557  0.83632393  0.50101867  1
  Ca2+  Ca17  1  0.07707370  0.83056054  0.82705465  1
  Ca2+  Ca18  1  0.58179929  0.33208304  0.16228870  1
  Ca2+  Ca19  1  0.58089583  0.33512266  0.49779144  1
  Ca2+  Ca20  1  0.58226826  0.33160884  0.82929007  1
  Ca2+  Ca21  1  0.57494414  0.83658110  0.15978734  1
  Ca2+  Ca22  1  0.57697467  0.84286659  0.50312839  1
  Ca2+  Ca23  1  0.56966831  0.84822950  0.82783524  1
  Ca2+  Ca24  1  0.32887250  0.41888527  0.16976140  1
  Ca2+  Ca25  1  0.32373934  0.42417947  0.51163632  1
  Ca2+  Ca26  1  0.32712064  0.42460832  0.83019345  1
  Ca2+  Ca27  1  0.31874712  0.91286371  0.16570679  1
  Ca2+  Ca28  1  0.31813301  0.91338312  0.50760498  1
  Ca2+  Ca29  1  0.32156631  0.91154259  0.83902604  1
  Ca2+  Ca30  1  0.84619567  0.42935834  0.17081740  1
  Ca2+  Ca31  1  0.84740116  0.42881474  0.50171007  1
  Ca2+  Ca32  1  0.84378531  0.43249468  0.83498081  1
  Ca2+  Ca33  1  0.85038552  0.92552901  0.16871975  1
  Ca2+  Ca34  1  0.83847341  0.92341680  0.50766382  1
  Ca2+  Ca35  1  0.84361452  0.92270837  0.83510741  1
  Ca2+  Ca36  1  0.41659443  0.16312932  0.15845958  1
  Ca2+  Ca37  1  0.41987178  0.16553423  0.49723721  1
  Ca2+  Ca38  1  0.41390911  0.16209396  0.82978599  1
  Ca2+  Ca39  1  0.42143403  0.67427057  0.15770744  1
  Ca2+  Ca40  1  0.41146177  0.67115219  0.50409659  1
  Ca2+  Ca41  1  0.41652617  0.67792420  0.82533360  1
  Ca2+  Ca42  1  0.92479281  0.16109376  0.16317061  1
  Ca2+  Ca43  1  0.92463016  0.16344853  0.49338661  1
  Ca2+  Ca44  1  0.92508360  0.15983461  0.82794199  1
  Ca2+  Ca45  1  0.91777673  0.67627387  0.15797424  1
  Ca2+  Ca46  1  0.91317258  0.67568348  0.49637181  1
  Ca2+  Ca47  1  0.92120051  0.67536408  0.82708338  1
  Al0+  Al48  1  0.00134342  -0.00017196  0.00065804  1
  Al0+  Al49  1  0.00097989  -0.00189903  0.33487843  1
  Al0+  Al50  1  0.00163731  -0.00021174  0.66672302  1
  Al0+  Al51  1  0.00011547  0.49803377  0.00444547  1
  Al0+  Al52  1  0.00287087  0.49847772  0.33588228  1
  Al0+  Al53  1  0.00090708  0.49709827  0.67439927  1
  Al0+  Al54  1  0.50107439  0.00234759  -0.00119602  1
  Al0+  Al55  1  0.49877095  0.00129325  0.33096068  1
  Al0+  Al56  1  0.50152123  0.00182602  0.66174404  1
  Al0+  Al57  1  0.49932457  0.49904196  -0.00051044  1
  Al0+  Al58  1  0.50110060  0.50131078  0.33160551  1
  Al0+  Al59  1  0.49922985  0.50010061  0.66898638  1
  Al0+  Al60  1  0.25135900  0.25199542  -0.00041483  1
  Al0+  Al61  1  0.25181235  0.25017262  0.32915117  1
  Al0+  Al62  1  0.25055694  0.25165523  0.66400588  1
  Al0+  Al63  1  0.25151995  0.74782597  -0.00116601  1
  Al0+  Al64  1  0.25081500  0.75129093  0.33756490  1
  Al0+  Al65  1  0.25146466  0.75017510  0.66518989  1
  Al0+  Al66  1  0.74819826  0.25008542  0.00301296  1
  Al0+  Al67  1  0.74830795  0.25227749  0.33261229  1
  Al0+  Al68  1  0.74964198  0.25002668  0.66879619  1
  Al0+  Al69  1  0.74893014  0.74961882  0.00115217  1
  Al0+  Al70  1  0.74747763  0.75051696  0.33241853  1
  Al0+  Al71  1  0.74493662  0.75039651  0.67030771  1
  Al0+  Al72  1  0.07128199  0.67615672  0.98677718  1
  Al0+  Al73  1  0.82260778  0.07000693  0.68150940  1
  Al0+  Al74  1  0.82141620  0.57174387  0.68001292  1
  Al0+  Al75  1  0.32174187  0.07226084  0.01350516  1
  Al0+  Al76  1  0.43102841  0.82151690  0.98655903  1
  Al0+  Al77  1  0.92873037  0.82134054  0.98459409  1
  Al0+  Al78  1  0.17970128  0.92949679  0.68019604  1
  Al0+  Al79  1  0.17970539  0.92663647  0.01561097  1
  Al0+  Al80  1  0.07017924  0.67681536  0.65219879  1
  Al0+  Al81  1  0.82144034  0.07007108  0.01466555  1
  Al0+  Al82  1  0.67663079  0.92913817  0.68093516  1
  Al0+  Al83  1  0.82171878  0.57105705  0.34673262  1
  Al0+  Al84  1  0.92666116  0.81980414  0.65157589  1
  Al0+  Al85  1  0.17803571  0.42755925  0.68357325  1
  Al0+  Al86  1  0.07083788  0.18039385  0.98548996  1
  Al0+  Al87  1  0.82133964  0.57094339  0.01515332  1
  Al0+  Al88  1  0.82040219  0.07061602  0.34642048  1
  Al0+  Al89  1  0.07106341  0.17913356  0.65295488  1
  Al0+  Al90  1  0.07063945  0.17774139  0.31691266  1
  Al0+  Al91  1  0.17984997  0.92926238  0.34964215  1
  Al0+  Al92  1  0.42923841  0.82212578  0.65126402  1
  Al0+  Al93  1  0.92778076  0.32331397  0.31877184  1
  Al0+  Al94  1  0.32097815  0.57181027  0.68260756  1
  Al0+  Al95  1  0.92772843  0.81876679  0.32025929  1
  Si0+  Si96  1  0.32262293  0.56953914  0.01651460  1
  Si0+  Si97  1  0.56969911  0.67846757  0.31709857  1
  Si0+  Si98  1  0.42903527  0.32259854  0.98277509  1
  Si0+  Si99  1  0.67629069  0.42839960  0.01725946  1
  Si0+  Si100  1  0.57187947  0.18055206  0.98325353  1
  Si0+  Si101  1  0.57154129  0.67646477  0.98267777  1
  Si0+  Si102  1  0.32264891  0.57068424  0.34737790  1
  Si0+  Si103  1  0.32302654  0.07274888  0.67925385  1
  Si0+  Si104  1  0.57229763  0.18031909  0.64974691  1
  Si0+  Si105  1  0.42807920  0.82104430  0.31779661  1
  Si0+  Si106  1  0.67695125  0.92877686  0.01675583  1
  Si0+  Si107  1  0.18190044  0.42785104  0.34809654  1
  Si0+  Si108  1  0.67347789  0.92887949  0.34913367  1
  Si0+  Si109  1  0.67493065  0.42947790  0.34969180  1
  Si0+  Si110  1  0.92554538  0.32106333  0.65211838  1
  Si0+  Si111  1  0.67696813  0.42771377  0.68295027  1
  Si0+  Si112  1  0.92621408  0.32078114  0.98365401  1
  Si0+  Si113  1  0.43024566  0.32172227  0.65066333  1
  Si0+  Si114  1  0.32341856  0.07334159  0.34988880  1
  Si0+  Si115  1  0.07368456  0.67731330  0.32016764  1
  Si0+  Si116  1  0.57058037  0.17902420  0.31667830  1
  Si0+  Si117  1  0.43063451  0.32226879  0.31737595  1
  Si0+  Si118  1  0.57051729  0.67470656  0.64820485  1
  Si0+  Si119  1  0.17990981  0.42813989  0.01812566  1
  O2-  O120  1  0.25070240  0.00117185  0.06542829  1
  O2-  O121  1  0.25331065  0.00752908  0.39404160  1
  O2-  O122  1  0.25564416  0.00468604  0.72399738  1
  O2-  O123  1  0.24793999  0.50305794  0.06003966  1
  O2-  O124  1  0.24986602  0.50224021  0.38919956  1
  O2-  O125  1  0.24381964  0.50592366  0.73345436  1
  O2-  O126  1  0.75097295  -0.00928691  0.06174039  1
  O2-  O127  1  0.74602364  -0.00589534  0.39106933  1
  O2-  O128  1  0.75494006  -0.00670158  0.73130085  1
  O2-  O129  1  0.74590791  0.49543034  0.06128304  1
  O2-  O130  1  0.74934506  0.49215700  0.39219726  1
  O2-  O131  1  0.74693021  0.49485506  0.72583739  1
  O2-  O132  1  -0.00555770  0.24678862  0.26806765  1
  O2-  O133  1  -0.00686859  0.25164227  0.60809185  1
  O2-  O134  1  -0.00752977  0.25121657  0.93825169  1
  O2-  O135  1  0.00163384  0.74168425  0.27588954  1
  O2-  O136  1  -0.00391923  0.74531716  0.60026659  1
  O2-  O137  1  0.00071509  0.74854106  0.93655672  1
  O2-  O138  1  0.49953799  0.25031176  0.27388160  1
  O2-  O139  1  0.50109544  0.25145935  0.60720729  1
  O2-  O140  1  0.49828264  0.24967315  0.94147241  1
  O2-  O141  1  0.50040944  0.75153028  0.27552322  1
  O2-  O142  1  0.50390846  0.74625818  0.60462235  1
  O2-  O143  1  0.50681618  0.74830960  0.93889666  1
  O2-  O144  1  0.07072485  0.18219576  0.09850135  1
  O2-  O145  1  0.07233975  0.18083727  0.43033632  1
  O2-  O146  1  0.07309582  0.18056235  0.76594063  1
  O2-  O147  1  0.06971078  0.67585653  0.10118529  1
  O2-  O148  1  0.07552285  0.67682199  0.42514531  1
  O2-  O149  1  0.06799423  0.67862540  0.76537978  1
  O2-  O150  1  0.57181358  0.18326954  0.08865038  1
  O2-  O151  1  0.56797668  0.17972619  0.42166636  1
  O2-  O152  1  0.57138201  0.18217577  0.75474112  1
  O2-  O153  1  0.56791051  0.67443275  0.08892854  1
  O2-  O154  1  0.56805099  0.67388547  0.42145226  1
  O2-  O155  1  0.56773683  0.66849237  0.75328601  1
  O2-  O156  1  0.18544262  0.42729710  0.24275306  1
  O2-  O157  1  0.18331463  0.42481451  0.56944828  1
  O2-  O158  1  0.18318891  0.42598696  0.91373787  1
  O2-  O159  1  0.18294194  0.92490590  0.23697825  1
  O2-  O160  1  0.17974753  0.93151625  0.56685298  1
  O2-  O161  1  0.18098239  0.92637792  0.90247470  1
  O2-  O162  1  0.66495547  0.43403434  0.24489615  1
  O2-  O163  1  0.67324145  0.42811758  0.57737327  1
  O2-  O164  1  0.67253339  0.42815328  0.91203029  1
  O2-  O165  1  0.66520000  0.93232313  0.24392709  1
  O2-  O166  1  0.67301931  0.93613578  0.56722798  1
  O2-  O167  1  0.67197186  0.93418708  0.91200568  1
  O2-  O168  1  0.43117972  0.32565819  0.08827126  1
  O2-  O169  1  0.43217520  0.32373483  0.42225944  1
  O2-  O170  1  0.43184981  0.32117686  0.75565848  1
  O2-  O171  1  0.43262512  0.81773615  0.10060990  1
  O2-  O172  1  0.42870405  0.82014482  0.42247148  1
  O2-  O173  1  0.43179962  0.82366009  0.76405575  1
  O2-  O174  1  0.92861805  0.32132782  0.08927159  1
  O2-  O175  1  0.93324670  0.32627093  0.43204798  1
  O2-  O176  1  0.92335003  0.31976078  0.75766862  1
  O2-  O177  1  0.93004663  0.81970029  0.09873296  1
  O2-  O178  1  0.92576790  0.81872745  0.43286897  1
  O2-  O179  1  0.92910367  0.82055132  0.76463170  1
  O2-  O180  1  0.32830130  0.07203105  0.24490966  1
  O2-  O181  1  0.32444700  0.07277518  0.57334967  1
  O2-  O182  1  0.32192150  0.07263864  0.90016585  1
  O2-  O183  1  0.32415784  0.56913785  0.24192310  1
  O2-  O184  1  0.32371585  0.56565270  0.56823880  1
  O2-  O185  1  0.32883284  0.56575247  0.91265142  1
  O2-  O186  1  0.81823688  0.06933265  0.23318693  1
  O2-  O187  1  0.81951314  0.07318104  0.56780196  1
  O2-  O188  1  0.81831114  0.07389738  0.90230740  1
  O2-  O189  1  0.81866963  0.57076248  0.23382785  1
  O2-  O190  1  0.81933091  0.56949012  0.56662547  1
  O2-  O191  1  0.81945916  0.56865285  0.90244022  1
  O2-  O192  1  0.04301001  0.07893215  0.26595910  1
  O2-  O193  1  0.04029315  0.08355046  0.59841305  1
  O2-  O194  1  0.04295620  0.08288108  0.93403348  1
  O2-  O195  1  0.05428932  0.58177019  0.27560526  1
  O2-  O196  1  0.04707517  0.57394663  0.60484717  1
  O2-  O197  1  0.04358551  0.57603033  0.93692281  1
  O2-  O198  1  0.54143597  0.08816940  0.26794394  1
  O2-  O199  1  0.54285745  0.09133700  0.59858238  1
  O2-  O200  1  0.54577283  0.08934143  0.93534109  1
  O2-  O201  1  0.53854424  0.58850035  0.26680532  1
  O2-  O202  1  0.54118103  0.58237957  0.59997931  1
  O2-  O203  1  0.54241808  0.58365284  0.93729975  1
  O2-  O204  1  0.16936069  0.20970440  0.26497409  1
  O2-  O205  1  0.16713538  0.21264065  0.59831954  1
  O2-  O206  1  0.16670473  0.21689202  0.93377448  1
  O2-  O207  1  0.16756767  0.70508683  0.27398483  1
  O2-  O208  1  0.17022265  0.70245979  0.60122627  1
  O2-  O209  1  0.17277024  0.69613803  0.93762367  1
  O2-  O210  1  0.66099594  0.20770587  0.26766979  1
  O2-  O211  1  0.66293381  0.21033940  0.60117817  1
  O2-  O212  1  0.66155328  0.21272325  0.93451940  1
  O2-  O213  1  0.66046491  0.70571831  0.26785327  1
  O2-  O214  1  0.66429966  0.69846131  0.60257888  1
  O2-  O215  1  0.66637039  0.69757740  0.93934574  1
  O2-  O216  1  0.08781632  0.45177856  0.06646394  1
  O2-  O217  1  0.09040706  0.45179894  0.39627824  1
  O2-  O218  1  0.07943878  0.44599755  0.73889006  1
  O2-  O219  1  0.08232538  0.95706102  0.06901957  1
  O2-  O220  1  0.08389200  0.95958054  0.40355403  1
  O2-  O221  1  0.08506716  0.96181695  0.73481166  1
  O2-  O222  1  0.58253617  0.45468325  0.06452284  1
  O2-  O223  1  0.58387343  0.46118658  0.39965348  1
  O2-  O224  1  0.58409663  0.45329816  0.73045308  1
  O2-  O225  1  0.58646836  0.96180419  0.06583708  1
  O2-  O226  1  0.58149628  0.95941037  0.39717573  1
  O2-  O227  1  0.58166125  0.96945055  0.73442766  1
  O2-  O228  1  0.21529253  0.33999094  0.06784031  1
  O2-  O229  1  0.21507657  0.33754891  0.39515228  1
  O2-  O230  1  0.21827010  0.33260340  0.73669052  1
  O2-  O231  1  0.21213161  0.82862296  0.06884542  1
  O2-  O232  1  0.21545543  0.83428663  0.40453687  1
  O2-  O233  1  0.21211334  0.83356981  0.73211948  1
  O2-  O234  1  0.69874052  0.33449267  0.06416708  1
  O2-  O235  1  0.69137321  0.33327255  0.39311056  1
  O2-  O236  1  0.69928518  0.33375877  0.72941738  1
  O2-  O237  1  0.69221244  0.83183200  0.05973740  1
  O2-  O238  1  0.69285584  0.83300856  0.39174192  1
  O2-  O239  1  0.68684219  0.82684324  0.73040747  1
  O2-  O240  1  0.46022179  0.41338014  0.26833797  1
  O2-  O241  1  0.45991310  0.41256394  0.60200831  1
  O2-  O242  1  0.46040697  0.41268899  0.93398842  1
  O2-  O243  1  0.45492110  0.91344636  0.27099555  1
  O2-  O244  1  0.46237631  0.91793051  0.59513463  1
  O2-  O245  1  0.46134763  0.91868237  0.93383712  1
  O2-  O246  1  0.96432975  0.41943576  0.26435151  1
  O2-  O247  1  0.95399309  0.41441727  0.60810653  1
  O2-  O248  1  0.95503099  0.41400832  0.93959145  1
  O2-  O249  1  0.96332995  0.91381690  0.26750480  1
  O2-  O250  1  0.96003909  0.91738549  0.59946576  1
  O2-  O251  1  0.95740947  0.91977940  0.93372233  1
  O2-  O252  1  0.33946960  0.29676670  0.26799258  1
  O2-  O253  1  0.34005524  0.29400529  0.60062934  1
  O2-  O254  1  0.33762242  0.29748469  0.93507636  1
  O2-  O255  1  0.33771405  0.78940137  0.27021164  1
  O2-  O256  1  0.33471695  0.78990942  0.59445094  1
  O2-  O257  1  0.33598943  0.78773622  0.93365709  1
  O2-  O258  1  0.82470807  0.30677502  0.26992442  1
  O2-  O259  1  0.83084796  0.29996437  0.60554002  1
  O2-  O260  1  0.83030237  0.30004941  0.94087444  1
  O2-  O261  1  0.82919648  0.79289053  0.26664287  1
  O2-  O262  1  0.82443335  0.79649088  0.60311085  1
  O2-  O263  1  0.82763588  0.79585779  0.93578013  1
  O2-  O264  1  0.42197561  0.04689992  0.06577595  1
  O2-  O265  1  0.41697162  0.04666822  0.39670497  1
  O2-  O266  1  0.41770317  0.04985435  0.72339253  1
  O2-  O267  1  0.41249283  0.53609377  0.06665172  1
  O2-  O268  1  0.41341945  0.53945731  0.39431113  1
  O2-  O269  1  0.41653260  0.53489318  0.73658717  1
  O2-  O270  1  0.91827150  0.04161835  0.06844077  1
  O2-  O271  1  0.91654823  0.04031930  0.39950385  1
  O2-  O272  1  0.92083591  0.04404105  0.73368811  1
  O2-  O273  1  0.91666091  0.53802185  0.07091070  1
  O2-  O274  1  0.91917564  0.54182457  0.39982999  1
  O2-  O275  1  0.91542535  0.53944770  0.73685483  1
  O2-  O276  1  0.29900924  0.17342738  0.06496660  1
  O2-  O277  1  0.30314992  0.16972657  0.39309603  1
  O2-  O278  1  0.30069860  0.16752064  0.72346608  1
  O2-  O279  1  0.29941061  0.66168251  0.06489492  1
  O2-  O280  1  0.29922695  0.66320194  0.39417788  1
  O2-  O281  1  0.30294969  0.67278224  0.73119041  1
  O2-  O282  1  0.78458848  0.16554814  0.06866191  1
  O2-  O283  1  0.78786538  0.16836926  0.39770846  1
  O2-  O284  1  0.78809739  0.16722490  0.73414693  1
  O2-  O285  1  0.78778493  0.66683388  0.06995853  1
  O2-  O286  1  0.78395921  0.66596534  0.39967023  1
  O2-  O287  1  0.78681881  0.66596732  0.73521015  1
