# generated using pymatgen
data_Ca2Al2SiO7
_symmetry_space_group_name_H-M   'P 1'
_cell_length_a   15.46032301
_cell_length_b   15.45982446
_cell_length_c   15.28560087
_cell_angle_alpha   89.99167128
_cell_angle_beta   89.99859516
_cell_angle_gamma   90.00172500
_symmetry_Int_Tables_number   1
_chemical_formula_structural   Ca2Al2SiO7
_chemical_formula_sum   'Ca48 Al48 Si24 O168'
_cell_volume   3653.47072977
_cell_formula_units_Z   24
loop_
 _symmetry_equiv_pos_site_id
 _symmetry_equiv_pos_as_xyz
  1  'x, y, z'
loop_
 _atom_type_symbol
 _atom_type_oxidation_number
  Ca2+  2.0
  Al0+  0.0
  Si0+  0.0
  O2-  -2.0
loop_
 _atom_site_type_symbol
 _atom_site_label
 _atom_site_symmetry_multiplicity
 _atom_site_fract_x
 _atom_site_fract_y
 _atom_site_fract_z
 _atom_site_occupancy
  Ca2+  Ca0  1  0.17750160  0.08953813  0.16702611  1
  Ca2+  Ca1  1  0.17163276  0.08460014  0.50145408  1
  Ca2+  Ca2  1  0.16746514  0.07484546  0.84330836  1
  Ca2+  Ca3  1  0.17415660  0.57744769  0.17437040  1
  Ca2+  Ca4  1  0.17549917  0.58312950  0.50030541  1
  Ca2+  Ca5  1  0.16935245  0.57848130  0.83806985  1
  Ca2+  Ca6  1  0.66251694  0.08780544  0.16969002  1
  Ca2+  Ca7  1  0.66909336  0.08535128  0.50392598  1
  Ca2+  Ca8  1  0.67771530  0.08242641  0.84492593  1
  Ca2+  Ca9  1  0.66720876  0.57355229  0.16790217  1
  Ca2+  Ca10  1  0.66355546  0.57688787  0.49951823  1
  Ca2+  Ca11  1  0.66733316  0.57980643  0.84555392  1
  Ca2+  Ca12  1  0.08557961  0.31961368  0.16192129  1
  Ca2+  Ca13  1  0.07416636  0.32849674  0.49421056  1
  Ca2+  Ca14  1  0.07370445  0.32438870  0.83014785  1
  Ca2+  Ca15  1  0.08321192  0.83356360  0.16078309  1
  Ca2+  Ca16  1  0.07886615  0.84122308  0.50047342  1
  Ca2+  Ca17  1  0.08022948  0.83951447  0.82784346  1
  Ca2+  Ca18  1  0.57822552  0.33146836  0.16238737  1
  Ca2+  Ca19  1  0.57673880  0.32760381  0.49207905  1
  Ca2+  Ca20  1  0.57702268  0.33211772  0.83394973  1
  Ca2+  Ca21  1  0.58006120  0.83020021  0.15963075  1
  Ca2+  Ca22  1  0.58052232  0.82546031  0.49327869  1
  Ca2+  Ca23  1  0.59828894  0.82127187  0.83377311  1
  Ca2+  Ca24  1  0.34246393  0.41905897  0.17352438  1
  Ca2+  Ca25  1  0.34420061  0.41818972  0.49995892  1
  Ca2+  Ca26  1  0.33930496  0.41169308  0.83671899  1
  Ca2+  Ca27  1  0.33729403  0.92978593  0.17120521  1
  Ca2+  Ca28  1  0.33197019  0.92247156  0.50198503  1
  Ca2+  Ca29  1  0.32052028  0.92176733  0.84262995  1
  Ca2+  Ca30  1  0.81981342  0.42272277  0.17300629  1
  Ca2+  Ca31  1  0.82709350  0.41530779  0.50291441  1
  Ca2+  Ca32  1  0.82685462  0.42122162  0.84432620  1
  Ca2+  Ca33  1  0.82483868  0.92222250  0.16100099  1
  Ca2+  Ca34  1  0.83404681  0.92361387  0.50845361  1
  Ca2+  Ca35  1  0.83306595  0.92535713  0.83904097  1
  Ca2+  Ca36  1  0.42371916  0.17148268  0.15905259  1
  Ca2+  Ca37  1  0.41925892  0.17459849  0.48759925  1
  Ca2+  Ca38  1  0.41748832  0.17265625  0.83580941  1
  Ca2+  Ca39  1  0.41666084  0.67275740  0.16177257  1
  Ca2+  Ca40  1  0.41952099  0.67218241  0.49362005  1
  Ca2+  Ca41  1  0.43237703  0.66770605  0.82986960  1
  Ca2+  Ca42  1  0.92818747  0.15919814  0.16010837  1
  Ca2+  Ca43  1  0.91914209  0.16856864  0.49723843  1
  Ca2+  Ca44  1  0.91660537  0.16162987  0.82942621  1
  Ca2+  Ca45  1  0.91031056  0.66246646  0.16226738  1
  Ca2+  Ca46  1  0.91412702  0.67319735  0.49527567  1
  Ca2+  Ca47  1  0.91259847  0.67453888  0.82794392  1
  Al0+  Al48  1  -0.00066403  -0.00254183  0.00349927  1
  Al0+  Al49  1  -0.00129710  -0.00143396  0.32830298  1
  Al0+  Al50  1  0.00093124  -0.00085740  0.66837299  1
  Al0+  Al51  1  0.00271065  0.50047655  0.00308742  1
  Al0+  Al52  1  -0.00053109  0.50228623  0.33734164  1
  Al0+  Al53  1  0.00155091  0.49930409  0.66255142  1
  Al0+  Al54  1  0.49803719  0.00033080  -0.00079275  1
  Al0+  Al55  1  0.49879087  -0.00117459  0.33338865  1
  Al0+  Al56  1  0.50039076  -0.00191015  0.67030788  1
  Al0+  Al57  1  0.50018893  0.50223269  -0.00389868  1
  Al0+  Al58  1  0.50163069  0.50104038  0.33995270  1
  Al0+  Al59  1  0.50153437  0.49991859  0.65960809  1
  Al0+  Al60  1  0.24687422  0.24882421  -0.00753502  1
  Al0+  Al61  1  0.24805392  0.24990617  0.33198625  1
  Al0+  Al62  1  0.25015732  0.25194694  0.66329811  1
  Al0+  Al63  1  0.24834612  0.74852934  0.00080659  1
  Al0+  Al64  1  0.24772022  0.74960464  0.33399119  1
  Al0+  Al65  1  0.25179194  0.74842046  0.67238313  1
  Al0+  Al66  1  0.75022616  0.25174991  0.00610442  1
  Al0+  Al67  1  0.75061219  0.25065027  0.33545785  1
  Al0+  Al68  1  0.74996791  0.25100547  0.66804108  1
  Al0+  Al69  1  0.75162431  0.75210571  0.00351428  1
  Al0+  Al70  1  0.75053068  0.75107435  0.33578129  1
  Al0+  Al71  1  0.75194425  0.74867017  0.65496661  1
  Al0+  Al72  1  0.82048112  0.07290942  0.01616270  1
  Al0+  Al73  1  0.82150897  0.57247495  0.35199376  1
  Al0+  Al74  1  0.57186219  0.68008523  0.65057449  1
  Al0+  Al75  1  0.81865522  0.07111041  0.67874403  1
  Al0+  Al76  1  0.18138637  0.93013972  0.67940875  1
  Al0+  Al77  1  0.57043051  0.68286973  0.98887743  1
  Al0+  Al78  1  0.32094523  0.07156274  0.34754628  1
  Al0+  Al79  1  0.42921577  0.32143149  0.98492937  1
  Al0+  Al80  1  0.67919448  0.42772105  0.35210137  1
  Al0+  Al81  1  0.31978510  0.07283377  0.01448284  1
  Al0+  Al82  1  0.17836895  0.92700299  0.01725316  1
  Al0+  Al83  1  0.32065346  0.57163203  0.34702652  1
  Al0+  Al84  1  0.67609004  0.42901415  0.01441117  1
  Al0+  Al85  1  0.42942507  0.31838852  0.65058613  1
  Al0+  Al86  1  0.57221223  0.17797916  0.31975224  1
  Al0+  Al87  1  0.67784227  0.92920753  0.01345280  1
  Al0+  Al88  1  0.42696641  0.81997684  0.32033153  1
  Al0+  Al89  1  0.57405554  0.17670262  0.98400248  1
  Al0+  Al90  1  0.92734499  0.32207071  0.65392982  1
  Al0+  Al91  1  0.93237517  0.82070110  0.65268511  1
  Al0+  Al92  1  0.06784750  0.17737918  0.98426337  1
  Al0+  Al93  1  0.06881353  0.17878577  0.31955101  1
  Al0+  Al94  1  0.82261958  0.57181257  0.01234814  1
  Al0+  Al95  1  0.42941072  0.32256124  0.31879764  1
  Si0+  Si96  1  0.82267672  0.57146978  0.68015190  1
  Si0+  Si97  1  0.32088348  0.56953981  0.01282179  1
  Si0+  Si98  1  0.17868846  0.42871950  0.01364631  1
  Si0+  Si99  1  0.07334397  0.67647058  0.98473546  1
  Si0+  Si100  1  0.07027495  0.17788345  0.64998505  1
  Si0+  Si101  1  0.67785038  0.92468951  0.68077515  1
  Si0+  Si102  1  0.42458142  0.82273686  0.98234713  1
  Si0+  Si103  1  0.92908740  0.32428091  0.98670211  1
  Si0+  Si104  1  0.92793891  0.82090787  0.31538741  1
  Si0+  Si105  1  0.67809305  0.92938076  0.34919718  1
  Si0+  Si106  1  0.32364591  0.07523007  0.68332439  1
  Si0+  Si107  1  0.07504959  0.67645287  0.64956044  1
  Si0+  Si108  1  0.82267551  0.06900270  0.34820489  1
  Si0+  Si109  1  0.93074251  0.81824703  0.98539388  1
  Si0+  Si110  1  0.17782534  0.42875389  0.68208846  1
  Si0+  Si111  1  0.42563124  0.82140933  0.65184130  1
  Si0+  Si112  1  0.17741244  0.42733419  0.35105664  1
  Si0+  Si113  1  0.57260310  0.17597844  0.65235279  1
  Si0+  Si114  1  0.32253703  0.56881459  0.68321069  1
  Si0+  Si115  1  0.92800341  0.32428917  0.31611108  1
  Si0+  Si116  1  0.57251171  0.67966236  0.31566389  1
  Si0+  Si117  1  0.06993221  0.67893799  0.31823647  1
  Si0+  Si118  1  0.17650395  0.92836617  0.35018622  1
  Si0+  Si119  1  0.67922830  0.43106680  0.68278000  1
  O2-  O120  1  0.25127591  -0.00232002  0.06608809  1
  O2-  O121  1  0.24548705  -0.00336027  0.39415971  1
  O2-  O122  1  0.25629417  0.00416138  0.72599990  1
  O2-  O123  1  0.25327304  0.49581500  0.05551826  1
  O2-  O124  1  0.24964279  0.49315491  0.39495461  1
  O2-  O125  1  0.25117258  0.49763878  0.72510389  1
  O2-  O126  1  0.74030507  0.00899224  0.06565438  1
  O2-  O127  1  0.74733723  0.00273029  0.39082463  1
  O2-  O128  1  0.74217155  -0.00244071  0.72400246  1
  O2-  O129  1  0.75182125  0.49914765  0.06165744  1
  O2-  O130  1  0.75211747  0.49927847  0.40319070  1
  O2-  O131  1  0.75233877  0.50111883  0.72383901  1
  O2-  O132  1  -0.00450326  0.25473206  0.27201242  1
  O2-  O133  1  0.00103670  0.24651345  0.60650245  1
  O2-  O134  1  -0.01060456  0.24938787  0.93935680  1
  O2-  O135  1  -0.00312359  0.74703538  0.27499023  1
  O2-  O136  1  0.00787447  0.74658186  0.60518576  1
  O2-  O137  1  0.00192731  0.74682680  0.94325432  1
  O2-  O138  1  0.50024031  0.24975365  0.26977917  1
  O2-  O139  1  0.49904339  0.23824014  0.60675153  1
  O2-  O140  1  0.50171088  0.24952792  0.93476546  1
  O2-  O141  1  0.50074432  0.74520943  0.27214116  1
  O2-  O142  1  0.49877136  0.75798353  0.60689810  1
  O2-  O143  1  0.49892066  0.75956374  0.93849845  1
  O2-  O144  1  0.06958434  0.18052076  0.09729206  1
  O2-  O145  1  0.06542867  0.17837735  0.43322845  1
  O2-  O146  1  0.06921927  0.17863282  0.75547976  1
  O2-  O147  1  0.07551940  0.67525558  0.08969868  1
  O2-  O148  1  0.07163348  0.68093721  0.42337634  1
  O2-  O149  1  0.07377488  0.67396498  0.75523403  1
  O2-  O150  1  0.57140211  0.17816139  0.09712004  1
  O2-  O151  1  0.57137833  0.17694179  0.43419163  1
  O2-  O152  1  0.57466177  0.17861633  0.75736769  1
  O2-  O153  1  0.56612159  0.68216796  0.10157592  1
  O2-  O154  1  0.57213264  0.68343982  0.42174979  1
  O2-  O155  1  0.57278840  0.67943201  0.76390797  1
  O2-  O156  1  0.17431517  0.43102588  0.24533751  1
  O2-  O157  1  0.17586805  0.43068762  0.57738160  1
  O2-  O158  1  0.17498456  0.43333940  0.90822366  1
  O2-  O159  1  0.17553437  0.92727881  0.24522975  1
  O2-  O160  1  0.18191084  0.93133515  0.56613128  1
  O2-  O161  1  0.17861497  0.92672691  0.90318638  1
  O2-  O162  1  0.67895984  0.42984081  0.23898575  1
  O2-  O163  1  0.67969300  0.43119035  0.57802450  1
  O2-  O164  1  0.67627571  0.43302904  0.89984597  1
  O2-  O165  1  0.67997073  0.92614228  0.24468288  1
  O2-  O166  1  0.67853538  0.92510619  0.57477872  1
  O2-  O167  1  0.68791304  0.92347890  0.89989769  1
  O2-  O168  1  0.42850418  0.32449485  0.09773612  1
  O2-  O169  1  0.43129529  0.31954287  0.43275739  1
  O2-  O170  1  0.43076732  0.32076268  0.76325255  1
  O2-  O171  1  0.42108915  0.81722208  0.08783114  1
  O2-  O172  1  0.42938215  0.81887808  0.43409708  1
  O2-  O173  1  0.42202062  0.81747329  0.75698719  1
  O2-  O174  1  0.93705014  0.32840882  0.09169728  1
  O2-  O175  1  0.92993166  0.32223844  0.42236954  1
  O2-  O176  1  0.92982539  0.32522328  0.76674569  1
  O2-  O177  1  0.93103518  0.81662910  0.09066629  1
  O2-  O178  1  0.93026514  0.82381081  0.42071003  1
  O2-  O179  1  0.93176783  0.81859636  0.76569116  1
  O2-  O180  1  0.32066261  0.07181758  0.23527015  1
  O2-  O181  1  0.32255940  0.07498387  0.57757582  1
  O2-  O182  1  0.31528124  0.07228145  0.90026126  1
  O2-  O183  1  0.31685837  0.57320803  0.23371899  1
  O2-  O184  1  0.32017543  0.57046054  0.57822789  1
  O2-  O185  1  0.31807496  0.57066658  0.90734547  1
  O2-  O186  1  0.82559624  0.06522728  0.24383475  1
  O2-  O187  1  0.81860272  0.06938499  0.56495141  1
  O2-  O188  1  0.82391767  0.06756195  0.90231574  1
  O2-  O189  1  0.82082598  0.57186510  0.23877073  1
  O2-  O190  1  0.82212967  0.57044551  0.57549641  1
  O2-  O191  1  0.82305557  0.57183273  0.89782407  1
  O2-  O192  1  0.03645635  0.08318738  0.26479708  1
  O2-  O193  1  0.04487523  0.08480400  0.60374640  1
  O2-  O194  1  0.03831407  0.07901816  0.93298895  1
  O2-  O195  1  0.04524229  0.58596483  0.27113529  1
  O2-  O196  1  0.04956292  0.58412384  0.60117581  1
  O2-  O197  1  0.04734203  0.58449573  0.93597267  1
  O2-  O198  1  0.54580211  0.07862886  0.26915425  1
  O2-  O199  1  0.55476767  0.07861120  0.60966344  1
  O2-  O200  1  0.54731782  0.07720000  0.93062153  1
  O2-  O201  1  0.54976562  0.58421006  0.27504970  1
  O2-  O202  1  0.53640009  0.58629889  0.59494302  1
  O2-  O203  1  0.53693751  0.58906034  0.93073859  1
  O2-  O204  1  0.16449417  0.21024271  0.26508099  1
  O2-  O205  1  0.16334426  0.20564855  0.60407226  1
  O2-  O206  1  0.16075411  0.21191052  0.92606535  1
  O2-  O207  1  0.16025070  0.70808901  0.26891278  1
  O2-  O208  1  0.16998607  0.70128711  0.60589902  1
  O2-  O209  1  0.16421296  0.70374741  0.93429398  1
  O2-  O210  1  0.67274246  0.20339635  0.26993788  1
  O2-  O211  1  0.66413638  0.20687649  0.60488291  1
  O2-  O212  1  0.67477867  0.20489120  0.93413449  1
  O2-  O213  1  0.66548375  0.70942517  0.27140679  1
  O2-  O214  1  0.66686888  0.70798424  0.59239634  1
  O2-  O215  1  0.66831852  0.71275309  0.93519271  1
  O2-  O216  1  0.09099837  0.46094589  0.06584907  1
  O2-  O217  1  0.08592229  0.45812684  0.39933158  1
  O2-  O218  1  0.08721855  0.45970997  0.73106713  1
  O2-  O219  1  0.07983467  0.95269439  0.06926929  1
  O2-  O220  1  0.08233094  0.95616827  0.39531171  1
  O2-  O221  1  0.08509020  0.96021578  0.73420089  1
  O2-  O222  1  0.57977327  0.46452766  0.06691380  1
  O2-  O223  1  0.58262893  0.45875734  0.40781760  1
  O2-  O224  1  0.58764175  0.46279245  0.72791966  1
  O2-  O225  1  0.57467841  0.94279310  0.06038980  1
  O2-  O226  1  0.58643892  0.95377260  0.39835917  1
  O2-  O227  1  0.58216080  0.94083495  0.72664614  1
  O2-  O228  1  0.20195390  0.33520817  0.05762821  1
  O2-  O229  1  0.19745082  0.33292506  0.39692245  1
  O2-  O230  1  0.20375569  0.33606532  0.72885793  1
  O2-  O231  1  0.20325970  0.82616595  0.06767427  1
  O2-  O232  1  0.20005658  0.83446941  0.39664027  1
  O2-  O233  1  0.20794085  0.83197433  0.73413001  1
  O2-  O234  1  0.70067469  0.33154766  0.06916569  1
  O2-  O235  1  0.70907967  0.32922557  0.40638833  1
  O2-  O236  1  0.70559244  0.33893574  0.72955927  1
  O2-  O237  1  0.71585998  0.83594896  0.07134317  1
  O2-  O238  1  0.70974346  0.83934745  0.39839295  1
  O2-  O239  1  0.71056901  0.83159791  0.72378214  1
  O2-  O240  1  0.45741384  0.42322596  0.27045282  1
  O2-  O241  1  0.46344115  0.41406399  0.59702000  1
  O2-  O242  1  0.45687273  0.42026207  0.93039997  1
  O2-  O243  1  0.45905602  0.91528799  0.26644301  1
  O2-  O244  1  0.44581334  0.91783950  0.60871806  1
  O2-  O245  1  0.44085371  0.91834129  0.93840043  1
  O2-  O246  1  0.95448703  0.41872992  0.27317309  1
  O2-  O247  1  0.96090027  0.41680321  0.59704960  1
  O2-  O248  1  0.96306888  0.41497253  0.93751739  1
  O2-  O249  1  0.95828945  0.91025204  0.26562189  1
  O2-  O250  1  0.96444857  0.91668512  0.59704877  1
  O2-  O251  1  0.95967730  0.90918428  0.93746698  1
  O2-  O252  1  0.32791248  0.30071580  0.27041076  1
  O2-  O253  1  0.33001640  0.29615549  0.59727149  1
  O2-  O254  1  0.33048816  0.29400076  0.93016423  1
  O2-  O255  1  0.32998868  0.78942412  0.26725331  1
  O2-  O256  1  0.33438059  0.78985780  0.60393506  1
  O2-  O257  1  0.33339720  0.78860470  0.93480245  1
  O2-  O258  1  0.83390708  0.29987654  0.27264184  1
  O2-  O259  1  0.83118794  0.29156282  0.59900712  1
  O2-  O260  1  0.83218027  0.30833413  0.94522772  1
  O2-  O261  1  0.83528863  0.79422192  0.26962195  1
  O2-  O262  1  0.83821291  0.79034662  0.59372805  1
  O2-  O263  1  0.84009213  0.79017101  0.93644957  1
  O2-  O264  1  0.41936917  0.04819034  0.06569569  1
  O2-  O265  1  0.41632674  0.03810350  0.40331010  1
  O2-  O266  1  0.41824969  0.05189851  0.72888414  1
  O2-  O267  1  0.41282587  0.54583068  0.06011777  1
  O2-  O268  1  0.41734987  0.54683813  0.40315355  1
  O2-  O269  1  0.41488825  0.53911523  0.72828749  1
  O2-  O270  1  0.91440556  0.03255800  0.07041701  1
  O2-  O271  1  0.91208229  0.03426445  0.39694634  1
  O2-  O272  1  0.91496886  0.03805424  0.73152205  1
  O2-  O273  1  0.92232660  0.54669275  0.06535755  1
  O2-  O274  1  0.92217021  0.54945596  0.40408066  1
  O2-  O275  1  0.91660297  0.54680077  0.72521167  1
  O2-  O276  1  0.28511367  0.17053227  0.06505048  1
  O2-  O277  1  0.28714276  0.16757957  0.40191119  1
  O2-  O278  1  0.29571608  0.16884907  0.72774854  1
  O2-  O279  1  0.28925130  0.65947242  0.06124636  1
  O2-  O280  1  0.28324683  0.66577294  0.40342525  1
  O2-  O281  1  0.29539738  0.65949731  0.73306729  1
  O2-  O282  1  0.80679261  0.17426407  0.06719821  1
  O2-  O283  1  0.80146418  0.16298586  0.39405801  1
  O2-  O284  1  0.79167586  0.16825002  0.73372468  1
  O2-  O285  1  0.79508832  0.66905864  0.06635367  1
  O2-  O286  1  0.79294332  0.67208844  0.40378521  1
  O2-  O287  1  0.79480342  0.66507742  0.72384024  1
