# generated using pymatgen
data_Ca2Al2SiO7
_symmetry_space_group_name_H-M   'P 1'
_cell_length_a   15.46634210
_cell_length_b   15.46656686
_cell_length_c   15.28721285
_cell_angle_alpha   90.00132620
_cell_angle_beta   90.02075255
_cell_angle_gamma   90.00361050
_symmetry_Int_Tables_number   1
_chemical_formula_structural   Ca2Al2SiO7
_chemical_formula_sum   'Ca48 Al48 Si24 O168'
_cell_volume   3656.87249922
_cell_formula_units_Z   24
loop_
 _symmetry_equiv_pos_site_id
 _symmetry_equiv_pos_as_xyz
  1  'x, y, z'
loop_
 _atom_type_symbol
 _atom_type_oxidation_number
  Ca2+  2.0
  Al0+  0.0
  Si0+  0.0
  O2-  -2.0
loop_
 _atom_site_type_symbol
 _atom_site_label
 _atom_site_symmetry_multiplicity
 _atom_site_fract_x
 _atom_site_fract_y
 _atom_site_fract_z
 _atom_site_occupancy
  Ca2+  Ca0  1  0.17258292  0.08791445  0.17306713  1
  Ca2+  Ca1  1  0.16262972  0.08143046  0.50641279  1
  Ca2+  Ca2  1  0.16641009  0.07807279  0.83506046  1
  Ca2+  Ca3  1  0.17454409  0.57401429  0.17568523  1
  Ca2+  Ca4  1  0.16610650  0.58600597  0.49981781  1
  Ca2+  Ca5  1  0.16857970  0.58039469  0.84054866  1
  Ca2+  Ca6  1  0.66850282  0.07363059  0.17817764  1
  Ca2+  Ca7  1  0.66820913  0.08814214  0.50060185  1
  Ca2+  Ca8  1  0.66539576  0.07816935  0.83742896  1
  Ca2+  Ca9  1  0.66882404  0.57723371  0.17478022  1
  Ca2+  Ca10  1  0.65843262  0.57172456  0.50172218  1
  Ca2+  Ca11  1  0.67481439  0.57071661  0.84143267  1
  Ca2+  Ca12  1  0.09242826  0.33240989  0.16516038  1
  Ca2+  Ca13  1  0.08211545  0.32508051  0.49161380  1
  Ca2+  Ca14  1  0.07810902  0.33132882  0.82496925  1
  Ca2+  Ca15  1  0.08224734  0.82537368  0.16657996  1
  Ca2+  Ca16  1  0.08300267  0.82591297  0.49904857  1
  Ca2+  Ca17  1  0.07719938  0.82663588  0.81820340  1
  Ca2+  Ca18  1  0.58421691  0.33590051  0.16801393  1
  Ca2+  Ca19  1  0.58459124  0.32808500  0.49053439  1
  Ca2+  Ca20  1  0.58858022  0.32915006  0.82523100  1
  Ca2+  Ca21  1  0.59185825  0.82952404  0.16520824  1
  Ca2+  Ca22  1  0.57703726  0.83024277  0.49157121  1
  Ca2+  Ca23  1  0.57743788  0.83342492  0.82805517  1
  Ca2+  Ca24  1  0.32755289  0.42291709  0.17580953  1
  Ca2+  Ca25  1  0.33434289  0.41885640  0.49541271  1
  Ca2+  Ca26  1  0.32446573  0.42485669  0.84338954  1
  Ca2+  Ca27  1  0.33459422  0.92506251  0.16798535  1
  Ca2+  Ca28  1  0.32805918  0.91558814  0.50893722  1
  Ca2+  Ca29  1  0.33002937  0.92042445  0.83349664  1
  Ca2+  Ca30  1  0.82274408  0.41933495  0.16891845  1
  Ca2+  Ca31  1  0.82301299  0.40899993  0.50454569  1
  Ca2+  Ca32  1  0.82703021  0.41530130  0.83628134  1
  Ca2+  Ca33  1  0.82228290  0.92121150  0.17609682  1
  Ca2+  Ca34  1  0.83267794  0.92008747  0.49995154  1
  Ca2+  Ca35  1  0.82934020  0.91493427  0.83756201  1
  Ca2+  Ca36  1  0.41755088  0.17366028  0.16629508  1
  Ca2+  Ca37  1  0.43026087  0.17297488  0.49129920  1
  Ca2+  Ca38  1  0.42199902  0.16608499  0.82877652  1
  Ca2+  Ca39  1  0.41906621  0.65837282  0.16872370  1
  Ca2+  Ca40  1  0.41755570  0.67134955  0.49230905  1
  Ca2+  Ca41  1  0.41476046  0.67132412  0.82846792  1
  Ca2+  Ca42  1  0.91855640  0.16406106  0.17013820  1
  Ca2+  Ca43  1  0.92352097  0.16906984  0.49611952  1
  Ca2+  Ca44  1  0.92352230  0.17486701  0.82124237  1
  Ca2+  Ca45  1  0.92080387  0.65728193  0.16411753  1
  Ca2+  Ca46  1  0.92632153  0.66967853  0.49710867  1
  Ca2+  Ca47  1  0.92001201  0.66904739  0.82560809  1
  Al0+  Al48  1  0.00022404  -0.00154989  -0.00171416  1
  Al0+  Al49  1  -0.00056261  0.00107548  0.33095467  1
  Al0+  Al50  1  -0.00069054  -0.00070767  0.66618505  1
  Al0+  Al51  1  -0.00052877  0.49761515  0.00406198  1
  Al0+  Al52  1  -0.00006210  0.49946631  0.33243816  1
  Al0+  Al53  1  -0.00123302  0.50037885  0.65954458  1
  Al0+  Al54  1  0.49940283  -0.00059968  0.00620374  1
  Al0+  Al55  1  0.49889712  0.00048262  0.33355374  1
  Al0+  Al56  1  0.49969555  0.00010043  0.65931853  1
  Al0+  Al57  1  0.49926766  0.49928915  0.00185219  1
  Al0+  Al58  1  0.49874673  0.50268719  0.33394539  1
  Al0+  Al59  1  0.49938673  0.49934820  0.67505860  1
  Al0+  Al60  1  0.25199227  0.24794009  0.00256771  1
  Al0+  Al61  1  0.25027920  0.25060687  0.33084183  1
  Al0+  Al62  1  0.25253198  0.25152421  0.66538548  1
  Al0+  Al63  1  0.25062542  0.75117652  0.00200317  1
  Al0+  Al64  1  0.24896553  0.75037364  0.32962009  1
  Al0+  Al65  1  0.25036164  0.75210457  0.66530198  1
  Al0+  Al66  1  0.75176746  0.24843762  0.00146709  1
  Al0+  Al67  1  0.75194416  0.24871056  0.33516968  1
  Al0+  Al68  1  0.75023941  0.24794850  0.66551253  1
  Al0+  Al69  1  0.75064904  0.74908312  0.00436925  1
  Al0+  Al70  1  0.74874464  0.75179731  0.33503646  1
  Al0+  Al71  1  0.74976097  0.74903477  0.66377660  1
  Al0+  Al72  1  0.17842274  0.42784171  0.35133561  1
  Al0+  Al73  1  0.32032231  0.06939857  0.01319995  1
  Al0+  Al74  1  0.67997485  0.42773076  0.68076689  1
  Al0+  Al75  1  0.43022544  0.82009237  0.65465134  1
  Al0+  Al76  1  0.07202384  0.67859914  0.65251007  1
  Al0+  Al77  1  0.67872156  0.42591370  0.01520553  1
  Al0+  Al78  1  0.43035049  0.32182070  0.31747570  1
  Al0+  Al79  1  0.67679271  0.92847607  0.35208861  1
  Al0+  Al80  1  0.92830003  0.32120329  0.65137889  1
  Al0+  Al81  1  0.82191371  0.07040700  0.35042899  1
  Al0+  Al82  1  0.07356400  0.17972487  0.65319383  1
  Al0+  Al83  1  0.17902142  0.42842326  0.01325645  1
  Al0+  Al84  1  0.07024630  0.17927826  0.31792111  1
  Al0+  Al85  1  0.57058421  0.68102057  0.32022903  1
  Al0+  Al86  1  0.67962972  0.92974496  0.01166906  1
  Al0+  Al87  1  0.92533197  0.82228276  0.65119057  1
  Al0+  Al88  1  0.67998997  0.43121740  0.34733828  1
  Al0+  Al89  1  0.57334276  0.17881435  0.31570857  1
  Al0+  Al90  1  0.17854856  0.93005799  0.67953809  1
  Al0+  Al91  1  0.32121727  0.57441693  0.01491504  1
  Al0+  Al92  1  0.07038234  0.67841573  0.31652605  1
  Al0+  Al93  1  0.31985684  0.57239093  0.35103640  1
  Al0+  Al94  1  0.82082543  0.57093997  0.01414782  1
  Al0+  Al95  1  0.56987390  0.17972122  0.65463277  1
  Si0+  Si96  1  0.42845363  0.32101506  0.98349293  1
  Si0+  Si97  1  0.31972890  0.57198943  0.68219334  1
  Si0+  Si98  1  0.92874864  0.82169961  0.31500558  1
  Si0+  Si99  1  0.42807538  0.32545302  0.65199041  1
  Si0+  Si100  1  0.32054178  0.07204751  0.34974328  1
  Si0+  Si101  1  0.17760033  0.42849064  0.68018454  1
  Si0+  Si102  1  0.92747291  0.32246069  0.31407636  1
  Si0+  Si103  1  0.42624522  0.82308961  0.31429387  1
  Si0+  Si104  1  0.42993095  0.82276724  0.98475347  1
  Si0+  Si105  1  0.57219002  0.67814777  0.98450515  1
  Si0+  Si106  1  0.82295000  0.57286949  0.68162858  1
  Si0+  Si107  1  0.57055231  0.17855843  0.98576193  1
  Si0+  Si108  1  0.57087878  0.67611376  0.65315336  1
  Si0+  Si109  1  0.17597685  0.92829249  0.01725076  1
  Si0+  Si110  1  0.32377962  0.07247845  0.68144636  1
  Si0+  Si111  1  0.92843625  0.82085513  0.98547198  1
  Si0+  Si112  1  0.07050373  0.67923068  0.98601010  1
  Si0+  Si113  1  0.17963153  0.93013678  0.34685037  1
  Si0+  Si114  1  0.67692839  0.92813102  0.68094021  1
  Si0+  Si115  1  0.82033624  0.06949493  0.68308707  1
  Si0+  Si116  1  0.82311483  0.57364750  0.35195696  1
  Si0+  Si117  1  0.82442575  0.07124516  0.01514996  1
  Si0+  Si118  1  0.92926792  0.31944820  0.98493646  1
  Si0+  Si119  1  0.07328033  0.17761270  0.98426415  1
  O2-  O120  1  0.24264129  -0.00157740  0.06141488  1
  O2-  O121  1  0.25049475  0.00003215  0.39083744  1
  O2-  O122  1  0.25081997  0.00798248  0.72595542  1
  O2-  O123  1  0.25008434  0.50111033  0.06268528  1
  O2-  O124  1  0.24761497  0.50176371  0.40252398  1
  O2-  O125  1  0.24744832  0.50105174  0.72276470  1
  O2-  O126  1  0.75506554  0.00325467  0.05786755  1
  O2-  O127  1  0.74687110  0.00218786  0.40189690  1
  O2-  O128  1  0.74983877  -0.00320571  0.72477056  1
  O2-  O129  1  0.74623347  0.50217513  0.06426814  1
  O2-  O130  1  0.75447770  0.50525202  0.39630497  1
  O2-  O131  1  0.75524617  0.50288083  0.72591245  1
  O2-  O132  1  -0.00107975  0.25625236  0.26935149  1
  O2-  O133  1  0.00483903  0.25377574  0.60239954  1
  O2-  O134  1  0.00187733  0.24876821  0.94325422  1
  O2-  O135  1  -0.00756011  0.74945077  0.26852108  1
  O2-  O136  1  -0.00127425  0.75049180  0.60396922  1
  O2-  O137  1  -0.00018019  0.75028609  0.94289594  1
  O2-  O138  1  0.50337870  0.25191845  0.26476862  1
  O2-  O139  1  0.49748473  0.25697188  0.60982784  1
  O2-  O140  1  0.50353221  0.25306299  0.94175624  1
  O2-  O141  1  0.49811807  0.75736444  0.27099418  1
  O2-  O142  1  0.50452678  0.74603290  0.60817524  1
  O2-  O143  1  0.49891694  0.74852602  0.94320447  1
  O2-  O144  1  0.07249917  0.17560943  0.08897071  1
  O2-  O145  1  0.06955686  0.17752417  0.43062707  1
  O2-  O146  1  0.07186696  0.18062920  0.76783381  1
  O2-  O147  1  0.06964647  0.68205420  0.09072097  1
  O2-  O148  1  0.07089478  0.68307840  0.42924866  1
  O2-  O149  1  0.07147675  0.67893468  0.76724160  1
  O2-  O150  1  0.56927327  0.17739027  0.08996048  1
  O2-  O151  1  0.57042799  0.18013503  0.42951300  1
  O2-  O152  1  0.56834701  0.17746490  0.76886346  1
  O2-  O153  1  0.57349755  0.68006819  0.08915411  1
  O2-  O154  1  0.56737045  0.68171665  0.43366105  1
  O2-  O155  1  0.56911266  0.67753485  0.75935681  1
  O2-  O156  1  0.18124514  0.42862793  0.23763913  1
  O2-  O157  1  0.17960560  0.42622209  0.57603130  1
  O2-  O158  1  0.17865820  0.43005160  0.89855338  1
  O2-  O159  1  0.18126639  0.93170497  0.24118351  1
  O2-  O160  1  0.18184133  0.92918072  0.56647602  1
  O2-  O161  1  0.17543584  0.92811702  0.91167173  1
  O2-  O162  1  0.68198403  0.43289165  0.23426925  1
  O2-  O163  1  0.67781927  0.42947305  0.56815607  1
  O2-  O164  1  0.68267976  0.42462018  0.90109431  1
  O2-  O165  1  0.68026954  0.92832132  0.23793206  1
  O2-  O166  1  0.67541773  0.92936845  0.57684245  1
  O2-  O167  1  0.67910349  0.93118193  0.89773971  1
  O2-  O168  1  0.42638617  0.31892230  0.08774885  1
  O2-  O169  1  0.43120280  0.31838538  0.43160167  1
  O2-  O170  1  0.42706696  0.32489170  0.75814033  1
  O2-  O171  1  0.43029915  0.82627361  0.08920160  1
  O2-  O172  1  0.42430179  0.82197760  0.42004516  1
  O2-  O173  1  0.43158570  0.82019083  0.76854793  1
  O2-  O174  1  0.92701224  0.31776451  0.08940997  1
  O2-  O175  1  0.92782332  0.32050586  0.41954974  1
  O2-  O176  1  0.92964954  0.31880803  0.76613185  1
  O2-  O177  1  0.93053827  0.82389639  0.09004289  1
  O2-  O178  1  0.93233532  0.82260278  0.42032925  1
  O2-  O179  1  0.92498678  0.82001740  0.76591274  1
  O2-  O180  1  0.31946596  0.07045802  0.24413469  1
  O2-  O181  1  0.32529032  0.07002852  0.57628475  1
  O2-  O182  1  0.32109050  0.06743409  0.89983550  1
  O2-  O183  1  0.31803371  0.57186207  0.23756761  1
  O2-  O184  1  0.32298329  0.57208497  0.57794173  1
  O2-  O185  1  0.31802006  0.57526541  0.90028421  1
  O2-  O186  1  0.82332330  0.06569757  0.23607796  1
  O2-  O187  1  0.81983779  0.07053833  0.57882033  1
  O2-  O188  1  0.82508056  0.07069839  0.90920307  1
  O2-  O189  1  0.82147118  0.57202662  0.24601693  1
  O2-  O190  1  0.82118938  0.57520889  0.57666271  1
  O2-  O191  1  0.82100992  0.57124644  0.90021053  1
  O2-  O192  1  0.03837055  0.08339920  0.26170545  1
  O2-  O193  1  0.04359920  0.08161180  0.60266989  1
  O2-  O194  1  0.04519723  0.08498839  0.93701171  1
  O2-  O195  1  0.04166784  0.58077931  0.26345383  1
  O2-  O196  1  0.04623354  0.58133247  0.59753631  1
  O2-  O197  1  0.04308638  0.58625954  0.94051449  1
  O2-  O198  1  0.54172637  0.07980888  0.26522868  1
  O2-  O199  1  0.53839806  0.08568744  0.59760367  1
  O2-  O200  1  0.53804385  0.08726852  0.93874828  1
  O2-  O201  1  0.53837798  0.58608565  0.26468779  1
  O2-  O202  1  0.54172625  0.58283069  0.60927519  1
  O2-  O203  1  0.54568648  0.58568072  0.93683270  1
  O2-  O204  1  0.16737901  0.20801092  0.26400790  1
  O2-  O205  1  0.17382729  0.20302172  0.60216672  1
  O2-  O206  1  0.16561328  0.20364451  0.93717097  1
  O2-  O207  1  0.16491304  0.71441253  0.26129441  1
  O2-  O208  1  0.16873157  0.71035037  0.59964480  1
  O2-  O209  1  0.16293115  0.70759109  0.93941700  1
  O2-  O210  1  0.67368071  0.20311545  0.26568547  1
  O2-  O211  1  0.66638505  0.20749355  0.60147876  1
  O2-  O212  1  0.66469470  0.20193001  0.93926690  1
  O2-  O213  1  0.66811988  0.71015732  0.26588386  1
  O2-  O214  1  0.66480171  0.69736513  0.60775257  1
  O2-  O215  1  0.66373370  0.70806244  0.93689464  1
  O2-  O216  1  0.08083019  0.45249870  0.06670822  1
  O2-  O217  1  0.07777635  0.45332423  0.40026812  1
  O2-  O218  1  0.08437369  0.45511320  0.72605977  1
  O2-  O219  1  0.08173870  0.95151583  0.06301048  1
  O2-  O220  1  0.08787242  0.95807971  0.39248316  1
  O2-  O221  1  0.08138495  0.95765295  0.73538148  1
  O2-  O222  1  0.57834177  0.44928291  0.06359810  1
  O2-  O223  1  0.58372283  0.46282204  0.40051755  1
  O2-  O224  1  0.58382059  0.45752395  0.73804828  1
  O2-  O225  1  0.58486523  0.95964421  0.06765636  1
  O2-  O226  1  0.57592944  0.95334433  0.40119210  1
  O2-  O227  1  0.58560578  0.95948841  0.72842596  1
  O2-  O228  1  0.20751745  0.32993606  0.06433873  1
  O2-  O229  1  0.20961841  0.32915001  0.40225940  1
  O2-  O230  1  0.20681442  0.33727058  0.72966306  1
  O2-  O231  1  0.20419397  0.83610095  0.06384391  1
  O2-  O232  1  0.20752985  0.83843615  0.39305900  1
  O2-  O233  1  0.21313956  0.83503323  0.73584699  1
  O2-  O234  1  0.71056206  0.32861666  0.06793896  1
  O2-  O235  1  0.71057659  0.33380789  0.39916960  1
  O2-  O236  1  0.71212341  0.33091905  0.73474422  1
  O2-  O237  1  0.70965427  0.83403974  0.06630884  1
  O2-  O238  1  0.70599780  0.83026566  0.40473614  1
  O2-  O239  1  0.70191446  0.83470893  0.72775816  1
  O2-  O240  1  0.45582742  0.42117977  0.26636445  1
  O2-  O241  1  0.45350244  0.41943458  0.60773013  1
  O2-  O242  1  0.45107621  0.41470570  0.93637303  1
  O2-  O243  1  0.44867802  0.91811136  0.27005618  1
  O2-  O244  1  0.45891038  0.91495100  0.59749697  1
  O2-  O245  1  0.46144333  0.91326114  0.93593867  1
  O2-  O246  1  0.94858454  0.41734029  0.26922394  1
  O2-  O247  1  0.94731723  0.42082245  0.59931525  1
  O2-  O248  1  0.95643280  0.41157800  0.93728262  1
  O2-  O249  1  0.95968711  0.91279844  0.26676242  1
  O2-  O250  1  0.95361145  0.92019815  0.59958120  1
  O2-  O251  1  0.95520752  0.91280983  0.93607287  1
  O2-  O252  1  0.33341900  0.28928869  0.26384562  1
  O2-  O253  1  0.33521973  0.30130181  0.60479888  1
  O2-  O254  1  0.33826727  0.28813737  0.93438980  1
  O2-  O255  1  0.33424097  0.79605959  0.26572354  1
  O2-  O256  1  0.33480795  0.79037860  0.59951700  1
  O2-  O257  1  0.33638913  0.79734510  0.93798633  1
  O2-  O258  1  0.83594407  0.29208903  0.26669934  1
  O2-  O259  1  0.83263214  0.28647273  0.59867275  1
  O2-  O260  1  0.83835432  0.28936749  0.93545864  1
  O2-  O261  1  0.83300690  0.80061418  0.27217231  1
  O2-  O262  1  0.82735622  0.79522045  0.59710531  1
  O2-  O263  1  0.83624087  0.79325064  0.93828917  1
  O2-  O264  1  0.41362555  0.03556853  0.07051453  1
  O2-  O265  1  0.41230788  0.04505736  0.39672005  1
  O2-  O266  1  0.41538713  0.04015701  0.72904117  1
  O2-  O267  1  0.42033213  0.54777373  0.06497210  1
  O2-  O268  1  0.41808386  0.54471932  0.40400760  1
  O2-  O269  1  0.41006285  0.54397538  0.73372682  1
  O2-  O270  1  0.91793190  0.04496453  0.06119069  1
  O2-  O271  1  0.91984939  0.03779602  0.40245817  1
  O2-  O272  1  0.91194153  0.04298897  0.73201572  1
  O2-  O273  1  0.91737889  0.53996156  0.06830265  1
  O2-  O274  1  0.91722205  0.54883519  0.39611898  1
  O2-  O275  1  0.91766185  0.54896996  0.72717400  1
  O2-  O276  1  0.29188243  0.16509516  0.06865911  1
  O2-  O277  1  0.29198345  0.16294508  0.39641271  1
  O2-  O278  1  0.30422563  0.16814797  0.72691794  1
  O2-  O279  1  0.29535705  0.67301296  0.06788030  1
  O2-  O280  1  0.29081305  0.67265684  0.40059055  1
  O2-  O281  1  0.29232489  0.66386417  0.72985431  1
  O2-  O282  1  0.80029436  0.16425715  0.06138466  1
  O2-  O283  1  0.79841147  0.16974255  0.40246025  1
  O2-  O284  1  0.79017267  0.15980628  0.73272194  1
  O2-  O285  1  0.79711324  0.66944203  0.06849887  1
  O2-  O286  1  0.79927099  0.66810859  0.39571828  1
  O2-  O287  1  0.79584717  0.66608052  0.72962677  1
