# generated using pymatgen
data_Ca2Al2SiO7
_symmetry_space_group_name_H-M   'P 1'
_cell_length_a   15.45615934
_cell_length_b   15.45575232
_cell_length_c   15.28190463
_cell_angle_alpha   89.99928990
_cell_angle_beta   89.99163690
_cell_angle_gamma   90.00003777
_symmetry_Int_Tables_number   1
_chemical_formula_structural   Ca2Al2SiO7
_chemical_formula_sum   'Ca48 Al48 Si24 O168'
_cell_volume   3650.64174949
_cell_formula_units_Z   24
loop_
 _symmetry_equiv_pos_site_id
 _symmetry_equiv_pos_as_xyz
  1  'x, y, z'
loop_
 _atom_type_symbol
 _atom_type_oxidation_number
  Ca2+  2.0
  Al0+  0.0
  Si0+  0.0
  O2-  -2.0
loop_
 _atom_site_type_symbol
 _atom_site_label
 _atom_site_symmetry_multiplicity
 _atom_site_fract_x
 _atom_site_fract_y
 _atom_site_fract_z
 _atom_site_occupancy
  Ca2+  Ca0  1  0.17093047  0.07876609  0.17972727  1
  Ca2+  Ca1  1  0.16429710  0.07861571  0.50293662  1
  Ca2+  Ca2  1  0.16124564  0.08018777  0.83000373  1
  Ca2+  Ca3  1  0.16529712  0.57124083  0.16674133  1
  Ca2+  Ca4  1  0.17045247  0.57513723  0.50580598  1
  Ca2+  Ca5  1  0.18094690  0.57848066  0.84097213  1
  Ca2+  Ca6  1  0.67709238  0.08397838  0.17317673  1
  Ca2+  Ca7  1  0.67006589  0.08132147  0.50072152  1
  Ca2+  Ca8  1  0.66880569  0.08653501  0.84019973  1
  Ca2+  Ca9  1  0.67458880  0.58291573  0.16677687  1
  Ca2+  Ca10  1  0.67033601  0.58503652  0.50893564  1
  Ca2+  Ca11  1  0.67419323  0.58791922  0.83392896  1
  Ca2+  Ca12  1  0.07935350  0.33254744  0.16567165  1
  Ca2+  Ca13  1  0.08252444  0.32348636  0.48995684  1
  Ca2+  Ca14  1  0.08260021  0.33111177  0.83181850  1
  Ca2+  Ca15  1  0.08014171  0.83527437  0.16269434  1
  Ca2+  Ca16  1  0.08439806  0.83709312  0.49898479  1
  Ca2+  Ca17  1  0.07119796  0.83657146  0.82566801  1
  Ca2+  Ca18  1  0.58227440  0.32414348  0.15944014  1
  Ca2+  Ca19  1  0.57616995  0.33164547  0.50227599  1
  Ca2+  Ca20  1  0.58223252  0.32244258  0.82625949  1
  Ca2+  Ca21  1  0.57915230  0.84164641  0.16861675  1
  Ca2+  Ca22  1  0.57462134  0.83122888  0.49609160  1
  Ca2+  Ca23  1  0.57363374  0.82539954  0.82147754  1
  Ca2+  Ca24  1  0.31993491  0.41675619  0.17083018  1
  Ca2+  Ca25  1  0.32948577  0.41630558  0.50820926  1
  Ca2+  Ca26  1  0.33504585  0.42324400  0.83822961  1
  Ca2+  Ca27  1  0.32869831  0.92288705  0.18023084  1
  Ca2+  Ca28  1  0.32650125  0.91549303  0.50244467  1
  Ca2+  Ca29  1  0.32556948  0.90870465  0.83208834  1
  Ca2+  Ca30  1  0.84406123  0.41852845  0.16869071  1
  Ca2+  Ca31  1  0.83523865  0.42090377  0.50443105  1
  Ca2+  Ca32  1  0.83840662  0.42867725  0.84020220  1
  Ca2+  Ca33  1  0.83237780  0.92986375  0.17278507  1
  Ca2+  Ca34  1  0.83178014  0.92043527  0.50326150  1
  Ca2+  Ca35  1  0.83538745  0.92118763  0.84015747  1
  Ca2+  Ca36  1  0.42228819  0.16039876  0.16214784  1
  Ca2+  Ca37  1  0.41788099  0.16463176  0.49846832  1
  Ca2+  Ca38  1  0.42873516  0.17241993  0.82450949  1
  Ca2+  Ca39  1  0.41275049  0.67243740  0.16458501  1
  Ca2+  Ca40  1  0.41001362  0.67642818  0.50024634  1
  Ca2+  Ca41  1  0.41976678  0.66347923  0.82160412  1
  Ca2+  Ca42  1  0.91566774  0.17261311  0.16291008  1
  Ca2+  Ca43  1  0.92808802  0.16792437  0.49137104  1
  Ca2+  Ca44  1  0.91871996  0.17267331  0.82988478  1
  Ca2+  Ca45  1  0.91773498  0.67438377  0.15710760  1
  Ca2+  Ca46  1  0.91093340  0.67378205  0.49993276  1
  Ca2+  Ca47  1  0.90939281  0.67579348  0.82799916  1
  Al0+  Al48  1  -0.00122852  0.00042259  0.00068999  1
  Al0+  Al49  1  0.00030204  0.00027735  0.33552562  1
  Al0+  Al50  1  -0.00096822  0.00032636  0.66365881  1
  Al0+  Al51  1  0.00175539  0.50063029  0.00265398  1
  Al0+  Al52  1  0.00144880  0.50117399  0.33572217  1
  Al0+  Al53  1  -0.00033481  0.50176718  0.67310896  1
  Al0+  Al54  1  0.49903867  -0.00158483  -0.00687228  1
  Al0+  Al55  1  0.50055496  -0.00104447  0.33592957  1
  Al0+  Al56  1  0.49975169  -0.00035601  0.66087617  1
  Al0+  Al57  1  0.50052692  0.50170648  0.00570668  1
  Al0+  Al58  1  0.50230780  0.50106963  0.33030567  1
  Al0+  Al59  1  0.50184158  0.49739578  0.66355466  1
  Al0+  Al60  1  0.25041746  0.24883781  0.00222542  1
  Al0+  Al61  1  0.24989396  0.25036358  0.33651119  1
  Al0+  Al62  1  0.24959465  0.24716399  0.66234832  1
  Al0+  Al63  1  0.24907070  0.74961117  0.00435999  1
  Al0+  Al64  1  0.25068551  0.74978910  0.32990200  1
  Al0+  Al65  1  0.24730026  0.74869738  0.67290622  1
  Al0+  Al66  1  0.75172812  0.24999040  -0.00559971  1
  Al0+  Al67  1  0.74988803  0.25313114  0.33523922  1
  Al0+  Al68  1  0.75047548  0.25010984  0.66284501  1
  Al0+  Al69  1  0.74752752  0.75045935  0.00134635  1
  Al0+  Al70  1  0.74899661  0.74944805  0.33412735  1
  Al0+  Al71  1  0.74913725  0.75183810  0.66282542  1
  Al0+  Al72  1  0.57147587  0.67834242  0.65168028  1
  Al0+  Al73  1  0.92905675  0.82107817  0.98777910  1
  Al0+  Al74  1  0.17834482  0.92684078  0.34819682  1
  Al0+  Al75  1  0.32217669  0.07204396  0.34878539  1
  Al0+  Al76  1  0.92892989  0.32234526  0.31859183  1
  Al0+  Al77  1  0.32080373  0.56843569  0.67850872  1
  Al0+  Al78  1  0.82119904  0.07393264  0.34985296  1
  Al0+  Al79  1  0.57393580  0.17713270  0.64843239  1
  Al0+  Al80  1  0.82035990  0.07171500  0.01202318  1
  Al0+  Al81  1  0.67990292  0.92831262  0.34949552  1
  Al0+  Al82  1  0.17963102  0.42674046  0.01552947  1
  Al0+  Al83  1  0.42992171  0.82013072  0.31826274  1
  Al0+  Al84  1  0.17907384  0.43037810  0.34910901  1
  Al0+  Al85  1  0.42914298  0.32024803  0.65255343  1
  Al0+  Al86  1  0.07188849  0.17752921  0.31640389  1
  Al0+  Al87  1  0.06889434  0.17965027  0.65321394  1
  Al0+  Al88  1  0.92901428  0.82060855  0.65189290  1
  Al0+  Al89  1  0.57101447  0.17882300  0.98755138  1
  Al0+  Al90  1  0.82022563  0.57252407  0.01422723  1
  Al0+  Al91  1  0.82006457  0.57227556  0.68058654  1
  Al0+  Al92  1  0.93090082  0.32219596  0.98487492  1
  Al0+  Al93  1  0.32394942  0.57271295  0.01780768  1
  Al0+  Al94  1  0.17851597  0.93023777  0.68212527  1
  Al0+  Al95  1  0.42457990  0.81936149  0.65164442  1
  Si0+  Si96  1  0.82034633  0.07088494  0.68210008  1
  Si0+  Si97  1  0.67790276  0.93002834  0.68216845  1
  Si0+  Si98  1  0.07117169  0.67918193  0.31840234  1
  Si0+  Si99  1  0.07409079  0.17688808  0.98332939  1
  Si0+  Si100  1  0.57032267  0.67782335  0.98548057  1
  Si0+  Si101  1  0.17779649  0.42443058  0.68370862  1
  Si0+  Si102  1  0.32268959  0.06866793  0.01174406  1
  Si0+  Si103  1  0.42755784  0.81993819  0.98476158  1
  Si0+  Si104  1  0.07247262  0.67858748  0.98267391  1
  Si0+  Si105  1  0.32336383  0.07222377  0.68544521  1
  Si0+  Si106  1  0.82100060  0.57069819  0.34784830  1
  Si0+  Si107  1  0.07120108  0.67726986  0.65176466  1
  Si0+  Si108  1  0.32355958  0.57078278  0.34984874  1
  Si0+  Si109  1  0.67697528  0.42960999  0.34857305  1
  Si0+  Si110  1  0.17801616  0.93038177  0.01441115  1
  Si0+  Si111  1  0.42743281  0.32235929  0.98633575  1
  Si0+  Si112  1  0.67951140  0.42743304  0.01600712  1
  Si0+  Si113  1  0.67548665  0.92833574  0.01457263  1
  Si0+  Si114  1  0.67930667  0.42624508  0.68395432  1
  Si0+  Si115  1  0.92934169  0.32547932  0.65131997  1
  Si0+  Si116  1  0.57393481  0.67725211  0.31289652  1
  Si0+  Si117  1  0.42889101  0.32359650  0.31701508  1
  Si0+  Si118  1  0.92715723  0.82008701  0.31810174  1
  Si0+  Si119  1  0.57014026  0.18019030  0.31834563  1
  O2-  O120  1  0.24998804  0.00050171  0.05529566  1
  O2-  O121  1  0.24810676  0.00131032  0.39743373  1
  O2-  O122  1  0.25569288  0.00235199  0.73051614  1
  O2-  O123  1  0.25296512  0.49851231  0.06510724  1
  O2-  O124  1  0.25760409  0.50094223  0.39550104  1
  O2-  O125  1  0.24875643  0.49151971  0.72655751  1
  O2-  O126  1  0.74454530  -0.00285836  0.05752265  1
  O2-  O127  1  0.75191296  -0.00053512  0.40068385  1
  O2-  O128  1  0.74578106  0.00369658  0.72523634  1
  O2-  O129  1  0.74921788  0.49457488  0.06205117  1
  O2-  O130  1  0.74989439  0.49960260  0.38898585  1
  O2-  O131  1  0.74742330  0.49569111  0.72801765  1
  O2-  O132  1  -0.00206188  0.24820085  0.26713162  1
  O2-  O133  1  -0.00094707  0.25890786  0.60716148  1
  O2-  O134  1  0.00668829  0.24755013  0.93995330  1
  O2-  O135  1  0.00157361  0.75228008  0.27637267  1
  O2-  O136  1  0.00206615  0.74420039  0.60530360  1
  O2-  O137  1  0.00201849  0.74565062  0.93875764  1
  O2-  O138  1  0.49721829  0.24937490  0.27510830  1
  O2-  O139  1  0.49879419  0.24686528  0.60033108  1
  O2-  O140  1  0.49722696  0.25506963  0.94212198  1
  O2-  O141  1  0.50499005  0.74613473  0.26943552  1
  O2-  O142  1  0.49648018  0.74692745  0.60182716  1
  O2-  O143  1  0.49568784  0.74557673  0.94413832  1
  O2-  O144  1  0.07529861  0.17431947  0.08830377  1
  O2-  O145  1  0.07079160  0.17970482  0.43000489  1
  O2-  O146  1  0.06549793  0.17944275  0.76699814  1
  O2-  O147  1  0.07215238  0.68159970  0.08882469  1
  O2-  O148  1  0.06955533  0.67726344  0.42344793  1
  O2-  O149  1  0.07006399  0.67849919  0.75731235  1
  O2-  O150  1  0.56846312  0.17822794  0.10107336  1
  O2-  O151  1  0.57047438  0.18303311  0.42297071  1
  O2-  O152  1  0.57461148  0.17920250  0.76259900  1
  O2-  O153  1  0.57263907  0.67903858  0.09048840  1
  O2-  O154  1  0.57545524  0.67485118  0.41780791  1
  O2-  O155  1  0.57205790  0.68148491  0.76606969  1
  O2-  O156  1  0.17814992  0.43285411  0.23613731  1
  O2-  O157  1  0.17629065  0.42713384  0.57812110  1
  O2-  O158  1  0.18280537  0.42694797  0.90171606  1
  O2-  O159  1  0.18094681  0.92603513  0.23356563  1
  O2-  O160  1  0.17803257  0.93137430  0.56983837  1
  O2-  O161  1  0.17767470  0.93007092  0.90931728  1
  O2-  O162  1  0.67354942  0.43016588  0.24344184  1
  O2-  O163  1  0.68134720  0.42571734  0.57804801  1
  O2-  O164  1  0.67824343  0.42990102  0.91070621  1
  O2-  O165  1  0.68187748  0.93046486  0.23504821  1
  O2-  O166  1  0.68068368  0.92919657  0.57746130  1
  O2-  O167  1  0.67420198  0.92817575  0.90886148  1
  O2-  O168  1  0.42797837  0.31935666  0.09225659  1
  O2-  O169  1  0.43266608  0.32754966  0.42159739  1
  O2-  O170  1  0.43181671  0.31967732  0.76679551  1
  O2-  O171  1  0.42956947  0.82314077  0.08971835  1
  O2-  O172  1  0.42791068  0.81653039  0.43057400  1
  O2-  O173  1  0.42682930  0.81736892  0.76624877  1
  O2-  O174  1  0.93029396  0.32056792  0.09752240  1
  O2-  O175  1  0.93088553  0.32520593  0.43228585  1
  O2-  O176  1  0.92928422  0.32487879  0.75714222  1
  O2-  O177  1  0.93214248  0.82107914  0.10118526  1
  O2-  O178  1  0.92451816  0.81619589  0.42307849  1
  O2-  O179  1  0.92851765  0.82138558  0.76534340  1
  O2-  O180  1  0.32382433  0.06902735  0.23381226  1
  O2-  O181  1  0.32201824  0.07291358  0.58037975  1
  O2-  O182  1  0.32442014  0.06684978  0.90699342  1
  O2-  O183  1  0.32227762  0.56896556  0.24421497  1
  O2-  O184  1  0.31620554  0.56875119  0.56539899  1
  O2-  O185  1  0.32494383  0.57244932  0.90402549  1
  O2-  O186  1  0.81843054  0.07398663  0.23573852  1
  O2-  O187  1  0.82040421  0.06943963  0.57733812  1
  O2-  O188  1  0.82041099  0.06991037  0.89852201  1
  O2-  O189  1  0.82021494  0.57225048  0.24259152  1
  O2-  O190  1  0.81966779  0.57011014  0.56701056  1
  O2-  O191  1  0.81627762  0.57456089  0.90145614  1
  O2-  O192  1  0.04623566  0.07710681  0.26522861  1
  O2-  O193  1  0.03330421  0.08601380  0.59810115  1
  O2-  O194  1  0.04512485  0.08438444  0.93656241  1
  O2-  O195  1  0.03916007  0.58941146  0.26949211  1
  O2-  O196  1  0.04670009  0.58268628  0.60647695  1
  O2-  O197  1  0.05074254  0.58410475  0.93845069  1
  O2-  O198  1  0.54478553  0.08753426  0.27172640  1
  O2-  O199  1  0.54815317  0.07858648  0.59622845  1
  O2-  O200  1  0.53912091  0.08349954  0.93090785  1
  O2-  O201  1  0.54868724  0.58375712  0.26511612  1
  O2-  O202  1  0.55145467  0.57775157  0.60103064  1
  O2-  O203  1  0.54654911  0.58438566  0.93898878  1
  O2-  O204  1  0.17154706  0.20712715  0.26565924  1
  O2-  O205  1  0.16701375  0.20250436  0.59994891  1
  O2-  O206  1  0.16850505  0.20079713  0.93672244  1
  O2-  O207  1  0.16250587  0.70436676  0.26874929  1
  O2-  O208  1  0.16373658  0.70392207  0.60534677  1
  O2-  O209  1  0.16628573  0.70652211  0.93764753  1
  O2-  O210  1  0.66091864  0.21222101  0.27098714  1
  O2-  O211  1  0.67125008  0.20846729  0.59470404  1
  O2-  O212  1  0.66603207  0.20929981  0.93107392  1
  O2-  O213  1  0.66744075  0.70423634  0.26597279  1
  O2-  O214  1  0.66712960  0.71106152  0.59628432  1
  O2-  O215  1  0.66054491  0.70860617  0.93676776  1
  O2-  O216  1  0.08299337  0.45861468  0.06986869  1
  O2-  O217  1  0.08468095  0.46600897  0.40459973  1
  O2-  O218  1  0.08517942  0.45210199  0.73104964  1
  O2-  O219  1  0.08704660  0.95820589  0.06279060  1
  O2-  O220  1  0.07870121  0.94982998  0.39958867  1
  O2-  O221  1  0.08198294  0.96530329  0.73572899  1
  O2-  O222  1  0.58683850  0.45352705  0.06472547  1
  O2-  O223  1  0.58642571  0.46012849  0.39746861  1
  O2-  O224  1  0.58535216  0.44947996  0.72969046  1
  O2-  O225  1  0.58152115  0.95514968  0.06011138  1
  O2-  O226  1  0.58201242  0.95586971  0.40178179  1
  O2-  O227  1  0.58418395  0.95412031  0.72842628  1
  O2-  O228  1  0.20734323  0.32803105  0.06966475  1
  O2-  O229  1  0.20781335  0.33368015  0.40202559  1
  O2-  O230  1  0.20103951  0.32961752  0.72800624  1
  O2-  O231  1  0.20401034  0.83828616  0.06195274  1
  O2-  O232  1  0.20845906  0.82799089  0.39957153  1
  O2-  O233  1  0.20577427  0.83348837  0.73873531  1
  O2-  O234  1  0.70406429  0.33321794  0.06066798  1
  O2-  O235  1  0.70290796  0.33896395  0.39813760  1
  O2-  O236  1  0.70593791  0.33251934  0.73016111  1
  O2-  O237  1  0.69887186  0.83515183  0.06188306  1
  O2-  O238  1  0.70683113  0.82870483  0.40091306  1
  O2-  O239  1  0.70856114  0.83917644  0.72987649  1
  O2-  O240  1  0.46043202  0.41376401  0.26742148  1
  O2-  O241  1  0.45977446  0.41620491  0.59594340  1
  O2-  O242  1  0.45248101  0.41771224  0.94379137  1
  O2-  O243  1  0.46207856  0.91708498  0.26400262  1
  O2-  O244  1  0.45181216  0.91785008  0.60036063  1
  O2-  O245  1  0.45670471  0.90934578  0.93350104  1
  O2-  O246  1  0.96025078  0.42141309  0.26693554  1
  O2-  O247  1  0.95213783  0.42067710  0.60725813  1
  O2-  O248  1  0.96087333  0.42013759  0.93233485  1
  O2-  O249  1  0.95187005  0.91332915  0.27284791  1
  O2-  O250  1  0.96107729  0.91564753  0.59741045  1
  O2-  O251  1  0.96124876  0.91701989  0.93282624  1
  O2-  O252  1  0.33592009  0.29848396  0.27176326  1
  O2-  O253  1  0.33041085  0.29466797  0.59966135  1
  O2-  O254  1  0.33468714  0.29602810  0.93938435  1
  O2-  O255  1  0.33403364  0.78836324  0.26166540  1
  O2-  O256  1  0.32570228  0.78934884  0.60119643  1
  O2-  O257  1  0.33357723  0.79496087  0.94031986  1
  O2-  O258  1  0.82766706  0.29973246  0.26743618  1
  O2-  O259  1  0.83588296  0.30003220  0.60568286  1
  O2-  O260  1  0.83518793  0.29195566  0.92881533  1
  O2-  O261  1  0.83701247  0.78803344  0.26947248  1
  O2-  O262  1  0.83384663  0.78952608  0.59633298  1
  O2-  O263  1  0.83057733  0.79217902  0.93600572  1
  O2-  O264  1  0.41351171  0.03755261  0.06009559  1
  O2-  O265  1  0.41971158  0.04283446  0.40147837  1
  O2-  O266  1  0.41882411  0.04826196  0.72921390  1
  O2-  O267  1  0.42307639  0.54932014  0.07204566  1
  O2-  O268  1  0.41939640  0.54863433  0.39245439  1
  O2-  O269  1  0.41936359  0.53955402  0.73064695  1
  O2-  O270  1  0.91604008  0.03969216  0.06732900  1
  O2-  O271  1  0.91964723  0.04557255  0.40098953  1
  O2-  O272  1  0.91024167  0.03886071  0.73007600  1
  O2-  O273  1  0.91835615  0.54652088  0.06671711  1
  O2-  O274  1  0.91217540  0.54456344  0.39636717  1
  O2-  O275  1  0.91689476  0.54520807  0.73710771  1
  O2-  O276  1  0.30034723  0.16165014  0.05905523  1
  O2-  O277  1  0.29902753  0.17146305  0.40084831  1
  O2-  O278  1  0.29537524  0.16543400  0.73206996  1
  O2-  O279  1  0.29185958  0.67035653  0.07150436  1
  O2-  O280  1  0.29436686  0.66392201  0.39334082  1
  O2-  O281  1  0.28831840  0.66284413  0.73623450  1
  O2-  O282  1  0.78923407  0.16849612  0.06496990  1
  O2-  O283  1  0.79096047  0.17205616  0.40230465  1
  O2-  O284  1  0.79584319  0.16510933  0.72721033  1
  O2-  O285  1  0.78528957  0.66743275  0.07027617  1
  O2-  O286  1  0.79158119  0.66165415  0.39566096  1
  O2-  O287  1  0.78645849  0.66920716  0.73304424  1
