# generated using pymatgen
data_Ca2Al2SiO7
_symmetry_space_group_name_H-M   'P 1'
_cell_length_a   15.45826576
_cell_length_b   15.45932848
_cell_length_c   15.28498703
_cell_angle_alpha   90.00260803
_cell_angle_beta   90.00143575
_cell_angle_gamma   90.01028165
_symmetry_Int_Tables_number   1
_chemical_formula_structural   Ca2Al2SiO7
_chemical_formula_sum   'Ca48 Al48 Si24 O168'
_cell_volume   3652.72066496
_cell_formula_units_Z   24
loop_
 _symmetry_equiv_pos_site_id
 _symmetry_equiv_pos_as_xyz
  1  'x, y, z'
loop_
 _atom_type_symbol
 _atom_type_oxidation_number
  Ca2+  2.0
  Al0+  0.0
  Si0+  0.0
  O2-  -2.0
loop_
 _atom_site_type_symbol
 _atom_site_label
 _atom_site_symmetry_multiplicity
 _atom_site_fract_x
 _atom_site_fract_y
 _atom_site_fract_z
 _atom_site_occupancy
  Ca2+  Ca0  1  0.17512538  0.08505484  0.16650171  1
  Ca2+  Ca1  1  0.16707494  0.08724202  0.50729369  1
  Ca2+  Ca2  1  0.17462122  0.08653490  0.83698673  1
  Ca2+  Ca3  1  0.17257513  0.58032282  0.17263506  1
  Ca2+  Ca4  1  0.16178227  0.56903540  0.50149120  1
  Ca2+  Ca5  1  0.17547651  0.57607504  0.83725404  1
  Ca2+  Ca6  1  0.66971516  0.07776899  0.16730846  1
  Ca2+  Ca7  1  0.67792209  0.09019204  0.50246339  1
  Ca2+  Ca8  1  0.67118448  0.08798695  0.84259395  1
  Ca2+  Ca9  1  0.66695507  0.57334202  0.17218462  1
  Ca2+  Ca10  1  0.66974039  0.57174460  0.50075108  1
  Ca2+  Ca11  1  0.65621782  0.57064787  0.83833984  1
  Ca2+  Ca12  1  0.06870672  0.34079906  0.16540900  1
  Ca2+  Ca13  1  0.08101391  0.33239458  0.49235242  1
  Ca2+  Ca14  1  0.07734046  0.32816314  0.82719796  1
  Ca2+  Ca15  1  0.08084728  0.82668321  0.16508425  1
  Ca2+  Ca16  1  0.07902838  0.82354871  0.49150644  1
  Ca2+  Ca17  1  0.08200215  0.83268488  0.82920915  1
  Ca2+  Ca18  1  0.58647200  0.33171758  0.15916185  1
  Ca2+  Ca19  1  0.58025049  0.33693202  0.49808909  1
  Ca2+  Ca20  1  0.58468691  0.32518846  0.82728305  1
  Ca2+  Ca21  1  0.58783368  0.82901441  0.15556457  1
  Ca2+  Ca22  1  0.58094616  0.83665512  0.49660708  1
  Ca2+  Ca23  1  0.57559335  0.83545419  0.83321055  1
  Ca2+  Ca24  1  0.33268668  0.42287336  0.17445386  1
  Ca2+  Ca25  1  0.32542858  0.40573685  0.50515125  1
  Ca2+  Ca26  1  0.32943774  0.41262334  0.83686138  1
  Ca2+  Ca27  1  0.34508226  0.92467942  0.16347109  1
  Ca2+  Ca28  1  0.33293250  0.91728015  0.50499134  1
  Ca2+  Ca29  1  0.33862393  0.91910426  0.84158804  1
  Ca2+  Ca30  1  0.82308035  0.41217024  0.17269945  1
  Ca2+  Ca31  1  0.82496376  0.41204515  0.49840090  1
  Ca2+  Ca32  1  0.82102068  0.41036560  0.83850719  1
  Ca2+  Ca33  1  0.82187245  0.92674950  0.17377860  1
  Ca2+  Ca34  1  0.82732732  0.92620624  0.50322751  1
  Ca2+  Ca35  1  0.82596413  0.93153820  0.84222186  1
  Ca2+  Ca36  1  0.42272732  0.17344723  0.15989153  1
  Ca2+  Ca37  1  0.42435495  0.17961592  0.49835790  1
  Ca2+  Ca38  1  0.43058247  0.16565441  0.82747619  1
  Ca2+  Ca39  1  0.42449761  0.67175434  0.15372651  1
  Ca2+  Ca40  1  0.41594118  0.67322142  0.49847178  1
  Ca2+  Ca41  1  0.41765215  0.67296814  0.83559021  1
  Ca2+  Ca42  1  0.90438647  0.17548122  0.16361778  1
  Ca2+  Ca43  1  0.91792022  0.16712107  0.49596487  1
  Ca2+  Ca44  1  0.91446134  0.16856504  0.82953316  1
  Ca2+  Ca45  1  0.92193488  0.65464649  0.16654201  1
  Ca2+  Ca46  1  0.92059224  0.66084229  0.48878674  1
  Ca2+  Ca47  1  0.91578414  0.67028471  0.83094555  1
  Al0+  Al48  1  0.00177029  0.00049321  0.00456019  1
  Al0+  Al49  1  0.00218511  -0.00156638  0.33428696  1
  Al0+  Al50  1  -0.00041491  -0.00042159  0.66687940  1
  Al0+  Al51  1  -0.00061019  0.49848723  -0.00926726  1
  Al0+  Al52  1  0.00247943  0.49847007  0.33080055  1
  Al0+  Al53  1  0.00098865  0.50011979  0.67309208  1
  Al0+  Al54  1  0.49983884  0.00124000  0.00096886  1
  Al0+  Al55  1  0.49882335  0.00161086  0.33805666  1
  Al0+  Al56  1  0.50075774  -0.00030724  0.65600490  1
  Al0+  Al57  1  0.49753188  0.50083468  0.00443308  1
  Al0+  Al58  1  0.49853025  0.50366245  0.33451922  1
  Al0+  Al59  1  0.49884020  0.50294050  0.66638112  1
  Al0+  Al60  1  0.24627293  0.24888765  0.00681043  1
  Al0+  Al61  1  0.25186255  0.25016637  0.33118455  1
  Al0+  Al62  1  0.24876009  0.24830659  0.66663141  1
  Al0+  Al63  1  0.24914797  0.74801568  0.00018415  1
  Al0+  Al64  1  0.24976069  0.75113948  0.32811474  1
  Al0+  Al65  1  0.24888720  0.74902125  0.66211661  1
  Al0+  Al66  1  0.74976699  0.25214342  -0.00106861  1
  Al0+  Al67  1  0.74968531  0.24805317  0.33744091  1
  Al0+  Al68  1  0.75175870  0.25115320  0.67016085  1
  Al0+  Al69  1  0.75253151  0.74784263  -0.00398596  1
  Al0+  Al70  1  0.74960096  0.75154831  0.34102758  1
  Al0+  Al71  1  0.74934260  0.75159276  0.66623386  1
  Al0+  Al72  1  0.56919193  0.18145991  0.98866203  1
  Al0+  Al73  1  0.42978668  0.82108779  0.98626198  1
  Al0+  Al74  1  0.92915385  0.31955800  0.98459691  1
  Al0+  Al75  1  0.82219677  0.56956426  0.34574415  1
  Al0+  Al76  1  0.17958066  0.42663608  0.68198363  1
  Al0+  Al77  1  0.67599485  0.42815214  0.34853668  1
  Al0+  Al78  1  0.67906698  0.43077605  0.01265565  1
  Al0+  Al79  1  0.82102611  0.06969768  0.68226366  1
  Al0+  Al80  1  0.57410790  0.67607213  0.98524266  1
  Al0+  Al81  1  0.06979554  0.67811836  0.31857338  1
  Al0+  Al82  1  0.67856493  0.43123342  0.68158500  1
  Al0+  Al83  1  0.42875126  0.32250849  0.65434914  1
  Al0+  Al84  1  0.31932637  0.57010220  0.01393594  1
  Al0+  Al85  1  0.42868654  0.82014369  0.65157521  1
  Al0+  Al86  1  0.06975537  0.17868000  0.65422155  1
  Al0+  Al87  1  0.82248772  0.07110734  0.34986035  1
  Al0+  Al88  1  0.18179199  0.42974166  0.34544366  1
  Al0+  Al89  1  0.42934022  0.32279675  0.31835545  1
  Al0+  Al90  1  0.67901200  0.92764749  0.01216629  1
  Al0+  Al91  1  0.57499438  0.17984085  0.65007769  1
  Al0+  Al92  1  0.82237484  0.07285129  0.01580461  1
  Al0+  Al93  1  0.32159797  0.07095990  0.01235015  1
  Al0+  Al94  1  0.92947820  0.31781505  0.32091501  1
  Al0+  Al95  1  0.67663696  0.92864114  0.35034480  1
  Si0+  Si96  1  0.07090729  0.67888296  0.98205794  1
  Si0+  Si97  1  0.07408474  0.17481858  0.31495921  1
  Si0+  Si98  1  0.17583289  0.42809400  0.01727609  1
  Si0+  Si99  1  0.93038204  0.82319509  0.98493871  1
  Si0+  Si100  1  0.82510259  0.57203610  0.01384308  1
  Si0+  Si101  1  0.57083702  0.17869095  0.31597696  1
  Si0+  Si102  1  0.92908555  0.82118654  0.65186330  1
  Si0+  Si103  1  0.17761768  0.92584852  0.01741263  1
  Si0+  Si104  1  0.42421444  0.32293621  0.98630857  1
  Si0+  Si105  1  0.57320925  0.67806962  0.64746153  1
  Si0+  Si106  1  0.67612606  0.92758327  0.68475063  1
  Si0+  Si107  1  0.32007442  0.57470943  0.68284460  1
  Si0+  Si108  1  0.06929937  0.67879470  0.65150033  1
  Si0+  Si109  1  0.32148542  0.57525516  0.35124191  1
  Si0+  Si110  1  0.92736913  0.82235275  0.31643423  1
  Si0+  Si111  1  0.07352600  0.17608226  0.98385543  1
  Si0+  Si112  1  0.82268067  0.57446998  0.68436272  1
  Si0+  Si113  1  0.32127856  0.06880959  0.67967718  1
  Si0+  Si114  1  0.42869782  0.82251248  0.31701576  1
  Si0+  Si115  1  0.17961918  0.92708073  0.67999305  1
  Si0+  Si116  1  0.32000934  0.07141409  0.35086982  1
  Si0+  Si117  1  0.18039160  0.92774657  0.34849866  1
  Si0+  Si118  1  0.57177284  0.68156089  0.31952651  1
  Si0+  Si119  1  0.92964553  0.32342082  0.64950358  1
  O2-  O120  1  0.24819885  -0.00619183  0.05957372  1
  O2-  O121  1  0.24780504  0.00082012  0.39258561  1
  O2-  O122  1  0.25220440  -0.00447651  0.72263714  1
  O2-  O123  1  0.24744851  0.49326729  0.06136000  1
  O2-  O124  1  0.25713908  0.50271262  0.39531787  1
  O2-  O125  1  0.25787290  0.49930345  0.72628887  1
  O2-  O126  1  0.75145141  -0.00151937  0.06294571  1
  O2-  O127  1  0.74923888  0.00019829  0.39982257  1
  O2-  O128  1  0.74189100  -0.00096062  0.72817522  1
  O2-  O129  1  0.75233888  0.50815222  0.05714358  1
  O2-  O130  1  0.75109243  0.49828559  0.39746011  1
  O2-  O131  1  0.75290617  0.50737614  0.72812141  1
  O2-  O132  1  0.00191347  0.24034067  0.27248506  1
  O2-  O133  1  -0.00168071  0.25470523  0.60557021  1
  O2-  O134  1  0.00275634  0.24230232  0.94012912  1
  O2-  O135  1  -0.00805640  0.74978935  0.27124677  1
  O2-  O136  1  -0.00537317  0.74539812  0.60881619  1
  O2-  O137  1  0.00076003  0.75139734  0.94085198  1
  O2-  O138  1  0.50735473  0.25217138  0.27128989  1
  O2-  O139  1  0.50446633  0.25516791  0.60266572  1
  O2-  O140  1  0.49241662  0.25458045  0.94198106  1
  O2-  O141  1  0.50228175  0.75417412  0.27675485  1
  O2-  O142  1  0.50487322  0.74784623  0.60354985  1
  O2-  O143  1  0.50377759  0.75110255  0.93615929  1
  O2-  O144  1  0.07745525  0.17676465  0.08913541  1
  O2-  O145  1  0.07584170  0.17522320  0.42080714  1
  O2-  O146  1  0.07048955  0.17801883  0.76716169  1
  O2-  O147  1  0.07038957  0.67803046  0.08700750  1
  O2-  O148  1  0.07075274  0.68109038  0.43209291  1
  O2-  O149  1  0.07070618  0.68215127  0.75681728  1
  O2-  O150  1  0.56830061  0.18218642  0.10186619  1
  O2-  O151  1  0.56738070  0.17730560  0.42151232  1
  O2-  O152  1  0.57206922  0.17751688  0.76386797  1
  O2-  O153  1  0.57250122  0.67661622  0.09934629  1
  O2-  O154  1  0.56824846  0.68172497  0.42479690  1
  O2-  O155  1  0.57332401  0.67817319  0.75269541  1
  O2-  O156  1  0.18200690  0.43340077  0.23248349  1
  O2-  O157  1  0.17686200  0.42917472  0.56888481  1
  O2-  O158  1  0.17677669  0.42906754  0.91136808  1
  O2-  O159  1  0.18135976  0.92639773  0.24365007  1
  O2-  O160  1  0.17991679  0.92596350  0.57476573  1
  O2-  O161  1  0.17525345  0.92547158  0.91143541  1
  O2-  O162  1  0.67600386  0.42985470  0.23506076  1
  O2-  O163  1  0.68025276  0.43288465  0.56870203  1
  O2-  O164  1  0.67997167  0.42993713  0.89945291  1
  O2-  O165  1  0.67630821  0.92767929  0.23693004  1
  O2-  O166  1  0.67993756  0.92444851  0.57937011  1
  O2-  O167  1  0.68024958  0.92937099  0.89839597  1
  O2-  O168  1  0.42497791  0.32149354  0.09209260  1
  O2-  O169  1  0.42620362  0.31839035  0.43121775  1
  O2-  O170  1  0.42695351  0.31801987  0.76808054  1
  O2-  O171  1  0.42930115  0.81917628  0.10007065  1
  O2-  O172  1  0.42522276  0.82003318  0.42235031  1
  O2-  O173  1  0.42562638  0.81936780  0.76398873  1
  O2-  O174  1  0.93052555  0.32236671  0.09771443  1
  O2-  O175  1  0.93301806  0.31826278  0.43408091  1
  O2-  O176  1  0.93115006  0.32252796  0.75523285  1
  O2-  O177  1  0.93292795  0.82310903  0.08965707  1
  O2-  O178  1  0.93301632  0.82321508  0.42238457  1
  O2-  O179  1  0.93313299  0.82090797  0.75718697  1
  O2-  O180  1  0.32086769  0.06950948  0.24571577  1
  O2-  O181  1  0.31728821  0.06730665  0.57434633  1
  O2-  O182  1  0.31921832  0.07075108  0.89898224  1
  O2-  O183  1  0.31940585  0.57700468  0.24570965  1
  O2-  O184  1  0.31474952  0.58048188  0.57746617  1
  O2-  O185  1  0.31547021  0.57191692  0.90068554  1
  O2-  O186  1  0.82135798  0.06960697  0.23662041  1
  O2-  O187  1  0.82445899  0.06544008  0.56954520  1
  O2-  O188  1  0.82341402  0.07026681  0.90199200  1
  O2-  O189  1  0.81995863  0.56929892  0.23214420  1
  O2-  O190  1  0.82506606  0.57496196  0.57904496  1
  O2-  O191  1  0.82895611  0.57054304  0.90817273  1
  O2-  O192  1  0.05461157  0.07872603  0.27092259  1
  O2-  O193  1  0.04071423  0.08117211  0.59949643  1
  O2-  O194  1  0.05328426  0.08024091  0.93947767  1
  O2-  O195  1  0.04240519  0.58250791  0.26185480  1
  O2-  O196  1  0.04373000  0.58525558  0.60664765  1
  O2-  O197  1  0.04249066  0.58885512  0.93144955  1
  O2-  O198  1  0.53766698  0.08626499  0.27117244  1
  O2-  O199  1  0.54515766  0.08303222  0.59478011  1
  O2-  O200  1  0.53888725  0.08529193  0.93401494  1
  O2-  O201  1  0.54268581  0.59059959  0.27154256  1
  O2-  O202  1  0.54557215  0.58600602  0.59974909  1
  O2-  O203  1  0.53712636  0.57984423  0.93226344  1
  O2-  O204  1  0.16688159  0.20303012  0.26880276  1
  O2-  O205  1  0.16661116  0.20635359  0.59940387  1
  O2-  O206  1  0.16622924  0.20496702  0.93641899  1
  O2-  O207  1  0.16449931  0.71465001  0.26307216  1
  O2-  O208  1  0.15845864  0.71013021  0.60165486  1
  O2-  O209  1  0.16166828  0.70782754  0.93352636  1
  O2-  O210  1  0.66677516  0.19779637  0.27348566  1
  O2-  O211  1  0.67405534  0.20852005  0.59915085  1
  O2-  O212  1  0.66423697  0.21389802  0.93351452  1
  O2-  O213  1  0.66493564  0.70756627  0.27443613  1
  O2-  O214  1  0.66749784  0.70360885  0.60190147  1
  O2-  O215  1  0.67430516  0.69663138  0.93179163  1
  O2-  O216  1  0.08315776  0.46124653  0.06019796  1
  O2-  O217  1  0.08668847  0.46275646  0.40039483  1
  O2-  O218  1  0.08507537  0.46155814  0.73852249  1
  O2-  O219  1  0.08616906  0.95283196  0.06707435  1
  O2-  O220  1  0.08774229  0.95028773  0.39671745  1
  O2-  O221  1  0.08879863  0.95562350  0.72865787  1
  O2-  O222  1  0.58193347  0.45750276  0.06693843  1
  O2-  O223  1  0.57909072  0.46215537  0.40214515  1
  O2-  O224  1  0.58068989  0.46178236  0.73400503  1
  O2-  O225  1  0.58107523  0.95494963  0.06559839  1
  O2-  O226  1  0.57754380  0.95602279  0.40336391  1
  O2-  O227  1  0.57936772  0.95010660  0.72461518  1
  O2-  O228  1  0.19354510  0.33343254  0.06335576  1
  O2-  O229  1  0.21034216  0.33169665  0.39837391  1
  O2-  O230  1  0.20824889  0.32964341  0.73655258  1
  O2-  O231  1  0.20058404  0.83176608  0.06303969  1
  O2-  O232  1  0.21154158  0.83691627  0.39686470  1
  O2-  O233  1  0.20505562  0.83442711  0.72736516  1
  O2-  O234  1  0.71369236  0.33648192  0.06746704  1
  O2-  O235  1  0.70276280  0.32968824  0.40090288  1
  O2-  O236  1  0.71114084  0.33543066  0.73555795  1
  O2-  O237  1  0.70852693  0.82777844  0.06248619  1
  O2-  O238  1  0.70430557  0.83153318  0.40682690  1
  O2-  O239  1  0.70350375  0.83406115  0.73070680  1
  O2-  O240  1  0.45233798  0.42355932  0.26882831  1
  O2-  O241  1  0.44859169  0.42391023  0.60322100  1
  O2-  O242  1  0.44683630  0.41726046  0.94192041  1
  O2-  O243  1  0.45318301  0.91693329  0.27360953  1
  O2-  O244  1  0.45570924  0.91565587  0.59344750  1
  O2-  O245  1  0.45484047  0.92021965  0.93369473  1
  O2-  O246  1  0.96368782  0.41280883  0.26581615  1
  O2-  O247  1  0.95603099  0.41831829  0.60658963  1
  O2-  O248  1  0.96160650  0.41405429  0.92627188  1
  O2-  O249  1  0.96002784  0.91329020  0.26874500  1
  O2-  O250  1  0.96332257  0.90950009  0.60254554  1
  O2-  O251  1  0.96148597  0.91424019  0.93702937  1
  O2-  O252  1  0.33435880  0.28769964  0.26293227  1
  O2-  O253  1  0.33212309  0.28760189  0.60082210  1
  O2-  O254  1  0.32870102  0.29751996  0.94386133  1
  O2-  O255  1  0.33788578  0.79437161  0.26831310  1
  O2-  O256  1  0.33206067  0.78771501  0.59577483  1
  O2-  O257  1  0.33015082  0.79161525  0.93458417  1
  O2-  O258  1  0.83122256  0.28911492  0.26809102  1
  O2-  O259  1  0.83615336  0.29750867  0.60515223  1
  O2-  O260  1  0.83362971  0.28901387  0.92941027  1
  O2-  O261  1  0.83130435  0.80155427  0.27501417  1
  O2-  O262  1  0.83535034  0.79931457  0.60588923  1
  O2-  O263  1  0.84038619  0.79565459  0.93400196  1
  O2-  O264  1  0.41593152  0.04068879  0.07035473  1
  O2-  O265  1  0.40990340  0.04203809  0.40030282  1
  O2-  O266  1  0.41462920  0.04113576  0.72325144  1
  O2-  O267  1  0.41493024  0.54338671  0.07100429  1
  O2-  O268  1  0.41611216  0.55589097  0.39674278  1
  O2-  O269  1  0.41631862  0.55844451  0.72563043  1
  O2-  O270  1  0.92202555  0.04711624  0.06772384  1
  O2-  O271  1  0.92264731  0.04201625  0.40030552  1
  O2-  O272  1  0.91666362  0.03345980  0.73622277  1
  O2-  O273  1  0.91830166  0.54207249  0.05888664  1
  O2-  O274  1  0.92142695  0.54252070  0.39767111  1
  O2-  O275  1  0.91627403  0.55030496  0.73183789  1
  O2-  O276  1  0.28784877  0.16500264  0.07099961  1
  O2-  O277  1  0.29140503  0.16271872  0.39777536  1
  O2-  O278  1  0.29081106  0.15842471  0.72844784  1
  O2-  O279  1  0.28523633  0.66549731  0.06898041  1
  O2-  O280  1  0.29114305  0.66841326  0.39630312  1
  O2-  O281  1  0.28453560  0.66475356  0.73124229  1
  O2-  O282  1  0.78996787  0.16998734  0.06672288  1
  O2-  O283  1  0.79464338  0.16831711  0.40498399  1
  O2-  O284  1  0.79616359  0.16816708  0.73421329  1
  O2-  O285  1  0.80824180  0.66790204  0.05793486  1
  O2-  O286  1  0.79734469  0.66828577  0.40061144  1
  O2-  O287  1  0.79932050  0.66987497  0.72902274  1
