# generated using pymatgen
data_Ca2Al2SiO7
_symmetry_space_group_name_H-M   'P 1'
_cell_length_a   15.45563507
_cell_length_b   15.45558728
_cell_length_c   15.28216535
_cell_angle_alpha   90.00683625
_cell_angle_beta   90.00155210
_cell_angle_gamma   89.99770746
_symmetry_Int_Tables_number   1
_chemical_formula_structural   Ca2Al2SiO7
_chemical_formula_sum   'Ca48 Al48 Si24 O168'
_cell_volume   3650.54122641
_cell_formula_units_Z   24
loop_
 _symmetry_equiv_pos_site_id
 _symmetry_equiv_pos_as_xyz
  1  'x, y, z'
loop_
 _atom_type_symbol
 _atom_type_oxidation_number
  Ca2+  2.0
  Al0+  0.0
  Si0+  0.0
  O2-  -2.0
loop_
 _atom_site_type_symbol
 _atom_site_label
 _atom_site_symmetry_multiplicity
 _atom_site_fract_x
 _atom_site_fract_y
 _atom_site_fract_z
 _atom_site_occupancy
  Ca2+  Ca0  1  0.17563838  0.07616393  0.17012916  1
  Ca2+  Ca1  1  0.17710169  0.08118620  0.50396190  1
  Ca2+  Ca2  1  0.16572139  0.06968065  0.83694277  1
  Ca2+  Ca3  1  0.17627073  0.58399773  0.16847614  1
  Ca2+  Ca4  1  0.16939586  0.57021374  0.50474525  1
  Ca2+  Ca5  1  0.17273468  0.57961906  0.84003254  1
  Ca2+  Ca6  1  0.66244107  0.08100102  0.16753176  1
  Ca2+  Ca7  1  0.66562693  0.08203964  0.50849572  1
  Ca2+  Ca8  1  0.67161995  0.07878598  0.83665950  1
  Ca2+  Ca9  1  0.65456239  0.58050450  0.16553455  1
  Ca2+  Ca10  1  0.67033870  0.58471388  0.50516506  1
  Ca2+  Ca11  1  0.66880833  0.58229944  0.84084708  1
  Ca2+  Ca12  1  0.07855770  0.33868601  0.16698868  1
  Ca2+  Ca13  1  0.08085242  0.33829181  0.49336274  1
  Ca2+  Ca14  1  0.08387125  0.33112458  0.82702952  1
  Ca2+  Ca15  1  0.08632020  0.82813248  0.15486086  1
  Ca2+  Ca16  1  0.07685651  0.84060289  0.50292329  1
  Ca2+  Ca17  1  0.08303207  0.83154633  0.82808397  1
  Ca2+  Ca18  1  0.57488248  0.33037891  0.15941322  1
  Ca2+  Ca19  1  0.57468636  0.32083389  0.49382415  1
  Ca2+  Ca20  1  0.57554587  0.33332618  0.82877184  1
  Ca2+  Ca21  1  0.57358009  0.82550283  0.15988678  1
  Ca2+  Ca22  1  0.58325970  0.82987917  0.49144009  1
  Ca2+  Ca23  1  0.58727845  0.83574194  0.83315376  1
  Ca2+  Ca24  1  0.33648110  0.41939993  0.17132823  1
  Ca2+  Ca25  1  0.32696581  0.40527414  0.50222897  1
  Ca2+  Ca26  1  0.33607028  0.41848138  0.83886172  1
  Ca2+  Ca27  1  0.33487508  0.91340456  0.17114734  1
  Ca2+  Ca28  1  0.33695673  0.92288289  0.50196736  1
  Ca2+  Ca29  1  0.32448731  0.91009050  0.84118215  1
  Ca2+  Ca30  1  0.82565237  0.41454583  0.16989071  1
  Ca2+  Ca31  1  0.83442563  0.42317342  0.50568039  1
  Ca2+  Ca32  1  0.82468942  0.42295140  0.83845348  1
  Ca2+  Ca33  1  0.82639291  0.92036763  0.16458466  1
  Ca2+  Ca34  1  0.82546531  0.92315658  0.51549520  1
  Ca2+  Ca35  1  0.82456580  0.92326009  0.83648612  1
  Ca2+  Ca36  1  0.41395550  0.17420763  0.16674664  1
  Ca2+  Ca37  1  0.42443066  0.16939895  0.49310997  1
  Ca2+  Ca38  1  0.42179769  0.17871199  0.82466868  1
  Ca2+  Ca39  1  0.42031915  0.67323924  0.15634663  1
  Ca2+  Ca40  1  0.42445882  0.67582709  0.49189485  1
  Ca2+  Ca41  1  0.41899287  0.66832465  0.83889109  1
  Ca2+  Ca42  1  0.91429153  0.17020201  0.16320341  1
  Ca2+  Ca43  1  0.91687563  0.17112945  0.49563892  1
  Ca2+  Ca44  1  0.91242263  0.16060034  0.82986331  1
  Ca2+  Ca45  1  0.92783711  0.66748492  0.15989273  1
  Ca2+  Ca46  1  0.91241798  0.67285653  0.50085921  1
  Ca2+  Ca47  1  0.92022443  0.67153429  0.82651782  1
  Al0+  Al48  1  0.00089382  0.00086135  0.00960825  1
  Al0+  Al49  1  -0.00151173  0.00087383  0.33288580  1
  Al0+  Al50  1  0.00094869  -0.00002226  0.66759064  1
  Al0+  Al51  1  -0.00075363  0.49910867  -0.00568396  1
  Al0+  Al52  1  -0.00051200  0.50070893  0.33298743  1
  Al0+  Al53  1  0.00232504  0.50050391  0.67497574  1
  Al0+  Al54  1  0.49970459  0.00151741  -0.00100553  1
  Al0+  Al55  1  0.49966080  -0.00115286  0.33081598  1
  Al0+  Al56  1  0.50000347  0.00060006  0.66817705  1
  Al0+  Al57  1  0.49921517  0.50099079  -0.00015916  1
  Al0+  Al58  1  0.50096341  0.49903610  0.33308744  1
  Al0+  Al59  1  0.49794863  0.50130953  0.65946211  1
  Al0+  Al60  1  0.24675371  0.24879227  -0.00517240  1
  Al0+  Al61  1  0.24899075  0.24662883  0.33761293  1
  Al0+  Al62  1  0.24792478  0.24983219  0.66827085  1
  Al0+  Al63  1  0.24968397  0.74678232  -0.00028770  1
  Al0+  Al64  1  0.24723830  0.74849334  0.33549133  1
  Al0+  Al65  1  0.25059785  0.74716774  0.66631858  1
  Al0+  Al66  1  0.75017392  0.25230012  0.00656086  1
  Al0+  Al67  1  0.75082268  0.25049044  0.32706859  1
  Al0+  Al68  1  0.74989617  0.25146528  0.66606688  1
  Al0+  Al69  1  0.75215281  0.75157037  0.00202109  1
  Al0+  Al70  1  0.75146702  0.74992302  0.32822367  1
  Al0+  Al71  1  0.75218010  0.75051504  0.67019225  1
  Al0+  Al72  1  0.57220653  0.17842984  0.65266168  1
  Al0+  Al73  1  0.42602163  0.31912154  0.31762379  1
  Al0+  Al74  1  0.67886473  0.43224398  0.01366285  1
  Al0+  Al75  1  0.67653154  0.92842962  0.68069214  1
  Al0+  Al76  1  0.42902348  0.82292557  0.98361673  1
  Al0+  Al77  1  0.57188510  0.17802665  0.31593968  1
  Al0+  Al78  1  0.18189075  0.92798751  0.01365310  1
  Al0+  Al79  1  0.82125346  0.07395326  0.67921522  1
  Al0+  Al80  1  0.93060955  0.82047903  0.65437686  1
  Al0+  Al81  1  0.42707210  0.81989475  0.31981682  1
  Al0+  Al82  1  0.32132783  0.06810216  0.34695857  1
  Al0+  Al83  1  0.82096408  0.57133960  0.68033482  1
  Al0+  Al84  1  0.82060809  0.07156876  0.01816405  1
  Al0+  Al85  1  0.57367593  0.67857079  0.31868868  1
  Al0+  Al86  1  0.42725595  0.32225673  0.64961565  1
  Al0+  Al87  1  0.17969557  0.43051390  0.34514049  1
  Al0+  Al88  1  0.18066351  0.42801085  0.68209305  1
  Al0+  Al89  1  0.07116035  0.67791940  0.98510885  1
  Al0+  Al90  1  0.93087896  0.32222139  0.32026225  1
  Al0+  Al91  1  0.18107472  0.92874041  0.67891719  1
  Al0+  Al92  1  0.57227560  0.68002001  0.98324252  1
  Al0+  Al93  1  0.31932191  0.56766827  0.01363256  1
  Al0+  Al94  1  0.42786171  0.32046327  0.98611396  1
  Al0+  Al95  1  0.67644039  0.92792171  0.01818509  1
  Si0+  Si96  1  0.92749352  0.32036001  0.98300858  1
  Si0+  Si97  1  0.32232921  0.07180864  0.68473134  1
  Si0+  Si98  1  0.57404395  0.17940024  0.98261207  1
  Si0+  Si99  1  0.17583545  0.42508833  0.01642634  1
  Si0+  Si100  1  0.32130263  0.07449947  0.01422919  1
  Si0+  Si101  1  0.93020413  0.32318761  0.65388374  1
  Si0+  Si102  1  0.93035851  0.82400193  0.98384475  1
  Si0+  Si103  1  0.68182417  0.92890571  0.34749826  1
  Si0+  Si104  1  0.42657953  0.82057511  0.65256750  1
  Si0+  Si105  1  0.06899259  0.17824165  0.98451880  1
  Si0+  Si106  1  0.32376444  0.57283231  0.35161028  1
  Si0+  Si107  1  0.82143628  0.57062704  0.34761984  1
  Si0+  Si108  1  0.32362792  0.57225649  0.68328675  1
  Si0+  Si109  1  0.82455202  0.57219639  0.01753077  1
  Si0+  Si110  1  0.17499805  0.92539845  0.35113514  1
  Si0+  Si111  1  0.57249484  0.68029198  0.65231121  1
  Si0+  Si112  1  0.07133477  0.17623636  0.31622093  1
  Si0+  Si113  1  0.82150759  0.07217097  0.34956846  1
  Si0+  Si114  1  0.92930340  0.82319225  0.31783111  1
  Si0+  Si115  1  0.07296360  0.67656514  0.64812205  1
  Si0+  Si116  1  0.67872740  0.42752069  0.34917393  1
  Si0+  Si117  1  0.06983901  0.17814415  0.65141303  1
  Si0+  Si118  1  0.06832112  0.67919670  0.32038533  1
  Si0+  Si119  1  0.67675025  0.42991606  0.68026762  1
  O2-  O120  1  0.26009850  -0.00090241  0.05939620  1
  O2-  O121  1  0.24732432  -0.00881991  0.39333410  1
  O2-  O122  1  0.25783155  -0.00092693  0.72862379  1
  O2-  O123  1  0.24565034  0.49173872  0.06088501  1
  O2-  O124  1  0.25855922  0.49974369  0.39458827  1
  O2-  O125  1  0.25775780  0.50018702  0.72653396  1
  O2-  O126  1  0.74658471  0.00217623  0.06884196  1
  O2-  O127  1  0.75041292  0.00166355  0.39151006  1
  O2-  O128  1  0.74715779  0.00369191  0.72748067  1
  O2-  O129  1  0.75215789  0.50833685  0.06262282  1
  O2-  O130  1  0.74768387  0.50216128  0.39005068  1
  O2-  O131  1  0.74447756  0.49862366  0.72612339  1
  O2-  O132  1  0.00416563  0.24668025  0.27229391  1
  O2-  O133  1  -0.00105755  0.25042404  0.61054783  1
  O2-  O134  1  -0.00231348  0.24861924  0.94114998  1
  O2-  O135  1  0.00462681  0.75632346  0.27715559  1
  O2-  O136  1  0.00471678  0.74603891  0.60383969  1
  O2-  O137  1  -0.00329674  0.75313559  0.93944073  1
  O2-  O138  1  0.50044401  0.25079466  0.26633633  1
  O2-  O139  1  0.49890282  0.24886227  0.60201010  1
  O2-  O140  1  0.50196797  0.24513861  0.93931045  1
  O2-  O141  1  0.49582088  0.74480084  0.27051000  1
  O2-  O142  1  0.50267600  0.75370094  0.61161781  1
  O2-  O143  1  0.50534634  0.75608801  0.93182820  1
  O2-  O144  1  0.07037481  0.18022009  0.08956290  1
  O2-  O145  1  0.06824956  0.17365089  0.42202322  1
  O2-  O146  1  0.06990650  0.17798063  0.75667726  1
  O2-  O147  1  0.06930896  0.67814233  0.09922581  1
  O2-  O148  1  0.06516606  0.67685224  0.42533590  1
  O2-  O149  1  0.07263307  0.67696193  0.75338854  1
  O2-  O150  1  0.57415750  0.18202304  0.08814676  1
  O2-  O151  1  0.57376639  0.17890790  0.42955971  1
  O2-  O152  1  0.57194545  0.18141877  0.76625252  1
  O2-  O153  1  0.56710322  0.67885019  0.09646673  1
  O2-  O154  1  0.57784250  0.68352437  0.43315959  1
  O2-  O155  1  0.57212243  0.67684863  0.75672344  1
  O2-  O156  1  0.17600083  0.43623857  0.23241876  1
  O2-  O157  1  0.17706593  0.43005983  0.56874130  1
  O2-  O158  1  0.17587864  0.42574057  0.91079432  1
  O2-  O159  1  0.17217968  0.92582865  0.24570638  1
  O2-  O160  1  0.18145753  0.93241356  0.56562185  1
  O2-  O161  1  0.17885978  0.93044464  0.90045507  1
  O2-  O162  1  0.68072855  0.42741418  0.24425343  1
  O2-  O163  1  0.68010403  0.43134353  0.57435452  1
  O2-  O164  1  0.68243473  0.43176291  0.90015354  1
  O2-  O165  1  0.68551060  0.92811379  0.24298845  1
  O2-  O166  1  0.67901036  0.92574426  0.56622570  1
  O2-  O167  1  0.68046829  0.92905518  0.90479843  1
  O2-  O168  1  0.42664609  0.31858506  0.09899742  1
  O2-  O169  1  0.42701536  0.31560315  0.43102086  1
  O2-  O170  1  0.42949182  0.32295330  0.76345715  1
  O2-  O171  1  0.42666888  0.81877907  0.09698603  1
  O2-  O172  1  0.43020509  0.81997730  0.43444886  1
  O2-  O173  1  0.42232045  0.81748146  0.75691500  1
  O2-  O174  1  0.92996411  0.32241310  0.08821933  1
  O2-  O175  1  0.93206341  0.32297003  0.43388392  1
  O2-  O176  1  0.93145416  0.32309084  0.75895186  1
  O2-  O177  1  0.93335561  0.82222879  0.09032395  1
  O2-  O178  1  0.92745320  0.82268048  0.42296229  1
  O2-  O179  1  0.93298330  0.81918564  0.76691178  1
  O2-  O180  1  0.31702478  0.06890915  0.23390619  1
  O2-  O181  1  0.32048395  0.07122341  0.57888675  1
  O2-  O182  1  0.31502366  0.07737264  0.90877238  1
  O2-  O183  1  0.32022363  0.57603943  0.24637911  1
  O2-  O184  1  0.32150338  0.57615667  0.57762748  1
  O2-  O185  1  0.31800156  0.56649280  0.90032661  1
  O2-  O186  1  0.82452778  0.06958770  0.24500619  1
  O2-  O187  1  0.82279008  0.07247612  0.56502326  1
  O2-  O188  1  0.82190797  0.07072341  0.90474209  1
  O2-  O189  1  0.82591632  0.56928637  0.24297733  1
  O2-  O190  1  0.82016365  0.57018607  0.56632865  1
  O2-  O191  1  0.82638173  0.56806003  0.91195094  1
  O2-  O192  1  0.04310130  0.08376832  0.26822067  1
  O2-  O193  1  0.04248694  0.08781241  0.60138188  1
  O2-  O194  1  0.04025061  0.08562178  0.93914213  1
  O2-  O195  1  0.03351680  0.59153841  0.26998232  1
  O2-  O196  1  0.04371555  0.58278847  0.60385618  1
  O2-  O197  1  0.04022576  0.58176348  0.92962833  1
  O2-  O198  1  0.54314373  0.07976324  0.26446995  1
  O2-  O199  1  0.54504187  0.07875665  0.59994712  1
  O2-  O200  1  0.55315376  0.08437544  0.93850939  1
  O2-  O201  1  0.55207235  0.57715939  0.27102484  1
  O2-  O202  1  0.54373340  0.59027875  0.60096379  1
  O2-  O203  1  0.53956340  0.58290159  0.93005005  1
  O2-  O204  1  0.16495316  0.20014220  0.27128447  1
  O2-  O205  1  0.16122463  0.20660772  0.60358487  1
  O2-  O206  1  0.15872369  0.20547122  0.93270714  1
  O2-  O207  1  0.16211033  0.70055605  0.27415281  1
  O2-  O208  1  0.16667040  0.70078111  0.60129898  1
  O2-  O209  1  0.16656909  0.70779488  0.93026547  1
  O2-  O210  1  0.67029211  0.20581795  0.26291044  1
  O2-  O211  1  0.67073444  0.20770121  0.59850764  1
  O2-  O212  1  0.66722024  0.21021570  0.93863973  1
  O2-  O213  1  0.67058945  0.70848088  0.26328687  1
  O2-  O214  1  0.66500604  0.70653390  0.60538444  1
  O2-  O215  1  0.67490449  0.70214674  0.93526722  1
  O2-  O216  1  0.08129180  0.45227773  0.05976050  1
  O2-  O217  1  0.08436494  0.46682694  0.40059025  1
  O2-  O218  1  0.08616264  0.46011741  0.73923506  1
  O2-  O219  1  0.08813635  0.96201710  0.07135798  1
  O2-  O220  1  0.08208594  0.95642103  0.39718449  1
  O2-  O221  1  0.08616555  0.96256403  0.73343726  1
  O2-  O222  1  0.58293835  0.46176263  0.06854502  1
  O2-  O223  1  0.58665442  0.45198518  0.39798521  1
  O2-  O224  1  0.58227218  0.45608441  0.72333006  1
  O2-  O225  1  0.57629629  0.95462778  0.06895384  1
  O2-  O226  1  0.58848656  0.95314387  0.39289484  1
  O2-  O227  1  0.57749599  0.95248696  0.73403958  1
  O2-  O228  1  0.19758343  0.32994465  0.06046129  1
  O2-  O229  1  0.20222849  0.33144291  0.39865348  1
  O2-  O230  1  0.20543424  0.32998499  0.73640191  1
  O2-  O231  1  0.20837389  0.83047262  0.06702429  1
  O2-  O232  1  0.19394808  0.83026828  0.39705059  1
  O2-  O233  1  0.20712483  0.82965110  0.72995911  1
  O2-  O234  1  0.71273862  0.33828557  0.07058690  1
  O2-  O235  1  0.71187365  0.33681999  0.39577811  1
  O2-  O236  1  0.70348895  0.33747679  0.72716479  1
  O2-  O237  1  0.70908491  0.83020815  0.07156379  1
  O2-  O238  1  0.71332250  0.83715755  0.39409806  1
  O2-  O239  1  0.70918105  0.83228566  0.73464983  1
  O2-  O240  1  0.45126666  0.42031580  0.26995393  1
  O2-  O241  1  0.45279478  0.42093305  0.59498261  1
  O2-  O242  1  0.46037283  0.41622667  0.93270633  1
  O2-  O243  1  0.45590058  0.91669474  0.26635884  1
  O2-  O244  1  0.44943410  0.91480778  0.60786865  1
  O2-  O245  1  0.44858208  0.92457774  0.93273374  1
  O2-  O246  1  0.96303786  0.41762895  0.26443341  1
  O2-  O247  1  0.96150871  0.41461827  0.60707384  1
  O2-  O248  1  0.95516617  0.41121033  0.93359670  1
  O2-  O249  1  0.95315909  0.91602648  0.27067170  1
  O2-  O250  1  0.96301394  0.91635020  0.59823685  1
  O2-  O251  1  0.95962783  0.91768226  0.94113482  1
  O2-  O252  1  0.32700494  0.28913800  0.26669130  1
  O2-  O253  1  0.32720558  0.29227907  0.60078201  1
  O2-  O254  1  0.33021270  0.29124292  0.93184713  1
  O2-  O255  1  0.32536875  0.79585165  0.27103596  1
  O2-  O256  1  0.33744712  0.78855849  0.60147984  1
  O2-  O257  1  0.33232717  0.78651364  0.93148096  1
  O2-  O258  1  0.83579817  0.29225158  0.26396741  1
  O2-  O259  1  0.83762345  0.30003776  0.60579435  1
  O2-  O260  1  0.83515181  0.29331061  0.93682863  1
  O2-  O261  1  0.84083165  0.79063267  0.26755094  1
  O2-  O262  1  0.83453721  0.78800430  0.59868147  1
  O2-  O263  1  0.83604791  0.80086347  0.93956319  1
  O2-  O264  1  0.41770959  0.05922947  0.05682500  1
  O2-  O265  1  0.41787955  0.03741936  0.40233688  1
  O2-  O266  1  0.41694857  0.05178037  0.72956507  1
  O2-  O267  1  0.41520042  0.53875167  0.06856285  1
  O2-  O268  1  0.41929334  0.55256409  0.39629333  1
  O2-  O269  1  0.41843688  0.54873507  0.72749256  1
  O2-  O270  1  0.91793864  0.04233463  0.07428455  1
  O2-  O271  1  0.91387639  0.04451468  0.39709739  1
  O2-  O272  1  0.91901201  0.04368455  0.73197162  1
  O2-  O273  1  0.91669489  0.53982191  0.06390571  1
  O2-  O274  1  0.91086954  0.53967301  0.39812268  1
  O2-  O275  1  0.91603062  0.54013186  0.73614239  1
  O2-  O276  1  0.28512520  0.16423376  0.06262085  1
  O2-  O277  1  0.28688562  0.16185712  0.40487705  1
  O2-  O278  1  0.29063881  0.16326780  0.73081759  1
  O2-  O279  1  0.28486035  0.66222204  0.06919093  1
  O2-  O280  1  0.29227753  0.66425450  0.40038354  1
  O2-  O281  1  0.29420348  0.66362809  0.73137538  1
  O2-  O282  1  0.79596023  0.17126448  0.07044278  1
  O2-  O283  1  0.79619605  0.16614384  0.39382449  1
  O2-  O284  1  0.79745810  0.17363934  0.73249003  1
  O2-  O285  1  0.80778834  0.66817387  0.06123381  1
  O2-  O286  1  0.79524868  0.66417716  0.39374118  1
  O2-  O287  1  0.79281643  0.66688958  0.73588140  1
