# generated using pymatgen
data_Ca2Al2SiO7
_symmetry_space_group_name_H-M   'P 1'
_cell_length_a   15.46255617
_cell_length_b   15.46258433
_cell_length_c   15.28743129
_cell_angle_alpha   89.99309711
_cell_angle_beta   90.01206624
_cell_angle_gamma   90.00051772
_symmetry_Int_Tables_number   1
_chemical_formula_structural   Ca2Al2SiO7
_chemical_formula_sum   'Ca48 Al48 Si24 O168'
_cell_volume   3655.08832983
_cell_formula_units_Z   24
loop_
 _symmetry_equiv_pos_site_id
 _symmetry_equiv_pos_as_xyz
  1  'x, y, z'
loop_
 _atom_type_symbol
 _atom_type_oxidation_number
  Ca2+  2.0
  Al0+  0.0
  Si0+  0.0
  O2-  -2.0
loop_
 _atom_site_type_symbol
 _atom_site_label
 _atom_site_symmetry_multiplicity
 _atom_site_fract_x
 _atom_site_fract_y
 _atom_site_fract_z
 _atom_site_occupancy
  Ca2+  Ca0  1  0.16482616  0.07965860  0.17188148  1
  Ca2+  Ca1  1  0.16785263  0.08661070  0.50350309  1
  Ca2+  Ca2  1  0.17355305  0.08669766  0.84041370  1
  Ca2+  Ca3  1  0.17695208  0.57875497  0.17762961  1
  Ca2+  Ca4  1  0.16835798  0.57825563  0.49544862  1
  Ca2+  Ca5  1  0.17349220  0.57768918  0.84215773  1
  Ca2+  Ca6  1  0.66948963  0.07763095  0.17195642  1
  Ca2+  Ca7  1  0.65686517  0.08317276  0.50179509  1
  Ca2+  Ca8  1  0.67142151  0.08469506  0.84313864  1
  Ca2+  Ca9  1  0.66701492  0.57899734  0.17722799  1
  Ca2+  Ca10  1  0.65768737  0.56928990  0.49942478  1
  Ca2+  Ca11  1  0.66693619  0.57285150  0.83456804  1
  Ca2+  Ca12  1  0.08412057  0.32382833  0.16110546  1
  Ca2+  Ca13  1  0.08549953  0.32367318  0.49271110  1
  Ca2+  Ca14  1  0.07458871  0.32006073  0.82771132  1
  Ca2+  Ca15  1  0.09824272  0.82964904  0.16492496  1
  Ca2+  Ca16  1  0.08356087  0.83020771  0.48881742  1
  Ca2+  Ca17  1  0.08809921  0.83636060  0.83519252  1
  Ca2+  Ca18  1  0.58009153  0.33318571  0.17006850  1
  Ca2+  Ca19  1  0.57691184  0.32950034  0.49230998  1
  Ca2+  Ca20  1  0.57684939  0.32480164  0.82075366  1
  Ca2+  Ca21  1  0.58169449  0.83260259  0.16179321  1
  Ca2+  Ca22  1  0.58157808  0.82716973  0.48842484  1
  Ca2+  Ca23  1  0.57541103  0.84157006  0.83496873  1
  Ca2+  Ca24  1  0.33321865  0.42593043  0.17768218  1
  Ca2+  Ca25  1  0.33656791  0.41296467  0.49757487  1
  Ca2+  Ca26  1  0.33568806  0.41962170  0.83714843  1
  Ca2+  Ca27  1  0.32826232  0.92169641  0.16557530  1
  Ca2+  Ca28  1  0.32718357  0.92511551  0.50200055  1
  Ca2+  Ca29  1  0.33116592  0.93095339  0.84376885  1
  Ca2+  Ca30  1  0.82952458  0.41223854  0.17208333  1
  Ca2+  Ca31  1  0.82181122  0.40755203  0.50402819  1
  Ca2+  Ca32  1  0.83043712  0.40228321  0.83325100  1
  Ca2+  Ca33  1  0.82498038  0.92252515  0.17007902  1
  Ca2+  Ca34  1  0.82597968  0.91746063  0.49917441  1
  Ca2+  Ca35  1  0.82499635  0.92763437  0.84483889  1
  Ca2+  Ca36  1  0.41810894  0.16775731  0.16580390  1
  Ca2+  Ca37  1  0.42249716  0.17484164  0.49621661  1
  Ca2+  Ca38  1  0.41857269  0.16523234  0.82303379  1
  Ca2+  Ca39  1  0.41579332  0.66844883  0.16278768  1
  Ca2+  Ca40  1  0.41998823  0.66728866  0.48935097  1
  Ca2+  Ca41  1  0.41142945  0.67345597  0.83666081  1
  Ca2+  Ca42  1  0.92671346  0.16746771  0.15885511  1
  Ca2+  Ca43  1  0.92644664  0.17053508  0.49739157  1
  Ca2+  Ca44  1  0.92373345  0.16805228  0.83147747  1
  Ca2+  Ca45  1  0.92492241  0.66658016  0.16649080  1
  Ca2+  Ca46  1  0.92301174  0.66903775  0.49225026  1
  Ca2+  Ca47  1  0.91762905  0.67151296  0.83090539  1
  Al0+  Al48  1  -0.00018752  -0.00238747  0.00269398  1
  Al0+  Al49  1  -0.00180428  0.00110671  0.33470702  1
  Al0+  Al50  1  -0.00279725  -0.00313627  0.66317557  1
  Al0+  Al51  1  -0.00183965  0.49950481  -0.00561164  1
  Al0+  Al52  1  0.00155063  0.50245171  0.33265025  1
  Al0+  Al53  1  -0.00082076  0.50195187  0.66510064  1
  Al0+  Al54  1  0.49805721  -0.00170054  0.00316287  1
  Al0+  Al55  1  0.50034414  0.00031156  0.33442211  1
  Al0+  Al56  1  0.49610240  -0.00230156  0.66552940  1
  Al0+  Al57  1  0.50180334  0.50059079  0.00165875  1
  Al0+  Al58  1  0.50169973  0.50193478  0.33261371  1
  Al0+  Al59  1  0.50076558  0.50125331  0.67113560  1
  Al0+  Al60  1  0.25064949  0.25143330  -0.00118559  1
  Al0+  Al61  1  0.25035655  0.25145645  0.32772886  1
  Al0+  Al62  1  0.25052078  0.25098350  0.66489528  1
  Al0+  Al63  1  0.25379072  0.74943348  0.00007574  1
  Al0+  Al64  1  0.24966678  0.75157679  0.33824239  1
  Al0+  Al65  1  0.24956380  0.74938448  0.66687478  1
  Al0+  Al66  1  0.74919232  0.24954837  0.00252816  1
  Al0+  Al67  1  0.75048047  0.24947331  0.33411212  1
  Al0+  Al68  1  0.75048403  0.24698260  0.66507688  1
  Al0+  Al69  1  0.75080898  0.74541483  0.00094285  1
  Al0+  Al70  1  0.75000227  0.75182698  0.33329979  1
  Al0+  Al71  1  0.75022780  0.74885809  0.66811555  1
  Al0+  Al72  1  0.57060927  0.17582179  0.65346830  1
  Al0+  Al73  1  0.31845671  0.07100711  0.67855339  1
  Al0+  Al74  1  0.32122169  0.56892037  0.01335773  1
  Al0+  Al75  1  0.32155760  0.07552712  0.01596212  1
  Al0+  Al76  1  0.43011076  0.32159027  0.31629219  1
  Al0+  Al77  1  0.57118716  0.68033901  0.32013181  1
  Al0+  Al78  1  0.92724649  0.32090195  0.98490239  1
  Al0+  Al79  1  0.32185843  0.57120418  0.34977389  1
  Al0+  Al80  1  0.07101711  0.17880028  0.31838553  1
  Al0+  Al81  1  0.17844200  0.42770805  0.34782715  1
  Al0+  Al82  1  0.67785791  0.92708202  0.01428726  1
  Al0+  Al83  1  0.07109956  0.17767344  0.65098067  1
  Al0+  Al84  1  0.42925576  0.32430267  0.65238962  1
  Al0+  Al85  1  0.17861251  0.93145610  0.34778962  1
  Al0+  Al86  1  0.43047942  0.82001965  0.98628794  1
  Al0+  Al87  1  0.68108026  0.42915983  0.34648716  1
  Al0+  Al88  1  0.82093647  0.07257710  0.01595400  1
  Al0+  Al89  1  0.07159172  0.68072473  0.31911926  1
  Al0+  Al90  1  0.67828177  0.92968218  0.34817317  1
  Al0+  Al91  1  0.68038652  0.42799418  0.68108108  1
  Al0+  Al92  1  0.07265418  0.17587605  0.98466761  1
  Al0+  Al93  1  0.57257152  0.17753689  0.31611446  1
  Al0+  Al94  1  0.92843475  0.32187523  0.64963178  1
  Al0+  Al95  1  0.17937453  0.92953609  0.01361913  1
  Si0+  Si96  1  0.57433904  0.67582469  0.98090576  1
  Si0+  Si97  1  0.68037790  0.42954679  0.01515781  1
  Si0+  Si98  1  0.82131710  0.07204399  0.35297580  1
  Si0+  Si99  1  0.82317808  0.57348588  0.34974155  1
  Si0+  Si100  1  0.67811567  0.92622108  0.68125302  1
  Si0+  Si101  1  0.42767138  0.81976936  0.65074330  1
  Si0+  Si102  1  0.92840210  0.32288148  0.31785597  1
  Si0+  Si103  1  0.07229339  0.67980846  0.65183920  1
  Si0+  Si104  1  0.82101942  0.06819734  0.68127234  1
  Si0+  Si105  1  0.92636727  0.81910979  0.98522804  1
  Si0+  Si106  1  0.57131095  0.68072635  0.65315119  1
  Si0+  Si107  1  0.92779428  0.82262984  0.31514432  1
  Si0+  Si108  1  0.92722671  0.81928252  0.65153115  1
  Si0+  Si109  1  0.17733565  0.42994437  0.68196089  1
  Si0+  Si110  1  0.32237978  0.07379819  0.35056584  1
  Si0+  Si111  1  0.17603623  0.42944911  0.01430784  1
  Si0+  Si112  1  0.56842132  0.17922795  0.98700036  1
  Si0+  Si113  1  0.43039173  0.32430407  0.98549764  1
  Si0+  Si114  1  0.82333256  0.57127747  0.01555428  1
  Si0+  Si115  1  0.17622118  0.92647686  0.68261340  1
  Si0+  Si116  1  0.82301551  0.57326296  0.68465717  1
  Si0+  Si117  1  0.32089633  0.57306526  0.68367548  1
  Si0+  Si118  1  0.07191382  0.67991501  0.98466958  1
  Si0+  Si119  1  0.42709958  0.82274121  0.31707081  1
  O2-  O120  1  0.24430680  0.00757546  0.06380156  1
  O2-  O121  1  0.25068118  0.00769803  0.39509864  1
  O2-  O122  1  0.24054260  -0.00099770  0.72536012  1
  O2-  O123  1  0.24718242  0.49456121  0.05930950  1
  O2-  O124  1  0.25200349  0.49740696  0.40037815  1
  O2-  O125  1  0.25104806  0.49966413  0.72383884  1
  O2-  O126  1  0.74895803  -0.00055343  0.06433338  1
  O2-  O127  1  0.74904376  0.00658035  0.39761224  1
  O2-  O128  1  0.74466024  0.00148640  0.72269034  1
  O2-  O129  1  0.75417405  0.49848140  0.05593038  1
  O2-  O130  1  0.75627871  0.50365703  0.39408795  1
  O2-  O131  1  0.75865774  0.50016823  0.72852622  1
  O2-  O132  1  -0.00105317  0.25691161  0.27343581  1
  O2-  O133  1  0.00289760  0.25296280  0.59989492  1
  O2-  O134  1  -0.00089655  0.24798336  0.93639087  1
  O2-  O135  1  -0.00097076  0.75667197  0.27070395  1
  O2-  O136  1  0.00083396  0.75075506  0.61045486  1
  O2-  O137  1  0.00147304  0.75187667  0.94209571  1
  O2-  O138  1  0.50035268  0.24840423  0.26500564  1
  O2-  O139  1  0.50224551  0.25192483  0.60482496  1
  O2-  O140  1  0.49546062  0.24771673  0.94352201  1
  O2-  O141  1  0.49686659  0.75469814  0.27359350  1
  O2-  O142  1  0.50001094  0.75019703  0.60936178  1
  O2-  O143  1  0.50832348  0.74779504  0.93766124  1
  O2-  O144  1  0.07119975  0.17841219  0.09815157  1
  O2-  O145  1  0.06849416  0.17770465  0.43150227  1
  O2-  O146  1  0.06914949  0.17601103  0.76434210  1
  O2-  O147  1  0.07067484  0.67896597  0.08927428  1
  O2-  O148  1  0.06824608  0.68244594  0.43285058  1
  O2-  O149  1  0.07298014  0.68091878  0.75736829  1
  O2-  O150  1  0.56989877  0.18187819  0.09157104  1
  O2-  O151  1  0.57017456  0.17837179  0.42965049  1
  O2-  O152  1  0.56967768  0.17549726  0.76792813  1
  O2-  O153  1  0.57484840  0.67319538  0.08595063  1
  O2-  O154  1  0.57026437  0.68199125  0.43411313  1
  O2-  O155  1  0.57214844  0.68216638  0.75830610  1
  O2-  O156  1  0.17697675  0.43154246  0.23413043  1
  O2-  O157  1  0.17528858  0.43283347  0.57746879  1
  O2-  O158  1  0.17628775  0.43346917  0.90804419  1
  O2-  O159  1  0.18136624  0.93044316  0.23530311  1
  O2-  O160  1  0.17810557  0.92200425  0.57732041  1
  O2-  O161  1  0.18301367  0.92709183  0.89945360  1
  O2-  O162  1  0.68384773  0.43152956  0.23294044  1
  O2-  O163  1  0.67900568  0.43256772  0.56857526  1
  O2-  O164  1  0.67904604  0.43094596  0.90986259  1
  O2-  O165  1  0.68205891  0.92723781  0.23570473  1
  O2-  O166  1  0.68139317  0.92164571  0.57647810  1
  O2-  O167  1  0.67952865  0.92977466  0.89954960  1
  O2-  O168  1  0.43491403  0.32912614  0.08974237  1
  O2-  O169  1  0.43225473  0.32079057  0.42984958  1
  O2-  O170  1  0.43131856  0.32527379  0.76688847  1
  O2-  O171  1  0.42975967  0.81657180  0.09879280  1
  O2-  O172  1  0.42868155  0.82155787  0.42357924  1
  O2-  O173  1  0.42752015  0.81941903  0.75581257  1
  O2-  O174  1  0.92882817  0.32457135  0.09824665  1
  O2-  O175  1  0.92766706  0.32061610  0.42335084  1
  O2-  O176  1  0.93030928  0.31848353  0.76311189  1
  O2-  O177  1  0.92124191  0.81397542  0.08942317  1
  O2-  O178  1  0.92712732  0.81976409  0.42153627  1
  O2-  O179  1  0.92503783  0.81818739  0.75670537  1
  O2-  O180  1  0.32323374  0.07093590  0.24516339  1
  O2-  O181  1  0.32011739  0.06616848  0.56579460  1
  O2-  O182  1  0.32413176  0.07307898  0.90190466  1
  O2-  O183  1  0.31987202  0.57170580  0.23615170  1
  O2-  O184  1  0.32038885  0.57914585  0.57955259  1
  O2-  O185  1  0.31911643  0.56788839  0.89925790  1
  O2-  O186  1  0.82215107  0.06928248  0.24763420  1
  O2-  O187  1  0.82441135  0.06348513  0.57661740  1
  O2-  O188  1  0.81792343  0.07118141  0.90136783  1
  O2-  O189  1  0.82274190  0.57352903  0.24375812  1
  O2-  O190  1  0.82163851  0.58055848  0.57993939  1
  O2-  O191  1  0.82282229  0.57611404  0.91052745  1
  O2-  O192  1  0.03588278  0.08277125  0.26605097  1
  O2-  O193  1  0.04017475  0.07854752  0.59946023  1
  O2-  O194  1  0.04551541  0.07579216  0.93365826  1
  O2-  O195  1  0.03953167  0.58538352  0.26320933  1
  O2-  O196  1  0.04436955  0.58893814  0.60385144  1
  O2-  O197  1  0.04159577  0.58986814  0.93443372  1
  O2-  O198  1  0.54571329  0.07760161  0.26539241  1
  O2-  O199  1  0.53958627  0.07788561  0.60019377  1
  O2-  O200  1  0.54438722  0.08601242  0.94093224  1
  O2-  O201  1  0.54302351  0.58471713  0.26450372  1
  O2-  O202  1  0.54292673  0.58877533  0.60774825  1
  O2-  O203  1  0.54336784  0.58398283  0.93283901  1
  O2-  O204  1  0.16787102  0.20528142  0.26419976  1
  O2-  O205  1  0.16991428  0.20501856  0.59963553  1
  O2-  O206  1  0.17101765  0.20706369  0.93146825  1
  O2-  O207  1  0.16861707  0.71218507  0.26705561  1
  O2-  O208  1  0.16360327  0.70774405  0.60385843  1
  O2-  O209  1  0.16315846  0.70770977  0.93606806  1
  O2-  O210  1  0.67186057  0.20627291  0.26514256  1
  O2-  O211  1  0.67084117  0.19684074  0.60292438  1
  O2-  O212  1  0.65983723  0.20944161  0.93972859  1
  O2-  O213  1  0.66839388  0.71016222  0.26657630  1
  O2-  O214  1  0.66316313  0.70851942  0.60599325  1
  O2-  O215  1  0.66949618  0.69641766  0.93503480  1
  O2-  O216  1  0.08288089  0.45823066  0.05859630  1
  O2-  O217  1  0.08104811  0.46063759  0.40156764  1
  O2-  O218  1  0.08679702  0.46220210  0.73034077  1
  O2-  O219  1  0.07748324  0.94297278  0.06410541  1
  O2-  O220  1  0.07976319  0.95690807  0.40087273  1
  O2-  O221  1  0.07940611  0.94527044  0.72526661  1
  O2-  O222  1  0.59061108  0.46151991  0.06314381  1
  O2-  O223  1  0.58613898  0.46342908  0.40055713  1
  O2-  O224  1  0.58598358  0.46412819  0.73803348  1
  O2-  O225  1  0.57964586  0.95202856  0.06638841  1
  O2-  O226  1  0.58041908  0.95524632  0.40289045  1
  O2-  O227  1  0.58359422  0.94887894  0.72487280  1
  O2-  O228  1  0.19820491  0.33487778  0.05766248  1
  O2-  O229  1  0.20545290  0.32834001  0.39931460  1
  O2-  O230  1  0.20388995  0.33816171  0.72945741  1
  O2-  O231  1  0.21495305  0.83268553  0.06555225  1
  O2-  O232  1  0.21013912  0.83613748  0.40438189  1
  O2-  O233  1  0.20549661  0.83370052  0.72984112  1
  O2-  O234  1  0.70531875  0.33801110  0.06323868  1
  O2-  O235  1  0.71067840  0.33260550  0.40108073  1
  O2-  O236  1  0.70878429  0.32974386  0.73408594  1
  O2-  O237  1  0.70665791  0.82696630  0.06320951  1
  O2-  O238  1  0.71347252  0.83416361  0.40364650  1
  O2-  O239  1  0.71053862  0.83660323  0.73088376  1
  O2-  O240  1  0.46214516  0.41957926  0.26458464  1
  O2-  O241  1  0.45730752  0.42410866  0.60205935  1
  O2-  O242  1  0.46399268  0.41377013  0.93558723  1
  O2-  O243  1  0.45224380  0.91617004  0.27216472  1
  O2-  O244  1  0.45404830  0.91038668  0.60159725  1
  O2-  O245  1  0.46041541  0.91684208  0.93024455  1
  O2-  O246  1  0.94911561  0.41855110  0.27413525  1
  O2-  O247  1  0.94937856  0.42430379  0.60158035  1
  O2-  O248  1  0.95260547  0.42010107  0.92936333  1
  O2-  O249  1  0.94951455  0.91728926  0.27191630  1
  O2-  O250  1  0.95154043  0.91002584  0.60118986  1
  O2-  O251  1  0.95050756  0.91145078  0.93743637  1
  O2-  O252  1  0.33133119  0.29755069  0.26271762  1
  O2-  O253  1  0.33066938  0.29846441  0.60057987  1
  O2-  O254  1  0.33578357  0.30498247  0.94021374  1
  O2-  O255  1  0.33399142  0.79549822  0.27264918  1
  O2-  O256  1  0.33610188  0.79002706  0.60384648  1
  O2-  O257  1  0.33654255  0.78414130  0.92852508  1
  O2-  O258  1  0.83572631  0.29536890  0.27138496  1
  O2-  O259  1  0.83104008  0.29002526  0.59778096  1
  O2-  O260  1  0.82778831  0.29169147  0.93303526  1
  O2-  O261  1  0.83599682  0.79321590  0.26833142  1
  O2-  O262  1  0.83662317  0.78806317  0.60289756  1
  O2-  O263  1  0.83746634  0.78548187  0.93380083  1
  O2-  O264  1  0.41701260  0.04067634  0.06983218  1
  O2-  O265  1  0.41447706  0.04455183  0.39760326  1
  O2-  O266  1  0.41372226  0.03473654  0.73401703  1
  O2-  O267  1  0.41896120  0.54104118  0.06573635  1
  O2-  O268  1  0.42125507  0.54545480  0.40136503  1
  O2-  O269  1  0.41295416  0.54831745  0.73222235  1
  O2-  O270  1  0.91839137  0.04218403  0.06800457  1
  O2-  O271  1  0.91221988  0.04080910  0.40157306  1
  O2-  O272  1  0.91024746  0.03333821  0.73055325  1
  O2-  O273  1  0.91628042  0.54579825  0.06189090  1
  O2-  O274  1  0.91736335  0.55118358  0.39559239  1
  O2-  O275  1  0.91868654  0.55429884  0.73020150  1
  O2-  O276  1  0.30111649  0.17660280  0.06637940  1
  O2-  O277  1  0.29837419  0.16839621  0.39359771  1
  O2-  O278  1  0.29374345  0.16943681  0.73238432  1
  O2-  O279  1  0.29014232  0.66472382  0.06609722  1
  O2-  O280  1  0.29098862  0.66850952  0.40406570  1
  O2-  O281  1  0.28858543  0.66355632  0.73313220  1
  O2-  O282  1  0.79181624  0.16987481  0.07000411  1
  O2-  O283  1  0.79983140  0.16662750  0.39777615  1
  O2-  O284  1  0.79814589  0.16081986  0.72847456  1
  O2-  O285  1  0.79478131  0.66092426  0.06616860  1
  O2-  O286  1  0.79738188  0.66696013  0.39582499  1
  O2-  O287  1  0.79131498  0.66466626  0.73455973  1
