# generated using pymatgen
data_Ca2Al2SiO7
_symmetry_space_group_name_H-M   'P 1'
_cell_length_a   15.46352589
_cell_length_b   15.46493691
_cell_length_c   15.28850799
_cell_angle_alpha   89.99189742
_cell_angle_beta   89.99214375
_cell_angle_gamma   90.01038556
_symmetry_Int_Tables_number   1
_chemical_formula_structural   Ca2Al2SiO7
_chemical_formula_sum   'Ca48 Al48 Si24 O168'
_cell_volume   3656.13116205
_cell_formula_units_Z   24
loop_
 _symmetry_equiv_pos_site_id
 _symmetry_equiv_pos_as_xyz
  1  'x, y, z'
loop_
 _atom_type_symbol
 _atom_type_oxidation_number
  Ca2+  2.0
  Al0+  0.0
  Si0+  0.0
  O2-  -2.0
loop_
 _atom_site_type_symbol
 _atom_site_label
 _atom_site_symmetry_multiplicity
 _atom_site_fract_x
 _atom_site_fract_y
 _atom_site_fract_z
 _atom_site_occupancy
  Ca2+  Ca0  1  0.17002355  0.08233384  0.16761892  1
  Ca2+  Ca1  1  0.15880980  0.08837928  0.50317396  1
  Ca2+  Ca2  1  0.17063913  0.08056777  0.84408438  1
  Ca2+  Ca3  1  0.16883810  0.57765749  0.16615181  1
  Ca2+  Ca4  1  0.18011125  0.58170525  0.50383218  1
  Ca2+  Ca5  1  0.17043566  0.57636966  0.84170541  1
  Ca2+  Ca6  1  0.67104096  0.08959140  0.16800204  1
  Ca2+  Ca7  1  0.67116983  0.09248821  0.49714365  1
  Ca2+  Ca8  1  0.67048103  0.08087780  0.84793055  1
  Ca2+  Ca9  1  0.67456736  0.57757813  0.16890381  1
  Ca2+  Ca10  1  0.67576613  0.57630683  0.51280185  1
  Ca2+  Ca11  1  0.67315586  0.57446436  0.83572440  1
  Ca2+  Ca12  1  0.07645552  0.33654313  0.16313216  1
  Ca2+  Ca13  1  0.07187195  0.32628411  0.49628670  1
  Ca2+  Ca14  1  0.07786595  0.33040665  0.82678235  1
  Ca2+  Ca15  1  0.08394931  0.82532643  0.15609616  1
  Ca2+  Ca16  1  0.08006090  0.83015624  0.49630439  1
  Ca2+  Ca17  1  0.08735861  0.82774284  0.83590826  1
  Ca2+  Ca18  1  0.58092942  0.32523174  0.15724125  1
  Ca2+  Ca19  1  0.58043944  0.33745484  0.49897485  1
  Ca2+  Ca20  1  0.57816365  0.34007929  0.83299176  1
  Ca2+  Ca21  1  0.57967669  0.83232343  0.15544658  1
  Ca2+  Ca22  1  0.58544370  0.82368399  0.49945115  1
  Ca2+  Ca23  1  0.58228822  0.83075039  0.83253365  1
  Ca2+  Ca24  1  0.32658304  0.41193801  0.16704522  1
  Ca2+  Ca25  1  0.33788804  0.42421430  0.50799960  1
  Ca2+  Ca26  1  0.33269875  0.41539076  0.83889504  1
  Ca2+  Ca27  1  0.33499571  0.92045072  0.16089919  1
  Ca2+  Ca28  1  0.33009720  0.92216915  0.50351279  1
  Ca2+  Ca29  1  0.33002714  0.92316318  0.84608886  1
  Ca2+  Ca30  1  0.83222818  0.42256000  0.16920437  1
  Ca2+  Ca31  1  0.83365217  0.41998604  0.50687297  1
  Ca2+  Ca32  1  0.82345405  0.41744452  0.83894959  1
  Ca2+  Ca33  1  0.82893956  0.92945477  0.16447678  1
  Ca2+  Ca34  1  0.83448894  0.92562259  0.50071227  1
  Ca2+  Ca35  1  0.82627081  0.92539233  0.84363304  1
  Ca2+  Ca36  1  0.42729560  0.16749241  0.15413190  1
  Ca2+  Ca37  1  0.42319126  0.17774660  0.49556712  1
  Ca2+  Ca38  1  0.41771362  0.17646677  0.83495505  1
  Ca2+  Ca39  1  0.41221974  0.67271865  0.15973694  1
  Ca2+  Ca40  1  0.42313577  0.65627086  0.49941962  1
  Ca2+  Ca41  1  0.42211067  0.66971929  0.82709459  1
  Ca2+  Ca42  1  0.91551146  0.16618357  0.16626720  1
  Ca2+  Ca43  1  0.91950853  0.17878620  0.49089715  1
  Ca2+  Ca44  1  0.92029257  0.17136314  0.82574807  1
  Ca2+  Ca45  1  0.91899223  0.66094525  0.15643376  1
  Ca2+  Ca46  1  0.91074338  0.66461545  0.49437565  1
  Ca2+  Ca47  1  0.91876888  0.65695737  0.83306797  1
  Al0+  Al48  1  -0.00021377  -0.00259142  0.00639400  1
  Al0+  Al49  1  -0.00170688  -0.00160307  0.33399442  1
  Al0+  Al50  1  0.00028331  -0.00377302  0.66465878  1
  Al0+  Al51  1  0.00332254  0.49942215  0.00120967  1
  Al0+  Al52  1  0.00145775  0.49977521  0.33504265  1
  Al0+  Al53  1  0.00345373  0.50068648  0.66295297  1
  Al0+  Al54  1  0.49930755  -0.00093891  -0.00241909  1
  Al0+  Al55  1  0.49764477  -0.00172383  0.33288231  1
  Al0+  Al56  1  0.49840151  -0.00044598  0.66514178  1
  Al0+  Al57  1  0.50124468  0.50145249  0.00111667  1
  Al0+  Al58  1  0.49985735  0.50143028  0.33349324  1
  Al0+  Al59  1  0.50149304  0.50188794  0.66656439  1
  Al0+  Al60  1  0.24986547  0.25047175  0.00585435  1
  Al0+  Al61  1  0.24835727  0.24824512  0.33335840  1
  Al0+  Al62  1  0.25250480  0.24955242  0.65762780  1
  Al0+  Al63  1  0.24925316  0.74993462  -0.00657543  1
  Al0+  Al64  1  0.24908171  0.75027268  0.33891019  1
  Al0+  Al65  1  0.25007133  0.75201645  0.66861282  1
  Al0+  Al66  1  0.75058111  0.25154833  0.00327178  1
  Al0+  Al67  1  0.74909686  0.25046714  0.33058328  1
  Al0+  Al68  1  0.75030823  0.25013500  0.66770819  1
  Al0+  Al69  1  0.75206178  0.75231291  0.00565591  1
  Al0+  Al70  1  0.74843946  0.75040532  0.33488088  1
  Al0+  Al71  1  0.75043525  0.75096663  0.66567435  1
  Al0+  Al72  1  0.17920926  0.92669465  0.01536823  1
  Al0+  Al73  1  0.31945789  0.57087943  0.34640550  1
  Al0+  Al74  1  0.18015941  0.42805165  0.01236476  1
  Al0+  Al75  1  0.42951017  0.81998046  0.98577838  1
  Al0+  Al76  1  0.67962018  0.42711781  0.68192978  1
  Al0+  Al77  1  0.43127235  0.32145324  0.65275369  1
  Al0+  Al78  1  0.92950707  0.32281884  0.31535490  1
  Al0+  Al79  1  0.57301261  0.18000997  0.98415090  1
  Al0+  Al80  1  0.07071341  0.17674171  0.65405049  1
  Al0+  Al81  1  0.06971107  0.67785561  0.98569693  1
  Al0+  Al82  1  0.67621169  0.42917264  0.01735530  1
  Al0+  Al83  1  0.07063020  0.17654003  0.31481598  1
  Al0+  Al84  1  0.32158330  0.57160654  0.68216173  1
  Al0+  Al85  1  0.57050839  0.68148973  0.65356464  1
  Al0+  Al86  1  0.42733702  0.32269847  0.98611711  1
  Al0+  Al87  1  0.82207648  0.56916557  0.01392636  1
  Al0+  Al88  1  0.82435549  0.57290743  0.68176951  1
  Al0+  Al89  1  0.56841751  0.17912455  0.31989128  1
  Al0+  Al90  1  0.81926160  0.07047498  0.34913228  1
  Al0+  Al91  1  0.82121430  0.57113010  0.34758201  1
  Al0+  Al92  1  0.67714140  0.92915555  0.01390097  1
  Al0+  Al93  1  0.82181291  0.07371844  0.01398892  1
  Al0+  Al94  1  0.92735241  0.32212111  0.65283134  1
  Al0+  Al95  1  0.32033786  0.07185806  0.01450832  1
  Si0+  Si96  1  0.57581648  0.67844835  0.98396442  1
  Si0+  Si97  1  0.92819707  0.82257075  0.98295401  1
  Si0+  Si98  1  0.82109630  0.06958002  0.67922210  1
  Si0+  Si99  1  0.93067053  0.32155637  0.98544710  1
  Si0+  Si100  1  0.42691087  0.81949717  0.31914273  1
  Si0+  Si101  1  0.42760369  0.32440023  0.31697009  1
  Si0+  Si102  1  0.18108986  0.42702184  0.68138548  1
  Si0+  Si103  1  0.32192196  0.07079679  0.35014340  1
  Si0+  Si104  1  0.32228307  0.57273290  0.01362932  1
  Si0+  Si105  1  0.57081534  0.67941676  0.31756668  1
  Si0+  Si106  1  0.67452906  0.92780523  0.35213032  1
  Si0+  Si107  1  0.07014142  0.17696028  0.98774653  1
  Si0+  Si108  1  0.17771568  0.92952165  0.68198705  1
  Si0+  Si109  1  0.92956645  0.81973628  0.65065638  1
  Si0+  Si110  1  0.07393881  0.67938943  0.64990987  1
  Si0+  Si111  1  0.17933726  0.92935847  0.34988674  1
  Si0+  Si112  1  0.67794349  0.42886770  0.35028374  1
  Si0+  Si113  1  0.17821307  0.42584798  0.35272343  1
  Si0+  Si114  1  0.32091395  0.07151705  0.67998003  1
  Si0+  Si115  1  0.42640212  0.82330683  0.64744613  1
  Si0+  Si116  1  0.57223084  0.17427716  0.65077709  1
  Si0+  Si117  1  0.67839552  0.92932033  0.67958855  1
  Si0+  Si118  1  0.07135915  0.68140511  0.32013232  1
  Si0+  Si119  1  0.92691174  0.82023396  0.31762321  1
  O2-  O120  1  0.24886698  -0.00026762  0.06638029  1
  O2-  O121  1  0.24589702  0.00446551  0.39276757  1
  O2-  O122  1  0.24700949  0.00291343  0.72125630  1
  O2-  O123  1  0.25881727  0.49959988  0.05812585  1
  O2-  O124  1  0.25083591  0.49163735  0.39528780  1
  O2-  O125  1  0.24809316  0.49602030  0.72787468  1
  O2-  O126  1  0.74470572  0.00563132  0.06277271  1
  O2-  O127  1  0.74212629  -0.00239381  0.39672971  1
  O2-  O128  1  0.74446047  0.00484648  0.72106447  1
  O2-  O129  1  0.74891335  0.50081390  0.06667197  1
  O2-  O130  1  0.74811674  0.49592859  0.39475531  1
  O2-  O131  1  0.75585876  0.49675784  0.72932839  1
  O2-  O132  1  0.00100105  0.25017735  0.26438226  1
  O2-  O133  1  -0.00242763  0.24719709  0.60407212  1
  O2-  O134  1  -0.00243426  0.24548344  0.94468091  1
  O2-  O135  1  -0.00574312  0.74505064  0.27727892  1
  O2-  O136  1  -0.00243127  0.74536769  0.60809788  1
  O2-  O137  1  -0.00618028  0.75129537  0.93793645  1
  O2-  O138  1  0.49369101  0.25360112  0.27373518  1
  O2-  O139  1  0.50755962  0.24727878  0.60736705  1
  O2-  O140  1  0.50177655  0.25341898  0.93504297  1
  O2-  O141  1  0.49852415  0.74958437  0.27659207  1
  O2-  O142  1  0.49354871  0.75343064  0.60327009  1
  O2-  O143  1  0.50564832  0.74637392  0.94025216  1
  O2-  O144  1  0.06936247  0.17765300  0.09246471  1
  O2-  O145  1  0.06784442  0.17748579  0.42865197  1
  O2-  O146  1  0.06984879  0.17469879  0.76799618  1
  O2-  O147  1  0.06975769  0.67906955  0.09945898  1
  O2-  O148  1  0.07335001  0.68644539  0.42556925  1
  O2-  O149  1  0.07677936  0.68191510  0.75448045  1
  O2-  O150  1  0.57050800  0.18036550  0.09795034  1
  O2-  O151  1  0.56570220  0.17975750  0.43365189  1
  O2-  O152  1  0.56890947  0.16695556  0.75527591  1
  O2-  O153  1  0.57450896  0.67980647  0.09010473  1
  O2-  O154  1  0.57103558  0.68056138  0.42271959  1
  O2-  O155  1  0.57033417  0.68659191  0.76610766  1
  O2-  O156  1  0.17787058  0.42796640  0.24707885  1
  O2-  O157  1  0.18275183  0.42971046  0.57566855  1
  O2-  O158  1  0.17744488  0.42885041  0.89922282  1
  O2-  O159  1  0.18231760  0.92443856  0.24576717  1
  O2-  O160  1  0.17786849  0.92708527  0.57639087  1
  O2-  O161  1  0.17953525  0.92954814  0.90122852  1
  O2-  O162  1  0.67552322  0.43272095  0.24515444  1
  O2-  O163  1  0.67873867  0.42942457  0.56785513  1
  O2-  O164  1  0.67736105  0.43047485  0.90392814  1
  O2-  O165  1  0.67396573  0.92576110  0.24731720  1
  O2-  O166  1  0.68010766  0.92797859  0.57431355  1
  O2-  O167  1  0.68150395  0.92817497  0.89947306  1
  O2-  O168  1  0.42634722  0.32006732  0.09994348  1
  O2-  O169  1  0.43005174  0.32521034  0.42298526  1
  O2-  O170  1  0.42650237  0.31856680  0.76493581  1
  O2-  O171  1  0.42774895  0.81577267  0.09970225  1
  O2-  O172  1  0.42658198  0.82030014  0.42435578  1
  O2-  O173  1  0.42676282  0.82571866  0.75237766  1
  O2-  O174  1  0.93327030  0.32447071  0.09026070  1
  O2-  O175  1  0.93072721  0.32272400  0.42911990  1
  O2-  O176  1  0.92883883  0.31939510  0.76682091  1
  O2-  O177  1  0.93008953  0.82257851  0.08868716  1
  O2-  O178  1  0.92935284  0.82122336  0.42346404  1
  O2-  O179  1  0.93166847  0.82539503  0.75493980  1
  O2-  O180  1  0.32498616  0.06718925  0.24590262  1
  O2-  O181  1  0.32259122  0.06784359  0.57445530  1
  O2-  O182  1  0.31645392  0.07237310  0.90027251  1
  O2-  O183  1  0.31523098  0.57584529  0.23380048  1
  O2-  O184  1  0.31907206  0.57113201  0.56850833  1
  O2-  O185  1  0.31939223  0.57337964  0.90807787  1
  O2-  O186  1  0.81991254  0.06675589  0.23698059  1
  O2-  O187  1  0.82182248  0.06661895  0.57404395  1
  O2-  O188  1  0.82492122  0.07008581  0.89950499  1
  O2-  O189  1  0.81921900  0.57366947  0.23510552  1
  O2-  O190  1  0.82023913  0.57474575  0.56786911  1
  O2-  O191  1  0.82265805  0.56601028  0.90061444  1
  O2-  O192  1  0.04220401  0.07649606  0.26565314  1
  O2-  O193  1  0.04445631  0.07693012  0.60114476  1
  O2-  O194  1  0.04493899  0.08342143  0.94201375  1
  O2-  O195  1  0.05196048  0.58676077  0.27625954  1
  O2-  O196  1  0.05473336  0.58636379  0.60170199  1
  O2-  O197  1  0.04024703  0.58159591  0.93005486  1
  O2-  O198  1  0.53760165  0.08108654  0.26863009  1
  O2-  O199  1  0.54257766  0.08292101  0.60039658  1
  O2-  O200  1  0.54453576  0.08109081  0.93264714  1
  O2-  O201  1  0.54349157  0.58780632  0.27013886  1
  O2-  O202  1  0.54054354  0.58592626  0.59744061  1
  O2-  O203  1  0.55073899  0.58510238  0.93826377  1
  O2-  O204  1  0.17260629  0.19943468  0.26660866  1
  O2-  O205  1  0.16825895  0.20374476  0.59821434  1
  O2-  O206  1  0.16168131  0.20664051  0.94162725  1
  O2-  O207  1  0.16058514  0.71713672  0.27284937  1
  O2-  O208  1  0.16301241  0.71536739  0.60068120  1
  O2-  O209  1  0.16388292  0.71071352  0.92836785  1
  O2-  O210  1  0.66534637  0.20704925  0.26707438  1
  O2-  O211  1  0.66765295  0.19651362  0.60728885  1
  O2-  O212  1  0.67341151  0.20535631  0.93328770  1
  O2-  O213  1  0.66194066  0.70923778  0.27025361  1
  O2-  O214  1  0.66572492  0.71620242  0.59723215  1
  O2-  O215  1  0.66901793  0.70695609  0.93905443  1
  O2-  O216  1  0.08779263  0.46491482  0.07014943  1
  O2-  O217  1  0.08704423  0.45679242  0.40011917  1
  O2-  O218  1  0.08707424  0.45243607  0.72611035  1
  O2-  O219  1  0.08104507  0.95073405  0.06948840  1
  O2-  O220  1  0.08614115  0.95266300  0.39732105  1
  O2-  O221  1  0.08517422  0.95324964  0.72965049  1
  O2-  O222  1  0.57815639  0.45767372  0.07160127  1
  O2-  O223  1  0.58459801  0.45727870  0.39641664  1
  O2-  O224  1  0.58299990  0.46094428  0.73402636  1
  O2-  O225  1  0.57683273  0.94953869  0.06467935  1
  O2-  O226  1  0.57999190  0.95048276  0.39863372  1
  O2-  O227  1  0.58388027  0.95133076  0.72428160  1
  O2-  O228  1  0.20670949  0.33340417  0.07146379  1
  O2-  O229  1  0.19950311  0.33060668  0.39745032  1
  O2-  O230  1  0.20738858  0.33240959  0.72451485  1
  O2-  O231  1  0.20996229  0.82816413  0.06651850  1
  O2-  O232  1  0.21185906  0.84064704  0.40200388  1
  O2-  O233  1  0.20738467  0.83908909  0.73025657  1
  O2-  O234  1  0.70535559  0.33152304  0.06955188  1
  O2-  O235  1  0.70005740  0.33418717  0.39463120  1
  O2-  O236  1  0.70262452  0.32704205  0.73485222  1
  O2-  O237  1  0.70894823  0.83374516  0.07125026  1
  O2-  O238  1  0.70395277  0.83519560  0.39926549  1
  O2-  O239  1  0.71085156  0.84027956  0.72809445  1
  O2-  O240  1  0.45256479  0.41803295  0.27083524  1
  O2-  O241  1  0.46136703  0.41807487  0.59824239  1
  O2-  O242  1  0.45248364  0.42329407  0.93519894  1
  O2-  O243  1  0.45294820  0.91127108  0.27165964  1
  O2-  O244  1  0.45415060  0.91595785  0.59913356  1
  O2-  O245  1  0.45675326  0.91627498  0.92966093  1
  O2-  O246  1  0.96146895  0.42162474  0.26365013  1
  O2-  O247  1  0.95834213  0.41970804  0.59861527  1
  O2-  O248  1  0.96525327  0.41008992  0.93678501  1
  O2-  O249  1  0.95921699  0.90969613  0.27014986  1
  O2-  O250  1  0.96227162  0.90855524  0.59870186  1
  O2-  O251  1  0.95763229  0.91498058  0.93561073  1
  O2-  O252  1  0.33185589  0.30079465  0.27578304  1
  O2-  O253  1  0.33751926  0.28911050  0.59302699  1
  O2-  O254  1  0.32836832  0.29180809  0.93421130  1
  O2-  O255  1  0.33523824  0.78920340  0.27315586  1
  O2-  O256  1  0.33157331  0.79975338  0.60225256  1
  O2-  O257  1  0.33433646  0.78941370  0.92885509  1
  O2-  O258  1  0.83002562  0.29611538  0.26542885  1
  O2-  O259  1  0.82867261  0.29462865  0.59934485  1
  O2-  O260  1  0.83755975  0.29751510  0.93994154  1
  O2-  O261  1  0.83324309  0.79729227  0.27252127  1
  O2-  O262  1  0.83752371  0.79614776  0.60157424  1
  O2-  O263  1  0.83325439  0.80086833  0.93799747  1
  O2-  O264  1  0.41761716  0.03994209  0.06650424  1
  O2-  O265  1  0.41050853  0.03643128  0.40064156  1
  O2-  O266  1  0.41142410  0.04044800  0.72767759  1
  O2-  O267  1  0.41751114  0.55609899  0.05900809  1
  O2-  O268  1  0.41815679  0.54407594  0.39929317  1
  O2-  O269  1  0.41896236  0.54475594  0.73378247  1
  O2-  O270  1  0.91650606  0.03850670  0.06995335  1
  O2-  O271  1  0.91466430  0.03392670  0.40343734  1
  O2-  O272  1  0.91081014  0.03438398  0.72607948  1
  O2-  O273  1  0.91981750  0.53871174  0.06678460  1
  O2-  O274  1  0.92023231  0.54548755  0.39976850  1
  O2-  O275  1  0.92721936  0.55191241  0.72803818  1
  O2-  O276  1  0.29214125  0.16776257  0.07106901  1
  O2-  O277  1  0.29864067  0.16432905  0.39689861  1
  O2-  O278  1  0.29574526  0.16462534  0.72453782  1
  O2-  O279  1  0.28943263  0.66384487  0.05979122  1
  O2-  O280  1  0.28447581  0.66512447  0.40418099  1
  O2-  O281  1  0.29062972  0.66956409  0.73318792  1
  O2-  O282  1  0.79918322  0.17203852  0.06783146  1
  O2-  O283  1  0.78825763  0.16793780  0.40197317  1
  O2-  O284  1  0.80108105  0.16297828  0.72544390  1
  O2-  O285  1  0.79999053  0.66974650  0.06511775  1
  O2-  O286  1  0.79018447  0.66894536  0.40062195  1
  O2-  O287  1  0.79373166  0.67170208  0.73304607  1
