# generated using pymatgen
data_Ca2Al2SiO7
_symmetry_space_group_name_H-M   'P 1'
_cell_length_a   15.46049767
_cell_length_b   15.46317840
_cell_length_c   15.28572026
_cell_angle_alpha   89.98966670
_cell_angle_beta   89.98985602
_cell_angle_gamma   89.99923872
_symmetry_Int_Tables_number   1
_chemical_formula_structural   Ca2Al2SiO7
_chemical_formula_sum   'Ca48 Al48 Si24 O168'
_cell_volume   3654.33308242
_cell_formula_units_Z   24
loop_
 _symmetry_equiv_pos_site_id
 _symmetry_equiv_pos_as_xyz
  1  'x, y, z'
loop_
 _atom_type_symbol
 _atom_type_oxidation_number
  Ca2+  2.0
  Al0+  0.0
  Si0+  0.0
  O2-  -2.0
loop_
 _atom_site_type_symbol
 _atom_site_label
 _atom_site_symmetry_multiplicity
 _atom_site_fract_x
 _atom_site_fract_y
 _atom_site_fract_z
 _atom_site_occupancy
  Ca2+  Ca0  1  0.16692214  0.06989533  0.17004082  1
  Ca2+  Ca1  1  0.17162282  0.07480054  0.50978004  1
  Ca2+  Ca2  1  0.16740171  0.07377841  0.83214781  1
  Ca2+  Ca3  1  0.17776571  0.57917129  0.17398322  1
  Ca2+  Ca4  1  0.17867543  0.58571508  0.50917549  1
  Ca2+  Ca5  1  0.17434888  0.59559774  0.83067770  1
  Ca2+  Ca6  1  0.67457802  0.08174810  0.16730591  1
  Ca2+  Ca7  1  0.67155023  0.08750157  0.50669737  1
  Ca2+  Ca8  1  0.66784164  0.07675407  0.84151551  1
  Ca2+  Ca9  1  0.67445918  0.59231835  0.17035000  1
  Ca2+  Ca10  1  0.67202533  0.59315600  0.50430793  1
  Ca2+  Ca11  1  0.67611467  0.59639540  0.83600930  1
  Ca2+  Ca12  1  0.07482810  0.32930071  0.15705757  1
  Ca2+  Ca13  1  0.08630131  0.32629041  0.50057644  1
  Ca2+  Ca14  1  0.07632524  0.32656976  0.82792109  1
  Ca2+  Ca15  1  0.08522969  0.83613558  0.16398059  1
  Ca2+  Ca16  1  0.08369433  0.83580030  0.50325860  1
  Ca2+  Ca17  1  0.07659252  0.83628170  0.82336738  1
  Ca2+  Ca18  1  0.57283536  0.33563114  0.16274048  1
  Ca2+  Ca19  1  0.57964113  0.32803914  0.49833892  1
  Ca2+  Ca20  1  0.58084490  0.32516490  0.83110229  1
  Ca2+  Ca21  1  0.58174072  0.82383575  0.15704672  1
  Ca2+  Ca22  1  0.57528059  0.82335120  0.50003414  1
  Ca2+  Ca23  1  0.58007933  0.82875643  0.82687324  1
  Ca2+  Ca24  1  0.34021334  0.41901295  0.17379167  1
  Ca2+  Ca25  1  0.34168523  0.42652870  0.50257168  1
  Ca2+  Ca26  1  0.33567195  0.42172044  0.83482510  1
  Ca2+  Ca27  1  0.32297036  0.90468939  0.16751458  1
  Ca2+  Ca28  1  0.32414824  0.91640856  0.51238766  1
  Ca2+  Ca29  1  0.32633223  0.90852859  0.83591320  1
  Ca2+  Ca30  1  0.83402059  0.42605265  0.16877161  1
  Ca2+  Ca31  1  0.83082572  0.42998689  0.50619713  1
  Ca2+  Ca32  1  0.83417698  0.42703982  0.83923056  1
  Ca2+  Ca33  1  0.82561194  0.92499929  0.16682570  1
  Ca2+  Ca34  1  0.83292741  0.91765948  0.50351334  1
  Ca2+  Ca35  1  0.82657675  0.91767749  0.84143414  1
  Ca2+  Ca36  1  0.41125419  0.18058010  0.16173320  1
  Ca2+  Ca37  1  0.41825477  0.16765123  0.49929497  1
  Ca2+  Ca38  1  0.41626821  0.16959231  0.82430990  1
  Ca2+  Ca39  1  0.42915746  0.66616655  0.15934046  1
  Ca2+  Ca40  1  0.42216141  0.66191146  0.49580278  1
  Ca2+  Ca41  1  0.42618971  0.67782987  0.82591392  1
  Ca2+  Ca42  1  0.91135904  0.16779355  0.15931043  1
  Ca2+  Ca43  1  0.92430786  0.16007450  0.49597042  1
  Ca2+  Ca44  1  0.91780122  0.16888646  0.82840839  1
  Ca2+  Ca45  1  0.91685294  0.66253582  0.16114872  1
  Ca2+  Ca46  1  0.91638196  0.66943236  0.50138721  1
  Ca2+  Ca47  1  0.92029132  0.67057823  0.82123125  1
  Al0+  Al48  1  0.00241057  -0.00057077  0.00762965  1
  Al0+  Al49  1  -0.00037612  -0.00152293  0.33861510  1
  Al0+  Al50  1  0.00010096  0.00224210  0.66193809  1
  Al0+  Al51  1  0.00118848  0.49800383  -0.00073686  1
  Al0+  Al52  1  0.00011638  0.49934548  0.33735166  1
  Al0+  Al53  1  -0.00061772  0.50050645  0.66633130  1
  Al0+  Al54  1  0.49696221  0.00062740  0.00492782  1
  Al0+  Al55  1  0.49955432  -0.00098047  0.33061744  1
  Al0+  Al56  1  0.50089949  0.00169606  0.66027715  1
  Al0+  Al57  1  0.50252170  0.49967713  -0.01009052  1
  Al0+  Al58  1  0.50220733  0.49858379  0.32871587  1
  Al0+  Al59  1  0.50123756  0.49874696  0.67008037  1
  Al0+  Al60  1  0.24800921  0.24963184  -0.00457888  1
  Al0+  Al61  1  0.24805280  0.24734435  0.32731134  1
  Al0+  Al62  1  0.24824638  0.25083318  0.66547125  1
  Al0+  Al63  1  0.25153570  0.74764622  0.00340941  1
  Al0+  Al64  1  0.24820340  0.74735668  0.34132871  1
  Al0+  Al65  1  0.24790013  0.74976385  0.66953198  1
  Al0+  Al66  1  0.74972020  0.25420690  -0.00053153  1
  Al0+  Al67  1  0.75130397  0.25027561  0.33734182  1
  Al0+  Al68  1  0.74853744  0.25323722  0.66320296  1
  Al0+  Al69  1  0.75289472  0.75156748  0.00621984  1
  Al0+  Al70  1  0.75133678  0.75238962  0.33285934  1
  Al0+  Al71  1  0.74990484  0.75215987  0.66253681  1
  Al0+  Al72  1  0.42656256  0.82157050  0.98645148  1
  Al0+  Al73  1  0.17860739  0.92964933  0.68323245  1
  Al0+  Al74  1  0.81888025  0.57189575  0.68068574  1
  Al0+  Al75  1  0.42756919  0.82156277  0.65169537  1
  Al0+  Al76  1  0.81830121  0.07103180  0.34870950  1
  Al0+  Al77  1  0.82162284  0.57222178  0.34869240  1
  Al0+  Al78  1  0.57154255  0.17868475  0.65422539  1
  Al0+  Al79  1  0.67559802  0.92832018  0.01481468  1
  Al0+  Al80  1  0.32227282  0.56655706  0.34521546  1
  Al0+  Al81  1  0.57150626  0.68080585  0.31834489  1
  Al0+  Al82  1  0.07085809  0.67783413  0.65134925  1
  Al0+  Al83  1  0.57047545  0.67802449  0.65092711  1
  Al0+  Al84  1  0.43061208  0.31810341  0.32104292  1
  Al0+  Al85  1  0.82228900  0.57050583  0.01298307  1
  Al0+  Al86  1  0.82066379  0.07308719  0.01216124  1
  Al0+  Al87  1  0.92790959  0.32172640  0.98620610  1
  Al0+  Al88  1  0.57506836  0.68133142  0.98355363  1
  Al0+  Al89  1  0.32300372  0.07213269  0.68081268  1
  Al0+  Al90  1  0.32259848  0.57090162  0.68254023  1
  Al0+  Al91  1  0.18146421  0.92780196  0.01454937  1
  Al0+  Al92  1  0.42712915  0.32074910  0.98358616  1
  Al0+  Al93  1  0.18064736  0.92857547  0.34969506  1
  Al0+  Al94  1  0.92804405  0.82284800  0.65182776  1
  Al0+  Al95  1  0.06989013  0.18052294  0.65230850  1
  Si0+  Si96  1  0.17722101  0.42786441  0.68427862  1
  Si0+  Si97  1  0.92703892  0.32287096  0.64759586  1
  Si0+  Si98  1  0.67824635  0.42627181  0.68575401  1
  Si0+  Si99  1  0.06861066  0.17697776  0.31596160  1
  Si0+  Si100  1  0.93243408  0.82168318  0.98893854  1
  Si0+  Si101  1  0.93091287  0.82117817  0.31562275  1
  Si0+  Si102  1  0.42710948  0.32153053  0.65011989  1
  Si0+  Si103  1  0.57155237  0.17846107  0.98606462  1
  Si0+  Si104  1  0.67714125  0.42881797  0.01712014  1
  Si0+  Si105  1  0.07125203  0.67718832  0.31794266  1
  Si0+  Si106  1  0.17953412  0.42690230  0.01425536  1
  Si0+  Si107  1  0.32181175  0.56773038  0.01444611  1
  Si0+  Si108  1  0.92953495  0.32166171  0.31870018  1
  Si0+  Si109  1  0.07132773  0.67711936  0.98810063  1
  Si0+  Si110  1  0.57509572  0.17620201  0.31530197  1
  Si0+  Si111  1  0.06980633  0.17608761  0.98314981  1
  Si0+  Si112  1  0.67991730  0.93127854  0.67899715  1
  Si0+  Si113  1  0.42467716  0.82119196  0.31740182  1
  Si0+  Si114  1  0.67643181  0.92808225  0.35168928  1
  Si0+  Si115  1  0.32184032  0.07411344  0.34826439  1
  Si0+  Si116  1  0.67859406  0.42819356  0.35027857  1
  Si0+  Si117  1  0.32118416  0.07575194  0.01751031  1
  Si0+  Si118  1  0.17697111  0.42490010  0.34883073  1
  Si0+  Si119  1  0.82102526  0.07388243  0.68009152  1
  O2-  O120  1  0.25818664  0.00113546  0.06128904  1
  O2-  O121  1  0.25980294  0.00010299  0.39243976  1
  O2-  O122  1  0.25483233  -0.00227811  0.73287444  1
  O2-  O123  1  0.25383551  0.49369165  0.05765931  1
  O2-  O124  1  0.24849410  0.49046620  0.39203442  1
  O2-  O125  1  0.24451187  0.49797542  0.72868611  1
  O2-  O126  1  0.74647222  0.00350394  0.06273975  1
  O2-  O127  1  0.73993020  0.00140836  0.39662440  1
  O2-  O128  1  0.75068344  0.00289310  0.72196355  1
  O2-  O129  1  0.74428098  0.49952841  0.06079354  1
  O2-  O130  1  0.74496999  0.49914033  0.39428540  1
  O2-  O131  1  0.74351707  0.49874548  0.72867465  1
  O2-  O132  1  -0.00158557  0.24925208  0.27434625  1
  O2-  O133  1  -0.00551265  0.25349321  0.60269113  1
  O2-  O134  1  -0.00189889  0.24254738  0.94037914  1
  O2-  O135  1  0.00034739  0.74763668  0.27382298  1
  O2-  O136  1  0.00004062  0.75076503  0.60093416  1
  O2-  O137  1  0.00084259  0.74869185  0.94698281  1
  O2-  O138  1  0.50283773  0.24165313  0.27191547  1
  O2-  O139  1  0.49428200  0.25075760  0.60739695  1
  O2-  O140  1  0.49887738  0.24208024  0.94025712  1
  O2-  O141  1  0.49596921  0.75549725  0.27272904  1
  O2-  O142  1  0.49305377  0.74387782  0.60052376  1
  O2-  O143  1  0.50458102  0.75633491  0.93648785  1
  O2-  O144  1  0.07089210  0.17834463  0.08928653  1
  O2-  O145  1  0.06928149  0.17872017  0.42082997  1
  O2-  O146  1  0.06636877  0.18156283  0.76546070  1
  O2-  O147  1  0.07122028  0.67581101  0.09382595  1
  O2-  O148  1  0.07108837  0.67634617  0.42219526  1
  O2-  O149  1  0.06744970  0.67806668  0.76576392  1
  O2-  O150  1  0.57260631  0.18316459  0.09183364  1
  O2-  O151  1  0.57610593  0.17850943  0.42074330  1
  O2-  O152  1  0.57489109  0.18129552  0.76725287  1
  O2-  O153  1  0.57269759  0.67914463  0.09765918  1
  O2-  O154  1  0.57052044  0.68100039  0.43102897  1
  O2-  O155  1  0.57403433  0.68327234  0.76401548  1
  O2-  O156  1  0.17439419  0.42703068  0.24279507  1
  O2-  O157  1  0.17886191  0.42628280  0.57841562  1
  O2-  O158  1  0.17811149  0.42695720  0.90972213  1
  O2-  O159  1  0.18002873  0.92954300  0.23599306  1
  O2-  O160  1  0.17784904  0.93388806  0.56961505  1
  O2-  O161  1  0.17695504  0.92875549  0.90263643  1
  O2-  O162  1  0.68040593  0.42581010  0.24467150  1
  O2-  O163  1  0.68056373  0.42198949  0.58004594  1
  O2-  O164  1  0.67917026  0.42474717  0.91199968  1
  O2-  O165  1  0.67964202  0.92809710  0.24619245  1
  O2-  O166  1  0.68162362  0.93261550  0.57378406  1
  O2-  O167  1  0.67933675  0.92861658  0.90080196  1
  O2-  O168  1  0.42774869  0.32112726  0.09717629  1
  O2-  O169  1  0.43192326  0.31743461  0.43375018  1
  O2-  O170  1  0.42756652  0.32062196  0.75579653  1
  O2-  O171  1  0.42282352  0.81231867  0.10030736  1
  O2-  O172  1  0.42507070  0.82060751  0.42257431  1
  O2-  O173  1  0.43232877  0.82256000  0.76516332  1
  O2-  O174  1  0.93223671  0.32326438  0.09989817  1
  O2-  O175  1  0.93214405  0.32183928  0.42347826  1
  O2-  O176  1  0.92730632  0.32133366  0.75331524  1
  O2-  O177  1  0.93459137  0.82185656  0.09445281  1
  O2-  O178  1  0.93070761  0.82203594  0.42025357  1
  O2-  O179  1  0.92664194  0.82338063  0.76612701  1
  O2-  O180  1  0.31715060  0.07872428  0.24272295  1
  O2-  O181  1  0.32002662  0.07318817  0.56671955  1
  O2-  O182  1  0.31807571  0.08132464  0.91271648  1
  O2-  O183  1  0.32027143  0.56514180  0.23151442  1
  O2-  O184  1  0.32390359  0.56577729  0.56914947  1
  O2-  O185  1  0.31773001  0.56866579  0.90979446  1
  O2-  O186  1  0.81843430  0.07088660  0.23565637  1
  O2-  O187  1  0.81903142  0.07376660  0.57477367  1
  O2-  O188  1  0.82144269  0.07055467  0.89836319  1
  O2-  O189  1  0.82406462  0.56857819  0.23539564  1
  O2-  O190  1  0.81766005  0.56951617  0.56739723  1
  O2-  O191  1  0.82483529  0.56974774  0.90031333  1
  O2-  O192  1  0.03787367  0.08538481  0.27000448  1
  O2-  O193  1  0.03858734  0.08642409  0.59467126  1
  O2-  O194  1  0.04546607  0.08171116  0.93918468  1
  O2-  O195  1  0.04417592  0.58418932  0.27083744  1
  O2-  O196  1  0.04398617  0.57879793  0.59841260  1
  O2-  O197  1  0.04482817  0.58618593  0.93964905  1
  O2-  O198  1  0.55423318  0.08080795  0.27051213  1
  O2-  O199  1  0.54616038  0.08410806  0.59457751  1
  O2-  O200  1  0.55202846  0.08227023  0.94387179  1
  O2-  O201  1  0.54329809  0.58327738  0.26457591  1
  O2-  O202  1  0.54874261  0.57594287  0.60235325  1
  O2-  O203  1  0.54814325  0.58320187  0.93040245  1
  O2-  O204  1  0.15978826  0.20308575  0.26612990  1
  O2-  O205  1  0.16516860  0.21377646  0.59627855  1
  O2-  O206  1  0.16110167  0.20542761  0.93564255  1
  O2-  O207  1  0.16360503  0.70535036  0.27072249  1
  O2-  O208  1  0.17001432  0.70358882  0.59982915  1
  O2-  O209  1  0.16346303  0.70459241  0.94250394  1
  O2-  O210  1  0.66813707  0.20640597  0.27017159  1
  O2-  O211  1  0.66588299  0.21421713  0.59664763  1
  O2-  O212  1  0.66309069  0.20870120  0.93841354  1
  O2-  O213  1  0.66878554  0.71315685  0.26549286  1
  O2-  O214  1  0.66599533  0.71329932  0.59663725  1
  O2-  O215  1  0.67548887  0.70999689  0.93498214  1
  O2-  O216  1  0.08986072  0.45843216  0.06427040  1
  O2-  O217  1  0.08528513  0.45167299  0.39742543  1
  O2-  O218  1  0.08236899  0.45017256  0.72909138  1
  O2-  O219  1  0.08713726  0.96065614  0.07300671  1
  O2-  O220  1  0.08538580  0.96311405  0.40256985  1
  O2-  O221  1  0.08005871  0.96472274  0.73365838  1
  O2-  O222  1  0.58189969  0.45326762  0.06097832  1
  O2-  O223  1  0.58449918  0.45133581  0.39532040  1
  O2-  O224  1  0.58339332  0.44543466  0.73087273  1
  O2-  O225  1  0.57663625  0.95202331  0.06985100  1
  O2-  O226  1  0.57971436  0.94710299  0.39423064  1
  O2-  O227  1  0.58861263  0.95977176  0.72570622  1
  O2-  O228  1  0.20233558  0.33358243  0.06186269  1
  O2-  O229  1  0.19981426  0.32929590  0.39166613  1
  O2-  O230  1  0.20430888  0.33535394  0.73165082  1
  O2-  O231  1  0.21084376  0.83049047  0.07061688  1
  O2-  O232  1  0.20478493  0.83084779  0.40339812  1
  O2-  O233  1  0.19899898  0.82945633  0.73510353  1
  O2-  O234  1  0.70415019  0.33705801  0.06658550  1
  O2-  O235  1  0.70631920  0.33599177  0.39870268  1
  O2-  O236  1  0.70912647  0.33463588  0.73408035  1
  O2-  O237  1  0.71109707  0.83408141  0.07208724  1
  O2-  O238  1  0.70939881  0.83747458  0.39860881  1
  O2-  O239  1  0.70938716  0.84058886  0.72684358  1
  O2-  O240  1  0.46346675  0.41256607  0.26353057  1
  O2-  O241  1  0.45719289  0.41374652  0.60443448  1
  O2-  O242  1  0.45976304  0.41496059  0.92734716  1
  O2-  O243  1  0.44479919  0.91709053  0.27197541  1
  O2-  O244  1  0.45990301  0.91753314  0.59602126  1
  O2-  O245  1  0.44168396  0.92572212  0.94136627  1
  O2-  O246  1  0.95951076  0.41307841  0.27083011  1
  O2-  O247  1  0.95477223  0.41545405  0.60134777  1
  O2-  O248  1  0.96558197  0.41514056  0.93026150  1
  O2-  O249  1  0.96275363  0.91237124  0.26887469  1
  O2-  O250  1  0.95545301  0.92069539  0.59697802  1
  O2-  O251  1  0.96213467  0.91295531  0.94189959  1
  O2-  O252  1  0.33256283  0.29063458  0.26529692  1
  O2-  O253  1  0.33317659  0.29958091  0.60383898  1
  O2-  O254  1  0.32919689  0.29374731  0.93066059  1
  O2-  O255  1  0.33083066  0.79148388  0.27366601  1
  O2-  O256  1  0.32639516  0.79877628  0.60392522  1
  O2-  O257  1  0.33050979  0.78520690  0.93292216  1
  O2-  O258  1  0.83650811  0.29534542  0.27301205  1
  O2-  O259  1  0.83343735  0.29934319  0.60132316  1
  O2-  O260  1  0.83029537  0.29748305  0.93179871  1
  O2-  O261  1  0.83862896  0.79559389  0.26831275  1
  O2-  O262  1  0.83161789  0.79388413  0.59536228  1
  O2-  O263  1  0.83957840  0.79728344  0.94348737  1
  O2-  O264  1  0.41644588  0.06004485  0.06385235  1
  O2-  O265  1  0.41948705  0.05648710  0.38901839  1
  O2-  O266  1  0.42488955  0.05092995  0.72937506  1
  O2-  O267  1  0.41578981  0.54062794  0.05744965  1
  O2-  O268  1  0.41889157  0.53458291  0.39798540  1
  O2-  O269  1  0.41810662  0.53793061  0.73759386  1
  O2-  O270  1  0.91752064  0.04310192  0.06806086  1
  O2-  O271  1  0.91361283  0.03633365  0.40220546  1
  O2-  O272  1  0.91342630  0.04824095  0.72550621  1
  O2-  O273  1  0.91819404  0.53516368  0.06767852  1
  O2-  O274  1  0.91749366  0.53899917  0.40280931  1
  O2-  O275  1  0.91617430  0.54011144  0.73290871  1
  O2-  O276  1  0.28729861  0.16704693  0.06575285  1
  O2-  O277  1  0.29034046  0.16554742  0.39562953  1
  O2-  O278  1  0.29112543  0.17056991  0.73242153  1
  O2-  O279  1  0.29039582  0.65667242  0.06507851  1
  O2-  O280  1  0.28990883  0.66098368  0.40098369  1
  O2-  O281  1  0.29093996  0.66661069  0.73723994  1
  O2-  O282  1  0.79382138  0.17267136  0.06479455  1
  O2-  O283  1  0.79400339  0.16914785  0.40355961  1
  O2-  O284  1  0.79351161  0.16682014  0.72521348  1
  O2-  O285  1  0.79702946  0.66729164  0.06929423  1
  O2-  O286  1  0.79322053  0.67052258  0.39943025  1
  O2-  O287  1  0.78961230  0.67021561  0.73217986  1
