# generated using pymatgen
data_Ca2Al2SiO7
_symmetry_space_group_name_H-M   'P 1'
_cell_length_a   15.46301178
_cell_length_b   15.46582327
_cell_length_c   15.28903910
_cell_angle_alpha   90.00232437
_cell_angle_beta   90.00422832
_cell_angle_gamma   89.99966954
_symmetry_Int_Tables_number   1
_chemical_formula_structural   Ca2Al2SiO7
_chemical_formula_sum   'Ca48 Al48 Si24 O168'
_cell_volume   3656.34628090
_cell_formula_units_Z   24
loop_
 _symmetry_equiv_pos_site_id
 _symmetry_equiv_pos_as_xyz
  1  'x, y, z'
loop_
 _atom_type_symbol
 _atom_type_oxidation_number
  Ca2+  2.0
  Al0+  0.0
  Si0+  0.0
  O2-  -2.0
loop_
 _atom_site_type_symbol
 _atom_site_label
 _atom_site_symmetry_multiplicity
 _atom_site_fract_x
 _atom_site_fract_y
 _atom_site_fract_z
 _atom_site_occupancy
  Ca2+  Ca0  1  0.16260194  0.08032168  0.17428405  1
  Ca2+  Ca1  1  0.16146252  0.07103165  0.49887288  1
  Ca2+  Ca2  1  0.16039531  0.07653772  0.83767554  1
  Ca2+  Ca3  1  0.16777322  0.58646415  0.16151165  1
  Ca2+  Ca4  1  0.17468096  0.58970599  0.50981747  1
  Ca2+  Ca5  1  0.17346450  0.58756224  0.84402431  1
  Ca2+  Ca6  1  0.67601314  0.07404229  0.17666569  1
  Ca2+  Ca7  1  0.67139080  0.06993442  0.50164336  1
  Ca2+  Ca8  1  0.66453715  0.07445928  0.83590756  1
  Ca2+  Ca9  1  0.66196823  0.57965510  0.16551398  1
  Ca2+  Ca10  1  0.67120087  0.58534626  0.50062432  1
  Ca2+  Ca11  1  0.67909180  0.58392155  0.84432707  1
  Ca2+  Ca12  1  0.08116622  0.32176674  0.15431263  1
  Ca2+  Ca13  1  0.07926224  0.32500976  0.49163084  1
  Ca2+  Ca14  1  0.08314221  0.33670944  0.83691397  1
  Ca2+  Ca15  1  0.07267198  0.83366154  0.16081484  1
  Ca2+  Ca16  1  0.08349148  0.83178397  0.49358090  1
  Ca2+  Ca17  1  0.07947082  0.82170948  0.83238121  1
  Ca2+  Ca18  1  0.58347928  0.33800173  0.15826538  1
  Ca2+  Ca19  1  0.58329501  0.33571280  0.49281082  1
  Ca2+  Ca20  1  0.57703088  0.34653392  0.83766295  1
  Ca2+  Ca21  1  0.57953613  0.82532974  0.15983444  1
  Ca2+  Ca22  1  0.58164361  0.82972550  0.48798663  1
  Ca2+  Ca23  1  0.58081472  0.82785367  0.83281092  1
  Ca2+  Ca24  1  0.33309166  0.42100323  0.16248877  1
  Ca2+  Ca25  1  0.33016693  0.42662122  0.50625491  1
  Ca2+  Ca26  1  0.32844851  0.42823093  0.84641070  1
  Ca2+  Ca27  1  0.32800292  0.90644192  0.17092053  1
  Ca2+  Ca28  1  0.32088300  0.90651511  0.50136232  1
  Ca2+  Ca29  1  0.32662769  0.91197278  0.83857411  1
  Ca2+  Ca30  1  0.82842984  0.42019246  0.16679998  1
  Ca2+  Ca31  1  0.82679157  0.42325638  0.50395527  1
  Ca2+  Ca32  1  0.83228451  0.42667233  0.84569010  1
  Ca2+  Ca33  1  0.83662273  0.91793622  0.17677540  1
  Ca2+  Ca34  1  0.82585763  0.91059497  0.49626063  1
  Ca2+  Ca35  1  0.82994498  0.91147524  0.83722601  1
  Ca2+  Ca36  1  0.41943854  0.17423330  0.15813788  1
  Ca2+  Ca37  1  0.41784888  0.16958403  0.49674196  1
  Ca2+  Ca38  1  0.41541003  0.17532086  0.83498078  1
  Ca2+  Ca39  1  0.42588832  0.67368469  0.16057242  1
  Ca2+  Ca40  1  0.42254178  0.67142494  0.49127268  1
  Ca2+  Ca41  1  0.41773547  0.66182566  0.83517755  1
  Ca2+  Ca42  1  0.92481854  0.16637683  0.16014638  1
  Ca2+  Ca43  1  0.91985813  0.16281740  0.49107617  1
  Ca2+  Ca44  1  0.91891306  0.17465996  0.83828774  1
  Ca2+  Ca45  1  0.91679980  0.67764500  0.15644150  1
  Ca2+  Ca46  1  0.92125921  0.67002461  0.49771675  1
  Ca2+  Ca47  1  0.92481708  0.65736285  0.83119830  1
  Al0+  Al48  1  -0.00048546  -0.00087349  -0.00906597  1
  Al0+  Al49  1  0.00230051  -0.00027126  0.33501048  1
  Al0+  Al50  1  -0.00171011  0.00113850  0.67123897  1
  Al0+  Al51  1  0.00041664  0.49912286  0.00390975  1
  Al0+  Al52  1  0.00067307  0.49811816  0.33460940  1
  Al0+  Al53  1  0.00015278  0.49899334  0.66120542  1
  Al0+  Al54  1  0.49844375  0.00005332  -0.00297525  1
  Al0+  Al55  1  0.49802602  0.00285930  0.33290975  1
  Al0+  Al56  1  0.49971604  0.00158105  0.66938135  1
  Al0+  Al57  1  0.49949875  0.50077032  -0.00082991  1
  Al0+  Al58  1  0.49963224  0.50059851  0.33525991  1
  Al0+  Al59  1  0.49900043  0.50114143  0.66644094  1
  Al0+  Al60  1  0.25240795  0.24850109  -0.00596520  1
  Al0+  Al61  1  0.24946343  0.25016832  0.33209194  1
  Al0+  Al62  1  0.25005749  0.24939637  0.66269747  1
  Al0+  Al63  1  0.24888661  0.75195846  0.00010271  1
  Al0+  Al64  1  0.25160584  0.74851158  0.33429977  1
  Al0+  Al65  1  0.24965380  0.75087429  0.67193556  1
  Al0+  Al66  1  0.75197611  0.24667169  -0.00116238  1
  Al0+  Al67  1  0.74978140  0.25168918  0.34251710  1
  Al0+  Al68  1  0.74823844  0.24850126  0.66535079  1
  Al0+  Al69  1  0.74712887  0.75079288  -0.00282352  1
  Al0+  Al70  1  0.75167711  0.74775212  0.32937043  1
  Al0+  Al71  1  0.74993868  0.74991650  0.67380969  1
  Al0+  Al72  1  0.06947593  0.67851047  0.98717434  1
  Al0+  Al73  1  0.67727812  0.92646540  0.34526021  1
  Al0+  Al74  1  0.18165895  0.92887594  0.34476036  1
  Al0+  Al75  1  0.82268276  0.57377865  0.01708825  1
  Al0+  Al76  1  0.32072083  0.57387362  0.01836013  1
  Al0+  Al77  1  0.06934741  0.18007697  0.32081608  1
  Al0+  Al78  1  0.07141573  0.68009686  0.65232167  1
  Al0+  Al79  1  0.56963256  0.67810591  0.98220733  1
  Al0+  Al80  1  0.82254401  0.07017085  0.34745890  1
  Al0+  Al81  1  0.67861591  0.92946350  0.68148132  1
  Al0+  Al82  1  0.93178681  0.81882017  0.32257862  1
  Al0+  Al83  1  0.92809290  0.32091912  0.98663100  1
  Al0+  Al84  1  0.68035385  0.42792775  0.01377043  1
  Al0+  Al85  1  0.67842124  0.43123148  0.34788561  1
  Al0+  Al86  1  0.92656431  0.82154794  0.98367117  1
  Al0+  Al87  1  0.17816925  0.93025820  0.68240415  1
  Al0+  Al88  1  0.43100880  0.32102851  0.98681851  1
  Al0+  Al89  1  0.17900573  0.42661012  0.01556779  1
  Al0+  Al90  1  0.57203633  0.67826923  0.31891140  1
  Al0+  Al91  1  0.42839873  0.82230695  0.98302811  1
  Al0+  Al92  1  0.42771070  0.82326728  0.32025681  1
  Al0+  Al93  1  0.32045031  0.57083389  0.68045805  1
  Al0+  Al94  1  0.82136174  0.56897166  0.67916083  1
  Al0+  Al95  1  0.07301663  0.17835552  0.98295164  1
  Si0+  Si96  1  0.17847194  0.93174573  0.01530890  1
  Si0+  Si97  1  0.57033840  0.17763795  0.64951406  1
  Si0+  Si98  1  0.32209537  0.07679179  0.34988692  1
  Si0+  Si99  1  0.57183257  0.67996062  0.65121663  1
  Si0+  Si100  1  0.92681896  0.82292261  0.64931447  1
  Si0+  Si101  1  0.67777862  0.42655875  0.68288200  1
  Si0+  Si102  1  0.82191618  0.06799218  0.01396324  1
  Si0+  Si103  1  0.17881383  0.42605015  0.34897808  1
  Si0+  Si104  1  0.57334069  0.17674860  0.98352020  1
  Si0+  Si105  1  0.07436375  0.67486408  0.31777129  1
  Si0+  Si106  1  0.82113573  0.07462963  0.68631801  1
  Si0+  Si107  1  0.32232509  0.07090104  0.01452448  1
  Si0+  Si108  1  0.42968483  0.32103645  0.31936392  1
  Si0+  Si109  1  0.31901389  0.56876012  0.34918998  1
  Si0+  Si110  1  0.82552221  0.57233101  0.35082392  1
  Si0+  Si111  1  0.42989053  0.32182894  0.64985304  1
  Si0+  Si112  1  0.67645306  0.93020158  0.01488066  1
  Si0+  Si113  1  0.57253282  0.18019580  0.32000869  1
  Si0+  Si114  1  0.42968923  0.82271262  0.65180013  1
  Si0+  Si115  1  0.17857778  0.42598266  0.68053669  1
  Si0+  Si116  1  0.92762215  0.32040216  0.64978607  1
  Si0+  Si117  1  0.92576092  0.32308705  0.31755691  1
  Si0+  Si118  1  0.07060461  0.17810139  0.64928798  1
  Si0+  Si119  1  0.32179434  0.07416061  0.68416964  1
  O2-  O120  1  0.25020850  0.00215415  0.05755513  1
  O2-  O121  1  0.25905168  0.00184330  0.39208024  1
  O2-  O122  1  0.25284961  0.00626069  0.72819461  1
  O2-  O123  1  0.24814584  0.50091505  0.06718462  1
  O2-  O124  1  0.24472953  0.50112477  0.39219842  1
  O2-  O125  1  0.24421868  0.49680480  0.72435984  1
  O2-  O126  1  0.75203141  -0.00357932  0.05642211  1
  O2-  O127  1  0.74985019  -0.00211481  0.39676005  1
  O2-  O128  1  0.75471494  0.00305850  0.72885791  1
  O2-  O129  1  0.75073611  0.50016847  0.06545331  1
  O2-  O130  1  0.75431497  0.50482016  0.39406069  1
  O2-  O131  1  0.74746345  0.49351951  0.72557732  1
  O2-  O132  1  -0.00603862  0.25360205  0.27492287  1
  O2-  O133  1  -0.00162462  0.24842184  0.60762102  1
  O2-  O134  1  0.00460377  0.25450826  0.93410043  1
  O2-  O135  1  0.00398187  0.74208607  0.27581601  1
  O2-  O136  1  -0.00244046  0.75589139  0.60526639  1
  O2-  O137  1  -0.00702728  0.74416118  0.93457738  1
  O2-  O138  1  0.50151716  0.25085538  0.27762396  1
  O2-  O139  1  0.50142740  0.25138021  0.60724446  1
  O2-  O140  1  0.50956504  0.25017028  0.93916637  1
  O2-  O141  1  0.50573727  0.75732988  0.27195017  1
  O2-  O142  1  0.50131001  0.75210947  0.60927174  1
  O2-  O143  1  0.49692342  0.74894167  0.93074025  1
  O2-  O144  1  0.07030840  0.17525278  0.09658043  1
  O2-  O145  1  0.06968392  0.18244099  0.43465145  1
  O2-  O146  1  0.07250112  0.17940720  0.75372797  1
  O2-  O147  1  0.07135162  0.68554026  0.10094433  1
  O2-  O148  1  0.07540936  0.67562416  0.42392434  1
  O2-  O149  1  0.07143963  0.67841788  0.76443397  1
  O2-  O150  1  0.57043470  0.17391553  0.08918157  1
  O2-  O151  1  0.56976683  0.18119312  0.42552194  1
  O2-  O152  1  0.56950600  0.17617045  0.75421423  1
  O2-  O153  1  0.56941171  0.68069875  0.09570801  1
  O2-  O154  1  0.56837560  0.67671198  0.43369840  1
  O2-  O155  1  0.57076788  0.67855210  0.75555930  1
  O2-  O156  1  0.18121628  0.42209259  0.24491786  1
  O2-  O157  1  0.18241796  0.42366220  0.57424747  1
  O2-  O158  1  0.18342812  0.42558674  0.90146023  1
  O2-  O159  1  0.18111815  0.93083079  0.23198643  1
  O2-  O160  1  0.17939951  0.93120836  0.56884286  1
  O2-  O161  1  0.17948814  0.93348269  0.91002212  1
  O2-  O162  1  0.67689313  0.42878001  0.23587905  1
  O2-  O163  1  0.67747557  0.42672113  0.57691544  1
  O2-  O164  1  0.68201993  0.42882604  0.89972903  1
  O2-  O165  1  0.67787664  0.93082930  0.23199312  1
  O2-  O166  1  0.67735518  0.93037565  0.56847723  1
  O2-  O167  1  0.67442807  0.93483105  0.90947158  1
  O2-  O168  1  0.43072193  0.31684222  0.10029327  1
  O2-  O169  1  0.42960864  0.32006580  0.42519227  1
  O2-  O170  1  0.42963857  0.32135205  0.75427728  1
  O2-  O171  1  0.43236603  0.82571934  0.09637856  1
  O2-  O172  1  0.42433027  0.81736930  0.43458019  1
  O2-  O173  1  0.43109703  0.82367003  0.75636839  1
  O2-  O174  1  0.92497176  0.31372686  0.10001831  1
  O2-  O175  1  0.92896521  0.32416895  0.42394862  1
  O2-  O176  1  0.92743061  0.32033544  0.75424886  1
  O2-  O177  1  0.93131684  0.82729855  0.09732121  1
  O2-  O178  1  0.93285863  0.81733115  0.43611817  1
  O2-  O179  1  0.92729329  0.82193678  0.75441571  1
  O2-  O180  1  0.31981355  0.08532354  0.24502574  1
  O2-  O181  1  0.32222132  0.07675755  0.57855128  1
  O2-  O182  1  0.32354113  0.06950392  0.90926392  1
  O2-  O183  1  0.32002465  0.56737703  0.24491088  1
  O2-  O184  1  0.32163893  0.56825841  0.56645383  1
  O2-  O185  1  0.31957534  0.57110052  0.90443724  1
  O2-  O186  1  0.82132136  0.07057465  0.23373797  1
  O2-  O187  1  0.81999414  0.07802244  0.58098316  1
  O2-  O188  1  0.81956681  0.06853240  0.90861030  1
  O2-  O189  1  0.83043586  0.57028720  0.24633336  1
  O2-  O190  1  0.81897908  0.56820902  0.56561072  1
  O2-  O191  1  0.82148757  0.57077625  0.90295524  1
  O2-  O192  1  0.04133776  0.08342910  0.26738256  1
  O2-  O193  1  0.04134330  0.08578582  0.60337515  1
  O2-  O194  1  0.03753300  0.08409419  0.92643339  1
  O2-  O195  1  0.05222607  0.57944535  0.27432331  1
  O2-  O196  1  0.04339818  0.58254068  0.59639639  1
  O2-  O197  1  0.05043976  0.57719651  0.93704571  1
  O2-  O198  1  0.54595622  0.08925192  0.27081924  1
  O2-  O199  1  0.53857167  0.08754919  0.60040052  1
  O2-  O200  1  0.53975006  0.08726066  0.93364211  1
  O2-  O201  1  0.53530716  0.58210745  0.26698392  1
  O2-  O202  1  0.54325370  0.58767822  0.60371663  1
  O2-  O203  1  0.54294793  0.57974516  0.92917157  1
  O2-  O204  1  0.16605565  0.21141767  0.26750813  1
  O2-  O205  1  0.16281123  0.20552494  0.60110469  1
  O2-  O206  1  0.17215751  0.20070778  0.92933780  1
  O2-  O207  1  0.16756752  0.70093516  0.27299313  1
  O2-  O208  1  0.16903128  0.71268002  0.59955124  1
  O2-  O209  1  0.16574024  0.71310217  0.93366299  1
  O2-  O210  1  0.66509669  0.20821279  0.27524898  1
  O2-  O211  1  0.66269118  0.20343718  0.60173635  1
  O2-  O212  1  0.66800870  0.19501957  0.93762680  1
  O2-  O213  1  0.67227980  0.69670232  0.26751164  1
  O2-  O214  1  0.66431880  0.70811237  0.60536382  1
  O2-  O215  1  0.66653156  0.70952189  0.92841376  1
  O2-  O216  1  0.07990008  0.44832630  0.06912077  1
  O2-  O217  1  0.08508612  0.44819199  0.39613186  1
  O2-  O218  1  0.08278190  0.44695842  0.72165859  1
  O2-  O219  1  0.08603655  0.96207160  0.05968374  1
  O2-  O220  1  0.08803473  0.96282626  0.40240436  1
  O2-  O221  1  0.08181521  0.96162070  0.73610300  1
  O2-  O222  1  0.58060925  0.45406260  0.06446526  1
  O2-  O223  1  0.58163250  0.46116364  0.40422482  1
  O2-  O224  1  0.58356273  0.45321435  0.72606918  1
  O2-  O225  1  0.58648432  0.96389997  0.06213145  1
  O2-  O226  1  0.57855557  0.95713192  0.39833597  1
  O2-  O227  1  0.58329913  0.96479539  0.73589155  1
  O2-  O228  1  0.21259998  0.32748071  0.06554921  1
  O2-  O229  1  0.21157249  0.33682972  0.39982285  1
  O2-  O230  1  0.20613712  0.33271216  0.72591671  1
  O2-  O231  1  0.20539293  0.84070495  0.06320493  1
  O2-  O232  1  0.21125448  0.83187995  0.40096757  1
  O2-  O233  1  0.21101081  0.83565244  0.73743039  1
  O2-  O234  1  0.70629227  0.32688053  0.06411996  1
  O2-  O235  1  0.70719892  0.33565416  0.40661917  1
  O2-  O236  1  0.69913212  0.33113724  0.72632516  1
  O2-  O237  1  0.69782497  0.83654164  0.05897262  1
  O2-  O238  1  0.70630960  0.82760866  0.39792623  1
  O2-  O239  1  0.70742188  0.83396573  0.73735254  1
  O2-  O240  1  0.45686452  0.41262144  0.27329698  1
  O2-  O241  1  0.45774186  0.41326813  0.60073507  1
  O2-  O242  1  0.45880782  0.41677606  0.93061982  1
  O2-  O243  1  0.44266673  0.92635515  0.27186809  1
  O2-  O244  1  0.45504079  0.91609647  0.60580734  1
  O2-  O245  1  0.45780133  0.92049748  0.92884469  1
  O2-  O246  1  0.95203469  0.41640513  0.27224870  1
  O2-  O247  1  0.95574938  0.41024354  0.59853178  1
  O2-  O248  1  0.95251070  0.42040659  0.93540781  1
  O2-  O249  1  0.96460282  0.91473203  0.26925685  1
  O2-  O250  1  0.94953221  0.91909820  0.60682433  1
  O2-  O251  1  0.95985663  0.91618971  0.92607482  1
  O2-  O252  1  0.33847596  0.29217687  0.27265151  1
  O2-  O253  1  0.33847501  0.29265480  0.60070250  1
  O2-  O254  1  0.33860829  0.28545284  0.92819442  1
  O2-  O255  1  0.33207940  0.78745885  0.26610189  1
  O2-  O256  1  0.33754497  0.79295363  0.60649879  1
  O2-  O257  1  0.32856762  0.79721881  0.93292488  1
  O2-  O258  1  0.83062234  0.29893873  0.27584907  1
  O2-  O259  1  0.83478215  0.29263986  0.60300297  1
  O2-  O260  1  0.83290181  0.28560346  0.92932936  1
  O2-  O261  1  0.83514477  0.79300102  0.26712054  1
  O2-  O262  1  0.83290542  0.79399863  0.60505230  1
  O2-  O263  1  0.82557288  0.80224625  0.93413568  1
  O2-  O264  1  0.41411802  0.04388891  0.06299374  1
  O2-  O265  1  0.41765210  0.05851808  0.39512324  1
  O2-  O266  1  0.41535854  0.05021592  0.73032152  1
  O2-  O267  1  0.41846746  0.54157309  0.06932517  1
  O2-  O268  1  0.40873490  0.53674538  0.39879529  1
  O2-  O269  1  0.41665850  0.53753738  0.73332155  1
  O2-  O270  1  0.91465182  0.04002834  0.05902177  1
  O2-  O271  1  0.91970476  0.04112843  0.40235494  1
  O2-  O272  1  0.91553044  0.05303694  0.73166609  1
  O2-  O273  1  0.92119891  0.54843387  0.07001409  1
  O2-  O274  1  0.91824751  0.54416857  0.39991756  1
  O2-  O275  1  0.91884631  0.53669291  0.72993747  1
  O2-  O276  1  0.29753303  0.16347125  0.06089836  1
  O2-  O277  1  0.29062959  0.16715072  0.40123497  1
  O2-  O278  1  0.29603095  0.16865366  0.72904863  1
  O2-  O279  1  0.29135073  0.67257159  0.07050406  1
  O2-  O280  1  0.29334840  0.66048826  0.39820810  1
  O2-  O281  1  0.29290132  0.66703456  0.73445893  1
  O2-  O282  1  0.79461710  0.15898416  0.06235661  1
  O2-  O283  1  0.79441538  0.16767113  0.40350122  1
  O2-  O284  1  0.79070354  0.16682858  0.73324888  1
  O2-  O285  1  0.79158369  0.67302434  0.06702751  1
  O2-  O286  1  0.80011468  0.66566959  0.39708710  1
  O2-  O287  1  0.79221662  0.66456853  0.73410701  1
