# generated using pymatgen
data_Ca2Al2SiO7
_symmetry_space_group_name_H-M   'P 1'
_cell_length_a   15.45743249
_cell_length_b   15.45688696
_cell_length_c   15.28353929
_cell_angle_alpha   90.00811395
_cell_angle_beta   89.99199250
_cell_angle_gamma   90.00234046
_symmetry_Int_Tables_number   1
_chemical_formula_structural   Ca2Al2SiO7
_chemical_formula_sum   'Ca48 Al48 Si24 O168'
_cell_volume   3651.60100486
_cell_formula_units_Z   24
loop_
 _symmetry_equiv_pos_site_id
 _symmetry_equiv_pos_as_xyz
  1  'x, y, z'
loop_
 _atom_type_symbol
 _atom_type_oxidation_number
  Ca2+  2.0
  Al0+  0.0
  Si0+  0.0
  O2-  -2.0
loop_
 _atom_site_type_symbol
 _atom_site_label
 _atom_site_symmetry_multiplicity
 _atom_site_fract_x
 _atom_site_fract_y
 _atom_site_fract_z
 _atom_site_occupancy
  Ca2+  Ca0  1  0.17631975  0.08526829  0.17110872  1
  Ca2+  Ca1  1  0.16772507  0.08091554  0.50691169  1
  Ca2+  Ca2  1  0.15886703  0.07748234  0.83091119  1
  Ca2+  Ca3  1  0.16472425  0.56930425  0.16920403  1
  Ca2+  Ca4  1  0.16641365  0.58117712  0.50815490  1
  Ca2+  Ca5  1  0.17031297  0.58403216  0.83737803  1
  Ca2+  Ca6  1  0.67394397  0.07386795  0.17026020  1
  Ca2+  Ca7  1  0.67934584  0.07600096  0.50253610  1
  Ca2+  Ca8  1  0.67988677  0.07713693  0.84053138  1
  Ca2+  Ca9  1  0.66845823  0.58320717  0.16071795  1
  Ca2+  Ca10  1  0.66562675  0.58200311  0.50543503  1
  Ca2+  Ca11  1  0.67023880  0.58415382  0.84169216  1
  Ca2+  Ca12  1  0.07636555  0.33634147  0.16097231  1
  Ca2+  Ca13  1  0.07305617  0.33176463  0.49597432  1
  Ca2+  Ca14  1  0.07259569  0.32968336  0.82858796  1
  Ca2+  Ca15  1  0.07457090  0.83592923  0.16535766  1
  Ca2+  Ca16  1  0.07709475  0.83570728  0.50352094  1
  Ca2+  Ca17  1  0.07867969  0.82769000  0.81956649  1
  Ca2+  Ca18  1  0.57754930  0.33228883  0.15558587  1
  Ca2+  Ca19  1  0.58087174  0.32937195  0.49694898  1
  Ca2+  Ca20  1  0.58112426  0.34028623  0.83344167  1
  Ca2+  Ca21  1  0.58321886  0.83536765  0.15611499  1
  Ca2+  Ca22  1  0.58468434  0.83111702  0.49824763  1
  Ca2+  Ca23  1  0.57930256  0.82724881  0.83035108  1
  Ca2+  Ca24  1  0.32030367  0.40790438  0.16946867  1
  Ca2+  Ca25  1  0.32297179  0.42311443  0.50675455  1
  Ca2+  Ca26  1  0.32842970  0.42313004  0.84070092  1
  Ca2+  Ca27  1  0.33598430  0.92060372  0.17135650  1
  Ca2+  Ca28  1  0.32869247  0.91869243  0.50848670  1
  Ca2+  Ca29  1  0.32981951  0.90500607  0.83252733  1
  Ca2+  Ca30  1  0.83600238  0.41881617  0.16526120  1
  Ca2+  Ca31  1  0.83610492  0.41207847  0.50379112  1
  Ca2+  Ca32  1  0.83299938  0.42130638  0.84474175  1
  Ca2+  Ca33  1  0.82464775  0.92377633  0.17464880  1
  Ca2+  Ca34  1  0.84147240  0.92324214  0.50546603  1
  Ca2+  Ca35  1  0.83588649  0.92597804  0.84066036  1
  Ca2+  Ca36  1  0.41733491  0.16850753  0.15923693  1
  Ca2+  Ca37  1  0.41647103  0.16240461  0.49439658  1
  Ca2+  Ca38  1  0.41809754  0.17470770  0.83306498  1
  Ca2+  Ca39  1  0.42642213  0.67558055  0.15375979  1
  Ca2+  Ca40  1  0.41611318  0.66908088  0.50477881  1
  Ca2+  Ca41  1  0.42722598  0.67100741  0.82513667  1
  Ca2+  Ca42  1  0.90703801  0.17424204  0.16385771  1
  Ca2+  Ca43  1  0.91604224  0.17016686  0.49793445  1
  Ca2+  Ca44  1  0.91319078  0.17400025  0.82570384  1
  Ca2+  Ca45  1  0.91256851  0.67017175  0.16362250  1
  Ca2+  Ca46  1  0.91945617  0.67992053  0.49843656  1
  Ca2+  Ca47  1  0.91966485  0.67012883  0.82583065  1
  Al0+  Al48  1  0.00245140  0.00115925  0.00681283  1
  Al0+  Al49  1  0.00182002  0.00042269  0.32991804  1
  Al0+  Al50  1  0.00217329  0.00271718  0.66918804  1
  Al0+  Al51  1  0.00088727  0.49953839  0.00390279  1
  Al0+  Al52  1  -0.00050359  0.49877768  0.33444146  1
  Al0+  Al53  1  -0.00159069  0.49920746  0.66026455  1
  Al0+  Al54  1  0.49909919  0.00103336  -0.00370694  1
  Al0+  Al55  1  0.50149646  -0.00072038  0.34069363  1
  Al0+  Al56  1  0.50054039  0.00124417  0.66503599  1
  Al0+  Al57  1  0.50013322  0.50164225  -0.00293115  1
  Al0+  Al58  1  0.49969541  0.50023844  0.33186081  1
  Al0+  Al59  1  0.49827377  0.50041017  0.66587978  1
  Al0+  Al60  1  0.24947013  0.24902288  -0.00261947  1
  Al0+  Al61  1  0.24845379  0.25079598  0.34363108  1
  Al0+  Al62  1  0.24920762  0.25047916  0.66464108  1
  Al0+  Al63  1  0.24907820  0.75007618  0.00116929  1
  Al0+  Al64  1  0.25181751  0.74836687  0.33027911  1
  Al0+  Al65  1  0.25180762  0.74940582  0.66704266  1
  Al0+  Al66  1  0.74939677  0.25132437  0.00252760  1
  Al0+  Al67  1  0.74876977  0.24902057  0.33215388  1
  Al0+  Al68  1  0.74712464  0.24926970  0.66719566  1
  Al0+  Al69  1  0.75057130  0.75065463  0.00278395  1
  Al0+  Al70  1  0.74976807  0.74799931  0.33210703  1
  Al0+  Al71  1  0.74823504  0.74892075  0.65938320  1
  Al0+  Al72  1  0.07243412  0.67787354  0.65295347  1
  Al0+  Al73  1  0.42969033  0.82198172  0.64945870  1
  Al0+  Al74  1  0.67865695  0.92975419  0.01267327  1
  Al0+  Al75  1  0.57092799  0.67736283  0.64886765  1
  Al0+  Al76  1  0.18083608  0.42839961  0.01188581  1
  Al0+  Al77  1  0.68009761  0.92610369  0.35067973  1
  Al0+  Al78  1  0.82396629  0.07240733  0.01651509  1
  Al0+  Al79  1  0.42732189  0.82375174  0.98462234  1
  Al0+  Al80  1  0.31988897  0.56999043  0.68175357  1
  Al0+  Al81  1  0.17760061  0.43034094  0.34999046  1
  Al0+  Al82  1  0.92850016  0.82274338  0.65492464  1
  Al0+  Al83  1  0.32060490  0.06989046  0.34650810  1
  Al0+  Al84  1  0.92596509  0.32026297  0.65194143  1
  Al0+  Al85  1  0.82294391  0.57162003  0.01449395  1
  Al0+  Al86  1  0.82105799  0.07031319  0.68123975  1
  Al0+  Al87  1  0.92858111  0.31996112  0.31641144  1
  Al0+  Al88  1  0.42723521  0.32105907  0.98722712  1
  Al0+  Al89  1  0.57340134  0.68028618  0.98437540  1
  Al0+  Al90  1  0.18140808  0.93094541  0.68002564  1
  Al0+  Al91  1  0.92906475  0.32026953  0.98735898  1
  Al0+  Al92  1  0.82211173  0.07157459  0.35018527  1
  Al0+  Al93  1  0.92984655  0.82163175  0.31769483  1
  Al0+  Al94  1  0.07158404  0.17943553  0.65125677  1
  Al0+  Al95  1  0.67674808  0.42947048  0.01460908  1
  Si0+  Si96  1  0.57200545  0.17880800  0.98278717  1
  Si0+  Si97  1  0.67819126  0.42899367  0.67998589  1
  Si0+  Si98  1  0.07021099  0.67893001  0.98710526  1
  Si0+  Si99  1  0.32158860  0.57310317  0.01735427  1
  Si0+  Si100  1  0.82020122  0.56971199  0.34993773  1
  Si0+  Si101  1  0.82069894  0.57110942  0.67823291  1
  Si0+  Si102  1  0.43035426  0.82130212  0.31857750  1
  Si0+  Si103  1  0.31981133  0.07079456  0.01187215  1
  Si0+  Si104  1  0.17572326  0.42769159  0.68474119  1
  Si0+  Si105  1  0.57118669  0.67666284  0.31575396  1
  Si0+  Si106  1  0.67756519  0.92648961  0.68368428  1
  Si0+  Si107  1  0.07447127  0.17887803  0.31560512  1
  Si0+  Si108  1  0.93071812  0.82235285  0.98738349  1
  Si0+  Si109  1  0.32492862  0.07455964  0.68597128  1
  Si0+  Si110  1  0.42869875  0.32138896  0.65061538  1
  Si0+  Si111  1  0.42829720  0.32042901  0.32038045  1
  Si0+  Si112  1  0.07334988  0.17689701  0.98386824  1
  Si0+  Si113  1  0.07299783  0.67737117  0.31515173  1
  Si0+  Si114  1  0.57012358  0.17966999  0.65092238  1
  Si0+  Si115  1  0.67675319  0.42893914  0.34818671  1
  Si0+  Si116  1  0.32351382  0.57175295  0.34918580  1
  Si0+  Si117  1  0.17913863  0.92622621  0.01661068  1
  Si0+  Si118  1  0.56911576  0.17840881  0.31853496  1
  Si0+  Si119  1  0.17898110  0.92536355  0.34896184  1
  O2-  O120  1  0.25284523  -0.00362889  0.05540224  1
  O2-  O121  1  0.24699408  -0.00530534  0.39260288  1
  O2-  O122  1  0.25703777  0.00492320  0.72914625  1
  O2-  O123  1  0.25715745  0.50062020  0.06190180  1
  O2-  O124  1  0.25181990  0.50688071  0.39404648  1
  O2-  O125  1  0.24277568  0.49780218  0.72895682  1
  O2-  O126  1  0.75181270  -0.00056301  0.06432573  1
  O2-  O127  1  0.75641570  -0.00630915  0.40044555  1
  O2-  O128  1  0.75049779  -0.00909727  0.72716848  1
  O2-  O129  1  0.75042557  0.49948186  0.06519373  1
  O2-  O130  1  0.74913587  0.49773524  0.39139587  1
  O2-  O131  1  0.75051898  0.49909537  0.72007786  1
  O2-  O132  1  0.00285592  0.24375143  0.27060618  1
  O2-  O133  1  -0.00100128  0.25014179  0.60078731  1
  O2-  O134  1  -0.00020404  0.24128873  0.94196855  1
  O2-  O135  1  0.00597267  0.74751386  0.27042036  1
  O2-  O136  1  0.00019118  0.75018112  0.60413682  1
  O2-  O137  1  0.00041460  0.75059290  0.94461582  1
  O2-  O138  1  0.49691129  0.24855656  0.27630498  1
  O2-  O139  1  0.49564698  0.24717161  0.60749952  1
  O2-  O140  1  0.50636089  0.25158968  0.93913827  1
  O2-  O141  1  0.50165695  0.75073539  0.27637722  1
  O2-  O142  1  0.50239281  0.75190293  0.59744143  1
  O2-  O143  1  0.49974317  0.75165364  0.93633126  1
  O2-  O144  1  0.07998638  0.17812429  0.08928161  1
  O2-  O145  1  0.07641212  0.18077760  0.42075328  1
  O2-  O146  1  0.07165532  0.18177576  0.76513262  1
  O2-  O147  1  0.07146494  0.68097547  0.09239347  1
  O2-  O148  1  0.07344974  0.67795643  0.42036547  1
  O2-  O149  1  0.06940155  0.67755185  0.76720635  1
  O2-  O150  1  0.56714843  0.17682713  0.08872693  1
  O2-  O151  1  0.56810424  0.18166642  0.42394117  1
  O2-  O152  1  0.57011584  0.18239666  0.75581768  1
  O2-  O153  1  0.57009943  0.68122387  0.09877094  1
  O2-  O154  1  0.56906483  0.67203729  0.42039817  1
  O2-  O155  1  0.57136163  0.67480711  0.76165396  1
  O2-  O156  1  0.18017336  0.42899819  0.23654342  1
  O2-  O157  1  0.17890050  0.42815662  0.57890770  1
  O2-  O158  1  0.18133514  0.43090056  0.89918338  1
  O2-  O159  1  0.18217569  0.92476350  0.24279309  1
  O2-  O160  1  0.18277152  0.93279448  0.56672011  1
  O2-  O161  1  0.17555100  0.92479471  0.91201555  1
  O2-  O162  1  0.67208070  0.43058649  0.24389165  1
  O2-  O163  1  0.67672208  0.42820918  0.57422358  1
  O2-  O164  1  0.67838739  0.43046844  0.90064878  1
  O2-  O165  1  0.67649654  0.92964479  0.23721673  1
  O2-  O166  1  0.67634716  0.93007582  0.57813681  1
  O2-  O167  1  0.68028625  0.93145763  0.89908365  1
  O2-  O168  1  0.42471743  0.31454871  0.10086548  1
  O2-  O169  1  0.43220490  0.32144608  0.42565935  1
  O2-  O170  1  0.43025366  0.32181437  0.75568908  1
  O2-  O171  1  0.42632091  0.82324442  0.09922861  1
  O2-  O172  1  0.42780346  0.81996795  0.42308114  1
  O2-  O173  1  0.43167429  0.82004980  0.76266550  1
  O2-  O174  1  0.93274704  0.32102835  0.10053240  1
  O2-  O175  1  0.92856296  0.32002506  0.42922607  1
  O2-  O176  1  0.92528488  0.32157945  0.76551144  1
  O2-  O177  1  0.93371307  0.82166257  0.09264828  1
  O2-  O178  1  0.93201703  0.82011865  0.43049646  1
  O2-  O179  1  0.92925059  0.82027295  0.76910756  1
  O2-  O180  1  0.32117606  0.07001694  0.23270974  1
  O2-  O181  1  0.32484456  0.07455425  0.58017004  1
  O2-  O182  1  0.31741234  0.07455271  0.90741970  1
  O2-  O183  1  0.32526617  0.56998875  0.24373603  1
  O2-  O184  1  0.32071958  0.56503539  0.56814687  1
  O2-  O185  1  0.31775168  0.57414198  0.91199976  1
  O2-  O186  1  0.81633588  0.07306831  0.23699046  1
  O2-  O187  1  0.81829224  0.07231094  0.56832433  1
  O2-  O188  1  0.82484718  0.07019806  0.90262270  1
  O2-  O189  1  0.81940980  0.57011179  0.24499834  1
  O2-  O190  1  0.81908901  0.57013689  0.57280305  1
  O2-  O191  1  0.82569541  0.57140455  0.90061028  1
  O2-  O192  1  0.05692073  0.08316906  0.27013262  1
  O2-  O193  1  0.04617165  0.08089461  0.59869744  1
  O2-  O194  1  0.05156551  0.08072978  0.94079785  1
  O2-  O195  1  0.04351272  0.58460068  0.26968009  1
  O2-  O196  1  0.04405136  0.58090859  0.59750157  1
  O2-  O197  1  0.04335371  0.58744214  0.93994549  1
  O2-  O198  1  0.54037813  0.08613797  0.27274584  1
  O2-  O199  1  0.54531160  0.08787390  0.60230602  1
  O2-  O200  1  0.54128690  0.08850357  0.93339723  1
  O2-  O201  1  0.53994470  0.58591887  0.26692410  1
  O2-  O202  1  0.53803733  0.57950326  0.59509466  1
  O2-  O203  1  0.54649005  0.58147525  0.93205418  1
  O2-  O204  1  0.16815657  0.20968654  0.27072675  1
  O2-  O205  1  0.17110721  0.20607603  0.59781569  1
  O2-  O206  1  0.16413103  0.20559485  0.93404311  1
  O2-  O207  1  0.16802322  0.69960026  0.26857354  1
  O2-  O208  1  0.17038220  0.70526085  0.59999879  1
  O2-  O209  1  0.16213225  0.70655551  0.93998908  1
  O2-  O210  1  0.65912408  0.20811571  0.26998837  1
  O2-  O211  1  0.65863374  0.21244502  0.60056846  1
  O2-  O212  1  0.66603445  0.20205052  0.93777658  1
  O2-  O213  1  0.66408403  0.70032686  0.26970697  1
  O2-  O214  1  0.66901032  0.70198605  0.59329010  1
  O2-  O215  1  0.67254554  0.70763936  0.93225882  1
  O2-  O216  1  0.08718617  0.46226723  0.06913322  1
  O2-  O217  1  0.08127351  0.46122227  0.40369958  1
  O2-  O218  1  0.08024621  0.45143759  0.72707849  1
  O2-  O219  1  0.09033381  0.95703582  0.06838909  1
  O2-  O220  1  0.08510342  0.95040168  0.39292520  1
  O2-  O221  1  0.08637651  0.96219594  0.73736353  1
  O2-  O222  1  0.57750118  0.45732252  0.06821668  1
  O2-  O223  1  0.58539269  0.45851075  0.39751685  1
  O2-  O224  1  0.58651995  0.45734687  0.72690866  1
  O2-  O225  1  0.57921838  0.96010015  0.06458670  1
  O2-  O226  1  0.58396600  0.95911485  0.40568687  1
  O2-  O227  1  0.58515681  0.95787048  0.72919185  1
  O2-  O228  1  0.21221436  0.33151945  0.06631442  1
  O2-  O229  1  0.21054105  0.33646479  0.40713545  1
  O2-  O230  1  0.20466472  0.33433666  0.72933908  1
  O2-  O231  1  0.20505566  0.83510244  0.06686649  1
  O2-  O232  1  0.20559831  0.83135244  0.39365696  1
  O2-  O233  1  0.21111782  0.83403881  0.73425143  1
  O2-  O234  1  0.70020730  0.33029053  0.06778372  1
  O2-  O235  1  0.70224627  0.33640352  0.39517068  1
  O2-  O236  1  0.70213925  0.33695427  0.72799847  1
  O2-  O237  1  0.70464637  0.83187802  0.06683709  1
  O2-  O238  1  0.70199899  0.82454777  0.39957267  1
  O2-  O239  1  0.69771807  0.82970705  0.72463796  1
  O2-  O240  1  0.45660488  0.41171455  0.27217516  1
  O2-  O241  1  0.46055845  0.41047533  0.60108778  1
  O2-  O242  1  0.45288219  0.41876551  0.93391734  1
  O2-  O243  1  0.45821234  0.91432005  0.27335835  1
  O2-  O244  1  0.45422974  0.92287477  0.59878964  1
  O2-  O245  1  0.45086032  0.92273132  0.93109739  1
  O2-  O246  1  0.96058813  0.41772491  0.26496696  1
  O2-  O247  1  0.95261241  0.41807724  0.59696244  1
  O2-  O248  1  0.96374690  0.41671893  0.93479215  1
  O2-  O249  1  0.96085931  0.91786489  0.26200428  1
  O2-  O250  1  0.96070931  0.91976153  0.60283462  1
  O2-  O251  1  0.96163784  0.91446598  0.94246833  1
  O2-  O252  1  0.33492330  0.29269971  0.27678449  1
  O2-  O253  1  0.33598142  0.29710498  0.60345733  1
  O2-  O254  1  0.33399039  0.28498784  0.92981454  1
  O2-  O255  1  0.33839709  0.79459368  0.26921539  1
  O2-  O256  1  0.33227101  0.79104741  0.59662839  1
  O2-  O257  1  0.32761395  0.79403137  0.93475098  1
  O2-  O258  1  0.82963985  0.29170969  0.26486843  1
  O2-  O259  1  0.82682015  0.29178985  0.59951616  1
  O2-  O260  1  0.83000278  0.29580239  0.93539134  1
  O2-  O261  1  0.83328404  0.78726776  0.26520578  1
  O2-  O262  1  0.83163192  0.79505598  0.59910665  1
  O2-  O263  1  0.83854165  0.79728825  0.94155309  1
  O2-  O264  1  0.41249992  0.04744757  0.05959624  1
  O2-  O265  1  0.41616346  0.04091557  0.40278746  1
  O2-  O266  1  0.41985775  0.05196422  0.73072413  1
  O2-  O267  1  0.41688216  0.55220073  0.06049067  1
  O2-  O268  1  0.41564692  0.54218359  0.39666508  1
  O2-  O269  1  0.41543144  0.53444163  0.73551597  1
  O2-  O270  1  0.92260861  0.04628613  0.07090208  1
  O2-  O271  1  0.92460614  0.04870986  0.39684050  1
  O2-  O272  1  0.91879353  0.04586666  0.73491641  1
  O2-  O273  1  0.91980426  0.54280449  0.07103810  1
  O2-  O274  1  0.91200371  0.54269338  0.39669768  1
  O2-  O275  1  0.91315497  0.54470007  0.72506232  1
  O2-  O276  1  0.28839013  0.16022824  0.06262110  1
  O2-  O277  1  0.29204037  0.16535739  0.40379984  1
  O2-  O278  1  0.29902419  0.16938307  0.73002052  1
  O2-  O279  1  0.29143673  0.66485599  0.06599371  1
  O2-  O280  1  0.30112616  0.66708019  0.39346992  1
  O2-  O281  1  0.29345833  0.66701279  0.73558528  1
  O2-  O282  1  0.79297855  0.17007991  0.06789320  1
  O2-  O283  1  0.78602436  0.16859013  0.40242174  1
  O2-  O284  1  0.78217370  0.16522899  0.73470159  1
  O2-  O285  1  0.79436378  0.66916473  0.06945650  1
  O2-  O286  1  0.79089676  0.66065559  0.39748714  1
  O2-  O287  1  0.79277079  0.66320956  0.72509864  1
