# generated using pymatgen
data_Ca2Al2SiO7
_symmetry_space_group_name_H-M   'P 1'
_cell_length_a   15.45209277
_cell_length_b   15.45195433
_cell_length_c   15.27954757
_cell_angle_alpha   89.99982397
_cell_angle_beta   89.99380403
_cell_angle_gamma   90.00515534
_symmetry_Int_Tables_number   1
_chemical_formula_structural   Ca2Al2SiO7
_chemical_formula_sum   'Ca48 Al48 Si24 O168'
_cell_volume   3648.22162612
_cell_formula_units_Z   24
loop_
 _symmetry_equiv_pos_site_id
 _symmetry_equiv_pos_as_xyz
  1  'x, y, z'
loop_
 _atom_type_symbol
 _atom_type_oxidation_number
  Ca2+  2.0
  Al0+  0.0
  Si0+  0.0
  O2-  -2.0
loop_
 _atom_site_type_symbol
 _atom_site_label
 _atom_site_symmetry_multiplicity
 _atom_site_fract_x
 _atom_site_fract_y
 _atom_site_fract_z
 _atom_site_occupancy
  Ca2+  Ca0  1  0.17655361  0.07456961  0.17940709  1
  Ca2+  Ca1  1  0.17287680  0.07542427  0.50787771  1
  Ca2+  Ca2  1  0.16790756  0.08282428  0.83095054  1
  Ca2+  Ca3  1  0.16691664  0.58080430  0.16663966  1
  Ca2+  Ca4  1  0.17191125  0.58671864  0.50375630  1
  Ca2+  Ca5  1  0.17653497  0.57707244  0.83952644  1
  Ca2+  Ca6  1  0.66909156  0.08818122  0.16367495  1
  Ca2+  Ca7  1  0.67094957  0.08402989  0.50788143  1
  Ca2+  Ca8  1  0.67655720  0.09676260  0.83648452  1
  Ca2+  Ca9  1  0.67613998  0.58165795  0.16978776  1
  Ca2+  Ca10  1  0.67016600  0.57799818  0.50793960  1
  Ca2+  Ca11  1  0.66517366  0.57040918  0.83882428  1
  Ca2+  Ca12  1  0.07841394  0.33793796  0.16329375  1
  Ca2+  Ca13  1  0.07349292  0.32883769  0.49592769  1
  Ca2+  Ca14  1  0.07700641  0.32986569  0.82447616  1
  Ca2+  Ca15  1  0.08562105  0.82841095  0.17007865  1
  Ca2+  Ca16  1  0.08383796  0.83286254  0.49161769  1
  Ca2+  Ca17  1  0.08369526  0.83415722  0.82841830  1
  Ca2+  Ca18  1  0.57938193  0.33104134  0.16292011  1
  Ca2+  Ca19  1  0.58012661  0.32922836  0.49996387  1
  Ca2+  Ca20  1  0.59237640  0.32809198  0.82811427  1
  Ca2+  Ca21  1  0.56912121  0.83565187  0.16083634  1
  Ca2+  Ca22  1  0.57870051  0.82601049  0.49531954  1
  Ca2+  Ca23  1  0.57616596  0.82396969  0.82786346  1
  Ca2+  Ca24  1  0.33061402  0.41768360  0.17017594  1
  Ca2+  Ca25  1  0.33577452  0.42042625  0.50578221  1
  Ca2+  Ca26  1  0.33135856  0.42882691  0.84008317  1
  Ca2+  Ca27  1  0.33405434  0.91912584  0.17808719  1
  Ca2+  Ca28  1  0.32538010  0.92187060  0.50360397  1
  Ca2+  Ca29  1  0.33181442  0.91834777  0.83212714  1
  Ca2+  Ca30  1  0.82979625  0.42421575  0.17089224  1
  Ca2+  Ca31  1  0.83320126  0.41597896  0.50362424  1
  Ca2+  Ca32  1  0.82315802  0.41463066  0.83859218  1
  Ca2+  Ca33  1  0.83453861  0.92111890  0.17183827  1
  Ca2+  Ca34  1  0.83618546  0.92050546  0.50548231  1
  Ca2+  Ca35  1  0.83303393  0.93239886  0.83684774  1
  Ca2+  Ca36  1  0.41976156  0.16915950  0.16232362  1
  Ca2+  Ca37  1  0.41706951  0.16420015  0.49530684  1
  Ca2+  Ca38  1  0.42952183  0.16679558  0.82488721  1
  Ca2+  Ca39  1  0.40774078  0.68019851  0.16068056  1
  Ca2+  Ca40  1  0.42081365  0.66748229  0.49685994  1
  Ca2+  Ca41  1  0.41352194  0.66662029  0.82796696  1
  Ca2+  Ca42  1  0.91479837  0.17164851  0.16259048  1
  Ca2+  Ca43  1  0.91615471  0.17483996  0.50193786  1
  Ca2+  Ca44  1  0.91839940  0.17054357  0.82064567  1
  Ca2+  Ca45  1  0.91632002  0.66452438  0.16750190  1
  Ca2+  Ca46  1  0.92492806  0.67198513  0.48478023  1
  Ca2+  Ca47  1  0.91401333  0.66562546  0.83103366  1
  Al0+  Al48  1  0.00001644  0.00024964  0.00500179  1
  Al0+  Al49  1  0.00025040  -0.00010853  0.33334679  1
  Al0+  Al50  1  -0.00009624  0.00005457  0.67089202  1
  Al0+  Al51  1  0.00037780  0.50050778  0.00319516  1
  Al0+  Al52  1  0.00004567  0.49959441  0.32987147  1
  Al0+  Al53  1  -0.00006059  0.50206258  0.66202080  1
  Al0+  Al54  1  0.50024830  0.00020716  -0.01177059  1
  Al0+  Al55  1  0.50321316  -0.00097018  0.33382287  1
  Al0+  Al56  1  0.49904654  -0.00146211  0.66513483  1
  Al0+  Al57  1  0.49887971  0.50178389  0.01094623  1
  Al0+  Al58  1  0.50119036  0.49658680  0.32850604  1
  Al0+  Al59  1  0.50161838  0.50058498  0.67117940  1
  Al0+  Al60  1  0.24962420  0.24901350  0.00211144  1
  Al0+  Al61  1  0.25135484  0.25087081  0.33352509  1
  Al0+  Al62  1  0.24923473  0.24884194  0.66705288  1
  Al0+  Al63  1  0.24770864  0.75094035  -0.00346018  1
  Al0+  Al64  1  0.25031628  0.74909402  0.32949345  1
  Al0+  Al65  1  0.24899834  0.75087701  0.67444786  1
  Al0+  Al66  1  0.75047517  0.25090846  0.00685346  1
  Al0+  Al67  1  0.75022593  0.25043509  0.32909897  1
  Al0+  Al68  1  0.74873251  0.25081082  0.66384757  1
  Al0+  Al69  1  0.74872254  0.75220976  0.00117644  1
  Al0+  Al70  1  0.75203463  0.74972327  0.33403263  1
  Al0+  Al71  1  0.74875633  0.75011206  0.66236541  1
  Al0+  Al72  1  0.92918903  0.31979605  0.31676098  1
  Al0+  Al73  1  0.31998597  0.57312356  0.01753906  1
  Al0+  Al74  1  0.57030174  0.17833055  0.65217914  1
  Al0+  Al75  1  0.92779724  0.82325540  0.31741864  1
  Al0+  Al76  1  0.81734844  0.06941122  0.67795477  1
  Al0+  Al77  1  0.42701780  0.82056789  0.98311716  1
  Al0+  Al78  1  0.57035809  0.67717984  0.65358098  1
  Al0+  Al79  1  0.32083484  0.56921913  0.67824783  1
  Al0+  Al80  1  0.82140174  0.07053007  0.01488726  1
  Al0+  Al81  1  0.67825990  0.42764253  0.01822719  1
  Al0+  Al82  1  0.17971826  0.42660803  0.01477940  1
  Al0+  Al83  1  0.92819979  0.32225223  0.65225235  1
  Al0+  Al84  1  0.82107603  0.57372839  0.01448952  1
  Al0+  Al85  1  0.32321197  0.07338232  0.68396130  1
  Al0+  Al86  1  0.17961172  0.92780338  0.34780783  1
  Al0+  Al87  1  0.07219756  0.67849292  0.31692735  1
  Al0+  Al88  1  0.17871409  0.92987641  0.68386895  1
  Al0+  Al89  1  0.07263130  0.17689639  0.65120142  1
  Al0+  Al90  1  0.43195233  0.81899281  0.32228270  1
  Al0+  Al91  1  0.57033013  0.18276010  0.98535664  1
  Al0+  Al92  1  0.32392473  0.07254033  0.34770800  1
  Al0+  Al93  1  0.42791222  0.32063443  0.31981889  1
  Al0+  Al94  1  0.82108538  0.57021715  0.34933002  1
  Al0+  Al95  1  0.68142220  0.43054596  0.67848288  1
  Si0+  Si96  1  0.42611251  0.82002839  0.64845829  1
  Si0+  Si97  1  0.92799580  0.82327702  0.98401259  1
  Si0+  Si98  1  0.57248525  0.67775497  0.98481882  1
  Si0+  Si99  1  0.32178393  0.57019989  0.34738313  1
  Si0+  Si100  1  0.42774579  0.32250928  0.65351099  1
  Si0+  Si101  1  0.32293456  0.06887294  0.01334361  1
  Si0+  Si102  1  0.82390216  0.57469801  0.68110635  1
  Si0+  Si103  1  0.93105748  0.32042524  0.98602501  1
  Si0+  Si104  1  0.17869185  0.42884749  0.34957798  1
  Si0+  Si105  1  0.17847314  0.92992551  0.01645365  1
  Si0+  Si106  1  0.42593359  0.32413769  0.98332146  1
  Si0+  Si107  1  0.57226958  0.17714280  0.31617206  1
  Si0+  Si108  1  0.67685403  0.92907150  0.01510642  1
  Si0+  Si109  1  0.17507445  0.42794771  0.68035161  1
  Si0+  Si110  1  0.07228153  0.17834699  0.31606841  1
  Si0+  Si111  1  0.57336672  0.67595064  0.31597170  1
  Si0+  Si112  1  0.07163068  0.68027959  0.65353585  1
  Si0+  Si113  1  0.92890990  0.82097899  0.65401810  1
  Si0+  Si114  1  0.67941432  0.92841769  0.34815943  1
  Si0+  Si115  1  0.06855304  0.67942314  0.98233475  1
  Si0+  Si116  1  0.67788172  0.42736079  0.35223822  1
  Si0+  Si117  1  0.82046373  0.07224909  0.34844627  1
  Si0+  Si118  1  0.67656887  0.92433371  0.68310083  1
  Si0+  Si119  1  0.07153502  0.17668420  0.98640679  1
  O2-  O120  1  0.25187739  -0.00111952  0.05727883  1
  O2-  O121  1  0.25045742  0.00140801  0.39642436  1
  O2-  O122  1  0.25021559  0.00226853  0.73446964  1
  O2-  O123  1  0.25249941  0.49667960  0.06715882  1
  O2-  O124  1  0.25115347  0.49927393  0.39097264  1
  O2-  O125  1  0.24704803  0.49320002  0.72426808  1
  O2-  O126  1  0.74608098  -0.00373988  0.06133809  1
  O2-  O127  1  0.75204070  -0.00162418  0.38979497  1
  O2-  O128  1  0.74129490  -0.00306521  0.72707186  1
  O2-  O129  1  0.74872522  0.50270038  0.06545818  1
  O2-  O130  1  0.74573280  0.49672468  0.39660360  1
  O2-  O131  1  0.75724226  0.50449199  0.72508044  1
  O2-  O132  1  0.00348125  0.24524274  0.26880956  1
  O2-  O133  1  0.00245904  0.25171079  0.60273498  1
  O2-  O134  1  0.00205178  0.24933716  0.94413528  1
  O2-  O135  1  -0.00077013  0.75063717  0.26738304  1
  O2-  O136  1  -0.00228556  0.74810628  0.61210125  1
  O2-  O137  1  -0.00467391  0.74910271  0.94052035  1
  O2-  O138  1  0.50040891  0.24341902  0.27380900  1
  O2-  O139  1  0.49046835  0.24868849  0.60773799  1
  O2-  O140  1  0.49774494  0.25957808  0.93802407  1
  O2-  O141  1  0.50381717  0.74355841  0.27160193  1
  O2-  O142  1  0.49649975  0.75223369  0.60555558  1
  O2-  O143  1  0.49972823  0.74195997  0.93962610  1
  O2-  O144  1  0.07032196  0.17497128  0.09147923  1
  O2-  O145  1  0.07094338  0.17997539  0.42123090  1
  O2-  O146  1  0.06934079  0.17867487  0.76571688  1
  O2-  O147  1  0.07040783  0.68127441  0.08691795  1
  O2-  O148  1  0.07269687  0.67922135  0.43126198  1
  O2-  O149  1  0.07024788  0.67929942  0.75883703  1
  O2-  O150  1  0.56659570  0.17958511  0.09863113  1
  O2-  O151  1  0.57497742  0.17806839  0.42165210  1
  O2-  O152  1  0.57364567  0.18320116  0.76515085  1
  O2-  O153  1  0.57489409  0.68362533  0.09032824  1
  O2-  O154  1  0.57160499  0.67610536  0.42193609  1
  O2-  O155  1  0.57020691  0.67820589  0.76663875  1
  O2-  O156  1  0.17971018  0.42855018  0.24457679  1
  O2-  O157  1  0.17384362  0.43173299  0.57459227  1
  O2-  O158  1  0.17858167  0.42877577  0.90080436  1
  O2-  O159  1  0.18211662  0.92926860  0.23348797  1
  O2-  O160  1  0.17978009  0.92626369  0.57073055  1
  O2-  O161  1  0.17530059  0.93161525  0.91169039  1
  O2-  O162  1  0.67851077  0.42756668  0.24680601  1
  O2-  O163  1  0.67985094  0.43183699  0.56541963  1
  O2-  O164  1  0.68186900  0.42611467  0.90429793  1
  O2-  O165  1  0.67652644  0.93035136  0.24304345  1
  O2-  O166  1  0.68049775  0.92211420  0.57717463  1
  O2-  O167  1  0.68036165  0.92733142  0.90972765  1
  O2-  O168  1  0.42431072  0.31829598  0.08901562  1
  O2-  O169  1  0.43087352  0.32488444  0.43291219  1
  O2-  O170  1  0.43035631  0.32403647  0.75907509  1
  O2-  O171  1  0.42847254  0.82328746  0.09662927  1
  O2-  O172  1  0.43421229  0.81630552  0.43513782  1
  O2-  O173  1  0.42680603  0.81793756  0.75431455  1
  O2-  O174  1  0.93257877  0.31866426  0.09123828  1
  O2-  O175  1  0.92870278  0.31782921  0.42963202  1
  O2-  O176  1  0.92895696  0.32186075  0.76653386  1
  O2-  O177  1  0.93029961  0.82575681  0.08851619  1
  O2-  O178  1  0.92762935  0.82220610  0.43154324  1
  O2-  O179  1  0.92840215  0.81997111  0.75959465  1
  O2-  O180  1  0.32377974  0.07020826  0.23307185  1
  O2-  O181  1  0.32373428  0.06983701  0.57060643  1
  O2-  O182  1  0.32093248  0.06877195  0.90876924  1
  O2-  O183  1  0.31991531  0.56996866  0.24272242  1
  O2-  O184  1  0.31966601  0.56953447  0.56454187  1
  O2-  O185  1  0.31698578  0.57241622  0.90356660  1
  O2-  O186  1  0.81793464  0.07255011  0.24312025  1
  O2-  O187  1  0.81684165  0.06679406  0.56454517  1
  O2-  O188  1  0.82303089  0.07052903  0.90179835  1
  O2-  O189  1  0.81833056  0.56928566  0.23641520  1
  O2-  O190  1  0.82310585  0.57585453  0.57569409  1
  O2-  O191  1  0.82140013  0.57211367  0.90042632  1
  O2-  O192  1  0.04755924  0.08435103  0.27027068  1
  O2-  O193  1  0.04008515  0.07899608  0.60000359  1
  O2-  O194  1  0.04131838  0.08534457  0.93909187  1
  O2-  O195  1  0.04359123  0.58081257  0.26341024  1
  O2-  O196  1  0.04872025  0.58853990  0.60347492  1
  O2-  O197  1  0.04237108  0.58677504  0.93524398  1
  O2-  O198  1  0.55046472  0.08284710  0.26996827  1
  O2-  O199  1  0.54629246  0.07892487  0.59960066  1
  O2-  O200  1  0.54137895  0.08720290  0.92839635  1
  O2-  O201  1  0.55041243  0.58201948  0.27042856  1
  O2-  O202  1  0.53806747  0.58165709  0.59845288  1
  O2-  O203  1  0.55039185  0.58108304  0.94380915  1
  O2-  O204  1  0.16602806  0.20462515  0.27056192  1
  O2-  O205  1  0.17208523  0.20177668  0.59861937  1
  O2-  O206  1  0.16427896  0.20220655  0.93936732  1
  O2-  O207  1  0.16931301  0.70730470  0.26139636  1
  O2-  O208  1  0.16303254  0.71089041  0.60707902  1
  O2-  O209  1  0.15843960  0.71080626  0.93300284  1
  O2-  O210  1  0.66386551  0.20636594  0.26768227  1
  O2-  O211  1  0.66395356  0.21328056  0.59565420  1
  O2-  O212  1  0.66953221  0.21335359  0.93548592  1
  O2-  O213  1  0.66656904  0.70396371  0.27168325  1
  O2-  O214  1  0.66638158  0.70819881  0.59692332  1
  O2-  O215  1  0.66452149  0.70694724  0.93644970  1
  O2-  O216  1  0.08263128  0.45837102  0.06825824  1
  O2-  O217  1  0.08736138  0.45786337  0.39642275  1
  O2-  O218  1  0.08312995  0.45824954  0.72816176  1
  O2-  O219  1  0.08822600  0.95887578  0.06600269  1
  O2-  O220  1  0.07979535  0.95441842  0.39915645  1
  O2-  O221  1  0.08048058  0.95699108  0.73877937  1
  O2-  O222  1  0.57930419  0.45149736  0.07180276  1
  O2-  O223  1  0.58328175  0.45251113  0.39671013  1
  O2-  O224  1  0.58685931  0.46185166  0.73600542  1
  O2-  O225  1  0.58292109  0.95848115  0.05871602  1
  O2-  O226  1  0.58985033  0.95741794  0.39931110  1
  O2-  O227  1  0.58097359  0.94410251  0.72581718  1
  O2-  O228  1  0.20407320  0.32727735  0.06937161  1
  O2-  O229  1  0.20611319  0.33727192  0.39720437  1
  O2-  O230  1  0.19484177  0.33294723  0.72478766  1
  O2-  O231  1  0.20457984  0.83686804  0.06077999  1
  O2-  O232  1  0.20904850  0.82886306  0.39898126  1
  O2-  O233  1  0.20810501  0.83291406  0.74059509  1
  O2-  O234  1  0.71001229  0.33205739  0.07443182  1
  O2-  O235  1  0.70547041  0.33291610  0.39570125  1
  O2-  O236  1  0.71294603  0.33471218  0.73295706  1
  O2-  O237  1  0.70034632  0.83625007  0.06331674  1
  O2-  O238  1  0.70541215  0.83643921  0.39622648  1
  O2-  O239  1  0.70610125  0.83234508  0.73091615  1
  O2-  O240  1  0.46042434  0.41512837  0.26160240  1
  O2-  O241  1  0.45960176  0.41384916  0.60628219  1
  O2-  O242  1  0.44720499  0.42159936  0.94413232  1
  O2-  O243  1  0.46517721  0.91499803  0.26714075  1
  O2-  O244  1  0.45056990  0.91379142  0.60323766  1
  O2-  O245  1  0.46087076  0.91408401  0.92531513  1
  O2-  O246  1  0.96127355  0.41538816  0.26294252  1
  O2-  O247  1  0.95487794  0.42132255  0.59826852  1
  O2-  O248  1  0.95767314  0.41275308  0.93920464  1
  O2-  O249  1  0.95477495  0.92232866  0.26423717  1
  O2-  O250  1  0.95830698  0.91188176  0.60683579  1
  O2-  O251  1  0.96117776  0.91413838  0.93662930  1
  O2-  O252  1  0.33090229  0.29352855  0.26428366  1
  O2-  O253  1  0.33187268  0.30480723  0.60886209  1
  O2-  O254  1  0.33263129  0.29647870  0.93724606  1
  O2-  O255  1  0.33610886  0.78986372  0.26629828  1
  O2-  O256  1  0.33231658  0.79123479  0.60518656  1
  O2-  O257  1  0.32970745  0.79146399  0.92920238  1
  O2-  O258  1  0.83294276  0.28837089  0.26194834  1
  O2-  O259  1  0.83251326  0.28957924  0.59704615  1
  O2-  O260  1  0.83867406  0.29104717  0.94153757  1
  O2-  O261  1  0.82870466  0.79598022  0.26458106  1
  O2-  O262  1  0.83660359  0.79772561  0.60523526  1
  O2-  O263  1  0.83461885  0.79981353  0.93726542  1
  O2-  O264  1  0.41541463  0.03963999  0.05811798  1
  O2-  O265  1  0.42292051  0.04354820  0.39887198  1
  O2-  O266  1  0.42215276  0.04255476  0.73587590  1
  O2-  O267  1  0.41938945  0.55442826  0.07146696  1
  O2-  O268  1  0.41496083  0.54167908  0.39228185  1
  O2-  O269  1  0.41581729  0.53964359  0.73539904  1
  O2-  O270  1  0.91671263  0.03870837  0.07121332  1
  O2-  O271  1  0.91343039  0.04783670  0.39425717  1
  O2-  O272  1  0.91230607  0.03752601  0.73429408  1
  O2-  O273  1  0.91914338  0.54515948  0.06704314  1
  O2-  O274  1  0.91892103  0.53887784  0.40052957  1
  O2-  O275  1  0.91896738  0.55233430  0.72598378  1
  O2-  O276  1  0.29638209  0.16108794  0.06076877  1
  O2-  O277  1  0.29725853  0.17180475  0.39950786  1
  O2-  O278  1  0.29721177  0.17295107  0.73672395  1
  O2-  O279  1  0.28427643  0.67092493  0.06775371  1
  O2-  O280  1  0.29378024  0.66166097  0.39480484  1
  O2-  O281  1  0.28811298  0.66351263  0.73493677  1
  O2-  O282  1  0.78973868  0.16506100  0.07125936  1
  O2-  O283  1  0.78890459  0.16329183  0.39512744  1
  O2-  O284  1  0.78712613  0.16614205  0.73147660  1
  O2-  O285  1  0.79483357  0.67350144  0.06686514  1
  O2-  O286  1  0.79346022  0.66857683  0.40214914  1
  O2-  O287  1  0.79735315  0.66837382  0.72676245  1
