# generated using pymatgen
data_Ca2Al2SiO7
_symmetry_space_group_name_H-M   'P 1'
_cell_length_a   15.45624916
_cell_length_b   15.45584415
_cell_length_c   15.28270545
_cell_angle_alpha   90.00592796
_cell_angle_beta   90.00452467
_cell_angle_gamma   90.01025217
_symmetry_Int_Tables_number   1
_chemical_formula_structural   Ca2Al2SiO7
_chemical_formula_sum   'Ca48 Al48 Si24 O168'
_cell_volume   3650.87591010
_cell_formula_units_Z   24
loop_
 _symmetry_equiv_pos_site_id
 _symmetry_equiv_pos_as_xyz
  1  'x, y, z'
loop_
 _atom_type_symbol
 _atom_type_oxidation_number
  Ca2+  2.0
  Al0+  0.0
  Si0+  0.0
  O2-  -2.0
loop_
 _atom_site_type_symbol
 _atom_site_label
 _atom_site_symmetry_multiplicity
 _atom_site_fract_x
 _atom_site_fract_y
 _atom_site_fract_z
 _atom_site_occupancy
  Ca2+  Ca0  1  0.15785086  0.07393868  0.17074647  1
  Ca2+  Ca1  1  0.16551683  0.07564846  0.49947570  1
  Ca2+  Ca2  1  0.16702189  0.07948428  0.84222506  1
  Ca2+  Ca3  1  0.17776267  0.58270296  0.17129266  1
  Ca2+  Ca4  1  0.17656420  0.58316903  0.50494837  1
  Ca2+  Ca5  1  0.17655127  0.57035672  0.83777956  1
  Ca2+  Ca6  1  0.66834488  0.08277998  0.17929631  1
  Ca2+  Ca7  1  0.66340418  0.07665152  0.49833545  1
  Ca2+  Ca8  1  0.66037591  0.07873343  0.83533875  1
  Ca2+  Ca9  1  0.66832282  0.57969924  0.17487529  1
  Ca2+  Ca10  1  0.66538039  0.57465830  0.50358345  1
  Ca2+  Ca11  1  0.67607364  0.57673221  0.83376366  1
  Ca2+  Ca12  1  0.08427815  0.32793737  0.15843923  1
  Ca2+  Ca13  1  0.07640082  0.34178202  0.50018931  1
  Ca2+  Ca14  1  0.08605555  0.33645072  0.82655027  1
  Ca2+  Ca15  1  0.08448553  0.83223690  0.16799270  1
  Ca2+  Ca16  1  0.07757065  0.82511879  0.48613049  1
  Ca2+  Ca17  1  0.08299240  0.83125678  0.82977892  1
  Ca2+  Ca18  1  0.58315255  0.32772718  0.16862310  1
  Ca2+  Ca19  1  0.57701540  0.34001027  0.49017480  1
  Ca2+  Ca20  1  0.58151350  0.32968790  0.82625159  1
  Ca2+  Ca21  1  0.59025998  0.82592754  0.16700384  1
  Ca2+  Ca22  1  0.58382210  0.82902907  0.49474726  1
  Ca2+  Ca23  1  0.57497810  0.83113481  0.82211952  1
  Ca2+  Ca24  1  0.33453261  0.42270130  0.17219579  1
  Ca2+  Ca25  1  0.33673978  0.42582756  0.50718485  1
  Ca2+  Ca26  1  0.33126769  0.42174570  0.83607434  1
  Ca2+  Ca27  1  0.32087070  0.91707971  0.17167608  1
  Ca2+  Ca28  1  0.33031673  0.91252299  0.50310521  1
  Ca2+  Ca29  1  0.32895613  0.91567184  0.83874662  1
  Ca2+  Ca30  1  0.82776278  0.42151241  0.17161734  1
  Ca2+  Ca31  1  0.82111972  0.41836303  0.50945260  1
  Ca2+  Ca32  1  0.83647360  0.42377126  0.83133483  1
  Ca2+  Ca33  1  0.83075302  0.92590678  0.18072180  1
  Ca2+  Ca34  1  0.82381806  0.91607121  0.49764913  1
  Ca2+  Ca35  1  0.82360946  0.91521455  0.83452249  1
  Ca2+  Ca36  1  0.42797275  0.16934180  0.16426362  1
  Ca2+  Ca37  1  0.42314399  0.18284506  0.49230926  1
  Ca2+  Ca38  1  0.42135148  0.17345898  0.82669194  1
  Ca2+  Ca39  1  0.41848402  0.65959511  0.16890863  1
  Ca2+  Ca40  1  0.41712172  0.66685304  0.49300079  1
  Ca2+  Ca41  1  0.40906598  0.66949385  0.82747760  1
  Ca2+  Ca42  1  0.91760364  0.16680440  0.16205074  1
  Ca2+  Ca43  1  0.91169884  0.17095143  0.49754445  1
  Ca2+  Ca44  1  0.92655526  0.17525627  0.82880451  1
  Ca2+  Ca45  1  0.91785195  0.67201353  0.16484934  1
  Ca2+  Ca46  1  0.92216367  0.66754167  0.49030368  1
  Ca2+  Ca47  1  0.91534377  0.65931929  0.82825536  1
  Al0+  Al48  1  -0.00238487  0.00036755  -0.00327371  1
  Al0+  Al49  1  -0.00120190  0.00067904  0.34080546  1
  Al0+  Al50  1  -0.00106039  -0.00069004  0.66632533  1
  Al0+  Al51  1  -0.00008791  0.50209928  0.00836687  1
  Al0+  Al52  1  0.00220200  0.50007516  0.32549476  1
  Al0+  Al53  1  0.00154046  0.49854422  0.66729302  1
  Al0+  Al54  1  0.49874028  -0.00153926  -0.00349959  1
  Al0+  Al55  1  0.49823322  0.00118633  0.33345485  1
  Al0+  Al56  1  0.49855905  -0.00156338  0.66551253  1
  Al0+  Al57  1  0.50197821  0.50013443  0.00095497  1
  Al0+  Al58  1  0.49894211  0.50245022  0.33147837  1
  Al0+  Al59  1  0.50211003  0.50076183  0.67352823  1
  Al0+  Al60  1  0.25168594  0.24860716  -0.00108599  1
  Al0+  Al61  1  0.24831452  0.25101748  0.32925053  1
  Al0+  Al62  1  0.25224093  0.24655128  0.66352577  1
  Al0+  Al63  1  0.24863809  0.74999287  0.00669314  1
  Al0+  Al64  1  0.24936246  0.74923384  0.33665749  1
  Al0+  Al65  1  0.24907264  0.75052647  0.66581242  1
  Al0+  Al66  1  0.74996704  0.24952509  -0.00758053  1
  Al0+  Al67  1  0.74963789  0.25114230  0.33742312  1
  Al0+  Al68  1  0.75321201  0.24727924  0.66764127  1
  Al0+  Al69  1  0.74964476  0.74951257  0.00115419  1
  Al0+  Al70  1  0.75060952  0.75187466  0.32780714  1
  Al0+  Al71  1  0.74965069  0.75213206  0.67423334  1
  Al0+  Al72  1  0.82190286  0.57112876  0.67824651  1
  Al0+  Al73  1  0.18056628  0.42689814  0.67911568  1
  Al0+  Al74  1  0.32225733  0.57290761  0.68167837  1
  Al0+  Al75  1  0.92937238  0.82196375  0.31822834  1
  Al0+  Al76  1  0.07308271  0.67791624  0.31580021  1
  Al0+  Al77  1  0.82023243  0.57186480  0.01676789  1
  Al0+  Al78  1  0.42742464  0.82021286  0.65266248  1
  Al0+  Al79  1  0.07108882  0.17874073  0.98714758  1
  Al0+  Al80  1  0.68027684  0.43168776  0.34498473  1
  Al0+  Al81  1  0.42759592  0.32370257  0.31697685  1
  Al0+  Al82  1  0.57146646  0.17945792  0.32002565  1
  Al0+  Al83  1  0.57033495  0.68095007  0.32090070  1
  Al0+  Al84  1  0.57136771  0.17758567  0.98433870  1
  Al0+  Al85  1  0.67625913  0.92721754  0.34704766  1
  Al0+  Al86  1  0.31964454  0.56859458  0.34854037  1
  Al0+  Al87  1  0.17709483  0.93113181  0.01319918  1
  Al0+  Al88  1  0.67841162  0.93111374  0.68136660  1
  Al0+  Al89  1  0.18015101  0.93015582  0.34865680  1
  Al0+  Al90  1  0.43108883  0.32220796  0.65385979  1
  Al0+  Al91  1  0.17950966  0.42593168  0.01631554  1
  Al0+  Al92  1  0.67795064  0.42559804  0.68240729  1
  Al0+  Al93  1  0.32225539  0.57082353  0.01733680  1
  Al0+  Al94  1  0.82115877  0.07310536  0.34942373  1
  Al0+  Al95  1  0.93120770  0.32086448  0.65263461  1
  Si0+  Si96  1  0.17616723  0.42493599  0.34996456  1
  Si0+  Si97  1  0.32042391  0.06937415  0.68122345  1
  Si0+  Si98  1  0.07115982  0.68026778  0.98401526  1
  Si0+  Si99  1  0.57321658  0.67859250  0.98311695  1
  Si0+  Si100  1  0.81871531  0.07035725  0.01182175  1
  Si0+  Si101  1  0.92788552  0.32139953  0.31806529  1
  Si0+  Si102  1  0.17774731  0.92930448  0.68154437  1
  Si0+  Si103  1  0.32185937  0.07454838  0.35005803  1
  Si0+  Si104  1  0.57361013  0.67981987  0.65261207  1
  Si0+  Si105  1  0.92908197  0.32439442  0.98350801  1
  Si0+  Si106  1  0.06973826  0.17887718  0.31976960  1
  Si0+  Si107  1  0.82448459  0.07131920  0.68743004  1
  Si0+  Si108  1  0.67939166  0.42600948  0.01689519  1
  Si0+  Si109  1  0.82420828  0.57246220  0.34711058  1
  Si0+  Si110  1  0.92734296  0.82215839  0.65234621  1
  Si0+  Si111  1  0.67689571  0.92992661  0.01447439  1
  Si0+  Si112  1  0.42953134  0.32263647  0.98202086  1
  Si0+  Si113  1  0.42624980  0.82336479  0.31604672  1
  Si0+  Si114  1  0.06947611  0.67993023  0.65360416  1
  Si0+  Si115  1  0.92777964  0.82070635  0.98266800  1
  Si0+  Si116  1  0.57275326  0.17693352  0.64956027  1
  Si0+  Si117  1  0.32378779  0.07108984  0.01630267  1
  Si0+  Si118  1  0.42826859  0.81831043  0.98644812  1
  Si0+  Si119  1  0.07319273  0.17504407  0.64795041  1
  O2-  O120  1  0.24943687  0.00817127  0.06003904  1
  O2-  O121  1  0.25617192  0.00330801  0.39577065  1
  O2-  O122  1  0.24822379  -0.00028205  0.72473221  1
  O2-  O123  1  0.25287084  0.49595960  0.06665005  1
  O2-  O124  1  0.24505859  0.49316250  0.39350016  1
  O2-  O125  1  0.25450677  0.49614740  0.73002625  1
  O2-  O126  1  0.74498893  0.00353236  0.05568696  1
  O2-  O127  1  0.74720409  0.00095693  0.39625367  1
  O2-  O128  1  0.75193820  0.00601889  0.73085053  1
  O2-  O129  1  0.74688878  0.49559025  0.06160795  1
  O2-  O130  1  0.75586766  0.50511270  0.39235172  1
  O2-  O131  1  0.75166878  0.49784481  0.72987234  1
  O2-  O132  1  -0.00029792  0.25050104  0.27691705  1
  O2-  O133  1  0.00656881  0.24630781  0.60508876  1
  O2-  O134  1  0.00272802  0.25942065  0.94063095  1
  O2-  O135  1  0.00009465  0.74983689  0.26608930  1
  O2-  O136  1  -0.00375199  0.74905394  0.61159288  1
  O2-  O137  1  -0.00179877  0.74916106  0.93977093  1
  O2-  O138  1  0.49875943  0.24970310  0.26832327  1
  O2-  O139  1  0.51177417  0.25309028  0.60712687  1
  O2-  O140  1  0.49786942  0.25315732  0.93781072  1
  O2-  O141  1  0.49868768  0.75861383  0.27185765  1
  O2-  O142  1  0.50065731  0.74383617  0.60804774  1
  O2-  O143  1  0.49823797  0.74670784  0.94276641  1
  O2-  O144  1  0.06361911  0.17477859  0.10013214  1
  O2-  O145  1  0.07083778  0.17949411  0.42484483  1
  O2-  O146  1  0.07134130  0.17089596  0.75364991  1
  O2-  O147  1  0.07112432  0.68385256  0.08853489  1
  O2-  O148  1  0.07107934  0.67828690  0.43023344  1
  O2-  O149  1  0.07007223  0.68332994  0.75908540  1
  O2-  O150  1  0.57192129  0.17578458  0.09681516  1
  O2-  O151  1  0.56983403  0.18052581  0.43347771  1
  O2-  O152  1  0.56734330  0.17457408  0.75572861  1
  O2-  O153  1  0.57607313  0.68103532  0.08807788  1
  O2-  O154  1  0.56915719  0.67991223  0.43393644  1
  O2-  O155  1  0.57514696  0.68461385  0.75868917  1
  O2-  O156  1  0.17588907  0.42309356  0.24451391  1
  O2-  O157  1  0.17844631  0.43145958  0.56580787  1
  O2-  O158  1  0.18015231  0.42806023  0.90264199  1
  O2-  O159  1  0.17950979  0.93308812  0.23531258  1
  O2-  O160  1  0.17715315  0.93004520  0.57680735  1
  O2-  O161  1  0.17953683  0.93027903  0.89941901  1
  O2-  O162  1  0.68365348  0.43092622  0.23147227  1
  O2-  O163  1  0.67769952  0.42832932  0.56878625  1
  O2-  O164  1  0.68018653  0.42647644  0.91141573  1
  O2-  O165  1  0.67905099  0.92885746  0.23270457  1
  O2-  O166  1  0.67970791  0.92977560  0.56906173  1
  O2-  O167  1  0.67767059  0.92971396  0.90913859  1
  O2-  O168  1  0.43098377  0.32204184  0.08730428  1
  O2-  O169  1  0.42866427  0.32363427  0.43082296  1
  O2-  O170  1  0.42904644  0.31629172  0.76715908  1
  O2-  O171  1  0.43020881  0.82109020  0.09110593  1
  O2-  O172  1  0.42524892  0.82087676  0.42172322  1
  O2-  O173  1  0.42696538  0.82138541  0.76663921  1
  O2-  O174  1  0.92494092  0.31973391  0.08925749  1
  O2-  O175  1  0.92894956  0.32277744  0.42304592  1
  O2-  O176  1  0.93427405  0.31955609  0.76597219  1
  O2-  O177  1  0.92714833  0.82251693  0.08709476  1
  O2-  O178  1  0.93028360  0.81928255  0.43241488  1
  O2-  O179  1  0.93033334  0.82481220  0.75797609  1
  O2-  O180  1  0.31978356  0.07352719  0.24428679  1
  O2-  O181  1  0.31893207  0.06829873  0.57640984  1
  O2-  O182  1  0.32522960  0.06675776  0.91027566  1
  O2-  O183  1  0.31940173  0.56767205  0.23556909  1
  O2-  O184  1  0.31929106  0.57556951  0.56845645  1
  O2-  O185  1  0.31947514  0.57341635  0.90386182  1
  O2-  O186  1  0.82240634  0.07331717  0.23484216  1
  O2-  O187  1  0.82797195  0.06926652  0.58248340  1
  O2-  O188  1  0.81950332  0.06679620  0.90688622  1
  O2-  O189  1  0.82223432  0.56951988  0.24123592  1
  O2-  O190  1  0.82142685  0.57240624  0.56488615  1
  O2-  O191  1  0.81890364  0.57228036  0.90368007  1
  O2-  O192  1  0.04001068  0.08723423  0.27368600  1
  O2-  O193  1  0.04274074  0.08239102  0.60111190  1
  O2-  O194  1  0.03472836  0.08463459  0.92947612  1
  O2-  O195  1  0.04762320  0.57974040  0.26045224  1
  O2-  O196  1  0.04456527  0.58806668  0.60618469  1
  O2-  O197  1  0.04341774  0.58692690  0.93956670  1
  O2-  O198  1  0.54388591  0.08027468  0.26643603  1
  O2-  O199  1  0.53877703  0.08625853  0.60318812  1
  O2-  O200  1  0.53816731  0.08091731  0.92962771  1
  O2-  O201  1  0.53703384  0.58720910  0.26300788  1
  O2-  O202  1  0.55409344  0.58363731  0.61097613  1
  O2-  O203  1  0.55043519  0.58476940  0.93762047  1
  O2-  O204  1  0.16101135  0.20344278  0.26959657  1
  O2-  O205  1  0.16793131  0.19469937  0.60269286  1
  O2-  O206  1  0.17130809  0.19889961  0.93472792  1
  O2-  O207  1  0.17039972  0.71129152  0.26394217  1
  O2-  O208  1  0.15923429  0.71171393  0.60477271  1
  O2-  O209  1  0.16223719  0.71196370  0.93697745  1
  O2-  O210  1  0.67016680  0.20929063  0.26746278  1
  O2-  O211  1  0.67089298  0.19059922  0.61037199  1
  O2-  O212  1  0.66790439  0.20564130  0.92764793  1
  O2-  O213  1  0.66642625  0.70904125  0.26320973  1
  O2-  O214  1  0.66558946  0.71154575  0.60675403  1
  O2-  O215  1  0.66311811  0.71134456  0.93437871  1
  O2-  O216  1  0.08107399  0.45345322  0.06920509  1
  O2-  O217  1  0.08142076  0.45222262  0.39328319  1
  O2-  O218  1  0.08383144  0.45779593  0.73397316  1
  O2-  O219  1  0.07936822  0.96136578  0.06511410  1
  O2-  O220  1  0.08563574  0.96280313  0.40505144  1
  O2-  O221  1  0.08555885  0.95647564  0.72924213  1
  O2-  O222  1  0.58582643  0.45124540  0.06218377  1
  O2-  O223  1  0.58461576  0.46512807  0.39767618  1
  O2-  O224  1  0.58226921  0.45471983  0.73999614  1
  O2-  O225  1  0.58363168  0.95353653  0.05990017  1
  O2-  O226  1  0.57658463  0.95260245  0.39916540  1
  O2-  O227  1  0.58099009  0.96120378  0.73557250  1
  O2-  O228  1  0.20338944  0.32477203  0.06657301  1
  O2-  O229  1  0.19793477  0.33034881  0.39558227  1
  O2-  O230  1  0.20415873  0.32534921  0.72840627  1
  O2-  O231  1  0.20992604  0.83678922  0.06878175  1
  O2-  O232  1  0.20975480  0.83393451  0.40298073  1
  O2-  O233  1  0.20554914  0.83801114  0.72953004  1
  O2-  O234  1  0.70719990  0.33173331  0.06067277  1
  O2-  O235  1  0.70971841  0.33646356  0.40062659  1
  O2-  O236  1  0.70656672  0.32625112  0.73372720  1
  O2-  O237  1  0.70734228  0.83860024  0.06021139  1
  O2-  O238  1  0.70797577  0.82932792  0.39970949  1
  O2-  O239  1  0.71077383  0.83705275  0.74017803  1
  O2-  O240  1  0.45952152  0.41986200  0.26295496  1
  O2-  O241  1  0.45705321  0.42201545  0.60412802  1
  O2-  O242  1  0.45647015  0.41641882  0.93637749  1
  O2-  O243  1  0.44487394  0.91907591  0.27155154  1
  O2-  O244  1  0.45808807  0.91650803  0.59834666  1
  O2-  O245  1  0.45599254  0.90935527  0.93636642  1
  O2-  O246  1  0.95463876  0.41199333  0.26743677  1
  O2-  O247  1  0.96137713  0.41709773  0.59704737  1
  O2-  O248  1  0.95134927  0.42046731  0.94146960  1
  O2-  O249  1  0.95969226  0.92178598  0.26856071  1
  O2-  O250  1  0.95719428  0.91288737  0.60432616  1
  O2-  O251  1  0.95590280  0.91163383  0.93320015  1
  O2-  O252  1  0.32866698  0.29529732  0.26416050  1
  O2-  O253  1  0.33659437  0.28570466  0.59853155  1
  O2-  O254  1  0.33585145  0.29678411  0.93619327  1
  O2-  O255  1  0.33419795  0.79318764  0.26981600  1
  O2-  O256  1  0.32976742  0.79296662  0.59856531  1
  O2-  O257  1  0.33526531  0.79145790  0.93991161  1
  O2-  O258  1  0.83709119  0.29231247  0.26998620  1
  O2-  O259  1  0.83453556  0.28839251  0.59887848  1
  O2-  O260  1  0.83823366  0.29445942  0.93401693  1
  O2-  O261  1  0.83176230  0.79714332  0.26204503  1
  O2-  O262  1  0.83387138  0.79715086  0.60820705  1
  O2-  O263  1  0.83540488  0.79204199  0.93532979  1
  O2-  O264  1  0.41457377  0.03781520  0.06392568  1
  O2-  O265  1  0.41577442  0.05265140  0.39629645  1
  O2-  O266  1  0.41092992  0.03991200  0.73012621  1
  O2-  O267  1  0.42349863  0.54638097  0.06670990  1
  O2-  O268  1  0.41651272  0.53987460  0.40182850  1
  O2-  O269  1  0.42156748  0.55159620  0.73502552  1
  O2-  O270  1  0.90895036  0.03934460  0.06006633  1
  O2-  O271  1  0.91753629  0.04472323  0.40609618  1
  O2-  O272  1  0.91679292  0.04047427  0.73480538  1
  O2-  O273  1  0.91683839  0.54574267  0.07199262  1
  O2-  O274  1  0.91913042  0.54658324  0.38980993  1
  O2-  O275  1  0.91952643  0.54176171  0.73327103  1
  O2-  O276  1  0.30607616  0.16666522  0.05949109  1
  O2-  O277  1  0.29130327  0.16700929  0.39591780  1
  O2-  O278  1  0.29365102  0.16030282  0.73074793  1
  O2-  O279  1  0.29108149  0.66806654  0.07099985  1
  O2-  O280  1  0.28912070  0.66533186  0.40202255  1
  O2-  O281  1  0.28720692  0.67015653  0.73498248  1
  O2-  O282  1  0.79595359  0.16465417  0.05636850  1
  O2-  O283  1  0.79354331  0.17050065  0.40406607  1
  O2-  O284  1  0.80393835  0.16579012  0.73320422  1
  O2-  O285  1  0.78748886  0.66864648  0.06967243  1
  O2-  O286  1  0.80136270  0.66767914  0.38911190  1
  O2-  O287  1  0.79473510  0.66854675  0.73520627  1
