# generated using pymatgen
data_Ca2Al2SiO7
_symmetry_space_group_name_H-M   'P 1'
_cell_length_a   15.46691850
_cell_length_b   15.46395021
_cell_length_c   15.29027365
_cell_angle_alpha   90.00547100
_cell_angle_beta   89.99903264
_cell_angle_gamma   90.00187174
_symmetry_Int_Tables_number   1
_chemical_formula_structural   Ca2Al2SiO7
_chemical_formula_sum   'Ca48 Al48 Si24 O168'
_cell_volume   3657.12239832
_cell_formula_units_Z   24
loop_
 _symmetry_equiv_pos_site_id
 _symmetry_equiv_pos_as_xyz
  1  'x, y, z'
loop_
 _atom_type_symbol
 _atom_type_oxidation_number
  Ca2+  2.0
  Al0+  0.0
  Si0+  0.0
  O2-  -2.0
loop_
 _atom_site_type_symbol
 _atom_site_label
 _atom_site_symmetry_multiplicity
 _atom_site_fract_x
 _atom_site_fract_y
 _atom_site_fract_z
 _atom_site_occupancy
  Ca2+  Ca0  1  0.18120672  0.08042296  0.16737216  1
  Ca2+  Ca1  1  0.17628477  0.08628323  0.50197574  1
  Ca2+  Ca2  1  0.17592175  0.07416336  0.84498384  1
  Ca2+  Ca3  1  0.16861767  0.58594433  0.17211462  1
  Ca2+  Ca4  1  0.16898635  0.59009632  0.50840163  1
  Ca2+  Ca5  1  0.17368270  0.58789472  0.83013512  1
  Ca2+  Ca6  1  0.66662579  0.07569990  0.18025878  1
  Ca2+  Ca7  1  0.67014168  0.07787208  0.50366196  1
  Ca2+  Ca8  1  0.66299995  0.08200836  0.82614510  1
  Ca2+  Ca9  1  0.65655846  0.57154861  0.16965821  1
  Ca2+  Ca10  1  0.66905982  0.57291877  0.51273475  1
  Ca2+  Ca11  1  0.65057135  0.57533623  0.83404270  1
  Ca2+  Ca12  1  0.07469475  0.33186153  0.16656338  1
  Ca2+  Ca13  1  0.07245757  0.33188691  0.49262128  1
  Ca2+  Ca14  1  0.08035570  0.33061856  0.82814192  1
  Ca2+  Ca15  1  0.07972067  0.83749213  0.16726561  1
  Ca2+  Ca16  1  0.07359592  0.82240433  0.49359206  1
  Ca2+  Ca17  1  0.08404634  0.83140953  0.82585540  1
  Ca2+  Ca18  1  0.58558928  0.32678612  0.16227308  1
  Ca2+  Ca19  1  0.59287751  0.32468202  0.49809235  1
  Ca2+  Ca20  1  0.57840948  0.33190315  0.82587421  1
  Ca2+  Ca21  1  0.58114731  0.82984913  0.15826884  1
  Ca2+  Ca22  1  0.58730420  0.83487787  0.50018079  1
  Ca2+  Ca23  1  0.57295799  0.82945055  0.82339890  1
  Ca2+  Ca24  1  0.33576870  0.41563582  0.16861455  1
  Ca2+  Ca25  1  0.33184150  0.42313612  0.50961070  1
  Ca2+  Ca26  1  0.34786650  0.42242324  0.83373004  1
  Ca2+  Ca27  1  0.33842122  0.92557197  0.16950389  1
  Ca2+  Ca28  1  0.33734910  0.91982678  0.50375999  1
  Ca2+  Ca29  1  0.33359377  0.91672132  0.84135289  1
  Ca2+  Ca30  1  0.82148895  0.41579506  0.17412030  1
  Ca2+  Ca31  1  0.82444307  0.41725664  0.50552838  1
  Ca2+  Ca32  1  0.81807816  0.42490113  0.83296848  1
  Ca2+  Ca33  1  0.82670589  0.92145070  0.17939167  1
  Ca2+  Ca34  1  0.82479446  0.92042347  0.50455701  1
  Ca2+  Ca35  1  0.82569327  0.91782770  0.83115762  1
  Ca2+  Ca36  1  0.41963219  0.16634582  0.16241487  1
  Ca2+  Ca37  1  0.43136522  0.16741406  0.49698969  1
  Ca2+  Ca38  1  0.41795549  0.17671216  0.82545332  1
  Ca2+  Ca39  1  0.42428049  0.67571188  0.15689976  1
  Ca2+  Ca40  1  0.42037623  0.66967005  0.50553615  1
  Ca2+  Ca41  1  0.42395234  0.67529638  0.82624354  1
  Ca2+  Ca42  1  0.90566523  0.17236343  0.16794136  1
  Ca2+  Ca43  1  0.90568318  0.16946983  0.49261182  1
  Ca2+  Ca44  1  0.91657981  0.16410636  0.82593239  1
  Ca2+  Ca45  1  0.91971152  0.67217512  0.16900963  1
  Ca2+  Ca46  1  0.92401698  0.66262308  0.49369172  1
  Ca2+  Ca47  1  0.92352522  0.66248033  0.82437592  1
  Al0+  Al48  1  0.00077620  0.00022485  0.00421306  1
  Al0+  Al49  1  0.00346362  0.00027721  0.33191963  1
  Al0+  Al50  1  0.00198147  -0.00039371  0.66823870  1
  Al0+  Al51  1  -0.00162485  0.50023223  0.00022782  1
  Al0+  Al52  1  0.00066593  0.49741704  0.32264038  1
  Al0+  Al53  1  0.00014120  0.49780940  0.66696662  1
  Al0+  Al54  1  0.50228685  0.00066491  -0.00020686  1
  Al0+  Al55  1  0.49994169  0.00110514  0.33720621  1
  Al0+  Al56  1  0.49955749  0.00297273  0.66395992  1
  Al0+  Al57  1  0.49925337  0.49780438  0.00135474  1
  Al0+  Al58  1  0.49759393  0.49974467  0.33904620  1
  Al0+  Al59  1  0.49656640  0.50298480  0.66760316  1
  Al0+  Al60  1  0.24846614  0.24993140  0.00031725  1
  Al0+  Al61  1  0.24936056  0.25181038  0.33835735  1
  Al0+  Al62  1  0.24837492  0.25051401  0.66307633  1
  Al0+  Al63  1  0.24771392  0.74899872  0.00224989  1
  Al0+  Al64  1  0.25152775  0.75019388  0.32910721  1
  Al0+  Al65  1  0.24888926  0.74925620  0.66270229  1
  Al0+  Al66  1  0.74991585  0.25307787  0.00043051  1
  Al0+  Al67  1  0.74782367  0.24943656  0.32976549  1
  Al0+  Al68  1  0.75069503  0.25103030  0.67289653  1
  Al0+  Al69  1  0.75446883  0.74816715  -0.00423152  1
  Al0+  Al70  1  0.75121277  0.74729805  0.33121601  1
  Al0+  Al71  1  0.75094007  0.75185346  0.67177107  1
  Al0+  Al72  1  0.42687996  0.32328955  0.64997438  1
  Al0+  Al73  1  0.42758598  0.31787550  0.98803332  1
  Al0+  Al74  1  0.57343609  0.68027949  0.65092689  1
  Al0+  Al75  1  0.07256672  0.67906632  0.31610000  1
  Al0+  Al76  1  0.82346438  0.57246109  0.67969628  1
  Al0+  Al77  1  0.31881515  0.57164503  0.68106534  1
  Al0+  Al78  1  0.67851035  0.43172564  0.01589693  1
  Al0+  Al79  1  0.67748351  0.43103492  0.68271688  1
  Al0+  Al80  1  0.17807482  0.92660081  0.01638538  1
  Al0+  Al81  1  0.67789239  0.42970466  0.34739995  1
  Al0+  Al82  1  0.42883328  0.82281353  0.98661024  1
  Al0+  Al83  1  0.82234885  0.07100892  0.34527903  1
  Al0+  Al84  1  0.57240615  0.18196813  0.65066491  1
  Al0+  Al85  1  0.32075478  0.07204559  0.34977347  1
  Al0+  Al86  1  0.82240665  0.07076487  0.68189304  1
  Al0+  Al87  1  0.32336268  0.07150521  0.01372654  1
  Al0+  Al88  1  0.06782758  0.67887827  0.65439667  1
  Al0+  Al89  1  0.67631346  0.92892122  0.68354022  1
  Al0+  Al90  1  0.57215937  0.67832813  0.98631875  1
  Al0+  Al91  1  0.92806830  0.31748359  0.31885575  1
  Al0+  Al92  1  0.92780973  0.82220383  0.31858102  1
  Al0+  Al93  1  0.56890549  0.17975384  0.31878425  1
  Al0+  Al94  1  0.42824523  0.82231354  0.65055710  1
  Al0+  Al95  1  0.67875018  0.92485389  0.34706489  1
  Si0+  Si96  1  0.31911864  0.56895407  0.01598848  1
  Si0+  Si97  1  0.06876460  0.17984982  0.98556214  1
  Si0+  Si98  1  0.32017158  0.07305579  0.68144112  1
  Si0+  Si99  1  0.82580927  0.57229567  0.01966114  1
  Si0+  Si100  1  0.31948340  0.57237786  0.34850550  1
  Si0+  Si101  1  0.07657014  0.17799416  0.31549342  1
  Si0+  Si102  1  0.17777501  0.42633012  0.68366756  1
  Si0+  Si103  1  0.17744587  0.43024802  0.34771879  1
  Si0+  Si104  1  0.42655861  0.32342294  0.31762564  1
  Si0+  Si105  1  0.57489895  0.17778489  0.98313324  1
  Si0+  Si106  1  0.43085607  0.82079519  0.31844295  1
  Si0+  Si107  1  0.57072278  0.67585562  0.32023524  1
  Si0+  Si108  1  0.68117963  0.92744780  0.01320664  1
  Si0+  Si109  1  0.92825083  0.82502067  0.65158663  1
  Si0+  Si110  1  0.18000539  0.92616233  0.35193770  1
  Si0+  Si111  1  0.07133651  0.17615707  0.65161388  1
  Si0+  Si112  1  0.92773933  0.32138289  0.98232346  1
  Si0+  Si113  1  0.93103451  0.31848716  0.65333400  1
  Si0+  Si114  1  0.18114305  0.92982386  0.67945375  1
  Si0+  Si115  1  0.17517241  0.42842157  0.01585052  1
  Si0+  Si116  1  0.07017312  0.67710454  0.98349278  1
  Si0+  Si117  1  0.82117189  0.07090421  0.01476615  1
  Si0+  Si118  1  0.82364419  0.56952601  0.34725595  1
  Si0+  Si119  1  0.93125549  0.82310125  0.98335801  1
  O2-  O120  1  0.25597207  -0.00577171  0.06370487  1
  O2-  O121  1  0.24591821  -0.00301450  0.39685956  1
  O2-  O122  1  0.25231173  -0.00066366  0.72349735  1
  O2-  O123  1  0.24726266  0.49821935  0.05825581  1
  O2-  O124  1  0.24583509  0.50319504  0.38945097  1
  O2-  O125  1  0.24861385  0.49208035  0.72838248  1
  O2-  O126  1  0.74898676  0.00128510  0.05616307  1
  O2-  O127  1  0.75476693  -0.00520713  0.39390395  1
  O2-  O128  1  0.75018430  0.00023166  0.73342747  1
  O2-  O129  1  0.75153295  0.50888667  0.06220178  1
  O2-  O130  1  0.75263767  0.50476225  0.39243254  1
  O2-  O131  1  0.74385668  0.50993276  0.73172296  1
  O2-  O132  1  0.00085403  0.23968650  0.27173218  1
  O2-  O133  1  -0.00191134  0.24433376  0.60968384  1
  O2-  O134  1  -0.00227921  0.24924926  0.94041411  1
  O2-  O135  1  0.00149475  0.75204096  0.26638168  1
  O2-  O136  1  -0.01166902  0.74809249  0.60848231  1
  O2-  O137  1  0.00213855  0.75110378  0.94215663  1
  O2-  O138  1  0.49390644  0.25464699  0.27233735  1
  O2-  O139  1  0.50247910  0.25605100  0.59975238  1
  O2-  O140  1  0.50063417  0.24186477  0.94169697  1
  O2-  O141  1  0.50490369  0.75199683  0.27777503  1
  O2-  O142  1  0.50437192  0.75484397  0.59960032  1
  O2-  O143  1  0.50325123  0.75359271  0.93721641  1
  O2-  O144  1  0.06847382  0.18248866  0.09035743  1
  O2-  O145  1  0.08087288  0.18370203  0.42101149  1
  O2-  O146  1  0.07262813  0.17741207  0.75708205  1
  O2-  O147  1  0.06823172  0.67344914  0.08819932  1
  O2-  O148  1  0.07188093  0.67813597  0.42953523  1
  O2-  O149  1  0.06983257  0.68174381  0.76796229  1
  O2-  O150  1  0.57777455  0.17897315  0.08883073  1
  O2-  O151  1  0.57053016  0.18016998  0.43104009  1
  O2-  O152  1  0.56889020  0.18175121  0.76478641  1
  O2-  O153  1  0.56845878  0.67928559  0.10101059  1
  O2-  O154  1  0.56775514  0.67310904  0.42451696  1
  O2-  O155  1  0.56677197  0.68019772  0.76431345  1
  O2-  O156  1  0.17928043  0.42864029  0.24219705  1
  O2-  O157  1  0.17526964  0.42658441  0.57803720  1
  O2-  O158  1  0.17018222  0.42921270  0.91130563  1
  O2-  O159  1  0.18358156  0.92552575  0.24641277  1
  O2-  O160  1  0.17994714  0.93296677  0.57459730  1
  O2-  O161  1  0.17445646  0.93015705  0.90237404  1
  O2-  O162  1  0.67720572  0.43126923  0.23387385  1
  O2-  O163  1  0.68338100  0.42757060  0.56921310  1
  O2-  O164  1  0.67984837  0.42986350  0.90344632  1
  O2-  O165  1  0.67726981  0.92624571  0.23233038  1
  O2-  O166  1  0.67866726  0.93033133  0.57033266  1
  O2-  O167  1  0.68257997  0.92780332  0.90872451  1
  O2-  O168  1  0.42779834  0.31837454  0.10138103  1
  O2-  O169  1  0.42537378  0.32428376  0.42245628  1
  O2-  O170  1  0.42464241  0.31772903  0.76386673  1
  O2-  O171  1  0.43105125  0.82117661  0.10093790  1
  O2-  O172  1  0.42662142  0.81849359  0.42293192  1
  O2-  O173  1  0.42449937  0.82073257  0.76407479  1
  O2-  O174  1  0.92818253  0.32010807  0.08739797  1
  O2-  O175  1  0.93155653  0.31973438  0.43198892  1
  O2-  O176  1  0.93572887  0.31806200  0.75873610  1
  O2-  O177  1  0.93071408  0.82360773  0.08818588  1
  O2-  O178  1  0.92898971  0.81928879  0.43187644  1
  O2-  O179  1  0.93610586  0.83005797  0.75739601  1
  O2-  O180  1  0.32010133  0.07159002  0.23657141  1
  O2-  O181  1  0.31617335  0.07409577  0.57637729  1
  O2-  O182  1  0.31744069  0.07444371  0.90021179  1
  O2-  O183  1  0.32064810  0.57069039  0.24294790  1
  O2-  O184  1  0.31334009  0.57317096  0.56770870  1
  O2-  O185  1  0.31712023  0.56924797  0.91132902  1
  O2-  O186  1  0.81664005  0.07096015  0.23087418  1
  O2-  O187  1  0.82576102  0.06922452  0.56903570  1
  O2-  O188  1  0.82459062  0.06937164  0.91002107  1
  O2-  O189  1  0.82295176  0.56793064  0.24137173  1
  O2-  O190  1  0.82865480  0.56410716  0.56624540  1
  O2-  O191  1  0.83508767  0.56775182  0.91504115  1
  O2-  O192  1  0.06205691  0.08139938  0.27268881  1
  O2-  O193  1  0.04813297  0.08379371  0.60388586  1
  O2-  O194  1  0.04096995  0.08756403  0.93879115  1
  O2-  O195  1  0.04553602  0.58101804  0.26096137  1
  O2-  O196  1  0.04297404  0.57994591  0.60149634  1
  O2-  O197  1  0.04002626  0.58583742  0.93571150  1
  O2-  O198  1  0.53688578  0.08261727  0.26528728  1
  O2-  O199  1  0.54107178  0.08503841  0.59746039  1
  O2-  O200  1  0.55546956  0.08242373  0.93907720  1
  O2-  O201  1  0.53466793  0.58659851  0.27158562  1
  O2-  O202  1  0.54038198  0.58290895  0.59871983  1
  O2-  O203  1  0.53682582  0.58153258  0.93593976  1
  O2-  O204  1  0.16605357  0.21436273  0.26691243  1
  O2-  O205  1  0.16074187  0.20707527  0.60164152  1
  O2-  O206  1  0.15934605  0.20906278  0.93670778  1
  O2-  O207  1  0.17129231  0.70730520  0.26237388  1
  O2-  O208  1  0.16124086  0.71413545  0.59833420  1
  O2-  O209  1  0.16333288  0.70139132  0.93769273  1
  O2-  O210  1  0.66377947  0.21078217  0.26187119  1
  O2-  O211  1  0.67313103  0.20891999  0.60155950  1
  O2-  O212  1  0.66634544  0.20944974  0.93600449  1
  O2-  O213  1  0.66444659  0.69506350  0.27318214  1
  O2-  O214  1  0.67521336  0.70253657  0.60192380  1
  O2-  O215  1  0.67412770  0.69675173  0.93717549  1
  O2-  O216  1  0.08434642  0.45810425  0.06513341  1
  O2-  O217  1  0.08399684  0.45568606  0.39262086  1
  O2-  O218  1  0.08595802  0.45431067  0.73205763  1
  O2-  O219  1  0.08270485  0.96301125  0.07177468  1
  O2-  O220  1  0.08496628  0.94807906  0.39593644  1
  O2-  O221  1  0.09061794  0.95812171  0.72942341  1
  O2-  O222  1  0.58158302  0.46030652  0.07131681  1
  O2-  O223  1  0.58133742  0.45868659  0.40161789  1
  O2-  O224  1  0.57703043  0.45523736  0.73316988  1
  O2-  O225  1  0.58847670  0.95174625  0.06065793  1
  O2-  O226  1  0.58200063  0.95582719  0.40001452  1
  O2-  O227  1  0.57827356  0.96193197  0.73581829  1
  O2-  O228  1  0.20183110  0.33666362  0.06362688  1
  O2-  O229  1  0.20460177  0.34009315  0.39825061  1
  O2-  O230  1  0.19946973  0.33117322  0.72918601  1
  O2-  O231  1  0.19716108  0.82561960  0.06791504  1
  O2-  O232  1  0.20902993  0.83288335  0.39685089  1
  O2-  O233  1  0.20748809  0.83787993  0.72659412  1
  O2-  O234  1  0.71397641  0.33542106  0.06920097  1
  O2-  O235  1  0.71218075  0.33371042  0.39804493  1
  O2-  O236  1  0.71250728  0.33591875  0.73825780  1
  O2-  O237  1  0.71166750  0.83550300  0.05932774  1
  O2-  O238  1  0.70421544  0.82487969  0.39820296  1
  O2-  O239  1  0.70309061  0.83104498  0.73872652  1
  O2-  O240  1  0.45139330  0.41797936  0.27212900  1
  O2-  O241  1  0.44539744  0.42515787  0.60245872  1
  O2-  O242  1  0.45975004  0.41427027  0.93548737  1
  O2-  O243  1  0.45652488  0.91348589  0.27253514  1
  O2-  O244  1  0.45142241  0.92248541  0.59971426  1
  O2-  O245  1  0.45381701  0.92242846  0.93459015  1
  O2-  O246  1  0.96266730  0.41058954  0.25954207  1
  O2-  O247  1  0.96328203  0.40762821  0.60409411  1
  O2-  O248  1  0.95948646  0.41246251  0.93650542  1
  O2-  O249  1  0.95646856  0.92130745  0.26486237  1
  O2-  O250  1  0.96396483  0.91414125  0.60229235  1
  O2-  O251  1  0.96033885  0.91508173  0.93692064  1
  O2-  O252  1  0.33147292  0.29901674  0.27308629  1
  O2-  O253  1  0.32793729  0.29349885  0.59732774  1
  O2-  O254  1  0.32907471  0.29317217  0.93403313  1
  O2-  O255  1  0.34098760  0.79018540  0.26850551  1
  O2-  O256  1  0.33183521  0.78872692  0.59592478  1
  O2-  O257  1  0.32880718  0.79293522  0.93755983  1
  O2-  O258  1  0.83308917  0.28761985  0.26131405  1
  O2-  O259  1  0.83840043  0.29375506  0.60799289  1
  O2-  O260  1  0.83643380  0.29395719  0.93465226  1
  O2-  O261  1  0.83065840  0.79134765  0.26209799  1
  O2-  O262  1  0.83124184  0.81037597  0.61164727  1
  O2-  O263  1  0.84047511  0.79571847  0.93409852  1
  O2-  O264  1  0.42367272  0.04850648  0.06625109  1
  O2-  O265  1  0.41576107  0.03988836  0.40408462  1
  O2-  O266  1  0.41271026  0.04988997  0.72734073  1
  O2-  O267  1  0.40926926  0.53922910  0.06520918  1
  O2-  O268  1  0.40885921  0.54278655  0.39857632  1
  O2-  O269  1  0.41479561  0.54547521  0.73748836  1
  O2-  O270  1  0.91226708  0.04374275  0.06353153  1
  O2-  O271  1  0.92588365  0.05474229  0.39280954  1
  O2-  O272  1  0.92201595  0.04203105  0.73552044  1
  O2-  O273  1  0.91644053  0.54007885  0.06928715  1
  O2-  O274  1  0.91779556  0.53993310  0.38972980  1
  O2-  O275  1  0.91848708  0.53412203  0.73608759  1
  O2-  O276  1  0.28655442  0.16756151  0.06807137  1
  O2-  O277  1  0.28749041  0.16803714  0.40380234  1
  O2-  O278  1  0.28705096  0.16369205  0.72831647  1
  O2-  O279  1  0.29065267  0.66006838  0.06489552  1
  O2-  O280  1  0.29266601  0.66467870  0.39462119  1
  O2-  O281  1  0.28072004  0.66612632  0.73529312  1
  O2-  O282  1  0.79538323  0.16479094  0.05889471  1
  O2-  O283  1  0.78989346  0.16811116  0.39694846  1
  O2-  O284  1  0.79679600  0.16898432  0.73724108  1
  O2-  O285  1  0.80688161  0.66911252  0.06177583  1
  O2-  O286  1  0.80380493  0.66442796  0.39141080  1
  O2-  O287  1  0.81128548  0.67485002  0.72931028  1
