# generated using pymatgen
data_Ca2Al2SiO7
_symmetry_space_group_name_H-M   'P 1'
_cell_length_a   15.46345798
_cell_length_b   15.46247818
_cell_length_c   15.28756888
_cell_angle_alpha   89.99993597
_cell_angle_beta   89.99889334
_cell_angle_gamma   90.00860873
_symmetry_Int_Tables_number   1
_chemical_formula_structural   Ca2Al2SiO7
_chemical_formula_sum   'Ca48 Al48 Si24 O168'
_cell_volume   3655.30937270
_cell_formula_units_Z   24
loop_
 _symmetry_equiv_pos_site_id
 _symmetry_equiv_pos_as_xyz
  1  'x, y, z'
loop_
 _atom_type_symbol
 _atom_type_oxidation_number
  Ca2+  2.0
  Al0+  0.0
  Si0+  0.0
  O2-  -2.0
loop_
 _atom_site_type_symbol
 _atom_site_label
 _atom_site_symmetry_multiplicity
 _atom_site_fract_x
 _atom_site_fract_y
 _atom_site_fract_z
 _atom_site_occupancy
  Ca2+  Ca0  1  0.16539009  0.07559901  0.17828065  1
  Ca2+  Ca1  1  0.16075812  0.07893548  0.49489666  1
  Ca2+  Ca2  1  0.16946017  0.08038418  0.83834235  1
  Ca2+  Ca3  1  0.16413171  0.58013096  0.16929285  1
  Ca2+  Ca4  1  0.16291434  0.58019575  0.49595377  1
  Ca2+  Ca5  1  0.17046419  0.58031785  0.84818867  1
  Ca2+  Ca6  1  0.67649473  0.07996601  0.17133048  1
  Ca2+  Ca7  1  0.67657617  0.07696257  0.49908961  1
  Ca2+  Ca8  1  0.67783742  0.08723608  0.84152542  1
  Ca2+  Ca9  1  0.67693208  0.58031173  0.17356924  1
  Ca2+  Ca10  1  0.66823557  0.57762523  0.50221683  1
  Ca2+  Ca11  1  0.66694772  0.57265908  0.84081410  1
  Ca2+  Ca12  1  0.08758962  0.33176814  0.16559479  1
  Ca2+  Ca13  1  0.07583592  0.32814875  0.48940341  1
  Ca2+  Ca14  1  0.07337309  0.33885109  0.82974605  1
  Ca2+  Ca15  1  0.07461179  0.82351264  0.16564153  1
  Ca2+  Ca16  1  0.07808878  0.82756712  0.48541664  1
  Ca2+  Ca17  1  0.07738004  0.82639970  0.83879675  1
  Ca2+  Ca18  1  0.58863272  0.33346502  0.16420591  1
  Ca2+  Ca19  1  0.58196220  0.33895004  0.49258689  1
  Ca2+  Ca20  1  0.59531678  0.33110674  0.83189632  1
  Ca2+  Ca21  1  0.57396304  0.84237095  0.16274465  1
  Ca2+  Ca22  1  0.58208801  0.82998395  0.49100288  1
  Ca2+  Ca23  1  0.57893549  0.82400300  0.83013028  1
  Ca2+  Ca24  1  0.32567500  0.42044399  0.17151351  1
  Ca2+  Ca25  1  0.32787450  0.41092703  0.49696222  1
  Ca2+  Ca26  1  0.32371399  0.42555821  0.84520611  1
  Ca2+  Ca27  1  0.32955570  0.91122292  0.17529542  1
  Ca2+  Ca28  1  0.32658916  0.90693184  0.49622412  1
  Ca2+  Ca29  1  0.33409531  0.91511701  0.84058791  1
  Ca2+  Ca30  1  0.82501046  0.42827830  0.17059202  1
  Ca2+  Ca31  1  0.82590951  0.41889139  0.50250091  1
  Ca2+  Ca32  1  0.82572726  0.41869386  0.84112777  1
  Ca2+  Ca33  1  0.83831744  0.92231791  0.17556263  1
  Ca2+  Ca34  1  0.84157399  0.92680521  0.49741502  1
  Ca2+  Ca35  1  0.83685738  0.92682324  0.84082176  1
  Ca2+  Ca36  1  0.42504554  0.17539747  0.16217081  1
  Ca2+  Ca37  1  0.42106907  0.17528719  0.48787513  1
  Ca2+  Ca38  1  0.42702472  0.16989498  0.83328292  1
  Ca2+  Ca39  1  0.41369574  0.67588786  0.16213047  1
  Ca2+  Ca40  1  0.42654045  0.66852497  0.49344671  1
  Ca2+  Ca41  1  0.41890185  0.66589313  0.83296511  1
  Ca2+  Ca42  1  0.91885462  0.16024417  0.16435731  1
  Ca2+  Ca43  1  0.91333121  0.16966058  0.49493084  1
  Ca2+  Ca44  1  0.91077237  0.17165918  0.82830595  1
  Ca2+  Ca45  1  0.91741140  0.67040679  0.16014973  1
  Ca2+  Ca46  1  0.92143453  0.67121574  0.48479423  1
  Ca2+  Ca47  1  0.91474312  0.66508698  0.83593710  1
  Al0+  Al48  1  0.00205434  -0.00037653  -0.00216614  1
  Al0+  Al49  1  0.00279330  -0.00011035  0.33536415  1
  Al0+  Al50  1  0.00241807  -0.00071969  0.67300560  1
  Al0+  Al51  1  -0.00077658  0.49828010  0.00269246  1
  Al0+  Al52  1  0.00159272  0.49762408  0.33785964  1
  Al0+  Al53  1  -0.00114091  0.49916218  0.66103123  1
  Al0+  Al54  1  0.50105692  0.00311813  -0.01127786  1
  Al0+  Al55  1  0.50171058  0.00232131  0.33358671  1
  Al0+  Al56  1  0.49854592  0.00013261  0.66572314  1
  Al0+  Al57  1  0.49605130  0.49966442  0.00747736  1
  Al0+  Al58  1  0.49839062  0.50102885  0.33063034  1
  Al0+  Al59  1  0.49925829  0.50034701  0.66710944  1
  Al0+  Al60  1  0.25203752  0.24849606  0.00019265  1
  Al0+  Al61  1  0.25050340  0.25086739  0.32920084  1
  Al0+  Al62  1  0.25034619  0.24828579  0.66926938  1
  Al0+  Al63  1  0.24877502  0.75083275  -0.00547792  1
  Al0+  Al64  1  0.25115002  0.74918306  0.33236550  1
  Al0+  Al65  1  0.24856172  0.75004266  0.66829136  1
  Al0+  Al66  1  0.75187729  0.24781885  0.00480816  1
  Al0+  Al67  1  0.75008734  0.25068524  0.33952539  1
  Al0+  Al68  1  0.75043546  0.24943123  0.66738037  1
  Al0+  Al69  1  0.74692333  0.75232091  -0.00348589  1
  Al0+  Al70  1  0.74966319  0.75070897  0.33652491  1
  Al0+  Al71  1  0.74945038  0.75086762  0.66181061  1
  Al0+  Al72  1  0.81984018  0.06827797  0.68230551  1
  Al0+  Al73  1  0.31984113  0.57423846  0.01642854  1
  Al0+  Al74  1  0.57028148  0.67824840  0.65299503  1
  Al0+  Al75  1  0.81950579  0.57423326  0.01326805  1
  Al0+  Al76  1  0.82271721  0.57221883  0.34901403  1
  Al0+  Al77  1  0.18172497  0.92788810  0.34585878  1
  Al0+  Al78  1  0.42876803  0.82124636  0.98546678  1
  Al0+  Al79  1  0.07159237  0.67584827  0.31855792  1
  Al0+  Al80  1  0.06933242  0.17999656  0.32012904  1
  Al0+  Al81  1  0.67754951  0.43084806  0.34915993  1
  Al0+  Al82  1  0.06783102  0.67708408  0.98485660  1
  Al0+  Al83  1  0.42928967  0.32252866  0.31857000  1
  Al0+  Al84  1  0.92769395  0.82088474  0.31989907  1
  Al0+  Al85  1  0.57224517  0.18325856  0.98592802  1
  Al0+  Al86  1  0.67620114  0.92860399  0.34704537  1
  Al0+  Al87  1  0.43145170  0.82182895  0.32102879  1
  Al0+  Al88  1  0.67895533  0.43122515  0.68094380  1
  Al0+  Al89  1  0.17762280  0.42690331  0.01499705  1
  Al0+  Al90  1  0.92830118  0.31990072  0.65258903  1
  Al0+  Al91  1  0.82350449  0.06988456  0.34873742  1
  Al0+  Al92  1  0.82264930  0.06843853  0.01415788  1
  Al0+  Al93  1  0.18009085  0.42704498  0.34844047  1
  Al0+  Al94  1  0.67835386  0.42712925  0.01520108  1
  Al0+  Al95  1  0.92600441  0.82267200  0.98395956  1
  Si0+  Si96  1  0.67508277  0.92663298  0.68464918  1
  Si0+  Si97  1  0.18112681  0.92838220  0.68443951  1
  Si0+  Si98  1  0.42664632  0.82195667  0.64895499  1
  Si0+  Si99  1  0.82361675  0.57376490  0.68231834  1
  Si0+  Si100  1  0.93062272  0.31820360  0.98715404  1
  Si0+  Si101  1  0.07395917  0.17733345  0.98420656  1
  Si0+  Si102  1  0.57236879  0.67816791  0.31554346  1
  Si0+  Si103  1  0.31872000  0.57025485  0.68070500  1
  Si0+  Si104  1  0.32272811  0.07253195  0.68305007  1
  Si0+  Si105  1  0.67578793  0.92959901  0.01260078  1
  Si0+  Si106  1  0.93063580  0.82259227  0.65228293  1
  Si0+  Si107  1  0.57091436  0.67567447  0.98458707  1
  Si0+  Si108  1  0.18124745  0.93095992  0.01481041  1
  Si0+  Si109  1  0.42765086  0.32009974  0.65280894  1
  Si0+  Si110  1  0.92603749  0.32145348  0.31546179  1
  Si0+  Si111  1  0.07132462  0.67925686  0.65143465  1
  Si0+  Si112  1  0.17773747  0.42773550  0.68059098  1
  Si0+  Si113  1  0.32418948  0.07051691  0.01425125  1
  Si0+  Si114  1  0.32089923  0.57243552  0.35180541  1
  Si0+  Si115  1  0.32207225  0.07272270  0.34860764  1
  Si0+  Si116  1  0.57371045  0.17930685  0.31703266  1
  Si0+  Si117  1  0.07391332  0.17717762  0.65100656  1
  Si0+  Si118  1  0.57108462  0.17917099  0.65037829  1
  Si0+  Si119  1  0.42661197  0.32285120  0.98175438  1
  O2-  O120  1  0.25383674  0.00023962  0.05695511  1
  O2-  O121  1  0.25720353  0.00142625  0.39498983  1
  O2-  O122  1  0.25342302  -0.00054962  0.72503987  1
  O2-  O123  1  0.24810794  0.50080759  0.06389631  1
  O2-  O124  1  0.25292297  0.50306838  0.39688254  1
  O2-  O125  1  0.24641893  0.50045441  0.72302408  1
  O2-  O126  1  0.75131835  -0.01037247  0.05742548  1
  O2-  O127  1  0.75239029  -0.00397445  0.39789842  1
  O2-  O128  1  0.74463451  -0.00602120  0.72953908  1
  O2-  O129  1  0.74401169  0.50566521  0.06254264  1
  O2-  O130  1  0.74981175  0.50150362  0.40037657  1
  O2-  O131  1  0.75395737  0.50615148  0.72661944  1
  O2-  O132  1  -0.00662848  0.25141701  0.27090810  1
  O2-  O133  1  0.00500635  0.24547255  0.60800164  1
  O2-  O134  1  0.00466227  0.25002354  0.94303221  1
  O2-  O135  1  -0.00577075  0.74329114  0.27101238  1
  O2-  O136  1  -0.00356397  0.74645433  0.61074161  1
  O2-  O137  1  -0.00723896  0.74550325  0.93302831  1
  O2-  O138  1  0.50748365  0.25089213  0.27378690  1
  O2-  O139  1  0.49902781  0.24990836  0.60956068  1
  O2-  O140  1  0.50112730  0.26106622  0.93631920  1
  O2-  O141  1  0.50831052  0.75159668  0.27195957  1
  O2-  O142  1  0.49821220  0.75643804  0.60629511  1
  O2-  O143  1  0.50137051  0.74421588  0.93972798  1
  O2-  O144  1  0.07489548  0.17433756  0.08872570  1
  O2-  O145  1  0.07013856  0.18159448  0.43378387  1
  O2-  O146  1  0.07684765  0.17812710  0.75690041  1
  O2-  O147  1  0.06998701  0.68009273  0.09735601  1
  O2-  O148  1  0.07300841  0.68063169  0.43351307  1
  O2-  O149  1  0.07444790  0.67962555  0.75621981  1
  O2-  O150  1  0.56870430  0.18106096  0.09841691  1
  O2-  O151  1  0.57045569  0.17775156  0.42322012  1
  O2-  O152  1  0.56986993  0.17971225  0.75558676  1
  O2-  O153  1  0.57161564  0.67820863  0.08956741  1
  O2-  O154  1  0.56738739  0.67628917  0.42162289  1
  O2-  O155  1  0.56536038  0.67792792  0.76613029  1
  O2-  O156  1  0.18368113  0.42486895  0.23625762  1
  O2-  O157  1  0.18051936  0.42562589  0.57598883  1
  O2-  O158  1  0.17944482  0.42659308  0.89989576  1
  O2-  O159  1  0.18321445  0.92962834  0.23296838  1
  O2-  O160  1  0.18111128  0.92682889  0.57970621  1
  O2-  O161  1  0.18200406  0.93424962  0.90874037  1
  O2-  O162  1  0.67867652  0.43201631  0.23595927  1
  O2-  O163  1  0.67693594  0.43230835  0.56855695  1
  O2-  O164  1  0.68288115  0.42693521  0.90093337  1
  O2-  O165  1  0.67053074  0.93511183  0.23373962  1
  O2-  O166  1  0.67270886  0.92915419  0.57959990  1
  O2-  O167  1  0.67421671  0.93361010  0.90661783  1
  O2-  O168  1  0.42165259  0.31673577  0.08649757  1
  O2-  O169  1  0.42864891  0.31848121  0.43290201  1
  O2-  O170  1  0.42428919  0.31785078  0.75759012  1
  O2-  O171  1  0.42981874  0.82456645  0.09810292  1
  O2-  O172  1  0.43033915  0.81765725  0.43459093  1
  O2-  O173  1  0.42472193  0.82143779  0.75452730  1
  O2-  O174  1  0.93052024  0.31516957  0.09170160  1
  O2-  O175  1  0.92789439  0.31953288  0.42159771  1
  O2-  O176  1  0.93053940  0.32019518  0.76630401  1
  O2-  O177  1  0.93143451  0.82706221  0.09638989  1
  O2-  O178  1  0.93372823  0.82245923  0.43454740  1
  O2-  O179  1  0.93340943  0.82389481  0.75722931  1
  O2-  O180  1  0.32038694  0.07210096  0.24300623  1
  O2-  O181  1  0.32355247  0.07628134  0.57865972  1
  O2-  O182  1  0.32144518  0.07050353  0.90834377  1
  O2-  O183  1  0.32039787  0.57378030  0.24682571  1
  O2-  O184  1  0.31791043  0.57106110  0.57596828  1
  O2-  O185  1  0.31857282  0.57191516  0.90133347  1
  O2-  O186  1  0.82250998  0.06964901  0.23526277  1
  O2-  O187  1  0.82107788  0.06714353  0.56989476  1
  O2-  O188  1  0.82090527  0.07079061  0.90048800  1
  O2-  O189  1  0.82122054  0.57117556  0.23558472  1
  O2-  O190  1  0.82471507  0.57222502  0.57728620  1
  O2-  O191  1  0.81931460  0.56980238  0.89880214  1
  O2-  O192  1  0.04255713  0.08261396  0.26648034  1
  O2-  O193  1  0.04908527  0.08190646  0.60817392  1
  O2-  O194  1  0.04519552  0.08732058  0.93342120  1
  O2-  O195  1  0.05146557  0.57403046  0.27098868  1
  O2-  O196  1  0.04911090  0.58599988  0.60435926  1
  O2-  O197  1  0.04408404  0.57665423  0.93193150  1
  O2-  O198  1  0.54472769  0.08790379  0.26940399  1
  O2-  O199  1  0.54183570  0.08702619  0.60407496  1
  O2-  O200  1  0.53744260  0.09054436  0.92524788  1
  O2-  O201  1  0.54128201  0.58738486  0.26796686  1
  O2-  O202  1  0.53430778  0.58356785  0.59786911  1
  O2-  O203  1  0.54329183  0.58144227  0.93958821  1
  O2-  O204  1  0.16543722  0.21028319  0.26531091  1
  O2-  O205  1  0.16812016  0.20186104  0.60528781  1
  O2-  O206  1  0.16703563  0.20204727  0.93611845  1
  O2-  O207  1  0.16842513  0.70922379  0.26700536  1
  O2-  O208  1  0.16216560  0.71139254  0.60415944  1
  O2-  O209  1  0.16387517  0.71222197  0.92871500  1
  O2-  O210  1  0.66807778  0.20370410  0.27291824  1
  O2-  O211  1  0.66219049  0.20669402  0.60334428  1
  O2-  O212  1  0.66998787  0.21220185  0.93188899  1
  O2-  O213  1  0.66784684  0.69825813  0.27318502  1
  O2-  O214  1  0.66753664  0.70540959  0.59816999  1
  O2-  O215  1  0.66278664  0.70119705  0.93438932  1
  O2-  O216  1  0.07885634  0.44993096  0.06713487  1
  O2-  O217  1  0.08399612  0.45388779  0.40527504  1
  O2-  O218  1  0.08454112  0.45451358  0.72559208  1
  O2-  O219  1  0.09092237  0.96208080  0.06106020  1
  O2-  O220  1  0.08827714  0.96197197  0.40364340  1
  O2-  O221  1  0.09154507  0.95801645  0.73502161  1
  O2-  O222  1  0.57596299  0.44393973  0.06268393  1
  O2-  O223  1  0.57766978  0.45934090  0.40013401  1
  O2-  O224  1  0.58105304  0.45998455  0.73503099  1
  O2-  O225  1  0.58446840  0.96459587  0.05752653  1
  O2-  O226  1  0.58002190  0.96194203  0.40459960  1
  O2-  O227  1  0.58021212  0.95194555  0.72957983  1
  O2-  O228  1  0.20822491  0.32779961  0.06533983  1
  O2-  O229  1  0.21541704  0.33154067  0.40342467  1
  O2-  O230  1  0.20609073  0.33611251  0.72882028  1
  O2-  O231  1  0.20789087  0.83868898  0.05885457  1
  O2-  O232  1  0.21429111  0.83276625  0.40290538  1
  O2-  O233  1  0.20977889  0.83711825  0.73337401  1
  O2-  O234  1  0.71352064  0.33210933  0.06917356  1
  O2-  O235  1  0.70312210  0.33178372  0.40255705  1
  O2-  O236  1  0.71054006  0.33379698  0.73277040  1
  O2-  O237  1  0.68908923  0.83298187  0.05499523  1
  O2-  O238  1  0.69633170  0.82863489  0.39934131  1
  O2-  O239  1  0.69978313  0.83160812  0.72841127  1
  O2-  O240  1  0.45425009  0.42001163  0.26478120  1
  O2-  O241  1  0.45362553  0.41223130  0.60622793  1
  O2-  O242  1  0.44343027  0.41994154  0.93987869  1
  O2-  O243  1  0.45633315  0.92090833  0.26866285  1
  O2-  O244  1  0.44642451  0.91794438  0.60515799  1
  O2-  O245  1  0.46009676  0.91638533  0.92716219  1
  O2-  O246  1  0.95508129  0.41421622  0.27146898  1
  O2-  O247  1  0.95811589  0.41594883  0.59670719  1
  O2-  O248  1  0.95579503  0.40991447  0.93795047  1
  O2-  O249  1  0.96320128  0.91729244  0.26847379  1
  O2-  O250  1  0.96618071  0.91276815  0.60627007  1
  O2-  O251  1  0.96517432  0.91800494  0.92810207  1
  O2-  O252  1  0.33590700  0.28673341  0.26305142  1
  O2-  O253  1  0.33593729  0.29004776  0.60510525  1
  O2-  O254  1  0.33617311  0.28899441  0.93173717  1
  O2-  O255  1  0.33590948  0.78891077  0.26724718  1
  O2-  O256  1  0.33320480  0.79228172  0.60407610  1
  O2-  O257  1  0.33267222  0.79300740  0.92848455  1
  O2-  O258  1  0.83130677  0.29757212  0.27197853  1
  O2-  O259  1  0.83291581  0.28670065  0.59819149  1
  O2-  O260  1  0.84070946  0.28594760  0.93848463  1
  O2-  O261  1  0.82615993  0.80203257  0.27029361  1
  O2-  O262  1  0.83620312  0.80376289  0.60698015  1
  O2-  O263  1  0.82533022  0.80257734  0.93055847  1
  O2-  O264  1  0.41689551  0.04346378  0.05822918  1
  O2-  O265  1  0.41645322  0.05181400  0.39466421  1
  O2-  O266  1  0.41475962  0.04564184  0.73146266  1
  O2-  O267  1  0.41738398  0.54915582  0.07117395  1
  O2-  O268  1  0.41419147  0.54537891  0.39779519  1
  O2-  O269  1  0.40925188  0.54082092  0.72906461  1
  O2-  O270  1  0.92158394  0.04177848  0.06472696  1
  O2-  O271  1  0.92137087  0.04211615  0.40362064  1
  O2-  O272  1  0.91797094  0.03970815  0.73614800  1
  O2-  O273  1  0.91644271  0.54246920  0.06525411  1
  O2-  O274  1  0.92055837  0.54298543  0.40292508  1
  O2-  O275  1  0.91804716  0.54686529  0.72714359  1
  O2-  O276  1  0.29764002  0.16223717  0.06108000  1
  O2-  O277  1  0.29197038  0.16428498  0.39614121  1
  O2-  O278  1  0.29285344  0.16254259  0.73421721  1
  O2-  O279  1  0.29125187  0.67376879  0.06572972  1
  O2-  O280  1  0.29459239  0.66470721  0.40048761  1
  O2-  O281  1  0.29155228  0.66256642  0.72843423  1
  O2-  O282  1  0.78958487  0.16246771  0.06945616  1
  O2-  O283  1  0.79313272  0.16732540  0.40273032  1
  O2-  O284  1  0.78765597  0.16505312  0.73507111  1
  O2-  O285  1  0.79489612  0.67499852  0.06302550  1
  O2-  O286  1  0.79705624  0.67110241  0.40234905  1
  O2-  O287  1  0.80015694  0.66934372  0.72554609  1
