# generated using pymatgen
data_Ca2Al2SiO7
_symmetry_space_group_name_H-M   'P 1'
_cell_length_a   15.45786833
_cell_length_b   15.45765736
_cell_length_c   15.28359788
_cell_angle_alpha   89.99532817
_cell_angle_beta   89.98889150
_cell_angle_gamma   89.99184614
_symmetry_Int_Tables_number   1
_chemical_formula_structural   Ca2Al2SiO7
_chemical_formula_sum   'Ca48 Al48 Si24 O168'
_cell_volume   3651.89993183
_cell_formula_units_Z   24
loop_
 _symmetry_equiv_pos_site_id
 _symmetry_equiv_pos_as_xyz
  1  'x, y, z'
loop_
 _atom_type_symbol
 _atom_type_oxidation_number
  Ca2+  2.0
  Al0+  0.0
  Si0+  0.0
  O2-  -2.0
loop_
 _atom_site_type_symbol
 _atom_site_label
 _atom_site_symmetry_multiplicity
 _atom_site_fract_x
 _atom_site_fract_y
 _atom_site_fract_z
 _atom_site_occupancy
  Ca2+  Ca0  1  0.16418359  0.08227067  0.17770996  1
  Ca2+  Ca1  1  0.17319099  0.08163244  0.49694832  1
  Ca2+  Ca2  1  0.16882561  0.08548712  0.83541855  1
  Ca2+  Ca3  1  0.16648968  0.58058073  0.17052637  1
  Ca2+  Ca4  1  0.16988107  0.57456725  0.50605198  1
  Ca2+  Ca5  1  0.17867108  0.59087351  0.84032964  1
  Ca2+  Ca6  1  0.67726302  0.08274284  0.16906213  1
  Ca2+  Ca7  1  0.67233899  0.07400593  0.51180787  1
  Ca2+  Ca8  1  0.67700707  0.07611460  0.83505367  1
  Ca2+  Ca9  1  0.66463461  0.58869801  0.16881887  1
  Ca2+  Ca10  1  0.66859102  0.58749364  0.50512827  1
  Ca2+  Ca11  1  0.66951937  0.58978330  0.83487002  1
  Ca2+  Ca12  1  0.08051282  0.32581519  0.16489770  1
  Ca2+  Ca13  1  0.07577773  0.32915340  0.49051968  1
  Ca2+  Ca14  1  0.07278094  0.32830898  0.83056361  1
  Ca2+  Ca15  1  0.07662370  0.83788569  0.16233966  1
  Ca2+  Ca16  1  0.07819987  0.83499969  0.49315195  1
  Ca2+  Ca17  1  0.07957703  0.83063053  0.83781799  1
  Ca2+  Ca18  1  0.57536831  0.33402418  0.16731262  1
  Ca2+  Ca19  1  0.57479043  0.33080166  0.49439519  1
  Ca2+  Ca20  1  0.58343141  0.33021438  0.83098209  1
  Ca2+  Ca21  1  0.57683507  0.82336094  0.16534152  1
  Ca2+  Ca22  1  0.57736324  0.82829873  0.49679354  1
  Ca2+  Ca23  1  0.58051343  0.82467444  0.82315294  1
  Ca2+  Ca24  1  0.32719690  0.42205629  0.17557013  1
  Ca2+  Ca25  1  0.32737947  0.41706308  0.50196065  1
  Ca2+  Ca26  1  0.33505883  0.43242281  0.83898721  1
  Ca2+  Ca27  1  0.32366498  0.92175190  0.18025112  1
  Ca2+  Ca28  1  0.33723822  0.92084639  0.50373634  1
  Ca2+  Ca29  1  0.33666032  0.91857805  0.83317977  1
  Ca2+  Ca30  1  0.83845392  0.41482437  0.17025429  1
  Ca2+  Ca31  1  0.83719398  0.42097186  0.50773961  1
  Ca2+  Ca32  1  0.83773832  0.41693779  0.83394817  1
  Ca2+  Ca33  1  0.84355076  0.91895341  0.16986643  1
  Ca2+  Ca34  1  0.82826756  0.91991337  0.50873624  1
  Ca2+  Ca35  1  0.83240017  0.92246288  0.83848904  1
  Ca2+  Ca36  1  0.40451162  0.17412838  0.16953323  1
  Ca2+  Ca37  1  0.41161813  0.16634210  0.49275744  1
  Ca2+  Ca38  1  0.41568157  0.16638303  0.82568668  1
  Ca2+  Ca39  1  0.42265508  0.66614371  0.16158500  1
  Ca2+  Ca40  1  0.42450373  0.67399855  0.49621576  1
  Ca2+  Ca41  1  0.42370367  0.66704899  0.82305851  1
  Ca2+  Ca42  1  0.92996600  0.17056848  0.15737185  1
  Ca2+  Ca43  1  0.91740847  0.17574161  0.49232716  1
  Ca2+  Ca44  1  0.91262950  0.17084375  0.83054255  1
  Ca2+  Ca45  1  0.92539115  0.68027069  0.16013194  1
  Ca2+  Ca46  1  0.91376422  0.67156282  0.49439539  1
  Ca2+  Ca47  1  0.92043177  0.66626552  0.82970557  1
  Al0+  Al48  1  0.00122960  0.00148481  -0.00550951  1
  Al0+  Al49  1  0.00101718  0.00141808  0.33359451  1
  Al0+  Al50  1  0.00281042  0.00032542  0.67003641  1
  Al0+  Al51  1  0.00096012  0.49972753  -0.00562329  1
  Al0+  Al52  1  -0.00035781  0.50119903  0.33505421  1
  Al0+  Al53  1  -0.00137592  0.49771876  0.66705285  1
  Al0+  Al54  1  0.50141058  0.00114102  0.00367990  1
  Al0+  Al55  1  0.50293564  -0.00177606  0.33154016  1
  Al0+  Al56  1  0.49948955  -0.00071691  0.67269242  1
  Al0+  Al57  1  0.50034659  0.50093679  0.00113059  1
  Al0+  Al58  1  0.50253477  0.49786689  0.32748578  1
  Al0+  Al59  1  0.49950776  0.49839266  0.66582388  1
  Al0+  Al60  1  0.24916360  0.25311484  -0.00604391  1
  Al0+  Al61  1  0.24958086  0.25182158  0.33415604  1
  Al0+  Al62  1  0.24716799  0.24812286  0.67143772  1
  Al0+  Al63  1  0.25124722  0.75325366  0.00355767  1
  Al0+  Al64  1  0.25082407  0.74970039  0.33630021  1
  Al0+  Al65  1  0.24955030  0.74939623  0.66620355  1
  Al0+  Al66  1  0.74820439  0.24937921  0.00290961  1
  Al0+  Al67  1  0.74794091  0.25253192  0.33214824  1
  Al0+  Al68  1  0.74935455  0.25054042  0.66509211  1
  Al0+  Al69  1  0.74729404  0.75005318  -0.00552492  1
  Al0+  Al70  1  0.75136391  0.75036752  0.32460540  1
  Al0+  Al71  1  0.75040394  0.74782596  0.67154949  1
  Al0+  Al72  1  0.57058374  0.67947313  0.31701614  1
  Al0+  Al73  1  0.92679044  0.32414928  0.31845054  1
  Al0+  Al74  1  0.32234760  0.07015630  0.34707662  1
  Al0+  Al75  1  0.56775014  0.67854423  0.98310260  1
  Al0+  Al76  1  0.92887865  0.31892059  0.65048311  1
  Al0+  Al77  1  0.92598031  0.32037551  0.98361173  1
  Al0+  Al78  1  0.93101012  0.82099037  0.32272661  1
  Al0+  Al79  1  0.42895300  0.31874337  0.32103389  1
  Al0+  Al80  1  0.82098789  0.06961608  0.01556859  1
  Al0+  Al81  1  0.82250597  0.07244998  0.68048218  1
  Al0+  Al82  1  0.17849933  0.43103635  0.34679553  1
  Al0+  Al83  1  0.57264549  0.67721732  0.65065032  1
  Al0+  Al84  1  0.82082478  0.56959761  0.68007091  1
  Al0+  Al85  1  0.31951891  0.06995257  0.68117509  1
  Al0+  Al86  1  0.67913868  0.92730196  0.68199319  1
  Al0+  Al87  1  0.42786644  0.82210912  0.65155919  1
  Al0+  Al88  1  0.07279293  0.17899850  0.98185050  1
  Al0+  Al89  1  0.42686443  0.82286274  0.31728991  1
  Al0+  Al90  1  0.31987738  0.56925151  0.67829844  1
  Al0+  Al91  1  0.32147372  0.57263532  0.01558892  1
  Al0+  Al92  1  0.92865433  0.82141652  0.98287451  1
  Al0+  Al93  1  0.17679791  0.92687515  0.34914400  1
  Al0+  Al94  1  0.07331874  0.67904352  0.98599364  1
  Al0+  Al95  1  0.06970514  0.18088060  0.32009364  1
  Si0+  Si96  1  0.32259368  0.07434000  0.01470882  1
  Si0+  Si97  1  0.17704531  0.92527870  0.68626815  1
  Si0+  Si98  1  0.07326303  0.67650307  0.32057850  1
  Si0+  Si99  1  0.57039699  0.17863033  0.98539025  1
  Si0+  Si100  1  0.32589302  0.57120192  0.35041705  1
  Si0+  Si101  1  0.93006447  0.82076750  0.65344304  1
  Si0+  Si102  1  0.67782624  0.92650066  0.02002636  1
  Si0+  Si103  1  0.42834120  0.82480259  0.98392197  1
  Si0+  Si104  1  0.42702527  0.31988107  0.65359546  1
  Si0+  Si105  1  0.07383586  0.17656801  0.64702695  1
  Si0+  Si106  1  0.82193611  0.57182224  0.01493918  1
  Si0+  Si107  1  0.81890414  0.57122469  0.34523389  1
  Si0+  Si108  1  0.17679336  0.42726332  0.68578833  1
  Si0+  Si109  1  0.07095552  0.67796364  0.65150644  1
  Si0+  Si110  1  0.67747476  0.42828652  0.34878435  1
  Si0+  Si111  1  0.42965374  0.32081133  0.98412086  1
  Si0+  Si112  1  0.68193440  0.92756116  0.34656902  1
  Si0+  Si113  1  0.56962051  0.17906874  0.65363262  1
  Si0+  Si114  1  0.17850121  0.42882184  0.01635119  1
  Si0+  Si115  1  0.67649818  0.42721540  0.68279784  1
  Si0+  Si116  1  0.82082812  0.07241792  0.34736120  1
  Si0+  Si117  1  0.57355580  0.17601858  0.31675795  1
  Si0+  Si118  1  0.67909278  0.42907078  0.01653936  1
  Si0+  Si119  1  0.18076458  0.93192641  0.01483032  1
  O2-  O120  1  0.25113578  0.00440504  0.05605265  1
  O2-  O121  1  0.25408168  -0.00531191  0.39767239  1
  O2-  O122  1  0.24693362  -0.00591659  0.72906186  1
  O2-  O123  1  0.24398298  0.50037175  0.06133548  1
  O2-  O124  1  0.25289574  0.50642962  0.39402226  1
  O2-  O125  1  0.24578613  0.49592110  0.72924537  1
  O2-  O126  1  0.75061129  -0.00880672  0.06445085  1
  O2-  O127  1  0.75015585  0.00111862  0.38949855  1
  O2-  O128  1  0.75395192  -0.00265527  0.73105260  1
  O2-  O129  1  0.75214485  0.49907732  0.05749547  1
  O2-  O130  1  0.75076509  0.49767228  0.38868353  1
  O2-  O131  1  0.74391684  0.49684229  0.72688226  1
  O2-  O132  1  -0.00368842  0.25065232  0.26885064  1
  O2-  O133  1  0.00128837  0.24204368  0.60454156  1
  O2-  O134  1  -0.00309048  0.24771905  0.93328035  1
  O2-  O135  1  0.01148824  0.75177679  0.27736139  1
  O2-  O136  1  -0.00007882  0.74929217  0.60961560  1
  O2-  O137  1  -0.00264565  0.74560728  0.93356831  1
  O2-  O138  1  0.50010291  0.24050199  0.27330807  1
  O2-  O139  1  0.49596278  0.24706614  0.61090549  1
  O2-  O140  1  0.49676117  0.24631925  0.94163878  1
  O2-  O141  1  0.49403951  0.74649024  0.26689584  1
  O2-  O142  1  0.50092217  0.75029264  0.60266301  1
  O2-  O143  1  0.49414424  0.75453459  0.93841441  1
  O2-  O144  1  0.07560276  0.18029842  0.09518247  1
  O2-  O145  1  0.06760995  0.18110632  0.43374071  1
  O2-  O146  1  0.07662061  0.17961810  0.75243877  1
  O2-  O147  1  0.07194930  0.68096089  0.09980498  1
  O2-  O148  1  0.06739423  0.67284161  0.42639969  1
  O2-  O149  1  0.07136307  0.67861637  0.75641550  1
  O2-  O150  1  0.57058982  0.18029898  0.09039571  1
  O2-  O151  1  0.57711849  0.17917303  0.42249389  1
  O2-  O152  1  0.56941222  0.18243579  0.75911259  1
  O2-  O153  1  0.56668777  0.67774632  0.09606061  1
  O2-  O154  1  0.57379831  0.68058776  0.43017576  1
  O2-  O155  1  0.56949897  0.67644055  0.76421707  1
  O2-  O156  1  0.17941763  0.43286441  0.23357241  1
  O2-  O157  1  0.17793145  0.42773806  0.57990083  1
  O2-  O158  1  0.18333898  0.42714967  0.91080912  1
  O2-  O159  1  0.17465901  0.93083025  0.23519690  1
  O2-  O160  1  0.17365138  0.92507421  0.58115338  1
  O2-  O161  1  0.18341864  0.93004994  0.90963167  1
  O2-  O162  1  0.67539137  0.42709171  0.24372590  1
  O2-  O163  1  0.67575045  0.42528705  0.57721031  1
  O2-  O164  1  0.67611869  0.42772730  0.91148378  1
  O2-  O165  1  0.68366321  0.92845644  0.24149445  1
  O2-  O166  1  0.68091902  0.92969578  0.56749653  1
  O2-  O167  1  0.67459263  0.93049119  0.91481512  1
  O2-  O168  1  0.42981666  0.32010694  0.08917185  1
  O2-  O169  1  0.43191594  0.31971315  0.43444938  1
  O2-  O170  1  0.43029806  0.31984941  0.75906427  1
  O2-  O171  1  0.43026803  0.82577526  0.08926494  1
  O2-  O172  1  0.43189715  0.82416105  0.43054129  1
  O2-  O173  1  0.42836249  0.82047502  0.76559131  1
  O2-  O174  1  0.92688882  0.31935380  0.09693097  1
  O2-  O175  1  0.92678658  0.32301294  0.43218845  1
  O2-  O176  1  0.92940720  0.31898494  0.76325753  1
  O2-  O177  1  0.93233356  0.82163740  0.09678098  1
  O2-  O178  1  0.92641726  0.81774807  0.43626566  1
  O2-  O179  1  0.93234178  0.81965681  0.75814224  1
  O2-  O180  1  0.31860561  0.07154404  0.23293391  1
  O2-  O181  1  0.31877093  0.07365232  0.56882810  1
  O2-  O182  1  0.32426333  0.07262589  0.90954819  1
  O2-  O183  1  0.32600321  0.56801880  0.24457235  1
  O2-  O184  1  0.31771362  0.56546465  0.56537068  1
  O2-  O185  1  0.32286232  0.56997346  0.90223182  1
  O2-  O186  1  0.81975804  0.07194368  0.24220805  1
  O2-  O187  1  0.81885849  0.07183731  0.56620597  1
  O2-  O188  1  0.81590217  0.07058438  0.90280519  1
  O2-  O189  1  0.81780680  0.57144284  0.24010583  1
  O2-  O190  1  0.82192582  0.56929750  0.56641885  1
  O2-  O191  1  0.82009254  0.57075295  0.90986394  1
  O2-  O192  1  0.04195078  0.08281596  0.26664911  1
  O2-  O193  1  0.05349355  0.08026764  0.60478368  1
  O2-  O194  1  0.04818380  0.08068407  0.92831039  1
  O2-  O195  1  0.04055378  0.58720013  0.27053339  1
  O2-  O196  1  0.04228505  0.58598151  0.60500200  1
  O2-  O197  1  0.05101821  0.57989172  0.93226962  1
  O2-  O198  1  0.55605673  0.08135732  0.27078260  1
  O2-  O199  1  0.54431015  0.08644643  0.60805040  1
  O2-  O200  1  0.54489749  0.08599017  0.93850870  1
  O2-  O201  1  0.54798528  0.57937642  0.26468432  1
  O2-  O202  1  0.54436961  0.57759108  0.59909048  1
  O2-  O203  1  0.53810146  0.58085824  0.93060372  1
  O2-  O204  1  0.16734032  0.21075182  0.26733522  1
  O2-  O205  1  0.16631943  0.20712084  0.60113883  1
  O2-  O206  1  0.16998627  0.21095389  0.92651109  1
  O2-  O207  1  0.16996341  0.69175262  0.27831214  1
  O2-  O208  1  0.16197089  0.70498202  0.60291018  1
  O2-  O209  1  0.17065369  0.71389007  0.93354146  1
  O2-  O210  1  0.66352005  0.20917099  0.26723679  1
  O2-  O211  1  0.65928435  0.20918494  0.60367856  1
  O2-  O212  1  0.65966824  0.21100333  0.93674270  1
  O2-  O213  1  0.66628669  0.71271770  0.26061424  1
  O2-  O214  1  0.67289962  0.70424320  0.60055196  1
  O2-  O215  1  0.66498450  0.70683370  0.93013750  1
  O2-  O216  1  0.08313052  0.45094883  0.06013985  1
  O2-  O217  1  0.08238014  0.46221080  0.40314518  1
  O2-  O218  1  0.08362047  0.45380940  0.73088296  1
  O2-  O219  1  0.08811806  0.95903574  0.06009508  1
  O2-  O220  1  0.08002482  0.95996401  0.40448068  1
  O2-  O221  1  0.08499187  0.95264476  0.73506916  1
  O2-  O222  1  0.58832813  0.45945536  0.06522011  1
  O2-  O223  1  0.58663948  0.45731624  0.39781966  1
  O2-  O224  1  0.58244699  0.44933303  0.72996171  1
  O2-  O225  1  0.58616330  0.95827749  0.06805904  1
  O2-  O226  1  0.58977153  0.95279544  0.39410027  1
  O2-  O227  1  0.58317645  0.95895107  0.73763857  1
  O2-  O228  1  0.20944895  0.33627158  0.06237005  1
  O2-  O229  1  0.21160130  0.33632822  0.40259784  1
  O2-  O230  1  0.20189098  0.33397466  0.73198927  1
  O2-  O231  1  0.20801981  0.84153498  0.06525460  1
  O2-  O232  1  0.19689857  0.82562044  0.40081734  1
  O2-  O233  1  0.20240515  0.83189023  0.73282286  1
  O2-  O234  1  0.70339668  0.33716183  0.06580268  1
  O2-  O235  1  0.70112313  0.33576075  0.39791150  1
  O2-  O236  1  0.70368252  0.33457059  0.73042578  1
  O2-  O237  1  0.69903008  0.83050459  0.06278592  1
  O2-  O238  1  0.71414281  0.83666179  0.39286781  1
  O2-  O239  1  0.70575142  0.82950430  0.73563411  1
  O2-  O240  1  0.46479989  0.41166894  0.26315225  1
  O2-  O241  1  0.45642912  0.40963003  0.60396498  1
  O2-  O242  1  0.46366295  0.41047457  0.93683372  1
  O2-  O243  1  0.45930843  0.91973300  0.26274773  1
  O2-  O244  1  0.45652212  0.92210324  0.60184621  1
  O2-  O245  1  0.45590017  0.91903421  0.93895765  1
  O2-  O246  1  0.95612765  0.42261963  0.26680309  1
  O2-  O247  1  0.96127226  0.41601067  0.59754359  1
  O2-  O248  1  0.95392189  0.41898852  0.93091554  1
  O2-  O249  1  0.95784724  0.91818293  0.26893772  1
  O2-  O250  1  0.95796221  0.91331409  0.60696396  1
  O2-  O251  1  0.96131594  0.91751625  0.92885665  1
  O2-  O252  1  0.33314538  0.29145645  0.26444383  1
  O2-  O253  1  0.33378544  0.29319613  0.60910272  1
  O2-  O254  1  0.33821093  0.29761971  0.93454654  1
  O2-  O255  1  0.32548674  0.79992175  0.26770099  1
  O2-  O256  1  0.32882379  0.79424398  0.59966594  1
  O2-  O257  1  0.33350998  0.80304516  0.94003144  1
  O2-  O258  1  0.82590908  0.30096530  0.26853849  1
  O2-  O259  1  0.83013786  0.29249951  0.59746932  1
  O2-  O260  1  0.82572623  0.29297809  0.93332662  1
  O2-  O261  1  0.83923240  0.78615079  0.26261229  1
  O2-  O262  1  0.83781051  0.79298766  0.60767071  1
  O2-  O263  1  0.82874676  0.79707481  0.93255530  1
  O2-  O264  1  0.41497748  0.04950101  0.06259658  1
  O2-  O265  1  0.42429813  0.04727646  0.39673614  1
  O2-  O266  1  0.41620574  0.04341672  0.73766133  1
  O2-  O267  1  0.41633344  0.53540206  0.06926754  1
  O2-  O268  1  0.41833369  0.53896979  0.39465863  1
  O2-  O269  1  0.41597130  0.53602122  0.73299435  1
  O2-  O270  1  0.92022241  0.04146698  0.06565556  1
  O2-  O271  1  0.91198247  0.04580197  0.39513634  1
  O2-  O272  1  0.92239310  0.04853951  0.73182722  1
  O2-  O273  1  0.91524300  0.54618656  0.06064777  1
  O2-  O274  1  0.91081813  0.54726738  0.39436461  1
  O2-  O275  1  0.91644418  0.53653346  0.73520427  1
  O2-  O276  1  0.29576521  0.16854639  0.05777604  1
  O2-  O277  1  0.29283428  0.16860483  0.39950741  1
  O2-  O278  1  0.28853246  0.16620203  0.73797002  1
  O2-  O279  1  0.29447165  0.67051944  0.06883999  1
  O2-  O280  1  0.30615524  0.66648494  0.39445522  1
  O2-  O281  1  0.28946173  0.66586561  0.73253868  1
  O2-  O282  1  0.78376467  0.16445685  0.07011541  1
  O2-  O283  1  0.79079197  0.16462288  0.39335443  1
  O2-  O284  1  0.78778718  0.16918802  0.73319537  1
  O2-  O285  1  0.79138667  0.66378375  0.06099223  1
  O2-  O286  1  0.78797674  0.66259466  0.39229399  1
  O2-  O287  1  0.79401860  0.66523601  0.73709379  1
