# generated using pymatgen
data_Ca2Al2SiO7
_symmetry_space_group_name_H-M   'P 1'
_cell_length_a   15.45428868
_cell_length_b   15.45388364
_cell_length_c   15.28035158
_cell_angle_alpha   90.01115148
_cell_angle_beta   89.99654855
_cell_angle_gamma   89.99793443
_symmetry_Int_Tables_number   1
_chemical_formula_structural   Ca2Al2SiO7
_chemical_formula_sum   'Ca48 Al48 Si24 O168'
_cell_volume   3649.38763261
_cell_formula_units_Z   24
loop_
 _symmetry_equiv_pos_site_id
 _symmetry_equiv_pos_as_xyz
  1  'x, y, z'
loop_
 _atom_type_symbol
 _atom_type_oxidation_number
  Ca2+  2.0
  Al0+  0.0
  Si0+  0.0
  O2-  -2.0
loop_
 _atom_site_type_symbol
 _atom_site_label
 _atom_site_symmetry_multiplicity
 _atom_site_fract_x
 _atom_site_fract_y
 _atom_site_fract_z
 _atom_site_occupancy
  Ca2+  Ca0  1  0.16112552  0.07326395  0.17195828  1
  Ca2+  Ca1  1  0.16780339  0.07678230  0.50469942  1
  Ca2+  Ca2  1  0.16897129  0.07410276  0.83386843  1
  Ca2+  Ca3  1  0.17817128  0.58631184  0.17511486  1
  Ca2+  Ca4  1  0.16893647  0.58086093  0.49873511  1
  Ca2+  Ca5  1  0.17316557  0.57617148  0.83875235  1
  Ca2+  Ca6  1  0.67069427  0.08827364  0.16962025  1
  Ca2+  Ca7  1  0.66505090  0.07936609  0.50361865  1
  Ca2+  Ca8  1  0.67100462  0.06940738  0.84125960  1
  Ca2+  Ca9  1  0.66982125  0.57995095  0.16934638  1
  Ca2+  Ca10  1  0.66588320  0.57537338  0.49875392  1
  Ca2+  Ca11  1  0.67288762  0.58487052  0.84430342  1
  Ca2+  Ca12  1  0.07542010  0.32874446  0.16352782  1
  Ca2+  Ca13  1  0.08201232  0.32801873  0.49164709  1
  Ca2+  Ca14  1  0.07946586  0.33635064  0.82916613  1
  Ca2+  Ca15  1  0.08507191  0.83243906  0.16777703  1
  Ca2+  Ca16  1  0.07835412  0.83664061  0.48997097  1
  Ca2+  Ca17  1  0.08058101  0.83808731  0.82838176  1
  Ca2+  Ca18  1  0.57829524  0.33499873  0.16734845  1
  Ca2+  Ca19  1  0.57389011  0.32730205  0.48849334  1
  Ca2+  Ca20  1  0.56906146  0.33295019  0.82943409  1
  Ca2+  Ca21  1  0.57615333  0.83032718  0.15968029  1
  Ca2+  Ca22  1  0.57635223  0.83526284  0.49433865  1
  Ca2+  Ca23  1  0.59455393  0.82866167  0.83164882  1
  Ca2+  Ca24  1  0.34587833  0.42658822  0.17121648  1
  Ca2+  Ca25  1  0.33309815  0.41779527  0.50405302  1
  Ca2+  Ca26  1  0.33071747  0.41456858  0.83748979  1
  Ca2+  Ca27  1  0.32247230  0.91038008  0.17539407  1
  Ca2+  Ca28  1  0.32325879  0.92081090  0.50386179  1
  Ca2+  Ca29  1  0.32351970  0.92121780  0.83753850  1
  Ca2+  Ca30  1  0.83351359  0.41637941  0.17362688  1
  Ca2+  Ca31  1  0.82764913  0.40936078  0.49815370  1
  Ca2+  Ca32  1  0.83333753  0.42405992  0.84568087  1
  Ca2+  Ca33  1  0.82915440  0.91913337  0.16863068  1
  Ca2+  Ca34  1  0.83216970  0.91282074  0.50580778  1
  Ca2+  Ca35  1  0.82655970  0.91746224  0.84090032  1
  Ca2+  Ca36  1  0.42087969  0.17769569  0.16386166  1
  Ca2+  Ca37  1  0.41570649  0.17375753  0.49289301  1
  Ca2+  Ca38  1  0.40858847  0.17486928  0.82735064  1
  Ca2+  Ca39  1  0.41707685  0.66666163  0.16238706  1
  Ca2+  Ca40  1  0.41270936  0.67395093  0.49047874  1
  Ca2+  Ca41  1  0.42166403  0.66354722  0.83686456  1
  Ca2+  Ca42  1  0.91670179  0.17420688  0.16462935  1
  Ca2+  Ca43  1  0.92718780  0.16995414  0.48747907  1
  Ca2+  Ca44  1  0.91250160  0.16774959  0.83623183  1
  Ca2+  Ca45  1  0.92066237  0.66798185  0.16493816  1
  Ca2+  Ca46  1  0.92653461  0.67987912  0.49205083  1
  Ca2+  Ca47  1  0.91609642  0.67226322  0.82735161  1
  Al0+  Al48  1  -0.00060333  0.00035249  0.00643335  1
  Al0+  Al49  1  -0.00202645  -0.00011977  0.32991624  1
  Al0+  Al50  1  -0.00123261  0.00171118  0.66650583  1
  Al0+  Al51  1  0.00066322  0.50008290  -0.00051692  1
  Al0+  Al52  1  0.00152597  0.50278679  0.32877477  1
  Al0+  Al53  1  0.00055927  0.50122555  0.66839001  1
  Al0+  Al54  1  0.49731462  -0.00016498  0.00200299  1
  Al0+  Al55  1  0.49952065  0.00000907  0.32475224  1
  Al0+  Al56  1  0.50161794  -0.00070473  0.67668713  1
  Al0+  Al57  1  0.50010348  0.50090644  -0.00667289  1
  Al0+  Al58  1  0.50196194  0.50115174  0.34175242  1
  Al0+  Al59  1  0.50107416  0.49950220  0.66253890  1
  Al0+  Al60  1  0.24781087  0.24802418  -0.00435186  1
  Al0+  Al61  1  0.25055009  0.25065423  0.32277682  1
  Al0+  Al62  1  0.24809976  0.25232583  0.66980806  1
  Al0+  Al63  1  0.25024692  0.74845630  0.00392134  1
  Al0+  Al64  1  0.24973440  0.75044672  0.33658068  1
  Al0+  Al65  1  0.25148114  0.74778276  0.67109485  1
  Al0+  Al66  1  0.74896145  0.24911944  -0.00370696  1
  Al0+  Al67  1  0.74951631  0.24958190  0.33375625  1
  Al0+  Al68  1  0.74771807  0.25065411  0.66846059  1
  Al0+  Al69  1  0.74997016  0.74898213  0.00551699  1
  Al0+  Al70  1  0.75083058  0.74978884  0.33242319  1
  Al0+  Al71  1  0.75150230  0.74896658  0.66306890  1
  Al0+  Al72  1  0.82305613  0.57064783  0.01419062  1
  Al0+  Al73  1  0.92914283  0.32120760  0.98481030  1
  Al0+  Al74  1  0.17691264  0.92730218  0.68084355  1
  Al0+  Al75  1  0.17865374  0.43075426  0.67912678  1
  Al0+  Al76  1  0.32128499  0.57011541  0.34830967  1
  Al0+  Al77  1  0.42969649  0.32020579  0.98455211  1
  Al0+  Al78  1  0.67729006  0.92746612  0.01793744  1
  Al0+  Al79  1  0.32103895  0.07190526  0.68012098  1
  Al0+  Al80  1  0.42908648  0.32396036  0.31862078  1
  Al0+  Al81  1  0.92882582  0.32170787  0.32024271  1
  Al0+  Al82  1  0.18049839  0.92944482  0.01545661  1
  Al0+  Al83  1  0.92681980  0.82207619  0.31544723  1
  Al0+  Al84  1  0.42771987  0.31980289  0.65087773  1
  Al0+  Al85  1  0.07304326  0.17766757  0.31788649  1
  Al0+  Al86  1  0.57124691  0.17765389  0.31873550  1
  Al0+  Al87  1  0.07241950  0.68054683  0.31783791  1
  Al0+  Al88  1  0.32096022  0.56701051  0.01299292  1
  Al0+  Al89  1  0.42915230  0.82044029  0.32172615  1
  Al0+  Al90  1  0.57096600  0.68183399  0.98720478  1
  Al0+  Al91  1  0.17854466  0.93118820  0.34795234  1
  Al0+  Al92  1  0.68075807  0.92787157  0.67872392  1
  Al0+  Al93  1  0.93063597  0.82135963  0.65479585  1
  Al0+  Al94  1  0.81936879  0.07209397  0.01706127  1
  Al0+  Al95  1  0.68152503  0.42901221  0.34745085  1
  Si0+  Si96  1  0.07014055  0.17603401  0.97973411  1
  Si0+  Si97  1  0.57236822  0.67774788  0.31859196  1
  Si0+  Si98  1  0.06881556  0.18078228  0.65309390  1
  Si0+  Si99  1  0.57195889  0.17672967  0.65187040  1
  Si0+  Si100  1  0.17757431  0.42594314  0.01750410  1
  Si0+  Si101  1  0.57176905  0.17552336  0.98013487  1
  Si0+  Si102  1  0.42554348  0.82223258  0.98204311  1
  Si0+  Si103  1  0.42903861  0.82132126  0.65454935  1
  Si0+  Si104  1  0.57260117  0.67928562  0.65007764  1
  Si0+  Si105  1  0.32133785  0.07457605  0.01872082  1
  Si0+  Si106  1  0.93040529  0.82009371  0.98572927  1
  Si0+  Si107  1  0.67789092  0.42815956  0.68319335  1
  Si0+  Si108  1  0.82232550  0.07462863  0.68214026  1
  Si0+  Si109  1  0.32537394  0.57202190  0.68489285  1
  Si0+  Si110  1  0.82477189  0.57378458  0.35241106  1
  Si0+  Si111  1  0.32341169  0.07349311  0.34650102  1
  Si0+  Si112  1  0.81898195  0.56872504  0.68000550  1
  Si0+  Si113  1  0.67727932  0.92779560  0.34783276  1
  Si0+  Si114  1  0.17711851  0.42653947  0.34713542  1
  Si0+  Si115  1  0.07358647  0.67686488  0.65159604  1
  Si0+  Si116  1  0.67803259  0.42902122  0.01374922  1
  Si0+  Si117  1  0.81927137  0.07023143  0.34961717  1
  Si0+  Si118  1  0.92715878  0.32380656  0.65287582  1
  Si0+  Si119  1  0.07327665  0.67906088  0.98338878  1
  O2-  O120  1  0.25647969  0.00256957  0.06255133  1
  O2-  O121  1  0.25211358  0.00835616  0.39259768  1
  O2-  O122  1  0.25109533  -0.00266695  0.73028592  1
  O2-  O123  1  0.24901428  0.49103378  0.06167363  1
  O2-  O124  1  0.24808489  0.49247940  0.39278275  1
  O2-  O125  1  0.25531610  0.50339601  0.72643469  1
  O2-  O126  1  0.74516719  0.00294219  0.06829585  1
  O2-  O127  1  0.74908840  -0.00235545  0.39136813  1
  O2-  O128  1  0.75517647  0.00342923  0.72426115  1
  O2-  O129  1  0.75134670  0.49222199  0.05856122  1
  O2-  O130  1  0.75827597  0.50213493  0.39614112  1
  O2-  O131  1  0.75057615  0.49692866  0.72539583  1
  O2-  O132  1  0.00251385  0.25232299  0.26985199  1
  O2-  O133  1  -0.00442746  0.25047048  0.61153805  1
  O2-  O134  1  0.00319310  0.24698364  0.93523824  1
  O2-  O135  1  -0.00112279  0.75003022  0.26612025  1
  O2-  O136  1  0.01156265  0.75250884  0.60921105  1
  O2-  O137  1  0.00141942  0.74968210  0.94143605  1
  O2-  O138  1  0.50002275  0.25064705  0.26946695  1
  O2-  O139  1  0.50166025  0.24305803  0.60676736  1
  O2-  O140  1  0.50066798  0.24213879  0.93608635  1
  O2-  O141  1  0.50476247  0.74688573  0.27483221  1
  O2-  O142  1  0.49917901  0.74926050  0.61073069  1
  O2-  O143  1  0.49987119  0.75929078  0.93746688  1
  O2-  O144  1  0.07035049  0.17695876  0.08485873  1
  O2-  O145  1  0.07156242  0.17813043  0.43261688  1
  O2-  O146  1  0.06706948  0.18048927  0.75815369  1
  O2-  O147  1  0.07425662  0.67929457  0.08787031  1
  O2-  O148  1  0.07107948  0.68128500  0.43216737  1
  O2-  O149  1  0.06947950  0.67285389  0.75737424  1
  O2-  O150  1  0.57240840  0.17793702  0.08540932  1
  O2-  O151  1  0.57010882  0.17647501  0.43306886  1
  O2-  O152  1  0.57497912  0.18068099  0.75715330  1
  O2-  O153  1  0.56843090  0.67991347  0.09991575  1
  O2-  O154  1  0.57249886  0.68003719  0.42501483  1
  O2-  O155  1  0.57550859  0.67862446  0.75512074  1
  O2-  O156  1  0.17537861  0.42889195  0.24188866  1
  O2-  O157  1  0.17653633  0.43161021  0.56623733  1
  O2-  O158  1  0.17700113  0.42930782  0.91119205  1
  O2-  O159  1  0.18104813  0.93037228  0.23498384  1
  O2-  O160  1  0.17683823  0.92941021  0.56754519  1
  O2-  O161  1  0.18010635  0.93035537  0.90190115  1
  O2-  O162  1  0.68106116  0.43220118  0.23439848  1
  O2-  O163  1  0.67908277  0.42769283  0.57828123  1
  O2-  O164  1  0.67894869  0.43300324  0.90733300  1
  O2-  O165  1  0.67804876  0.92731294  0.24347582  1
  O2-  O166  1  0.67990481  0.92849161  0.56532133  1
  O2-  O167  1  0.68346959  0.92585807  0.90371089  1
  O2-  O168  1  0.43423490  0.32230464  0.09699684  1
  O2-  O169  1  0.42939152  0.32188065  0.43262002  1
  O2-  O170  1  0.43024857  0.32090757  0.76415812  1
  O2-  O171  1  0.42371575  0.81795247  0.08744226  1
  O2-  O172  1  0.43122478  0.82137566  0.43582969  1
  O2-  O173  1  0.42872781  0.81890287  0.75945957  1
  O2-  O174  1  0.93099808  0.32152857  0.09722568  1
  O2-  O175  1  0.92920876  0.31767563  0.43498660  1
  O2-  O176  1  0.92758491  0.32526492  0.75787907  1
  O2-  O177  1  0.93116998  0.81856212  0.09022061  1
  O2-  O178  1  0.92619687  0.82101150  0.42982010  1
  O2-  O179  1  0.92773608  0.81742391  0.76824538  1
  O2-  O180  1  0.32411167  0.07037256  0.24117852  1
  O2-  O181  1  0.32000720  0.07134601  0.56635264  1
  O2-  O182  1  0.31865942  0.07474502  0.91269984  1
  O2-  O183  1  0.32271943  0.56963449  0.23525141  1
  O2-  O184  1  0.32604322  0.57427110  0.57955859  1
  O2-  O185  1  0.31878750  0.56686228  0.89943285  1
  O2-  O186  1  0.81789319  0.07166258  0.24506292  1
  O2-  O187  1  0.82198728  0.07737120  0.57659752  1
  O2-  O188  1  0.81957758  0.06864339  0.90255656  1
  O2-  O189  1  0.82225433  0.57495317  0.24701155  1
  O2-  O190  1  0.81735313  0.56728826  0.57527126  1
  O2-  O191  1  0.82120247  0.57143531  0.89990010  1
  O2-  O192  1  0.03922550  0.08217307  0.26424305  1
  O2-  O193  1  0.04228611  0.08927551  0.60416662  1
  O2-  O194  1  0.04047096  0.08280635  0.93427251  1
  O2-  O195  1  0.04774546  0.58216472  0.26341509  1
  O2-  O196  1  0.04023672  0.58654011  0.60268830  1
  O2-  O197  1  0.04555253  0.58708759  0.93567637  1
  O2-  O198  1  0.54540675  0.08113913  0.26159117  1
  O2-  O199  1  0.55028966  0.08051280  0.60958315  1
  O2-  O200  1  0.54778834  0.08007542  0.93602767  1
  O2-  O201  1  0.54610353  0.58440974  0.27452492  1
  O2-  O202  1  0.54638180  0.58704297  0.60248409  1
  O2-  O203  1  0.53868830  0.58750727  0.92824540  1
  O2-  O204  1  0.17025140  0.20099835  0.26112769  1
  O2-  O205  1  0.15938103  0.21119717  0.60592410  1
  O2-  O206  1  0.16392574  0.19980682  0.93265660  1
  O2-  O207  1  0.16970143  0.71130121  0.26535217  1
  O2-  O208  1  0.17070899  0.69370978  0.60963823  1
  O2-  O209  1  0.16458135  0.70781591  0.93494786  1
  O2-  O210  1  0.66883094  0.20780740  0.26648979  1
  O2-  O211  1  0.66526099  0.20445441  0.60444724  1
  O2-  O212  1  0.66453732  0.20165507  0.93236621  1
  O2-  O213  1  0.66645797  0.70043366  0.27341793  1
  O2-  O214  1  0.66277499  0.70802587  0.60015551  1
  O2-  O215  1  0.66913453  0.71070023  0.93270041  1
  O2-  O216  1  0.08502181  0.45450473  0.06254473  1
  O2-  O217  1  0.08412759  0.45448478  0.39479006  1
  O2-  O218  1  0.08281134  0.46304715  0.73616583  1
  O2-  O219  1  0.08454060  0.96020786  0.06932553  1
  O2-  O220  1  0.07994099  0.96046743  0.39942365  1
  O2-  O221  1  0.07912383  0.95936513  0.73411641  1
  O2-  O222  1  0.58682606  0.46132866  0.05913579  1
  O2-  O223  1  0.58827642  0.46301346  0.40708786  1
  O2-  O224  1  0.58667526  0.45937847  0.72953699  1
  O2-  O225  1  0.57497614  0.94908533  0.06520678  1
  O2-  O226  1  0.58497368  0.95738122  0.39410705  1
  O2-  O227  1  0.58606092  0.95461165  0.73817039  1
  O2-  O228  1  0.19753636  0.32952307  0.05850343  1
  O2-  O229  1  0.20034343  0.33088121  0.39073741  1
  O2-  O230  1  0.20622654  0.33530044  0.73648887  1
  O2-  O231  1  0.21055060  0.83246558  0.06828112  1
  O2-  O232  1  0.21161796  0.83604391  0.40301662  1
  O2-  O233  1  0.20249103  0.82763007  0.73341623  1
  O2-  O234  1  0.69718218  0.33308426  0.05564257  1
  O2-  O235  1  0.71141944  0.33249356  0.40412751  1
  O2-  O236  1  0.70214961  0.33571139  0.73114594  1
  O2-  O237  1  0.70819878  0.83081651  0.07150684  1
  O2-  O238  1  0.70339281  0.83511723  0.39572016  1
  O2-  O239  1  0.71376786  0.83087695  0.73166002  1
  O2-  O240  1  0.46412734  0.42216301  0.26966506  1
  O2-  O241  1  0.46075902  0.41659392  0.59807383  1
  O2-  O242  1  0.46324496  0.41473204  0.92754049  1
  O2-  O243  1  0.45763924  0.91462023  0.26334369  1
  O2-  O244  1  0.45876494  0.91357007  0.60945204  1
  O2-  O245  1  0.44329799  0.91904013  0.93931628  1
  O2-  O246  1  0.95139008  0.42156563  0.26915298  1
  O2-  O247  1  0.95626400  0.41495821  0.60524627  1
  O2-  O248  1  0.96079571  0.41836050  0.92995278  1
  O2-  O249  1  0.95261359  0.92024446  0.26343207  1
  O2-  O250  1  0.95340212  0.92052080  0.60167927  1
  O2-  O251  1  0.95813853  0.91286113  0.93985552  1
  O2-  O252  1  0.33145742  0.30146347  0.26274524  1
  O2-  O253  1  0.32908939  0.29240848  0.59976182  1
  O2-  O254  1  0.33080504  0.29185459  0.93195302  1
  O2-  O255  1  0.33419576  0.78710799  0.26835358  1
  O2-  O256  1  0.33674607  0.79367145  0.60707331  1
  O2-  O257  1  0.33445914  0.78902644  0.93445339  1
  O2-  O258  1  0.83166596  0.29101172  0.26784111  1
  O2-  O259  1  0.83317190  0.29842516  0.60803424  1
  O2-  O260  1  0.83159368  0.29253234  0.92968492  1
  O2-  O261  1  0.82813524  0.79289444  0.26365207  1
  O2-  O262  1  0.83689690  0.78457842  0.59785157  1
  O2-  O263  1  0.83835561  0.79039945  0.93978492  1
  O2-  O264  1  0.41697794  0.05496193  0.06186797  1
  O2-  O265  1  0.41653343  0.04471371  0.39264329  1
  O2-  O266  1  0.41884565  0.04696972  0.73658597  1
  O2-  O267  1  0.41906080  0.53795079  0.06448935  1
  O2-  O268  1  0.41763706  0.54409668  0.40565690  1
  O2-  O269  1  0.41946261  0.54468377  0.72949840  1
  O2-  O270  1  0.91691036  0.04347243  0.06995239  1
  O2-  O271  1  0.91114870  0.04258147  0.39718417  1
  O2-  O272  1  0.91579933  0.05156010  0.72889761  1
  O2-  O273  1  0.92053023  0.54275506  0.06699963  1
  O2-  O274  1  0.91985449  0.55145011  0.39693096  1
  O2-  O275  1  0.91133520  0.54399283  0.72801046  1
  O2-  O276  1  0.29257674  0.16757833  0.06401309  1
  O2-  O277  1  0.30081857  0.16960605  0.38923639  1
  O2-  O278  1  0.28803376  0.16825099  0.73472819  1
  O2-  O279  1  0.29015347  0.66319487  0.06670295  1
  O2-  O280  1  0.28704574  0.66489179  0.40454565  1
  O2-  O281  1  0.30148248  0.66490296  0.73334511  1
  O2-  O282  1  0.79213507  0.17229607  0.06732406  1
  O2-  O283  1  0.79122111  0.16104769  0.39920389  1
  O2-  O284  1  0.79504693  0.16748057  0.73039373  1
  O2-  O285  1  0.78989791  0.66432708  0.07019079  1
  O2-  O286  1  0.79448988  0.66613749  0.40000788  1
  O2-  O287  1  0.78886489  0.65990784  0.72732389  1
