# generated using pymatgen
data_Ca2Al2SiO7
_symmetry_space_group_name_H-M   'P 1'
_cell_length_a   15.46380182
_cell_length_b   15.46445897
_cell_length_c   15.28869492
_cell_angle_alpha   90.00141849
_cell_angle_beta   90.01055711
_cell_angle_gamma   90.00933572
_symmetry_Int_Tables_number   1
_chemical_formula_structural   Ca2Al2SiO7
_chemical_formula_sum   'Ca48 Al48 Si24 O168'
_cell_volume   3656.12813027
_cell_formula_units_Z   24
loop_
 _symmetry_equiv_pos_site_id
 _symmetry_equiv_pos_as_xyz
  1  'x, y, z'
loop_
 _atom_type_symbol
 _atom_type_oxidation_number
  Ca2+  2.0
  Al0+  0.0
  Si0+  0.0
  O2-  -2.0
loop_
 _atom_site_type_symbol
 _atom_site_label
 _atom_site_symmetry_multiplicity
 _atom_site_fract_x
 _atom_site_fract_y
 _atom_site_fract_z
 _atom_site_occupancy
  Ca2+  Ca0  1  0.16196859  0.07253412  0.16654683  1
  Ca2+  Ca1  1  0.16218484  0.06959913  0.50419587  1
  Ca2+  Ca2  1  0.16042852  0.07070940  0.83876981  1
  Ca2+  Ca3  1  0.17442733  0.58610993  0.17134731  1
  Ca2+  Ca4  1  0.17780523  0.58718475  0.50592530  1
  Ca2+  Ca5  1  0.17427614  0.58733618  0.84160446  1
  Ca2+  Ca6  1  0.66755212  0.08165187  0.17326558  1
  Ca2+  Ca7  1  0.67082882  0.07714029  0.50981945  1
  Ca2+  Ca8  1  0.67307850  0.07589468  0.83191580  1
  Ca2+  Ca9  1  0.67082991  0.58229984  0.17357611  1
  Ca2+  Ca10  1  0.66874906  0.57833785  0.50561127  1
  Ca2+  Ca11  1  0.65877458  0.58364141  0.83455434  1
  Ca2+  Ca12  1  0.09393635  0.33113988  0.15942358  1
  Ca2+  Ca13  1  0.08545042  0.33118428  0.49420063  1
  Ca2+  Ca14  1  0.09481370  0.32573770  0.83301280  1
  Ca2+  Ca15  1  0.07648283  0.83086056  0.15862999  1
  Ca2+  Ca16  1  0.07867059  0.83324612  0.49872952  1
  Ca2+  Ca17  1  0.08484710  0.82627239  0.82751088  1
  Ca2+  Ca18  1  0.58804636  0.33025085  0.16763314  1
  Ca2+  Ca19  1  0.58363140  0.33526091  0.49674945  1
  Ca2+  Ca20  1  0.57517368  0.33700535  0.82143696  1
  Ca2+  Ca21  1  0.57258128  0.82299591  0.15396692  1
  Ca2+  Ca22  1  0.58947113  0.82756852  0.49937809  1
  Ca2+  Ca23  1  0.57804844  0.82197077  0.82853618  1
  Ca2+  Ca24  1  0.32246145  0.42922389  0.17004439  1
  Ca2+  Ca25  1  0.33379941  0.42557928  0.50338445  1
  Ca2+  Ca26  1  0.33306100  0.42795178  0.83781847  1
  Ca2+  Ca27  1  0.31904842  0.90455156  0.16708994  1
  Ca2+  Ca28  1  0.31991962  0.91314814  0.50479116  1
  Ca2+  Ca29  1  0.32219316  0.90985037  0.83866268  1
  Ca2+  Ca30  1  0.82929645  0.42933761  0.17697964  1
  Ca2+  Ca31  1  0.82320760  0.42266852  0.50227637  1
  Ca2+  Ca32  1  0.82474217  0.41757505  0.83414204  1
  Ca2+  Ca33  1  0.83794845  0.91269438  0.16955032  1
  Ca2+  Ca34  1  0.83461478  0.91979471  0.51150092  1
  Ca2+  Ca35  1  0.83564471  0.90937496  0.83090427  1
  Ca2+  Ca36  1  0.42191319  0.16721429  0.16424521  1
  Ca2+  Ca37  1  0.42250642  0.17549252  0.49360163  1
  Ca2+  Ca38  1  0.41312561  0.17808024  0.82542564  1
  Ca2+  Ca39  1  0.41725693  0.66403843  0.15990349  1
  Ca2+  Ca40  1  0.41861837  0.65843878  0.50254357  1
  Ca2+  Ca41  1  0.42045655  0.66154156  0.82976421  1
  Ca2+  Ca42  1  0.92521758  0.17394509  0.15990010  1
  Ca2+  Ca43  1  0.91195659  0.16614974  0.49881139  1
  Ca2+  Ca44  1  0.92007979  0.16460669  0.83148869  1
  Ca2+  Ca45  1  0.91918614  0.67532177  0.15900166  1
  Ca2+  Ca46  1  0.91628864  0.67824834  0.49461920  1
  Ca2+  Ca47  1  0.93154712  0.67589114  0.82707730  1
  Al0+  Al48  1  -0.00167208  0.00437602  -0.00183704  1
  Al0+  Al49  1  -0.00077665  0.00061447  0.33274142  1
  Al0+  Al50  1  0.00079186  0.00104748  0.67137497  1
  Al0+  Al51  1  -0.00405586  0.49852962  -0.00090049  1
  Al0+  Al52  1  0.00016149  0.50122992  0.34054959  1
  Al0+  Al53  1  0.00106205  0.49737246  0.66217439  1
  Al0+  Al54  1  0.50170657  -0.00055150  -0.00406085  1
  Al0+  Al55  1  0.49958147  0.00088338  0.32799172  1
  Al0+  Al56  1  0.50018985  0.00082145  0.67096700  1
  Al0+  Al57  1  0.49921240  0.49660862  0.00341621  1
  Al0+  Al58  1  0.49865625  0.49832869  0.33672187  1
  Al0+  Al59  1  0.49877257  0.49995035  0.66487631  1
  Al0+  Al60  1  0.25189253  0.24826461  -0.00120649  1
  Al0+  Al61  1  0.25205018  0.24979776  0.33346594  1
  Al0+  Al62  1  0.25043051  0.25059823  0.65720612  1
  Al0+  Al63  1  0.24947118  0.75104871  0.00410251  1
  Al0+  Al64  1  0.24933931  0.75089390  0.34261422  1
  Al0+  Al65  1  0.25183737  0.74911577  0.67062156  1
  Al0+  Al66  1  0.75093032  0.24802821  0.00070561  1
  Al0+  Al67  1  0.75099178  0.24952433  0.33069959  1
  Al0+  Al68  1  0.75060718  0.24981017  0.67539639  1
  Al0+  Al69  1  0.74799171  0.74968733  -0.00661130  1
  Al0+  Al70  1  0.74941868  0.75150702  0.33083798  1
  Al0+  Al71  1  0.75051820  0.74961730  0.66343965  1
  Al0+  Al72  1  0.32006334  0.57187208  0.35128266  1
  Al0+  Al73  1  0.17817700  0.93194036  0.34737239  1
  Al0+  Al74  1  0.68059315  0.42797318  0.34773112  1
  Al0+  Al75  1  0.82098038  0.57600376  0.34862949  1
  Al0+  Al76  1  0.56998520  0.68002152  0.65120006  1
  Al0+  Al77  1  0.07149779  0.18248901  0.98645212  1
  Al0+  Al78  1  0.68001675  0.43214691  0.68076445  1
  Al0+  Al79  1  0.07491237  0.67707155  0.64990016  1
  Al0+  Al80  1  0.17731143  0.42728960  0.01202874  1
  Al0+  Al81  1  0.42685440  0.82187038  0.98544371  1
  Al0+  Al82  1  0.32064621  0.57156050  0.01567523  1
  Al0+  Al83  1  0.18131160  0.93054171  0.68167170  1
  Al0+  Al84  1  0.92843570  0.82291748  0.98401758  1
  Al0+  Al85  1  0.67718253  0.92520756  0.68300606  1
  Al0+  Al86  1  0.93200673  0.82119107  0.65075442  1
  Al0+  Al87  1  0.82142767  0.07067113  0.68356281  1
  Al0+  Al88  1  0.31927402  0.56833737  0.68246596  1
  Al0+  Al89  1  0.17803842  0.93018309  0.01404410  1
  Al0+  Al90  1  0.07110572  0.67701165  0.98796857  1
  Al0+  Al91  1  0.42935130  0.32125895  0.65099202  1
  Al0+  Al92  1  0.57173360  0.17925594  0.31981285  1
  Al0+  Al93  1  0.56856838  0.67560638  0.98591886  1
  Al0+  Al94  1  0.17804995  0.42621327  0.34949098  1
  Al0+  Al95  1  0.92886598  0.82166811  0.31883547  1
  Si0+  Si96  1  0.67868705  0.42672644  0.01533989  1
  Si0+  Si97  1  0.56977267  0.67846564  0.31930553  1
  Si0+  Si98  1  0.42817227  0.82437890  0.64940027  1
  Si0+  Si99  1  0.42809812  0.32266933  0.31274470  1
  Si0+  Si100  1  0.67941989  0.92853072  0.01608218  1
  Si0+  Si101  1  0.32470752  0.07209145  0.34922972  1
  Si0+  Si102  1  0.92938253  0.32212172  0.31961751  1
  Si0+  Si103  1  0.06980304  0.17983112  0.64998352  1
  Si0+  Si104  1  0.92485879  0.32233590  0.98272907  1
  Si0+  Si105  1  0.67655637  0.93013358  0.34468930  1
  Si0+  Si106  1  0.82476419  0.57237740  0.68406205  1
  Si0+  Si107  1  0.07119335  0.17983217  0.31894218  1
  Si0+  Si108  1  0.32190686  0.07502412  0.68121271  1
  Si0+  Si109  1  0.81865721  0.57185975  0.01278537  1
  Si0+  Si110  1  0.57481776  0.17751167  0.98255964  1
  Si0+  Si111  1  0.32479992  0.07218681  0.01612123  1
  Si0+  Si112  1  0.81999583  0.06989755  0.34584460  1
  Si0+  Si113  1  0.92570674  0.32019325  0.65079901  1
  Si0+  Si114  1  0.07315687  0.67895219  0.31840150  1
  Si0+  Si115  1  0.43196151  0.31699165  0.98574156  1
  Si0+  Si116  1  0.17624678  0.42490614  0.68246068  1
  Si0+  Si117  1  0.42780463  0.82154335  0.32018208  1
  Si0+  Si118  1  0.81946072  0.07207874  0.01902847  1
  Si0+  Si119  1  0.57311930  0.17836894  0.65192877  1
  O2-  O120  1  0.25817839  0.00122929  0.05995128  1
  O2-  O121  1  0.25434901  0.00588088  0.39373081  1
  O2-  O122  1  0.25764959  0.00434369  0.72758960  1
  O2-  O123  1  0.24172983  0.50507188  0.06341856  1
  O2-  O124  1  0.24709252  0.49991038  0.40005604  1
  O2-  O125  1  0.23973953  0.49742094  0.72677105  1
  O2-  O126  1  0.75109160  -0.00171702  0.06071475  1
  O2-  O127  1  0.74903626  -0.00078750  0.38721434  1
  O2-  O128  1  0.75186471  -0.00446445  0.73253111  1
  O2-  O129  1  0.74769860  0.50006131  0.05566806  1
  O2-  O130  1  0.74893077  0.50313120  0.39760496  1
  O2-  O131  1  0.75343877  0.50660345  0.72985742  1
  O2-  O132  1  0.00648678  0.25729009  0.27730083  1
  O2-  O133  1  -0.00136142  0.25090907  0.60830618  1
  O2-  O134  1  0.00016916  0.26051526  0.93933106  1
  O2-  O135  1  0.00136225  0.74436627  0.27372260  1
  O2-  O136  1  0.00125776  0.74756934  0.59926538  1
  O2-  O137  1  0.00423925  0.75367452  0.93704221  1
  O2-  O138  1  0.49838695  0.25395815  0.26997026  1
  O2-  O139  1  0.50402095  0.24511110  0.60616329  1
  O2-  O140  1  0.50327994  0.24731106  0.94103334  1
  O2-  O141  1  0.49713574  0.74836151  0.27831232  1
  O2-  O142  1  0.49992627  0.75945149  0.60385341  1
  O2-  O143  1  0.49444308  0.74545884  0.93632010  1
  O2-  O144  1  0.06858820  0.18190391  0.10009929  1
  O2-  O145  1  0.06720860  0.17731135  0.42408435  1
  O2-  O146  1  0.07187424  0.18169579  0.75493334  1
  O2-  O147  1  0.06725916  0.67657818  0.10206528  1
  O2-  O148  1  0.07415925  0.68288435  0.42359324  1
  O2-  O149  1  0.07457507  0.67768552  0.76353470  1
  O2-  O150  1  0.57613110  0.17872848  0.08794736  1
  O2-  O151  1  0.57085144  0.17749185  0.43248554  1
  O2-  O152  1  0.57165288  0.18080566  0.75780802  1
  O2-  O153  1  0.57127646  0.67763454  0.10032415  1
  O2-  O154  1  0.57178040  0.68052608  0.42412897  1
  O2-  O155  1  0.56591792  0.67762693  0.76388314  1
  O2-  O156  1  0.18102308  0.42439922  0.23601041  1
  O2-  O157  1  0.17894456  0.42143495  0.57713007  1
  O2-  O158  1  0.18429561  0.42323883  0.89885826  1
  O2-  O159  1  0.17757328  0.93308675  0.23436637  1
  O2-  O160  1  0.18045722  0.93381444  0.56819609  1
  O2-  O161  1  0.17763060  0.93359815  0.90138821  1
  O2-  O162  1  0.68390582  0.42781022  0.23343954  1
  O2-  O163  1  0.68274658  0.43015512  0.56805316  1
  O2-  O164  1  0.67883962  0.42382538  0.91040722  1
  O2-  O165  1  0.67605907  0.93179590  0.23942080  1
  O2-  O166  1  0.67629225  0.93002443  0.56838164  1
  O2-  O167  1  0.67911220  0.93111275  0.91167788  1
  O2-  O168  1  0.43439617  0.31476751  0.09067565  1
  O2-  O169  1  0.42791906  0.32040000  0.41815444  1
  O2-  O170  1  0.42977688  0.31905139  0.76475162  1
  O2-  O171  1  0.43143714  0.82375005  0.09990037  1
  O2-  O172  1  0.43081369  0.82578577  0.42494970  1
  O2-  O173  1  0.42785844  0.82300686  0.75465386  1
  O2-  O174  1  0.91831717  0.31756819  0.08824626  1
  O2-  O175  1  0.92521645  0.31573378  0.42448610  1
  O2-  O176  1  0.92412304  0.31971524  0.75577097  1
  O2-  O177  1  0.92783547  0.82016473  0.09827450  1
  O2-  O178  1  0.92907979  0.82603957  0.43115781  1
  O2-  O179  1  0.93528175  0.82039562  0.76397434  1
  O2-  O180  1  0.32546015  0.07194270  0.24366520  1
  O2-  O181  1  0.31964860  0.07530291  0.57547513  1
  O2-  O182  1  0.32372396  0.07611436  0.91073741  1
  O2-  O183  1  0.32052975  0.57295658  0.23776178  1
  O2-  O184  1  0.32058616  0.56589534  0.56962851  1
  O2-  O185  1  0.32558625  0.56615907  0.90262319  1
  O2-  O186  1  0.82011086  0.07056759  0.24065931  1
  O2-  O187  1  0.81894660  0.07330380  0.56911592  1
  O2-  O188  1  0.81635120  0.07791122  0.91485185  1
  O2-  O189  1  0.81822578  0.57464856  0.23411923  1
  O2-  O190  1  0.82297242  0.56916234  0.57848803  1
  O2-  O191  1  0.81810664  0.56917175  0.90804197  1
  O2-  O192  1  0.03602535  0.09147738  0.26940189  1
  O2-  O193  1  0.04000020  0.08881550  0.60286407  1
  O2-  O194  1  0.03486918  0.08926991  0.93073197  1
  O2-  O195  1  0.05230528  0.58238229  0.27653084  1
  O2-  O196  1  0.05125611  0.57592643  0.59946327  1
  O2-  O197  1  0.04046267  0.57917699  0.93421472  1
  O2-  O198  1  0.54015771  0.08387788  0.26150254  1
  O2-  O199  1  0.54980889  0.08358465  0.60707677  1
  O2-  O200  1  0.54998447  0.08541542  0.93566913  1
  O2-  O201  1  0.54405499  0.58527046  0.27348306  1
  O2-  O202  1  0.53515974  0.58509802  0.59662764  1
  O2-  O203  1  0.54415454  0.57483647  0.93582383  1
  O2-  O204  1  0.16565503  0.20023807  0.27336010  1
  O2-  O205  1  0.16030149  0.20638928  0.59900998  1
  O2-  O206  1  0.16902467  0.20835799  0.93117079  1
  O2-  O207  1  0.16632768  0.70935400  0.27359165  1
  O2-  O208  1  0.17305540  0.70947542  0.59887361  1
  O2-  O209  1  0.17111801  0.70210530  0.93857547  1
  O2-  O210  1  0.66824803  0.20933597  0.26311001  1
  O2-  O211  1  0.66719140  0.20575812  0.60824861  1
  O2-  O212  1  0.66616393  0.20676040  0.93585767  1
  O2-  O213  1  0.66027991  0.70806904  0.27003958  1
  O2-  O214  1  0.66787687  0.70594122  0.59691733  1
  O2-  O215  1  0.66481333  0.70642842  0.93113702  1
  O2-  O216  1  0.07323462  0.44182840  0.05929199  1
  O2-  O217  1  0.07728291  0.44563484  0.40065217  1
  O2-  O218  1  0.07948403  0.44109084  0.72544995  1
  O2-  O219  1  0.08260484  0.96851014  0.06693839  1
  O2-  O220  1  0.08313607  0.96785204  0.40148633  1
  O2-  O221  1  0.08707575  0.96550972  0.73585680  1
  O2-  O222  1  0.58717529  0.45064803  0.06443618  1
  O2-  O223  1  0.58054254  0.45057356  0.39758830  1
  O2-  O224  1  0.58333202  0.46217896  0.73388016  1
  O2-  O225  1  0.58781546  0.95881262  0.06361238  1
  O2-  O226  1  0.58568915  0.95948456  0.39250857  1
  O2-  O227  1  0.57968720  0.95634434  0.73738909  1
  O2-  O228  1  0.21344358  0.33061182  0.06579542  1
  O2-  O229  1  0.20725360  0.32682645  0.40153551  1
  O2-  O230  1  0.20743973  0.33141882  0.72632287  1
  O2-  O231  1  0.20488926  0.83410296  0.07098168  1
  O2-  O232  1  0.20921670  0.83755713  0.40388428  1
  O2-  O233  1  0.21255825  0.83466761  0.73505147  1
  O2-  O234  1  0.70943146  0.33523273  0.06265771  1
  O2-  O235  1  0.71286913  0.33003985  0.39968027  1
  O2-  O236  1  0.71058845  0.33643343  0.73707381  1
  O2-  O237  1  0.70566587  0.83549468  0.06215150  1
  O2-  O238  1  0.70189116  0.83789493  0.39096321  1
  O2-  O239  1  0.70373053  0.82589328  0.73422952  1
  O2-  O240  1  0.45441425  0.41614073  0.26701753  1
  O2-  O241  1  0.46378938  0.41497457  0.59584666  1
  O2-  O242  1  0.46057789  0.40835430  0.93879454  1
  O2-  O243  1  0.45572035  0.91185922  0.26986417  1
  O2-  O244  1  0.44850877  0.92081226  0.60572921  1
  O2-  O245  1  0.45816714  0.91924178  0.93131776  1
  O2-  O246  1  0.94943785  0.41702047  0.27502470  1
  O2-  O247  1  0.95046153  0.41151257  0.60147222  1
  O2-  O248  1  0.93951248  0.41769709  0.93775801  1
  O2-  O249  1  0.96062550  0.91871258  0.26465540  1
  O2-  O250  1  0.96079377  0.92166861  0.60086188  1
  O2-  O251  1  0.94867777  0.92473131  0.93641141  1
  O2-  O252  1  0.33543161  0.29366711  0.26611211  1
  O2-  O253  1  0.33472100  0.28982118  0.59293454  1
  O2-  O254  1  0.34168852  0.28773204  0.93685838  1
  O2-  O255  1  0.33473578  0.79351535  0.27546123  1
  O2-  O256  1  0.33624594  0.79418205  0.60303931  1
  O2-  O257  1  0.32623083  0.80063518  0.93663590  1
  O2-  O258  1  0.84144035  0.28784648  0.26802544  1
  O2-  O259  1  0.83497758  0.28771387  0.60359643  1
  O2-  O260  1  0.83476669  0.28704755  0.93392281  1
  O2-  O261  1  0.83078087  0.79418612  0.26419457  1
  O2-  O262  1  0.83154364  0.79720253  0.59947730  1
  O2-  O263  1  0.83115653  0.79220105  0.93125965  1
  O2-  O264  1  0.42071452  0.05047124  0.06032676  1
  O2-  O265  1  0.41791600  0.04509346  0.39552328  1
  O2-  O266  1  0.41717544  0.05725060  0.72685259  1
  O2-  O267  1  0.41683542  0.53482391  0.07058954  1
  O2-  O268  1  0.41843022  0.54130631  0.40279779  1
  O2-  O269  1  0.41424908  0.53180890  0.73523692  1
  O2-  O270  1  0.91230617  0.04875080  0.06602390  1
  O2-  O271  1  0.91118061  0.04345827  0.39453757  1
  O2-  O272  1  0.92020662  0.04669268  0.73673259  1
  O2-  O273  1  0.90905938  0.54386459  0.06297480  1
  O2-  O274  1  0.91885184  0.54958387  0.40186191  1
  O2-  O275  1  0.91748233  0.54126509  0.72892484  1
  O2-  O276  1  0.29635248  0.16386273  0.06478377  1
  O2-  O277  1  0.30198904  0.16642779  0.39425655  1
  O2-  O278  1  0.29195770  0.16824275  0.72605808  1
  O2-  O279  1  0.29927682  0.67130630  0.06881248  1
  O2-  O280  1  0.29439785  0.66978149  0.40642942  1
  O2-  O281  1  0.29499754  0.66637686  0.73549741  1
  O2-  O282  1  0.78794161  0.16248606  0.06898957  1
  O2-  O283  1  0.79243206  0.16142276  0.39329195  1
  O2-  O284  1  0.79097753  0.16676991  0.74054490  1
  O2-  O285  1  0.78917666  0.66339893  0.06014639  1
  O2-  O286  1  0.79009429  0.67369687  0.40128032  1
  O2-  O287  1  0.80196057  0.66698403  0.72708023  1
