# generated using pymatgen
data_Ca2Al2SiO7
_symmetry_space_group_name_H-M   'P 1'
_cell_length_a   15.45078582
_cell_length_b   15.45104401
_cell_length_c   15.27852495
_cell_angle_alpha   90.00318360
_cell_angle_beta   90.00399495
_cell_angle_gamma   89.99979911
_symmetry_Int_Tables_number   1
_chemical_formula_structural   Ca2Al2SiO7
_chemical_formula_sum   'Ca48 Al48 Si24 O168'
_cell_volume   3647.45403721
_cell_formula_units_Z   24
loop_
 _symmetry_equiv_pos_site_id
 _symmetry_equiv_pos_as_xyz
  1  'x, y, z'
loop_
 _atom_type_symbol
 _atom_type_oxidation_number
  Ca2+  2.0
  Al0+  0.0
  Si0+  0.0
  O2-  -2.0
loop_
 _atom_site_type_symbol
 _atom_site_label
 _atom_site_symmetry_multiplicity
 _atom_site_fract_x
 _atom_site_fract_y
 _atom_site_fract_z
 _atom_site_occupancy
  Ca2+  Ca0  1  0.18028857  0.08494152  0.17377633  1
  Ca2+  Ca1  1  0.16428687  0.08247633  0.50546825  1
  Ca2+  Ca2  1  0.17029284  0.08221080  0.83652334  1
  Ca2+  Ca3  1  0.17258132  0.58377990  0.16932785  1
  Ca2+  Ca4  1  0.16710458  0.58246435  0.50491507  1
  Ca2+  Ca5  1  0.16526713  0.57143292  0.83771311  1
  Ca2+  Ca6  1  0.65818578  0.08015447  0.16963371  1
  Ca2+  Ca7  1  0.67277646  0.08937640  0.50246682  1
  Ca2+  Ca8  1  0.67387822  0.08432017  0.83980996  1
  Ca2+  Ca9  1  0.66433788  0.56866582  0.17176849  1
  Ca2+  Ca10  1  0.66892809  0.56938493  0.50476722  1
  Ca2+  Ca11  1  0.66525764  0.56998039  0.83822137  1
  Ca2+  Ca12  1  0.08355260  0.33330729  0.16578473  1
  Ca2+  Ca13  1  0.07566145  0.32816745  0.49585393  1
  Ca2+  Ca14  1  0.08310644  0.33023695  0.82039590  1
  Ca2+  Ca15  1  0.08009193  0.82696882  0.16307543  1
  Ca2+  Ca16  1  0.09307653  0.82326147  0.49844807  1
  Ca2+  Ca17  1  0.08339337  0.82916967  0.82667803  1
  Ca2+  Ca18  1  0.58876784  0.32369182  0.16237566  1
  Ca2+  Ca19  1  0.58193700  0.33244428  0.49588555  1
  Ca2+  Ca20  1  0.57891001  0.33481118  0.82870205  1
  Ca2+  Ca21  1  0.57247439  0.83559116  0.15768672  1
  Ca2+  Ca22  1  0.57612741  0.83054168  0.49195733  1
  Ca2+  Ca23  1  0.57893092  0.83714091  0.83587532  1
  Ca2+  Ca24  1  0.32948369  0.42871521  0.17030442  1
  Ca2+  Ca25  1  0.32910254  0.42102472  0.50758630  1
  Ca2+  Ca26  1  0.32202908  0.41542877  0.83952215  1
  Ca2+  Ca27  1  0.34377428  0.92475413  0.17081013  1
  Ca2+  Ca28  1  0.33103585  0.92356439  0.50051289  1
  Ca2+  Ca29  1  0.32830559  0.92074208  0.83937606  1
  Ca2+  Ca30  1  0.82405662  0.40759268  0.17106777  1
  Ca2+  Ca31  1  0.82575447  0.40121111  0.50291962  1
  Ca2+  Ca32  1  0.82443557  0.40960368  0.83518140  1
  Ca2+  Ca33  1  0.82822713  0.91223215  0.16615895  1
  Ca2+  Ca34  1  0.83483698  0.92744830  0.50823458  1
  Ca2+  Ca35  1  0.83250860  0.92330138  0.84067937  1
  Ca2+  Ca36  1  0.42492289  0.15938593  0.16072918  1
  Ca2+  Ca37  1  0.41761474  0.17527289  0.49344748  1
  Ca2+  Ca38  1  0.42087881  0.16951499  0.83217784  1
  Ca2+  Ca39  1  0.40673418  0.67534872  0.16269267  1
  Ca2+  Ca40  1  0.41179986  0.67332528  0.49176645  1
  Ca2+  Ca41  1  0.41065508  0.66798295  0.83519065  1
  Ca2+  Ca42  1  0.92351822  0.17064978  0.16808736  1
  Ca2+  Ca43  1  0.92493923  0.17170942  0.49825016  1
  Ca2+  Ca44  1  0.92279125  0.17156238  0.82179782  1
  Ca2+  Ca45  1  0.92242236  0.66912436  0.16202962  1
  Ca2+  Ca46  1  0.93173219  0.66187578  0.49673527  1
  Ca2+  Ca47  1  0.92005029  0.67359480  0.82861471  1
  Al0+  Al48  1  0.00016819  0.00048026  -0.00258668  1
  Al0+  Al49  1  -0.00029397  -0.00002140  0.32917816  1
  Al0+  Al50  1  0.00008547  -0.00024425  0.67271469  1
  Al0+  Al51  1  -0.00114481  0.49887302  0.00285582  1
  Al0+  Al52  1  -0.00117338  0.50078334  0.32310171  1
  Al0+  Al53  1  -0.00093995  0.50155808  0.66248302  1
  Al0+  Al54  1  0.50183709  -0.00047893  -0.00489627  1
  Al0+  Al55  1  0.49887273  0.00038177  0.33440362  1
  Al0+  Al56  1  0.50040234  -0.00039660  0.66534702  1
  Al0+  Al57  1  0.49951380  0.50004424  0.00838502  1
  Al0+  Al58  1  0.49980442  0.50072761  0.34289736  1
  Al0+  Al59  1  0.50104764  0.50137651  0.66662635  1
  Al0+  Al60  1  0.25072569  0.24933760  0.00871605  1
  Al0+  Al61  1  0.25079951  0.25131646  0.33428726  1
  Al0+  Al62  1  0.25271096  0.25102356  0.66219569  1
  Al0+  Al63  1  0.24864645  0.75003819  -0.00362945  1
  Al0+  Al64  1  0.24932002  0.75081308  0.32756633  1
  Al0+  Al65  1  0.25056549  0.75296585  0.66742162  1
  Al0+  Al66  1  0.75200669  0.24818546  -0.00019034  1
  Al0+  Al67  1  0.74928413  0.24777848  0.32948157  1
  Al0+  Al68  1  0.74952387  0.24823430  0.67395474  1
  Al0+  Al69  1  0.74987247  0.75071858  -0.00134683  1
  Al0+  Al70  1  0.74929410  0.74752498  0.33621496  1
  Al0+  Al71  1  0.74830767  0.74963609  0.66488685  1
  Al0+  Al72  1  0.56842400  0.18142972  0.32053610  1
  Al0+  Al73  1  0.18080550  0.92935347  0.68023868  1
  Al0+  Al74  1  0.92874409  0.31940570  0.31646711  1
  Al0+  Al75  1  0.07075132  0.68049329  0.65436739  1
  Al0+  Al76  1  0.92723741  0.32115607  0.65325799  1
  Al0+  Al77  1  0.31971321  0.57243892  0.01457490  1
  Al0+  Al78  1  0.32103410  0.06827475  0.01233596  1
  Al0+  Al79  1  0.31830266  0.57272429  0.34887152  1
  Al0+  Al80  1  0.43134498  0.81935080  0.31991604  1
  Al0+  Al81  1  0.42977088  0.32272529  0.65414270  1
  Al0+  Al82  1  0.57135413  0.17960253  0.98461178  1
  Al0+  Al83  1  0.67963125  0.42952391  0.68164858  1
  Al0+  Al84  1  0.32208434  0.07199505  0.34860020  1
  Al0+  Al85  1  0.68002390  0.42771229  0.01462467  1
  Al0+  Al86  1  0.68141859  0.42729656  0.34849464  1
  Al0+  Al87  1  0.17882740  0.42952592  0.67655557  1
  Al0+  Al88  1  0.81990599  0.06958877  0.68059227  1
  Al0+  Al89  1  0.68073630  0.93003690  0.01321769  1
  Al0+  Al90  1  0.42888307  0.82071841  0.98400209  1
  Al0+  Al91  1  0.07388179  0.17726497  0.31668817  1
  Al0+  Al92  1  0.07302982  0.17715217  0.65316005  1
  Al0+  Al93  1  0.92812226  0.82119969  0.98555029  1
  Al0+  Al94  1  0.07083316  0.67987328  0.31766881  1
  Al0+  Al95  1  0.17629189  0.42713159  0.01633323  1
  Si0+  Si96  1  0.57145987  0.17774839  0.65096768  1
  Si0+  Si97  1  0.32421524  0.07314197  0.68301009  1
  Si0+  Si98  1  0.57186549  0.67588258  0.98382080  1
  Si0+  Si99  1  0.42981674  0.82130774  0.65070233  1
  Si0+  Si100  1  0.57330394  0.67619228  0.31733412  1
  Si0+  Si101  1  0.92619423  0.82245154  0.65039315  1
  Si0+  Si102  1  0.57180111  0.67850938  0.65074502  1
  Si0+  Si103  1  0.82147561  0.06859764  0.34708179  1
  Si0+  Si104  1  0.17599626  0.42923075  0.35113839  1
  Si0+  Si105  1  0.07083771  0.67727761  0.98105477  1
  Si0+  Si106  1  0.17659561  0.92979493  0.34807544  1
  Si0+  Si107  1  0.92978381  0.32045091  0.98378748  1
  Si0+  Si108  1  0.07356902  0.18041700  0.98502007  1
  Si0+  Si109  1  0.17615818  0.92801332  0.01681304  1
  Si0+  Si110  1  0.82348092  0.57291710  0.35056880  1
  Si0+  Si111  1  0.82417139  0.07174699  0.01970387  1
  Si0+  Si112  1  0.82143829  0.57286000  0.01620937  1
  Si0+  Si113  1  0.92500903  0.82280756  0.31793767  1
  Si0+  Si114  1  0.67622352  0.92554502  0.68291302  1
  Si0+  Si115  1  0.67802888  0.92785783  0.34809212  1
  Si0+  Si116  1  0.42801863  0.32335316  0.98622638  1
  Si0+  Si117  1  0.42757285  0.32597761  0.31648833  1
  Si0+  Si118  1  0.82233761  0.57444656  0.68307468  1
  Si0+  Si119  1  0.32210784  0.57366902  0.68280636  1
  O2-  O120  1  0.24702582  -0.00639909  0.06129814  1
  O2-  O121  1  0.24194970  0.00160520  0.39302110  1
  O2-  O122  1  0.25269939  0.00699015  0.72649328  1
  O2-  O123  1  0.24749271  0.50090663  0.06459457  1
  O2-  O124  1  0.24525103  0.49712293  0.39628492  1
  O2-  O125  1  0.25408845  0.50354609  0.72489180  1
  O2-  O126  1  0.75494484  0.00329794  0.06363104  1
  O2-  O127  1  0.75275237  -0.00518282  0.38979365  1
  O2-  O128  1  0.74595088  -0.00691566  0.72602153  1
  O2-  O129  1  0.75389595  0.50349581  0.06101555  1
  O2-  O130  1  0.75720392  0.50188279  0.39475613  1
  O2-  O131  1  0.75614096  0.50337198  0.72753618  1
  O2-  O132  1  0.00509039  0.25212227  0.26589785  1
  O2-  O133  1  0.00225714  0.25136843  0.60459531  1
  O2-  O134  1  0.00437736  0.25305162  0.94230835  1
  O2-  O135  1  -0.00701433  0.75345106  0.27421805  1
  O2-  O136  1  -0.00490868  0.75449346  0.60595305  1
  O2-  O137  1  0.00268266  0.74717289  0.93777629  1
  O2-  O138  1  0.49394049  0.25531222  0.27194310  1
  O2-  O139  1  0.50309625  0.24634875  0.60714654  1
  O2-  O140  1  0.49789394  0.25650701  0.94005640  1
  O2-  O141  1  0.50528139  0.74432463  0.27215718  1
  O2-  O142  1  0.50135583  0.75056389  0.60907160  1
  O2-  O143  1  0.50166681  0.74291979  0.93820647  1
  O2-  O144  1  0.07158157  0.17909779  0.08987866  1
  O2-  O145  1  0.06940260  0.17415361  0.42993585  1
  O2-  O146  1  0.07221712  0.17834397  0.76745221  1
  O2-  O147  1  0.06992263  0.67895891  0.08676390  1
  O2-  O148  1  0.07138519  0.68163099  0.43109866  1
  O2-  O149  1  0.06912342  0.68203659  0.76728879  1
  O2-  O150  1  0.57006680  0.17896342  0.09783340  1
  O2-  O151  1  0.57009148  0.18194785  0.43391574  1
  O2-  O152  1  0.56993770  0.17623049  0.75649647  1
  O2-  O153  1  0.57377395  0.67721712  0.08923655  1
  O2-  O154  1  0.57427024  0.67979268  0.42340740  1
  O2-  O155  1  0.57277621  0.67780351  0.75568051  1
  O2-  O156  1  0.17816395  0.43097200  0.24550709  1
  O2-  O157  1  0.17970533  0.43209492  0.56370423  1
  O2-  O158  1  0.17549965  0.42625131  0.90215583  1
  O2-  O159  1  0.17615588  0.92991435  0.24248705  1
  O2-  O160  1  0.18538106  0.92542205  0.56712738  1
  O2-  O161  1  0.17627392  0.93041022  0.91095866  1
  O2-  O162  1  0.68237302  0.42792816  0.23529035  1
  O2-  O163  1  0.67976224  0.43027116  0.56862084  1
  O2-  O164  1  0.68052681  0.42901993  0.90137363  1
  O2-  O165  1  0.67777766  0.92795762  0.24314701  1
  O2-  O166  1  0.67539321  0.92474019  0.57691177  1
  O2-  O167  1  0.68239958  0.93206700  0.89997933  1
  O2-  O168  1  0.42926520  0.32266125  0.09167646  1
  O2-  O169  1  0.43012206  0.32513406  0.42250547  1
  O2-  O170  1  0.43015159  0.32247644  0.76752585  1
  O2-  O171  1  0.43185577  0.82133082  0.09693979  1
  O2-  O172  1  0.43318522  0.81910734  0.43375214  1
  O2-  O173  1  0.43056394  0.82206726  0.75561482  1
  O2-  O174  1  0.92802568  0.31777057  0.08866019  1
  O2-  O175  1  0.92715220  0.31544635  0.42987741  1
  O2-  O176  1  0.92772304  0.31901703  0.76739245  1
  O2-  O177  1  0.92926376  0.81842402  0.09904057  1
  O2-  O178  1  0.92362178  0.82447083  0.42345685  1
  O2-  O179  1  0.92464168  0.81994314  0.75595346  1
  O2-  O180  1  0.32554135  0.06663542  0.23556734  1
  O2-  O181  1  0.32804412  0.06962588  0.57753384  1
  O2-  O182  1  0.31803686  0.06915156  0.89891403  1
  O2-  O183  1  0.31684258  0.57334859  0.23617613  1
  O2-  O184  1  0.32117621  0.57520451  0.57701914  1
  O2-  O185  1  0.31818675  0.57055219  0.90050620  1
  O2-  O186  1  0.82145727  0.06689543  0.24212460  1
  O2-  O187  1  0.81768874  0.06870145  0.56677549  1
  O2-  O188  1  0.82404097  0.07113142  0.91402124  1
  O2-  O189  1  0.81945614  0.57786502  0.24516416  1
  O2-  O190  1  0.81875090  0.57931995  0.57777034  1
  O2-  O191  1  0.82150766  0.57195988  0.91042328  1
  O2-  O192  1  0.04197553  0.07999713  0.26195356  1
  O2-  O193  1  0.04186979  0.07827536  0.60218611  1
  O2-  O194  1  0.04472104  0.08854207  0.93779681  1
  O2-  O195  1  0.04127717  0.58529359  0.25990583  1
  O2-  O196  1  0.04050726  0.58577850  0.59662396  1
  O2-  O197  1  0.04276776  0.58306759  0.93709765  1
  O2-  O198  1  0.53774920  0.08402893  0.26791949  1
  O2-  O199  1  0.54846280  0.08315548  0.60422090  1
  O2-  O200  1  0.53965943  0.08482157  0.92830619  1
  O2-  O201  1  0.54763921  0.58148083  0.27481165  1
  O2-  O202  1  0.54359459  0.58802506  0.60142804  1
  O2-  O203  1  0.54558226  0.58159664  0.93849140  1
  O2-  O204  1  0.17391706  0.20380276  0.26587666  1
  O2-  O205  1  0.17201224  0.20123765  0.60053227  1
  O2-  O206  1  0.16673693  0.20636062  0.93962510  1
  O2-  O207  1  0.16407941  0.71483336  0.26061897  1
  O2-  O208  1  0.16725839  0.71405490  0.60061829  1
  O2-  O209  1  0.16381446  0.70219119  0.93416149  1
  O2-  O210  1  0.66430008  0.20928952  0.26415563  1
  O2-  O211  1  0.66524734  0.20441480  0.60693081  1
  O2-  O212  1  0.66974601  0.20828414  0.93257194  1
  O2-  O213  1  0.66760946  0.70023078  0.27176308  1
  O2-  O214  1  0.66303199  0.70589120  0.60089162  1
  O2-  O215  1  0.66442570  0.70310334  0.93607425  1
  O2-  O216  1  0.07765458  0.45497968  0.06958516  1
  O2-  O217  1  0.08073045  0.45661718  0.39223510  1
  O2-  O218  1  0.08165909  0.46048473  0.73026665  1
  O2-  O219  1  0.08292008  0.95490513  0.06300694  1
  O2-  O220  1  0.08139990  0.95079305  0.39406978  1
  O2-  O221  1  0.08336830  0.95380770  0.73538318  1
  O2-  O222  1  0.58430737  0.45668483  0.07047238  1
  O2-  O223  1  0.58583399  0.45877584  0.40442354  1
  O2-  O224  1  0.58405092  0.46507208  0.73565020  1
  O2-  O225  1  0.58440301  0.96189864  0.06626540  1
  O2-  O226  1  0.58892873  0.95960471  0.39802158  1
  O2-  O227  1  0.58256906  0.95200741  0.72875347  1
  O2-  O228  1  0.20558374  0.33081082  0.07217905  1
  O2-  O229  1  0.19986853  0.33477567  0.39583393  1
  O2-  O230  1  0.21043348  0.33263353  0.73042086  1
  O2-  O231  1  0.19796191  0.83244026  0.05919146  1
  O2-  O232  1  0.20758978  0.83738483  0.39317630  1
  O2-  O233  1  0.21559866  0.83519373  0.73764474  1
  O2-  O234  1  0.71438856  0.33148787  0.06726418  1
  O2-  O235  1  0.71291201  0.32979386  0.40080252  1
  O2-  O236  1  0.70716327  0.33319853  0.73716572  1
  O2-  O237  1  0.70959090  0.83255972  0.06735695  1
  O2-  O238  1  0.70130909  0.83435224  0.39570060  1
  O2-  O239  1  0.69911945  0.83104516  0.72853374  1
  O2-  O240  1  0.45546922  0.42012009  0.27317216  1
  O2-  O241  1  0.46120298  0.41923061  0.59960757  1
  O2-  O242  1  0.45269535  0.41780780  0.94126236  1
  O2-  O243  1  0.46567551  0.91485848  0.26687231  1
  O2-  O244  1  0.45775430  0.91307295  0.60223877  1
  O2-  O245  1  0.46432241  0.91420720  0.92715380  1
  O2-  O246  1  0.94930982  0.41919391  0.26275693  1
  O2-  O247  1  0.94873459  0.42093225  0.60054663  1
  O2-  O248  1  0.95119502  0.41509489  0.93913586  1
  O2-  O249  1  0.95015909  0.91502608  0.26919233  1
  O2-  O250  1  0.95191779  0.91649557  0.60672835  1
  O2-  O251  1  0.95781879  0.91856924  0.93166117  1
  O2-  O252  1  0.33257384  0.30458306  0.27284754  1
  O2-  O253  1  0.33533448  0.29329153  0.59568923  1
  O2-  O254  1  0.33410751  0.29449639  0.94173103  1
  O2-  O255  1  0.33509823  0.79162356  0.26487136  1
  O2-  O256  1  0.33893676  0.79273937  0.60265751  1
  O2-  O257  1  0.33106662  0.79266293  0.92979090  1
  O2-  O258  1  0.83327256  0.28350074  0.26173232  1
  O2-  O259  1  0.82917919  0.28659045  0.60284597  1
  O2-  O260  1  0.83956405  0.28862992  0.93553781  1
  O2-  O261  1  0.83076190  0.79616962  0.27235598  1
  O2-  O262  1  0.83174254  0.79897114  0.60376227  1
  O2-  O263  1  0.83173833  0.79113639  0.93009671  1
  O2-  O264  1  0.41781351  0.03547765  0.06395931  1
  O2-  O265  1  0.41603707  0.03519766  0.40504068  1
  O2-  O266  1  0.41694763  0.04314814  0.72974270  1
  O2-  O267  1  0.41794195  0.54781142  0.06981571  1
  O2-  O268  1  0.41578104  0.54639536  0.40438548  1
  O2-  O269  1  0.41665295  0.55054550  0.72748524  1
  O2-  O270  1  0.91775411  0.04442267  0.06509419  1
  O2-  O271  1  0.91343374  0.04164121  0.39528473  1
  O2-  O272  1  0.91528950  0.04015401  0.73767512  1
  O2-  O273  1  0.91485611  0.54846217  0.06303496  1
  O2-  O274  1  0.91914214  0.54931251  0.39253277  1
  O2-  O275  1  0.91689719  0.55276097  0.72789646  1
  O2-  O276  1  0.29297633  0.16361614  0.06944870  1
  O2-  O277  1  0.29746597  0.17116366  0.40053924  1
  O2-  O278  1  0.30221554  0.16777384  0.72745788  1
  O2-  O279  1  0.29011511  0.67170728  0.06598334  1
  O2-  O280  1  0.28612416  0.67041084  0.40092018  1
  O2-  O281  1  0.29629459  0.66712388  0.72864959  1
  O2-  O282  1  0.79875347  0.16514007  0.06499635  1
  O2-  O283  1  0.78863238  0.15846796  0.39413690  1
  O2-  O284  1  0.78748228  0.16296654  0.73964467  1
  O2-  O285  1  0.79616993  0.66629605  0.06238152  1
  O2-  O286  1  0.79699614  0.66544007  0.40036277  1
  O2-  O287  1  0.79321307  0.66735777  0.73053629  1
