# generated using pymatgen
data_Ca2Al2SiO7
_symmetry_space_group_name_H-M   'P 1'
_cell_length_a   15.46400700
_cell_length_b   15.46539377
_cell_length_c   15.28898708
_cell_angle_alpha   90.00752046
_cell_angle_beta   89.99310186
_cell_angle_gamma   89.99134866
_symmetry_Int_Tables_number   1
_chemical_formula_structural   Ca2Al2SiO7
_chemical_formula_sum   'Ca48 Al48 Si24 O168'
_cell_volume   3656.46753288
_cell_formula_units_Z   24
loop_
 _symmetry_equiv_pos_site_id
 _symmetry_equiv_pos_as_xyz
  1  'x, y, z'
loop_
 _atom_type_symbol
 _atom_type_oxidation_number
  Ca2+  2.0
  Al0+  0.0
  Si0+  0.0
  O2-  -2.0
loop_
 _atom_site_type_symbol
 _atom_site_label
 _atom_site_symmetry_multiplicity
 _atom_site_fract_x
 _atom_site_fract_y
 _atom_site_fract_z
 _atom_site_occupancy
  Ca2+  Ca0  1  0.17326135  0.08003579  0.17264905  1
  Ca2+  Ca1  1  0.17249053  0.09430540  0.49718048  1
  Ca2+  Ca2  1  0.17506922  0.07501302  0.84686555  1
  Ca2+  Ca3  1  0.17232193  0.58152971  0.17910280  1
  Ca2+  Ca4  1  0.17409409  0.58237337  0.49582786  1
  Ca2+  Ca5  1  0.17417947  0.58688900  0.83298564  1
  Ca2+  Ca6  1  0.66395345  0.08129928  0.17284819  1
  Ca2+  Ca7  1  0.66200055  0.07960042  0.50331035  1
  Ca2+  Ca8  1  0.66510341  0.07420279  0.83463673  1
  Ca2+  Ca9  1  0.67460795  0.57648358  0.17037721  1
  Ca2+  Ca10  1  0.66787366  0.57171414  0.50354324  1
  Ca2+  Ca11  1  0.66457385  0.57641400  0.84065022  1
  Ca2+  Ca12  1  0.07321680  0.34194821  0.16615620  1
  Ca2+  Ca13  1  0.07325323  0.33589237  0.48771923  1
  Ca2+  Ca14  1  0.06840526  0.33782109  0.82915132  1
  Ca2+  Ca15  1  0.08088035  0.82743684  0.16125929  1
  Ca2+  Ca16  1  0.08247583  0.82491233  0.49325740  1
  Ca2+  Ca17  1  0.07994778  0.83792883  0.83534820  1
  Ca2+  Ca18  1  0.58485793  0.33522998  0.16848667  1
  Ca2+  Ca19  1  0.58280640  0.33251992  0.48900177  1
  Ca2+  Ca20  1  0.58862649  0.33568455  0.82990097  1
  Ca2+  Ca21  1  0.57614791  0.82213081  0.15596984  1
  Ca2+  Ca22  1  0.58140757  0.82836741  0.50140130  1
  Ca2+  Ca23  1  0.57686455  0.82169424  0.82592610  1
  Ca2+  Ca24  1  0.32782866  0.42178086  0.18111034  1
  Ca2+  Ca25  1  0.33458656  0.42448588  0.49859887  1
  Ca2+  Ca26  1  0.33672073  0.42684706  0.83555570  1
  Ca2+  Ca27  1  0.33485265  0.92355794  0.16785597  1
  Ca2+  Ca28  1  0.33672024  0.92221577  0.50318489  1
  Ca2+  Ca29  1  0.33368600  0.91638589  0.84313997  1
  Ca2+  Ca30  1  0.82874795  0.42064820  0.17218239  1
  Ca2+  Ca31  1  0.82714220  0.41202281  0.50180457  1
  Ca2+  Ca32  1  0.82457975  0.41843795  0.84191337  1
  Ca2+  Ca33  1  0.83526523  0.91491006  0.16920644  1
  Ca2+  Ca34  1  0.82498733  0.92049885  0.50638408  1
  Ca2+  Ca35  1  0.82796876  0.91198668  0.83936206  1
  Ca2+  Ca36  1  0.41426500  0.16814812  0.16970572  1
  Ca2+  Ca37  1  0.42286129  0.17401489  0.48657688  1
  Ca2+  Ca38  1  0.41556329  0.16613093  0.83295637  1
  Ca2+  Ca39  1  0.42233941  0.66623751  0.15767780  1
  Ca2+  Ca40  1  0.41566674  0.66519797  0.49919923  1
  Ca2+  Ca41  1  0.42486171  0.67303329  0.82504206  1
  Ca2+  Ca42  1  0.92164741  0.18044726  0.16568065  1
  Ca2+  Ca43  1  0.92063670  0.17992746  0.49050710  1
  Ca2+  Ca44  1  0.91337005  0.18003499  0.82930254  1
  Ca2+  Ca45  1  0.91890591  0.66130006  0.16208854  1
  Ca2+  Ca46  1  0.92069843  0.66428013  0.49035980  1
  Ca2+  Ca47  1  0.91199458  0.66803396  0.83592492  1
  Al0+  Al48  1  0.00120108  -0.00147050  -0.00016088  1
  Al0+  Al49  1  -0.00182335  0.00028681  0.33232396  1
  Al0+  Al50  1  0.00170535  0.00145471  0.66605455  1
  Al0+  Al51  1  -0.00042845  0.50009642  -0.00531966  1
  Al0+  Al52  1  0.00127338  0.50315370  0.33127444  1
  Al0+  Al53  1  -0.00037461  0.50076848  0.66233491  1
  Al0+  Al54  1  0.50030489  0.00091844  0.00072292  1
  Al0+  Al55  1  0.49819398  -0.00019617  0.33413013  1
  Al0+  Al56  1  0.49990693  -0.00075701  0.66892159  1
  Al0+  Al57  1  0.50039111  0.49668699  0.00021835  1
  Al0+  Al58  1  0.50154788  0.50125114  0.33593130  1
  Al0+  Al59  1  0.50040222  0.50052665  0.67168273  1
  Al0+  Al60  1  0.25146585  0.24930601  0.00141697  1
  Al0+  Al61  1  0.25032711  0.24889184  0.33549280  1
  Al0+  Al62  1  0.24932594  0.25056256  0.66991521  1
  Al0+  Al63  1  0.24924327  0.75091866  0.00051410  1
  Al0+  Al64  1  0.24807411  0.75239840  0.33277040  1
  Al0+  Al65  1  0.24987565  0.75194924  0.66732365  1
  Al0+  Al66  1  0.74916648  0.24836503  -0.00142104  1
  Al0+  Al67  1  0.75055322  0.24739771  0.32872653  1
  Al0+  Al68  1  0.75057192  0.24983791  0.66612449  1
  Al0+  Al69  1  0.75144953  0.74788500  -0.00363840  1
  Al0+  Al70  1  0.74766172  0.75043802  0.33755174  1
  Al0+  Al71  1  0.74901499  0.75002408  0.66590418  1
  Al0+  Al72  1  0.42803421  0.82158194  0.64971666  1
  Al0+  Al73  1  0.68056857  0.42844949  0.68076446  1
  Al0+  Al74  1  0.82155160  0.57117126  0.01435235  1
  Al0+  Al75  1  0.82132448  0.57275024  0.34895523  1
  Al0+  Al76  1  0.32309443  0.07193684  0.01759361  1
  Al0+  Al77  1  0.93003055  0.82139947  0.98675949  1
  Al0+  Al78  1  0.57098632  0.67593922  0.98507786  1
  Al0+  Al79  1  0.32024777  0.06997915  0.34934617  1
  Al0+  Al80  1  0.43005991  0.32357596  0.31953861  1
  Al0+  Al81  1  0.17859214  0.42816837  0.34685962  1
  Al0+  Al82  1  0.67909624  0.92873225  0.68166940  1
  Al0+  Al83  1  0.92889407  0.32069141  0.98426836  1
  Al0+  Al84  1  0.68144026  0.42725353  0.34862972  1
  Al0+  Al85  1  0.32286716  0.57446739  0.34687227  1
  Al0+  Al86  1  0.42893958  0.82122617  0.98586346  1
  Al0+  Al87  1  0.17778276  0.92741114  0.01739198  1
  Al0+  Al88  1  0.57080907  0.17720961  0.31814709  1
  Al0+  Al89  1  0.31966814  0.57113088  0.68134064  1
  Al0+  Al90  1  0.07257978  0.17708494  0.31773529  1
  Al0+  Al91  1  0.67773797  0.42601656  0.01716689  1
  Al0+  Al92  1  0.07054253  0.68098092  0.31994943  1
  Al0+  Al93  1  0.92962361  0.32296993  0.31658440  1
  Al0+  Al94  1  0.57170407  0.67668532  0.64863793  1
  Al0+  Al95  1  0.92885938  0.32056823  0.65153850  1
  Si0+  Si96  1  0.07291944  0.17878581  0.98315581  1
  Si0+  Si97  1  0.82285505  0.07057899  0.68347358  1
  Si0+  Si98  1  0.82447179  0.57244470  0.68303662  1
  Si0+  Si99  1  0.32045493  0.57018711  0.01312679  1
  Si0+  Si100  1  0.92503877  0.82159079  0.31892196  1
  Si0+  Si101  1  0.17668649  0.42800074  0.68421046  1
  Si0+  Si102  1  0.57160128  0.17816308  0.98321097  1
  Si0+  Si103  1  0.67714389  0.92917896  0.34787971  1
  Si0+  Si104  1  0.07326581  0.17789569  0.65104295  1
  Si0+  Si105  1  0.32060212  0.07176428  0.68216967  1
  Si0+  Si106  1  0.92859721  0.82319692  0.65167327  1
  Si0+  Si107  1  0.82125268  0.07049404  0.01451493  1
  Si0+  Si108  1  0.56938235  0.17915521  0.65391079  1
  Si0+  Si109  1  0.17573555  0.92962645  0.35204845  1
  Si0+  Si110  1  0.68030656  0.92859115  0.01466461  1
  Si0+  Si111  1  0.17823197  0.92934710  0.68183035  1
  Si0+  Si112  1  0.07109339  0.68079368  0.65136712  1
  Si0+  Si113  1  0.42744915  0.32128840  0.65396639  1
  Si0+  Si114  1  0.42750498  0.31962144  0.98410233  1
  Si0+  Si115  1  0.17920717  0.42962503  0.01168889  1
  Si0+  Si116  1  0.07291655  0.67722083  0.98116429  1
  Si0+  Si117  1  0.57143544  0.67978326  0.31861835  1
  Si0+  Si118  1  0.42877725  0.82144564  0.31870183  1
  Si0+  Si119  1  0.82135531  0.06960975  0.34781422  1
  O2-  O120  1  0.25108319  -0.00118382  0.06556495  1
  O2-  O121  1  0.24256305  -0.00089829  0.39800169  1
  O2-  O122  1  0.24921270  0.00085913  0.72303990  1
  O2-  O123  1  0.24838784  0.50111922  0.05498953  1
  O2-  O124  1  0.25336707  0.49869496  0.39556051  1
  O2-  O125  1  0.24618139  0.49528711  0.72950368  1
  O2-  O126  1  0.75227925  -0.00216569  0.05815130  1
  O2-  O127  1  0.74838852  0.00035345  0.38972914  1
  O2-  O128  1  0.75687461  0.00021822  0.72937558  1
  O2-  O129  1  0.75034758  0.49866807  0.06387664  1
  O2-  O130  1  0.75420483  0.49741612  0.40037697  1
  O2-  O131  1  0.75475109  0.50443862  0.72613159  1
  O2-  O132  1  0.00601772  0.25389600  0.26771223  1
  O2-  O133  1  0.00593239  0.24730398  0.60718065  1
  O2-  O134  1  0.00448414  0.24635561  0.93671780  1
  O2-  O135  1  -0.00792343  0.75222779  0.27460811  1
  O2-  O136  1  -0.00312930  0.74978802  0.61006095  1
  O2-  O137  1  0.00435998  0.74708986  0.93798993  1
  O2-  O138  1  0.50173357  0.25164096  0.26791382  1
  O2-  O139  1  0.49949825  0.25105330  0.61260325  1
  O2-  O140  1  0.50039885  0.24974157  0.94194517  1
  O2-  O141  1  0.49556570  0.74637875  0.27725870  1
  O2-  O142  1  0.49854024  0.74857146  0.59897603  1
  O2-  O143  1  0.49869225  0.74799487  0.93527475  1
  O2-  O144  1  0.07185417  0.18032699  0.08810911  1
  O2-  O145  1  0.06601179  0.17545115  0.43188589  1
  O2-  O146  1  0.07304905  0.17662950  0.75664154  1
  O2-  O147  1  0.07380443  0.67622429  0.08630109  1
  O2-  O148  1  0.07193020  0.68548386  0.43363745  1
  O2-  O149  1  0.07211627  0.68186857  0.75655681  1
  O2-  O150  1  0.57334326  0.17545679  0.08750712  1
  O2-  O151  1  0.56875190  0.17416178  0.43235831  1
  O2-  O152  1  0.56824686  0.17788246  0.75935366  1
  O2-  O153  1  0.56896120  0.67837453  0.09933134  1
  O2-  O154  1  0.57414784  0.68305904  0.42341730  1
  O2-  O155  1  0.57033960  0.67791638  0.76214344  1
  O2-  O156  1  0.17931987  0.43246481  0.23251434  1
  O2-  O157  1  0.17704324  0.42676909  0.57938481  1
  O2-  O158  1  0.18149826  0.43078782  0.90609472  1
  O2-  O159  1  0.17632610  0.92888024  0.24694964  1
  O2-  O160  1  0.17582559  0.92909016  0.57707047  1
  O2-  O161  1  0.17691868  0.93090415  0.90288969  1
  O2-  O162  1  0.68112080  0.42965542  0.23554206  1
  O2-  O163  1  0.68130557  0.42466554  0.56832758  1
  O2-  O164  1  0.67958500  0.42530144  0.90307566  1
  O2-  O165  1  0.67849405  0.92798884  0.24260004  1
  O2-  O166  1  0.68031932  0.93292610  0.56822439  1
  O2-  O167  1  0.68095665  0.93192699  0.90950664  1
  O2-  O168  1  0.42458431  0.32070301  0.08829082  1
  O2-  O169  1  0.43222552  0.32136005  0.43396460  1
  O2-  O170  1  0.42553333  0.31789696  0.75952796  1
  O2-  O171  1  0.43189823  0.81994648  0.09993239  1
  O2-  O172  1  0.43142942  0.82373791  0.42375426  1
  O2-  O173  1  0.42844308  0.82229682  0.76301164  1
  O2-  O174  1  0.93015660  0.32030778  0.09648439  1
  O2-  O175  1  0.92810019  0.31878684  0.43044269  1
  O2-  O176  1  0.92930118  0.31861466  0.76496996  1
  O2-  O177  1  0.93024267  0.82210668  0.09950546  1
  O2-  O178  1  0.92597359  0.82311551  0.42502746  1
  O2-  O179  1  0.93081404  0.82533278  0.75659839  1
  O2-  O180  1  0.32380352  0.06426147  0.23710077  1
  O2-  O181  1  0.32038018  0.07332801  0.57746056  1
  O2-  O182  1  0.32102755  0.07308622  0.90297251  1
  O2-  O183  1  0.32094642  0.57586661  0.23272172  1
  O2-  O184  1  0.31692348  0.57034200  0.56889922  1
  O2-  O185  1  0.31946263  0.56878389  0.90768892  1
  O2-  O186  1  0.82257213  0.06640400  0.24261142  1
  O2-  O187  1  0.82239666  0.06889226  0.57790420  1
  O2-  O188  1  0.81821990  0.07042160  0.90905296  1
  O2-  O189  1  0.81706675  0.57705088  0.23591460  1
  O2-  O190  1  0.82680503  0.57177143  0.57780139  1
  O2-  O191  1  0.82207208  0.56949384  0.90026154  1
  O2-  O192  1  0.03815995  0.08021015  0.26445591  1
  O2-  O193  1  0.04901660  0.08423838  0.60402780  1
  O2-  O194  1  0.04746579  0.08468498  0.93780285  1
  O2-  O195  1  0.04541639  0.58502440  0.26367504  1
  O2-  O196  1  0.04651279  0.58853422  0.60397702  1
  O2-  O197  1  0.04739732  0.58517752  0.93147952  1
  O2-  O198  1  0.53950843  0.07917461  0.26494680  1
  O2-  O199  1  0.54060206  0.08803425  0.60641701  1
  O2-  O200  1  0.54260454  0.08709309  0.93403018  1
  O2-  O201  1  0.54786656  0.58735709  0.27210539  1
  O2-  O202  1  0.54177737  0.57737750  0.59875983  1
  O2-  O203  1  0.54175516  0.57716547  0.93319430  1
  O2-  O204  1  0.17432139  0.19520213  0.26986488  1
  O2-  O205  1  0.16789845  0.20297299  0.60637871  1
  O2-  O206  1  0.16696311  0.20435629  0.93685886  1
  O2-  O207  1  0.16541617  0.71547403  0.26393759  1
  O2-  O208  1  0.16063270  0.71344223  0.60349567  1
  O2-  O209  1  0.16604575  0.70421600  0.93436530  1
  O2-  O210  1  0.67017304  0.19864051  0.26497295  1
  O2-  O211  1  0.66221018  0.20344368  0.60738130  1
  O2-  O212  1  0.66271400  0.20417656  0.93301676  1
  O2-  O213  1  0.66080287  0.71454485  0.27049970  1
  O2-  O214  1  0.67034120  0.70754290  0.59679411  1
  O2-  O215  1  0.66880628  0.70480800  0.93242289  1
  O2-  O216  1  0.08664195  0.45622198  0.05660558  1
  O2-  O217  1  0.08210380  0.46101293  0.40058102  1
  O2-  O218  1  0.08359339  0.45777212  0.72985850  1
  O2-  O219  1  0.07898694  0.95554468  0.06952721  1
  O2-  O220  1  0.08057242  0.95205744  0.39740301  1
  O2-  O221  1  0.08626237  0.95759170  0.73021475  1
  O2-  O222  1  0.57803715  0.45229187  0.06826739  1
  O2-  O223  1  0.58338049  0.45740108  0.40131499  1
  O2-  O224  1  0.58330578  0.45560315  0.73556750  1
  O2-  O225  1  0.58970461  0.95873267  0.06246656  1
  O2-  O226  1  0.58692604  0.95840311  0.39680434  1
  O2-  O227  1  0.58431647  0.96388277  0.73691087  1
  O2-  O228  1  0.20684485  0.33814571  0.05814824  1
  O2-  O229  1  0.20143065  0.32908712  0.40045017  1
  O2-  O230  1  0.20058588  0.33402457  0.73163142  1
  O2-  O231  1  0.20358357  0.82797545  0.06930466  1
  O2-  O232  1  0.20454746  0.83735399  0.39898703  1
  O2-  O233  1  0.20482981  0.83843049  0.73081391  1
  O2-  O234  1  0.70538084  0.32612768  0.06667867  1
  O2-  O235  1  0.70664695  0.32589476  0.39814166  1
  O2-  O236  1  0.71128036  0.33092047  0.73473429  1
  O2-  O237  1  0.70728755  0.83639015  0.06050698  1
  O2-  O238  1  0.70545648  0.83936552  0.39853213  1
  O2-  O239  1  0.70931172  0.83189346  0.73490492  1
  O2-  O240  1  0.45636666  0.42279828  0.26678115  1
  O2-  O241  1  0.45333299  0.41371963  0.60942992  1
  O2-  O242  1  0.45486336  0.41101940  0.93514556  1
  O2-  O243  1  0.46213356  0.91048025  0.27020207  1
  O2-  O244  1  0.45919151  0.92068986  0.59849818  1
  O2-  O245  1  0.45841168  0.92018108  0.93433170  1
  O2-  O246  1  0.95618396  0.42186834  0.26506538  1
  O2-  O247  1  0.95785973  0.41774573  0.59857304  1
  O2-  O248  1  0.96104237  0.41603753  0.92785622  1
  O2-  O249  1  0.95092876  0.91458446  0.27246802  1
  O2-  O250  1  0.95834483  0.91463340  0.60358262  1
  O2-  O251  1  0.95949968  0.91803566  0.92995778  1
  O2-  O252  1  0.33112707  0.29478381  0.26888357  1
  O2-  O253  1  0.33532810  0.29291341  0.60743856  1
  O2-  O254  1  0.33696697  0.29050092  0.93346312  1
  O2-  O255  1  0.33503978  0.79996883  0.27338346  1
  O2-  O256  1  0.32805459  0.79614878  0.59835543  1
  O2-  O257  1  0.32888156  0.79610494  0.93474123  1
  O2-  O258  1  0.83405182  0.28737333  0.26329061  1
  O2-  O259  1  0.83370775  0.28502856  0.59782167  1
  O2-  O260  1  0.83307042  0.28518495  0.93069595  1
  O2-  O261  1  0.83014444  0.79923817  0.27406850  1
  O2-  O262  1  0.83583252  0.79971557  0.60496063  1
  O2-  O263  1  0.83434160  0.79140844  0.93002033  1
  O2-  O264  1  0.42232203  0.04490293  0.06914766  1
  O2-  O265  1  0.41576030  0.03492328  0.40455311  1
  O2-  O266  1  0.41214286  0.04448599  0.73010390  1
  O2-  O267  1  0.41137828  0.54038232  0.05985593  1
  O2-  O268  1  0.42116892  0.54915532  0.40058823  1
  O2-  O269  1  0.41473378  0.53941011  0.73751890  1
  O2-  O270  1  0.91335983  0.04406069  0.06057854  1
  O2-  O271  1  0.91100324  0.03956239  0.39868897  1
  O2-  O272  1  0.91778221  0.04793193  0.72870720  1
  O2-  O273  1  0.92205810  0.54356056  0.06358995  1
  O2-  O274  1  0.92262948  0.55173734  0.39762916  1
  O2-  O275  1  0.91867651  0.54760835  0.72903465  1
  O2-  O276  1  0.29392910  0.17063154  0.06918676  1
  O2-  O277  1  0.29404703  0.16691550  0.40502046  1
  O2-  O278  1  0.29343247  0.16345756  0.73150479  1
  O2-  O279  1  0.29526047  0.66263894  0.05927235  1
  O2-  O280  1  0.28934060  0.67159947  0.40037788  1
  O2-  O281  1  0.28566113  0.66737457  0.73504415  1
  O2-  O282  1  0.79039405  0.16045860  0.06232234  1
  O2-  O283  1  0.79419967  0.16085825  0.39555214  1
  O2-  O284  1  0.79289176  0.16253882  0.73010509  1
  O2-  O285  1  0.79588722  0.67081381  0.06617845  1
  O2-  O286  1  0.79053581  0.67070951  0.40380592  1
  O2-  O287  1  0.80114811  0.66769437  0.72681236  1
