# generated using pymatgen
data_Ca2Al2SiO7
_symmetry_space_group_name_H-M   'P 1'
_cell_length_a   15.46340577
_cell_length_b   15.46561999
_cell_length_c   15.28687862
_cell_angle_alpha   90.01050997
_cell_angle_beta   89.98969472
_cell_angle_gamma   89.96560648
_symmetry_Int_Tables_number   1
_chemical_formula_structural   Ca2Al2SiO7
_chemical_formula_sum   'Ca48 Al48 Si24 O168'
_cell_volume   3655.87393430
_cell_formula_units_Z   24
loop_
 _symmetry_equiv_pos_site_id
 _symmetry_equiv_pos_as_xyz
  1  'x, y, z'
loop_
 _atom_type_symbol
 _atom_type_oxidation_number
  Ca2+  2.0
  Al0+  0.0
  Si0+  0.0
  O2-  -2.0
loop_
 _atom_site_type_symbol
 _atom_site_label
 _atom_site_symmetry_multiplicity
 _atom_site_fract_x
 _atom_site_fract_y
 _atom_site_fract_z
 _atom_site_occupancy
  Ca2+  Ca0  1  0.17155247  0.08816509  0.17223151  1
  Ca2+  Ca1  1  0.17741641  0.08636828  0.50768577  1
  Ca2+  Ca2  1  0.17060354  0.09566746  0.83338560  1
  Ca2+  Ca3  1  0.17019501  0.57805193  0.17525829  1
  Ca2+  Ca4  1  0.16836980  0.57951092  0.50168980  1
  Ca2+  Ca5  1  0.16487025  0.58633173  0.83642428  1
  Ca2+  Ca6  1  0.66807262  0.07694786  0.16799580  1
  Ca2+  Ca7  1  0.67213657  0.08686639  0.51074893  1
  Ca2+  Ca8  1  0.66998561  0.08324596  0.83412584  1
  Ca2+  Ca9  1  0.66941402  0.57042772  0.17172208  1
  Ca2+  Ca10  1  0.66382789  0.57783518  0.50244072  1
  Ca2+  Ca11  1  0.66670851  0.57918235  0.83991515  1
  Ca2+  Ca12  1  0.07654328  0.33461998  0.16067728  1
  Ca2+  Ca13  1  0.07521097  0.33159964  0.49625741  1
  Ca2+  Ca14  1  0.07271049  0.32261731  0.82893617  1
  Ca2+  Ca15  1  0.07285951  0.82817788  0.15980658  1
  Ca2+  Ca16  1  0.08130250  0.82901254  0.49675763  1
  Ca2+  Ca17  1  0.08243346  0.82342406  0.83181084  1
  Ca2+  Ca18  1  0.57383334  0.34403342  0.16496026  1
  Ca2+  Ca19  1  0.57461910  0.32843020  0.49676510  1
  Ca2+  Ca20  1  0.57478191  0.33395929  0.82668584  1
  Ca2+  Ca21  1  0.57823823  0.83533616  0.16377779  1
  Ca2+  Ca22  1  0.57390263  0.83026038  0.49889953  1
  Ca2+  Ca23  1  0.58234007  0.83050168  0.82612265  1
  Ca2+  Ca24  1  0.32796260  0.41895997  0.17971788  1
  Ca2+  Ca25  1  0.33183359  0.41418509  0.50011883  1
  Ca2+  Ca26  1  0.33598787  0.41384716  0.83764261  1
  Ca2+  Ca27  1  0.33088181  0.92438810  0.17758386  1
  Ca2+  Ca28  1  0.34136858  0.92491398  0.50589623  1
  Ca2+  Ca29  1  0.33720858  0.92298477  0.83219211  1
  Ca2+  Ca30  1  0.82544785  0.40639704  0.17215065  1
  Ca2+  Ca31  1  0.82908501  0.40585890  0.50356834  1
  Ca2+  Ca32  1  0.82924523  0.41127735  0.83972381  1
  Ca2+  Ca33  1  0.83121220  0.90887263  0.17022694  1
  Ca2+  Ca34  1  0.83515277  0.92282940  0.50769279  1
  Ca2+  Ca35  1  0.83024312  0.92172164  0.84126753  1
  Ca2+  Ca36  1  0.41169423  0.17905624  0.16472633  1
  Ca2+  Ca37  1  0.41400702  0.17104718  0.49726457  1
  Ca2+  Ca38  1  0.42214917  0.17693511  0.82372328  1
  Ca2+  Ca39  1  0.41167483  0.66811477  0.16832205  1
  Ca2+  Ca40  1  0.41648229  0.67473414  0.49629111  1
  Ca2+  Ca41  1  0.42628041  0.67478059  0.82139357  1
  Ca2+  Ca42  1  0.92522540  0.17765500  0.15968443  1
  Ca2+  Ca43  1  0.91802878  0.17194883  0.49921209  1
  Ca2+  Ca44  1  0.91906456  0.17375541  0.82480299  1
  Ca2+  Ca45  1  0.92138049  0.67398631  0.16058030  1
  Ca2+  Ca46  1  0.92280023  0.67067507  0.49637623  1
  Ca2+  Ca47  1  0.92507534  0.66941815  0.83091460  1
  Al0+  Al48  1  0.00297157  -0.00050730  -0.00563844  1
  Al0+  Al49  1  -0.00048525  -0.00081677  0.32907159  1
  Al0+  Al50  1  0.00079199  0.00030922  0.67016842  1
  Al0+  Al51  1  0.00071288  0.50030591  -0.00556546  1
  Al0+  Al52  1  -0.00161857  0.49982785  0.33256950  1
  Al0+  Al53  1  -0.00103751  0.50115401  0.66087387  1
  Al0+  Al54  1  0.50039368  0.00231705  0.00570330  1
  Al0+  Al55  1  0.50124763  -0.00203701  0.33267069  1
  Al0+  Al56  1  0.50036029  0.00055705  0.66719318  1
  Al0+  Al57  1  0.50013216  0.50278959  0.00078268  1
  Al0+  Al58  1  0.50148553  0.49941013  0.33851455  1
  Al0+  Al59  1  0.49927752  0.50090576  0.66085299  1
  Al0+  Al60  1  0.25132307  0.25347923  -0.00553279  1
  Al0+  Al61  1  0.25123005  0.24941069  0.33841228  1
  Al0+  Al62  1  0.24747064  0.25083622  0.66669450  1
  Al0+  Al63  1  0.25100127  0.75306761  -0.00195284  1
  Al0+  Al64  1  0.25042344  0.75032468  0.33235137  1
  Al0+  Al65  1  0.24949458  0.74970385  0.66073472  1
  Al0+  Al66  1  0.74773405  0.24773302  0.00452999  1
  Al0+  Al67  1  0.75057871  0.24698785  0.33289437  1
  Al0+  Al68  1  0.74774986  0.24964491  0.66724034  1
  Al0+  Al69  1  0.74901113  0.75025580  0.00261268  1
  Al0+  Al70  1  0.74880107  0.74798063  0.33132282  1
  Al0+  Al71  1  0.75032819  0.74759011  0.66407100  1
  Al0+  Al72  1  0.92535260  0.31991555  0.98552964  1
  Al0+  Al73  1  0.07303699  0.67928452  0.98593928  1
  Al0+  Al74  1  0.92795700  0.32039735  0.65150261  1
  Al0+  Al75  1  0.92857064  0.82123963  0.32088797  1
  Al0+  Al76  1  0.57052983  0.17944264  0.65361183  1
  Al0+  Al77  1  0.32095524  0.07183629  0.68270098  1
  Al0+  Al78  1  0.68086005  0.42686322  0.34954013  1
  Al0+  Al79  1  0.82134177  0.07130082  0.68102068  1
  Al0+  Al80  1  0.43179669  0.32360275  0.98785734  1
  Al0+  Al81  1  0.42933087  0.82098957  0.31766213  1
  Al0+  Al82  1  0.42966591  0.82161763  0.65282981  1
  Al0+  Al83  1  0.57406047  0.67773653  0.65122823  1
  Al0+  Al84  1  0.07066029  0.17674000  0.64989356  1
  Al0+  Al85  1  0.07332488  0.17951209  0.98585764  1
  Al0+  Al86  1  0.67982237  0.92881009  0.01463994  1
  Al0+  Al87  1  0.67846247  0.42828550  0.01306692  1
  Al0+  Al88  1  0.43022351  0.31968375  0.31951607  1
  Al0+  Al89  1  0.92832553  0.32063564  0.31872315  1
  Al0+  Al90  1  0.32118665  0.57252034  0.34984950  1
  Al0+  Al91  1  0.17635697  0.42843313  0.34893220  1
  Al0+  Al92  1  0.42675107  0.32192337  0.65055029  1
  Al0+  Al93  1  0.92618107  0.82089719  0.98371594  1
  Al0+  Al94  1  0.32148038  0.06974338  0.34688135  1
  Al0+  Al95  1  0.07105854  0.67894601  0.65083326  1
  Si0+  Si96  1  0.31909579  0.07250292  0.01510190  1
  Si0+  Si97  1  0.67927075  0.92640615  0.34978883  1
  Si0+  Si98  1  0.82104930  0.06787058  0.34739907  1
  Si0+  Si99  1  0.32142226  0.57408357  0.01292785  1
  Si0+  Si100  1  0.92806048  0.82181368  0.65169870  1
  Si0+  Si101  1  0.07229248  0.17844945  0.31806583  1
  Si0+  Si102  1  0.07186931  0.67783772  0.31642002  1
  Si0+  Si103  1  0.57008281  0.17550740  0.98505596  1
  Si0+  Si104  1  0.18078365  0.43048478  0.01239691  1
  Si0+  Si105  1  0.17996983  0.92701717  0.01532815  1
  Si0+  Si106  1  0.57333664  0.17622472  0.31498856  1
  Si0+  Si107  1  0.42967213  0.82428760  0.98599391  1
  Si0+  Si108  1  0.82082311  0.57300298  0.35069695  1
  Si0+  Si109  1  0.56929104  0.68042726  0.98738091  1
  Si0+  Si110  1  0.67942097  0.92614521  0.68224441  1
  Si0+  Si111  1  0.32038006  0.57125966  0.68225104  1
  Si0+  Si112  1  0.17683509  0.43069594  0.68355328  1
  Si0+  Si113  1  0.17834093  0.92593163  0.68485026  1
  Si0+  Si114  1  0.67854240  0.43070593  0.68186986  1
  Si0+  Si115  1  0.82516217  0.07089023  0.01833357  1
  Si0+  Si116  1  0.17633304  0.92882871  0.34870425  1
  Si0+  Si117  1  0.57147005  0.67740196  0.31393406  1
  Si0+  Si118  1  0.82216011  0.57183371  0.68210801  1
  Si0+  Si119  1  0.82303048  0.57109930  0.01621415  1
  O2-  O120  1  0.24656750  0.00266704  0.05716596  1
  O2-  O121  1  0.24688704  -0.00539018  0.39346198  1
  O2-  O122  1  0.24527313  -0.00310392  0.72944899  1
  O2-  O123  1  0.24939540  0.50404254  0.05432159  1
  O2-  O124  1  0.24922788  0.50004280  0.39929137  1
  O2-  O125  1  0.25100211  0.49946863  0.72619971  1
  O2-  O126  1  0.75850662  -0.00065541  0.06276008  1
  O2-  O127  1  0.75096959  -0.00355073  0.39098793  1
  O2-  O128  1  0.74826296  -0.00579311  0.72697145  1
  O2-  O129  1  0.75923300  0.49736020  0.05996896  1
  O2-  O130  1  0.75733455  0.50015736  0.39599650  1
  O2-  O131  1  0.75040782  0.50126883  0.72409840  1
  O2-  O132  1  0.00777328  0.25062110  0.27321590  1
  O2-  O133  1  -0.00136457  0.24812588  0.60017865  1
  O2-  O134  1  -0.00554364  0.24462827  0.93694812  1
  O2-  O135  1  0.00286609  0.74680452  0.27355290  1
  O2-  O136  1  -0.00242200  0.75525295  0.60600079  1
  O2-  O137  1  -0.00109633  0.74900330  0.93535274  1
  O2-  O138  1  0.50471527  0.24527903  0.27098778  1
  O2-  O139  1  0.49558843  0.24645799  0.60176393  1
  O2-  O140  1  0.50796679  0.25046600  0.94221284  1
  O2-  O141  1  0.50120131  0.74443195  0.26892064  1
  O2-  O142  1  0.50162605  0.74964395  0.60302226  1
  O2-  O143  1  0.50137538  0.75401308  0.94471048  1
  O2-  O144  1  0.07632502  0.18410242  0.09987163  1
  O2-  O145  1  0.06831938  0.17451623  0.42302175  1
  O2-  O146  1  0.06945592  0.18084832  0.76342556  1
  O2-  O147  1  0.07454840  0.68141734  0.09947260  1
  O2-  O148  1  0.07085491  0.67928080  0.42203557  1
  O2-  O149  1  0.07016680  0.67978962  0.76387079  1
  O2-  O150  1  0.56558132  0.17028361  0.09048785  1
  O2-  O151  1  0.57440326  0.17607628  0.42031377  1
  O2-  O152  1  0.57138597  0.18288361  0.76766269  1
  O2-  O153  1  0.56655718  0.67873810  0.09222628  1
  O2-  O154  1  0.57426929  0.68101839  0.41914520  1
  O2-  O155  1  0.57273558  0.67811501  0.76583669  1
  O2-  O156  1  0.17713159  0.43027864  0.23422616  1
  O2-  O157  1  0.17566466  0.43294474  0.57872172  1
  O2-  O158  1  0.18315763  0.43028928  0.90733573  1
  O2-  O159  1  0.17620327  0.93141865  0.24266814  1
  O2-  O160  1  0.17816584  0.92482105  0.57917750  1
  O2-  O161  1  0.18518683  0.92058724  0.91092602  1
  O2-  O162  1  0.68113530  0.42998457  0.23598791  1
  O2-  O163  1  0.68005919  0.43100072  0.57690110  1
  O2-  O164  1  0.67519966  0.43403262  0.89997869  1
  O2-  O165  1  0.67934304  0.92720472  0.24439083  1
  O2-  O166  1  0.68190933  0.92502221  0.57649812  1
  O2-  O167  1  0.67696203  0.93019240  0.90184067  1
  O2-  O168  1  0.42921655  0.32297295  0.10093083  1
  O2-  O169  1  0.43062552  0.31738764  0.43178418  1
  O2-  O170  1  0.43139269  0.32397344  0.76482016  1
  O2-  O171  1  0.42880860  0.82350407  0.09102767  1
  O2-  O172  1  0.43335528  0.82264879  0.42998349  1
  O2-  O173  1  0.43116012  0.81962363  0.76750963  1
  O2-  O174  1  0.92850060  0.31989878  0.09933846  1
  O2-  O175  1  0.92637175  0.31582777  0.43117648  1
  O2-  O176  1  0.92787867  0.32098312  0.76513495  1
  O2-  O177  1  0.92753291  0.81738824  0.09762563  1
  O2-  O178  1  0.93056051  0.82155560  0.43403170  1
  O2-  O179  1  0.92622001  0.81857226  0.75698391  1
  O2-  O180  1  0.31903362  0.07009646  0.23280838  1
  O2-  O181  1  0.32068291  0.06898781  0.56977916  1
  O2-  O182  1  0.32094647  0.07098307  0.91029201  1
  O2-  O183  1  0.31855974  0.57202335  0.23502381  1
  O2-  O184  1  0.31894051  0.57222584  0.57770107  1
  O2-  O185  1  0.32316086  0.57483740  0.90778826  1
  O2-  O186  1  0.82008585  0.06656199  0.24233641  1
  O2-  O187  1  0.81986485  0.06858394  0.56731634  1
  O2-  O188  1  0.82130095  0.07134047  0.91293738  1
  O2-  O189  1  0.81787257  0.57616797  0.24505922  1
  O2-  O190  1  0.82219032  0.57403679  0.57721874  1
  O2-  O191  1  0.81966777  0.57384982  0.91050959  1
  O2-  O192  1  0.04345343  0.08658945  0.26907591  1
  O2-  O193  1  0.04578732  0.07646589  0.59967084  1
  O2-  O194  1  0.05811084  0.07772178  0.93588184  1
  O2-  O195  1  0.04557555  0.58490452  0.26988797  1
  O2-  O196  1  0.03754258  0.58517982  0.59480244  1
  O2-  O197  1  0.04796618  0.58116303  0.93136288  1
  O2-  O198  1  0.54823254  0.08218835  0.26951910  1
  O2-  O199  1  0.55049872  0.07882771  0.60296987  1
  O2-  O200  1  0.53848586  0.08492351  0.93616966  1
  O2-  O201  1  0.54677684  0.58301513  0.26984343  1
  O2-  O202  1  0.54445271  0.58156052  0.59688275  1
  O2-  O203  1  0.53857533  0.59129621  0.93687255  1
  O2-  O204  1  0.16749698  0.20046469  0.27472818  1
  O2-  O205  1  0.16859222  0.20639301  0.59868636  1
  O2-  O206  1  0.16781851  0.21548253  0.92978875  1
  O2-  O207  1  0.16519554  0.70310756  0.27041059  1
  O2-  O208  1  0.16648892  0.70836714  0.59549041  1
  O2-  O209  1  0.17042424  0.71172747  0.93152439  1
  O2-  O210  1  0.66672782  0.20071071  0.26816122  1
  O2-  O211  1  0.66645605  0.21085009  0.59839136  1
  O2-  O212  1  0.66656259  0.19395598  0.94371680  1
  O2-  O213  1  0.66391198  0.70520950  0.26636681  1
  O2-  O214  1  0.67194027  0.70399306  0.59646450  1
  O2-  O215  1  0.66193404  0.70500213  0.94091497  1
  O2-  O216  1  0.08745017  0.45572795  0.05863782  1
  O2-  O217  1  0.07745351  0.45725725  0.40129927  1
  O2-  O218  1  0.08570031  0.46331119  0.72994455  1
  O2-  O219  1  0.08559201  0.94906761  0.06057442  1
  O2-  O220  1  0.08288449  0.95518059  0.39504130  1
  O2-  O221  1  0.08397149  0.94756964  0.73118190  1
  O2-  O222  1  0.58439504  0.46770085  0.06852098  1
  O2-  O223  1  0.58584683  0.45937165  0.40424181  1
  O2-  O224  1  0.58624519  0.46055831  0.72796826  1
  O2-  O225  1  0.58438460  0.96325829  0.07150055  1
  O2-  O226  1  0.58798103  0.95474751  0.39666683  1
  O2-  O227  1  0.58607632  0.95111134  0.72886475  1
  O2-  O228  1  0.21179818  0.34021098  0.06105203  1
  O2-  O229  1  0.20424949  0.33051859  0.40187780  1
  O2-  O230  1  0.20213700  0.33838960  0.73093350  1
  O2-  O231  1  0.21269756  0.83817141  0.06674985  1
  O2-  O232  1  0.19871525  0.83388550  0.39243644  1
  O2-  O233  1  0.20782555  0.83263413  0.73085352  1
  O2-  O234  1  0.69988759  0.32953500  0.06779920  1
  O2-  O235  1  0.71075088  0.32888007  0.40107506  1
  O2-  O236  1  0.70524817  0.33920444  0.72998711  1
  O2-  O237  1  0.70535773  0.83109012  0.07048076  1
  O2-  O238  1  0.70581212  0.83387992  0.39580494  1
  O2-  O239  1  0.70486285  0.83175331  0.72818589  1
  O2-  O240  1  0.46145089  0.41783755  0.26817759  1
  O2-  O241  1  0.45659986  0.41892161  0.59758384  1
  O2-  O242  1  0.46051226  0.42081525  0.93367057  1
  O2-  O243  1  0.46356864  0.91620260  0.26198886  1
  O2-  O244  1  0.45884646  0.91905461  0.60039331  1
  O2-  O245  1  0.45815531  0.91650288  0.94057635  1
  O2-  O246  1  0.95188137  0.41996378  0.26650058  1
  O2-  O247  1  0.95515627  0.41851054  0.59837885  1
  O2-  O248  1  0.95342706  0.41833567  0.93342553  1
  O2-  O249  1  0.95834151  0.91662898  0.26350982  1
  O2-  O250  1  0.95259595  0.91583373  0.60733416  1
  O2-  O251  1  0.95377498  0.91927249  0.93194426  1
  O2-  O252  1  0.33239210  0.28859868  0.26680889  1
  O2-  O253  1  0.32690452  0.29769497  0.60158824  1
  O2-  O254  1  0.33722766  0.29196769  0.93191308  1
  O2-  O255  1  0.33109000  0.79391168  0.26398385  1
  O2-  O256  1  0.33250969  0.79359466  0.59905663  1
  O2-  O257  1  0.33912886  0.79627615  0.93759192  1
  O2-  O258  1  0.83366354  0.28356215  0.26435413  1
  O2-  O259  1  0.82937944  0.29128279  0.60095344  1
  O2-  O260  1  0.82460869  0.29412933  0.93604704  1
  O2-  O261  1  0.83187608  0.78974359  0.26726097  1
  O2-  O262  1  0.83564781  0.79502920  0.60418716  1
  O2-  O263  1  0.82695327  0.79284434  0.93267623  1
  O2-  O264  1  0.40955414  0.04341835  0.06428023  1
  O2-  O265  1  0.41872537  0.03787686  0.39869331  1
  O2-  O266  1  0.41787914  0.04010535  0.73732791  1
  O2-  O267  1  0.41223643  0.54657896  0.06209428  1
  O2-  O268  1  0.42024943  0.54714435  0.40115937  1
  O2-  O269  1  0.41377346  0.54483670  0.72862584  1
  O2-  O270  1  0.92120925  0.04884356  0.06116049  1
  O2-  O271  1  0.91323245  0.04005856  0.39422906  1
  O2-  O272  1  0.91808423  0.04278661  0.73612833  1
  O2-  O273  1  0.91923421  0.55153721  0.05960811  1
  O2-  O274  1  0.91655923  0.55351135  0.39381810  1
  O2-  O275  1  0.91404861  0.54384469  0.72943934  1
  O2-  O276  1  0.29062790  0.16539241  0.06078042  1
  O2-  O277  1  0.29193325  0.16488309  0.40268162  1
  O2-  O278  1  0.28981812  0.16928856  0.73654785  1
  O2-  O279  1  0.29465856  0.66648409  0.06069312  1
  O2-  O280  1  0.29292670  0.67189965  0.40148634  1
  O2-  O281  1  0.29142523  0.66351847  0.72920401  1
  O2-  O282  1  0.79613293  0.16260270  0.06719191  1
  O2-  O283  1  0.79205358  0.15859166  0.39545447  1
  O2-  O284  1  0.78607927  0.16638804  0.73618088  1
  O2-  O285  1  0.79190052  0.66228302  0.06458860  1
  O2-  O286  1  0.79020707  0.66473115  0.39898253  1
  O2-  O287  1  0.79423892  0.66343339  0.73098973  1
