# generated using pymatgen
data_Ca2Al2SiO7
_symmetry_space_group_name_H-M   'P 1'
_cell_length_a   15.45950189
_cell_length_b   15.46128610
_cell_length_c   15.28485079
_cell_angle_alpha   89.99734179
_cell_angle_beta   90.00702092
_cell_angle_gamma   89.98817070
_symmetry_Int_Tables_number   1
_chemical_formula_structural   Ca2Al2SiO7
_chemical_formula_sum   'Ca48 Al48 Si24 O168'
_cell_volume   3653.44272746
_cell_formula_units_Z   24
loop_
 _symmetry_equiv_pos_site_id
 _symmetry_equiv_pos_as_xyz
  1  'x, y, z'
loop_
 _atom_type_symbol
 _atom_type_oxidation_number
  Ca2+  2.0
  Al0+  0.0
  Si0+  0.0
  O2-  -2.0
loop_
 _atom_site_type_symbol
 _atom_site_label
 _atom_site_symmetry_multiplicity
 _atom_site_fract_x
 _atom_site_fract_y
 _atom_site_fract_z
 _atom_site_occupancy
  Ca2+  Ca0  1  0.16215617  0.07013072  0.16852054  1
  Ca2+  Ca1  1  0.17266170  0.07927704  0.50947073  1
  Ca2+  Ca2  1  0.17020064  0.08905552  0.83895830  1
  Ca2+  Ca3  1  0.17221416  0.58600261  0.17042185  1
  Ca2+  Ca4  1  0.17268562  0.57886726  0.50776855  1
  Ca2+  Ca5  1  0.15680518  0.57858716  0.83463653  1
  Ca2+  Ca6  1  0.66612471  0.08361500  0.16872515  1
  Ca2+  Ca7  1  0.67098063  0.08595270  0.50993913  1
  Ca2+  Ca8  1  0.66674213  0.08172512  0.83443093  1
  Ca2+  Ca9  1  0.67386792  0.58566339  0.16576790  1
  Ca2+  Ca10  1  0.66682651  0.57321928  0.51078657  1
  Ca2+  Ca11  1  0.67250340  0.57476543  0.83933578  1
  Ca2+  Ca12  1  0.08235566  0.32346523  0.15841313  1
  Ca2+  Ca13  1  0.08481517  0.32783555  0.50859063  1
  Ca2+  Ca14  1  0.08064610  0.32351236  0.82256113  1
  Ca2+  Ca15  1  0.07929344  0.83372235  0.15387762  1
  Ca2+  Ca16  1  0.08899356  0.83001861  0.49712698  1
  Ca2+  Ca17  1  0.08359017  0.82508067  0.83400577  1
  Ca2+  Ca18  1  0.57817645  0.32114531  0.15903984  1
  Ca2+  Ca19  1  0.58845556  0.32140725  0.50002521  1
  Ca2+  Ca20  1  0.57706028  0.32498254  0.82528825  1
  Ca2+  Ca21  1  0.57024656  0.83926741  0.15852811  1
  Ca2+  Ca22  1  0.57741290  0.83886216  0.49757478  1
  Ca2+  Ca23  1  0.58246012  0.84260395  0.83113091  1
  Ca2+  Ca24  1  0.33686122  0.42192112  0.16956397  1
  Ca2+  Ca25  1  0.33250237  0.42032874  0.51036314  1
  Ca2+  Ca26  1  0.33105968  0.40826958  0.83504795  1
  Ca2+  Ca27  1  0.32287135  0.90591287  0.16938421  1
  Ca2+  Ca28  1  0.33131568  0.92065535  0.50285962  1
  Ca2+  Ca29  1  0.32990625  0.92557768  0.83924742  1
  Ca2+  Ca30  1  0.83605067  0.42365029  0.16634123  1
  Ca2+  Ca31  1  0.82860252  0.41410896  0.51170714  1
  Ca2+  Ca32  1  0.83309205  0.41580888  0.83335620  1
  Ca2+  Ca33  1  0.82883080  0.92043870  0.16851195  1
  Ca2+  Ca34  1  0.82544543  0.93187274  0.50920673  1
  Ca2+  Ca35  1  0.82373513  0.91750768  0.83869235  1
  Ca2+  Ca36  1  0.42845348  0.16855144  0.15741544  1
  Ca2+  Ca37  1  0.42555863  0.16463501  0.50251316  1
  Ca2+  Ca38  1  0.42385441  0.17221498  0.82537568  1
  Ca2+  Ca39  1  0.41169028  0.67565343  0.16445906  1
  Ca2+  Ca40  1  0.41564001  0.67123425  0.49272712  1
  Ca2+  Ca41  1  0.41457709  0.67727735  0.83278534  1
  Ca2+  Ca42  1  0.92096378  0.16234375  0.16272915  1
  Ca2+  Ca43  1  0.90912626  0.16857329  0.50090756  1
  Ca2+  Ca44  1  0.92751690  0.16500137  0.82419453  1
  Ca2+  Ca45  1  0.92366143  0.67409170  0.15115966  1
  Ca2+  Ca46  1  0.92473490  0.66663661  0.50046666  1
  Ca2+  Ca47  1  0.92054633  0.66974890  0.83217882  1
  Al0+  Al48  1  -0.00052665  -0.00094297  -0.00501163  1
  Al0+  Al49  1  -0.00115553  -0.00105628  0.34282631  1
  Al0+  Al50  1  0.00011090  -0.00323592  0.66615412  1
  Al0+  Al51  1  0.00073351  0.49944377  0.00424117  1
  Al0+  Al52  1  0.00053966  0.49902325  0.33305971  1
  Al0+  Al53  1  0.00252820  0.50094258  0.66087433  1
  Al0+  Al54  1  0.50039112  0.00083644  -0.00322616  1
  Al0+  Al55  1  0.49779177  -0.00072657  0.32334270  1
  Al0+  Al56  1  0.49696460  0.00097449  0.66935302  1
  Al0+  Al57  1  0.49907784  0.50027270  -0.00028359  1
  Al0+  Al58  1  0.50149167  0.50048460  0.33665260  1
  Al0+  Al59  1  0.50029580  0.50299541  0.66995874  1
  Al0+  Al60  1  0.25033872  0.25052978  -0.00131686  1
  Al0+  Al61  1  0.24867991  0.24936337  0.33201483  1
  Al0+  Al62  1  0.24984067  0.25172582  0.66588121  1
  Al0+  Al63  1  0.25040275  0.74943131  -0.00548587  1
  Al0+  Al64  1  0.25031216  0.74718476  0.33885442  1
  Al0+  Al65  1  0.25040061  0.74992578  0.66211755  1
  Al0+  Al66  1  0.74961846  0.25049526  -0.00071254  1
  Al0+  Al67  1  0.75087780  0.25125251  0.32895111  1
  Al0+  Al68  1  0.75064097  0.25046627  0.67055152  1
  Al0+  Al69  1  0.74937911  0.75011667  0.00669453  1
  Al0+  Al70  1  0.75109074  0.75006986  0.33505146  1
  Al0+  Al71  1  0.74973379  0.75073933  0.66691698  1
  Al0+  Al72  1  0.42902482  0.32298020  0.98562930  1
  Al0+  Al73  1  0.82278454  0.07220785  0.68390266  1
  Al0+  Al74  1  0.07182892  0.67776452  0.98585340  1
  Al0+  Al75  1  0.18074781  0.43177372  0.68085864  1
  Al0+  Al76  1  0.18018253  0.92938754  0.01108613  1
  Al0+  Al77  1  0.92965225  0.31955738  0.65259933  1
  Al0+  Al78  1  0.31804437  0.07107605  0.67981784  1
  Al0+  Al79  1  0.42841989  0.32399927  0.65047880  1
  Al0+  Al80  1  0.67818910  0.42891576  0.68103501  1
  Al0+  Al81  1  0.42887184  0.82023569  0.98501171  1
  Al0+  Al82  1  0.81876497  0.07117979  0.34642597  1
  Al0+  Al83  1  0.56982346  0.17887117  0.65146913  1
  Al0+  Al84  1  0.07237866  0.17521353  0.65027680  1
  Al0+  Al85  1  0.82156050  0.56973482  0.01344028  1
  Al0+  Al86  1  0.57287410  0.17837315  0.98236474  1
  Al0+  Al87  1  0.17938673  0.92866625  0.34713452  1
  Al0+  Al88  1  0.92582448  0.82167161  0.98511896  1
  Al0+  Al89  1  0.67757564  0.92987188  0.01600239  1
  Al0+  Al90  1  0.67787474  0.92930084  0.68090658  1
  Al0+  Al91  1  0.06942123  0.17809220  0.98882580  1
  Al0+  Al92  1  0.32067025  0.56817222  0.34692078  1
  Al0+  Al93  1  0.42920983  0.81829043  0.31978243  1
  Al0+  Al94  1  0.57146106  0.18003073  0.31839115  1
  Al0+  Al95  1  0.07048905  0.68072205  0.65034096  1
  Si0+  Si96  1  0.68218091  0.43104676  0.34718979  1
  Si0+  Si97  1  0.07101870  0.17690815  0.31901098  1
  Si0+  Si98  1  0.57263561  0.67792296  0.98436559  1
  Si0+  Si99  1  0.32142163  0.57153743  0.01441668  1
  Si0+  Si100  1  0.82343275  0.57248676  0.34952445  1
  Si0+  Si101  1  0.57473092  0.67562398  0.31698157  1
  Si0+  Si102  1  0.82299262  0.57211469  0.68173576  1
  Si0+  Si103  1  0.67677343  0.42788053  0.01885727  1
  Si0+  Si104  1  0.32132771  0.07335654  0.01784006  1
  Si0+  Si105  1  0.42961634  0.82072230  0.65089346  1
  Si0+  Si106  1  0.92477964  0.82122953  0.64697322  1
  Si0+  Si107  1  0.57257944  0.67965573  0.65286989  1
  Si0+  Si108  1  0.17614544  0.42542404  0.35064747  1
  Si0+  Si109  1  0.82228659  0.07279527  0.01638382  1
  Si0+  Si110  1  0.32280353  0.07313799  0.34776001  1
  Si0+  Si111  1  0.32290679  0.57476961  0.68598306  1
  Si0+  Si112  1  0.06939735  0.67882048  0.31820645  1
  Si0+  Si113  1  0.67501484  0.92811355  0.34809792  1
  Si0+  Si114  1  0.42710784  0.32392885  0.31784359  1
  Si0+  Si115  1  0.92874430  0.32324848  0.98557995  1
  Si0+  Si116  1  0.92939098  0.82145759  0.31955697  1
  Si0+  Si117  1  0.92934463  0.32131660  0.31672681  1
  Si0+  Si118  1  0.17815348  0.92494179  0.68391809  1
  Si0+  Si119  1  0.17937971  0.42787967  0.01602197  1
  O2-  O120  1  0.25372212  0.00327428  0.06217977  1
  O2-  O121  1  0.25346875  0.00480154  0.39178494  1
  O2-  O122  1  0.23894959  0.00071090  0.72687780  1
  O2-  O123  1  0.25098259  0.49934458  0.05684334  1
  O2-  O124  1  0.24935073  0.49033197  0.39288152  1
  O2-  O125  1  0.25673373  0.50413580  0.73004530  1
  O2-  O126  1  0.75194121  0.00596374  0.06164460  1
  O2-  O127  1  0.74112810  -0.00120813  0.39200457  1
  O2-  O128  1  0.75022844  -0.00015715  0.73195751  1
  O2-  O129  1  0.74693506  0.49564035  0.06319948  1
  O2-  O130  1  0.75059430  0.50398100  0.39138215  1
  O2-  O131  1  0.75516747  0.50279157  0.72561969  1
  O2-  O132  1  0.00126702  0.24998504  0.27660257  1
  O2-  O133  1  -0.00359527  0.24360473  0.59980835  1
  O2-  O134  1  -0.00621063  0.25156606  0.94288751  1
  O2-  O135  1  -0.00119118  0.74945719  0.27566684  1
  O2-  O136  1  -0.00256333  0.75636946  0.60212997  1
  O2-  O137  1  -0.00149191  0.74895437  0.93725234  1
  O2-  O138  1  0.49256814  0.25233697  0.27393568  1
  O2-  O139  1  0.50101089  0.25339003  0.59951128  1
  O2-  O140  1  0.50058008  0.25152344  0.93596316  1
  O2-  O141  1  0.50725484  0.74580856  0.27361803  1
  O2-  O142  1  0.50227674  0.75071180  0.60960001  1
  O2-  O143  1  0.50715282  0.74878658  0.93885621  1
  O2-  O144  1  0.06798271  0.17920119  0.10313905  1
  O2-  O145  1  0.07240893  0.17782980  0.42328222  1
  O2-  O146  1  0.07274034  0.17996435  0.76381800  1
  O2-  O147  1  0.07206880  0.67876017  0.10038864  1
  O2-  O148  1  0.06729848  0.67806478  0.42318662  1
  O2-  O149  1  0.06916487  0.68107416  0.76299586  1
  O2-  O150  1  0.57221891  0.18112119  0.09701197  1
  O2-  O151  1  0.57378969  0.18121677  0.43096536  1
  O2-  O152  1  0.56743726  0.17831208  0.76419132  1
  O2-  O153  1  0.56961597  0.67636135  0.09037621  1
  O2-  O154  1  0.57545781  0.67400136  0.42265266  1
  O2-  O155  1  0.57274340  0.67894378  0.75763496  1
  O2-  O156  1  0.17320369  0.42631783  0.24473170  1
  O2-  O157  1  0.18139841  0.43493545  0.56725823  1
  O2-  O158  1  0.17715323  0.42823341  0.91155024  1
  O2-  O159  1  0.17730650  0.92808693  0.23384653  1
  O2-  O160  1  0.18412817  0.92217862  0.57777090  1
  O2-  O161  1  0.18292565  0.92891121  0.89863352  1
  O2-  O162  1  0.68450847  0.43298915  0.24209288  1
  O2-  O163  1  0.67931297  0.43229239  0.56691463  1
  O2-  O164  1  0.67647189  0.43006973  0.91373242  1
  O2-  O165  1  0.67755463  0.92644267  0.24271043  1
  O2-  O166  1  0.67838684  0.92809642  0.56651752  1
  O2-  O167  1  0.67931223  0.92885121  0.90357676  1
  O2-  O168  1  0.43060902  0.32349771  0.10025452  1
  O2-  O169  1  0.42831957  0.32640832  0.42270642  1
  O2-  O170  1  0.43056706  0.32231527  0.76369508  1
  O2-  O171  1  0.42647644  0.81519360  0.09837595  1
  O2-  O172  1  0.43103036  0.81738918  0.43315811  1
  O2-  O173  1  0.42768794  0.81839759  0.75575792  1
  O2-  O174  1  0.93162151  0.32439856  0.09218567  1
  O2-  O175  1  0.92651775  0.32388459  0.42099603  1
  O2-  O176  1  0.93372435  0.32332114  0.76603766  1
  O2-  O177  1  0.92862556  0.82126136  0.09993760  1
  O2-  O178  1  0.92939609  0.81809522  0.42436568  1
  O2-  O179  1  0.92123025  0.81732707  0.75199280  1
  O2-  O180  1  0.32078701  0.07485879  0.24229507  1
  O2-  O181  1  0.32088257  0.06531418  0.56598059  1
  O2-  O182  1  0.31863935  0.07370915  0.91240369  1
  O2-  O183  1  0.31768828  0.56889339  0.23338570  1
  O2-  O184  1  0.32134458  0.57607330  0.57993692  1
  O2-  O185  1  0.32269732  0.57268968  0.90993038  1
  O2-  O186  1  0.82158800  0.06878757  0.23326805  1
  O2-  O187  1  0.81889600  0.07091352  0.56953127  1
  O2-  O188  1  0.82315989  0.07302782  0.91164933  1
  O2-  O189  1  0.82473539  0.57147599  0.24459155  1
  O2-  O190  1  0.81970487  0.57251196  0.57528234  1
  O2-  O191  1  0.82098010  0.56702067  0.90060891  1
  O2-  O192  1  0.03907044  0.08496621  0.27385878  1
  O2-  O193  1  0.05227902  0.07324424  0.60079866  1
  O2-  O194  1  0.04260706  0.08304374  0.93222434  1
  O2-  O195  1  0.04239649  0.58619973  0.27110789  1
  O2-  O196  1  0.03888443  0.58626324  0.59268189  1
  O2-  O197  1  0.04237029  0.57851788  0.93597963  1
  O2-  O198  1  0.54303997  0.08361543  0.26277203  1
  O2-  O199  1  0.53663720  0.08108465  0.59833520  1
  O2-  O200  1  0.54503947  0.08052458  0.93097281  1
  O2-  O201  1  0.54855884  0.58243975  0.27008295  1
  O2-  O202  1  0.54363428  0.58904593  0.60343921  1
  O2-  O203  1  0.54456017  0.58547353  0.93780470  1
  O2-  O204  1  0.16293803  0.20271664  0.26954523  1
  O2-  O205  1  0.16812122  0.21047075  0.59598877  1
  O2-  O206  1  0.16527578  0.21073568  0.93652163  1
  O2-  O207  1  0.16260262  0.70523110  0.27422014  1
  O2-  O208  1  0.16758810  0.71098699  0.59517125  1
  O2-  O209  1  0.16845938  0.70489743  0.93060817  1
  O2-  O210  1  0.66614484  0.21562324  0.26255207  1
  O2-  O211  1  0.66945729  0.20762886  0.60157635  1
  O2-  O212  1  0.67210280  0.20643047  0.93203846  1
  O2-  O213  1  0.66990127  0.69929473  0.27209359  1
  O2-  O214  1  0.66419273  0.70489811  0.60287151  1
  O2-  O215  1  0.66762218  0.69935003  0.94145365  1
  O2-  O216  1  0.08867684  0.45506555  0.06687606  1
  O2-  O217  1  0.08413456  0.45615534  0.39726646  1
  O2-  O218  1  0.08427910  0.46620294  0.73299468  1
  O2-  O219  1  0.08233284  0.95955072  0.06482385  1
  O2-  O220  1  0.08422415  0.95718286  0.40443014  1
  O2-  O221  1  0.08061081  0.93813880  0.72412252  1
  O2-  O222  1  0.58397839  0.45636622  0.06590256  1
  O2-  O223  1  0.59006842  0.45568281  0.39513916  1
  O2-  O224  1  0.58394773  0.46451039  0.73631975  1
  O2-  O225  1  0.57990097  0.96064211  0.06925511  1
  O2-  O226  1  0.57925840  0.95104324  0.39025488  1
  O2-  O227  1  0.57902852  0.95557239  0.73250706  1
  O2-  O228  1  0.20803947  0.33702726  0.06616596  1
  O2-  O229  1  0.19696812  0.33001033  0.39474527  1
  O2-  O230  1  0.20801901  0.33463121  0.73427493  1
  O2-  O231  1  0.21200235  0.83171490  0.06455038  1
  O2-  O232  1  0.21175132  0.83316594  0.40225232  1
  O2-  O233  1  0.21221402  0.83387971  0.72969384  1
  O2-  O234  1  0.70342444  0.33446728  0.06548169  1
  O2-  O235  1  0.71386520  0.34030919  0.39343511  1
  O2-  O236  1  0.70802001  0.33419597  0.73670327  1
  O2-  O237  1  0.70571731  0.83313675  0.07215408  1
  O2-  O238  1  0.70103052  0.83391596  0.39425154  1
  O2-  O239  1  0.70486740  0.82947954  0.73281369  1
  O2-  O240  1  0.45677377  0.41692556  0.27130614  1
  O2-  O241  1  0.45422167  0.42566473  0.60186331  1
  O2-  O242  1  0.45385258  0.42246120  0.93363280  1
  O2-  O243  1  0.45359829  0.91439417  0.26200459  1
  O2-  O244  1  0.45690184  0.91195883  0.60302476  1
  O2-  O245  1  0.45605774  0.91752388  0.93267385  1
  O2-  O246  1  0.95859939  0.41328605  0.26848153  1
  O2-  O247  1  0.96053497  0.41673776  0.59661986  1
  O2-  O248  1  0.95713651  0.41535461  0.93999854  1
  O2-  O249  1  0.95848950  0.91360274  0.27414357  1
  O2-  O250  1  0.94773248  0.91561619  0.60201326  1
  O2-  O251  1  0.95337054  0.91832247  0.93072310  1
  O2-  O252  1  0.33118072  0.30308837  0.27297462  1
  O2-  O253  1  0.33036644  0.29611761  0.59763323  1
  O2-  O254  1  0.32999539  0.29629147  0.93477979  1
  O2-  O255  1  0.33296437  0.78132299  0.26771670  1
  O2-  O256  1  0.33966612  0.79052757  0.60099310  1
  O2-  O257  1  0.33582014  0.78544214  0.92805359  1
  O2-  O258  1  0.83918736  0.29444966  0.26569881  1
  O2-  O259  1  0.82970070  0.29561991  0.60006786  1
  O2-  O260  1  0.83309351  0.30414915  0.94283238  1
  O2-  O261  1  0.83618086  0.79557356  0.27298420  1
  O2-  O262  1  0.83311118  0.79129132  0.59787714  1
  O2-  O263  1  0.82757620  0.79016349  0.93487537  1
  O2-  O264  1  0.41574968  0.04798324  0.06134080  1
  O2-  O265  1  0.41636739  0.04432468  0.39203271  1
  O2-  O266  1  0.41143047  0.03562065  0.73621634  1
  O2-  O267  1  0.41307766  0.54526484  0.06430875  1
  O2-  O268  1  0.41951337  0.54445618  0.40097216  1
  O2-  O269  1  0.41768389  0.55548743  0.73130582  1
  O2-  O270  1  0.91544674  0.04448759  0.06279904  1
  O2-  O271  1  0.91287214  0.03922918  0.40397931  1
  O2-  O272  1  0.92260730  0.04316706  0.73358351  1
  O2-  O273  1  0.91695276  0.53772452  0.07190485  1
  O2-  O274  1  0.91477994  0.54200140  0.39658034  1
  O2-  O275  1  0.91703748  0.54688615  0.72484254  1
  O2-  O276  1  0.29523989  0.16680629  0.06487597  1
  O2-  O277  1  0.29826331  0.16720877  0.39385494  1
  O2-  O278  1  0.29155777  0.16859265  0.73275216  1
  O2-  O279  1  0.29035090  0.66209583  0.06278593  1
  O2-  O280  1  0.28713248  0.66179187  0.40470249  1
  O2-  O281  1  0.29345779  0.66809139  0.73028374  1
  O2-  O282  1  0.79942685  0.16790091  0.06293501  1
  O2-  O283  1  0.79108486  0.17036420  0.39683119  1
  O2-  O284  1  0.79832529  0.17082865  0.73625215  1
  O2-  O285  1  0.79056288  0.66442278  0.07197185  1
  O2-  O286  1  0.79906851  0.66520910  0.39708847  1
  O2-  O287  1  0.79563921  0.66481329  0.72752003  1
