# generated using pymatgen
data_Ca2Al2SiO7
_symmetry_space_group_name_H-M   'P 1'
_cell_length_a   15.46241287
_cell_length_b   15.46184161
_cell_length_c   15.28721784
_cell_angle_alpha   90.00271691
_cell_angle_beta   89.99490083
_cell_angle_gamma   90.00067128
_symmetry_Int_Tables_number   1
_chemical_formula_structural   Ca2Al2SiO7
_chemical_formula_sum   'Ca48 Al48 Si24 O168'
_cell_volume   3654.82794883
_cell_formula_units_Z   24
loop_
 _symmetry_equiv_pos_site_id
 _symmetry_equiv_pos_as_xyz
  1  'x, y, z'
loop_
 _atom_type_symbol
 _atom_type_oxidation_number
  Ca2+  2.0
  Al0+  0.0
  Si0+  0.0
  O2-  -2.0
loop_
 _atom_site_type_symbol
 _atom_site_label
 _atom_site_symmetry_multiplicity
 _atom_site_fract_x
 _atom_site_fract_y
 _atom_site_fract_z
 _atom_site_occupancy
  Ca2+  Ca0  1  0.16253944  0.08084377  0.16032437  1
  Ca2+  Ca1  1  0.16693036  0.07779171  0.51286612  1
  Ca2+  Ca2  1  0.16786385  0.08103940  0.83933557  1
  Ca2+  Ca3  1  0.17293897  0.58989914  0.17462502  1
  Ca2+  Ca4  1  0.16769493  0.58164178  0.50371136  1
  Ca2+  Ca5  1  0.16280768  0.57226096  0.83553862  1
  Ca2+  Ca6  1  0.67937045  0.07590356  0.16745543  1
  Ca2+  Ca7  1  0.68051327  0.08445681  0.50320495  1
  Ca2+  Ca8  1  0.67955582  0.08166865  0.84229022  1
  Ca2+  Ca9  1  0.65920737  0.57557888  0.17045551  1
  Ca2+  Ca10  1  0.66526019  0.57951800  0.49740188  1
  Ca2+  Ca11  1  0.66561418  0.57581476  0.84138373  1
  Ca2+  Ca12  1  0.06797794  0.32740239  0.15718245  1
  Ca2+  Ca13  1  0.07543752  0.33017887  0.49885308  1
  Ca2+  Ca14  1  0.07638642  0.32003550  0.82431192  1
  Ca2+  Ca15  1  0.07705908  0.83309439  0.16378243  1
  Ca2+  Ca16  1  0.08134234  0.83275740  0.49272929  1
  Ca2+  Ca17  1  0.08245551  0.84438916  0.83520920  1
  Ca2+  Ca18  1  0.58622839  0.33645421  0.16198550  1
  Ca2+  Ca19  1  0.57895667  0.33456184  0.49676480  1
  Ca2+  Ca20  1  0.57738826  0.33327025  0.83032684  1
  Ca2+  Ca21  1  0.58179534  0.82362154  0.15312439  1
  Ca2+  Ca22  1  0.58041625  0.82578010  0.49172938  1
  Ca2+  Ca23  1  0.58401728  0.83585430  0.83635674  1
  Ca2+  Ca24  1  0.32903546  0.42543382  0.17376161  1
  Ca2+  Ca25  1  0.32755494  0.42263709  0.50711379  1
  Ca2+  Ca26  1  0.32536494  0.40724715  0.83264864  1
  Ca2+  Ca27  1  0.33263795  0.91617872  0.16372116  1
  Ca2+  Ca28  1  0.32423268  0.92297870  0.51091219  1
  Ca2+  Ca29  1  0.32453975  0.92648732  0.84278794  1
  Ca2+  Ca30  1  0.82402224  0.40884244  0.17165738  1
  Ca2+  Ca31  1  0.83182240  0.40853395  0.50140137  1
  Ca2+  Ca32  1  0.83139641  0.41202151  0.84145071  1
  Ca2+  Ca33  1  0.84595593  0.92547973  0.16742290  1
  Ca2+  Ca34  1  0.84208704  0.92813696  0.50222783  1
  Ca2+  Ca35  1  0.83395065  0.92869742  0.84389811  1
  Ca2+  Ca36  1  0.41822789  0.16627550  0.15851273  1
  Ca2+  Ca37  1  0.40861347  0.17359554  0.50215590  1
  Ca2+  Ca38  1  0.41540597  0.16344071  0.82629918  1
  Ca2+  Ca39  1  0.42500492  0.66821753  0.16007473  1
  Ca2+  Ca40  1  0.41978523  0.66532552  0.49076480  1
  Ca2+  Ca41  1  0.42039311  0.67355057  0.83699030  1
  Ca2+  Ca42  1  0.91349218  0.17175056  0.15914192  1
  Ca2+  Ca43  1  0.91665585  0.17013891  0.49826981  1
  Ca2+  Ca44  1  0.92065765  0.16819552  0.82944007  1
  Ca2+  Ca45  1  0.91676856  0.67912208  0.16240172  1
  Ca2+  Ca46  1  0.92642638  0.67621725  0.48838012  1
  Ca2+  Ca47  1  0.91354545  0.67602208  0.83349721  1
  Al0+  Al48  1  0.00314312  -0.00007960  0.00131297  1
  Al0+  Al49  1  0.00229008  0.00132051  0.33558436  1
  Al0+  Al50  1  -0.00116389  0.00085383  0.67038107  1
  Al0+  Al51  1  -0.00201456  0.50040962  -0.00130977  1
  Al0+  Al52  1  -0.00062348  0.49868999  0.32497952  1
  Al0+  Al53  1  -0.00075827  0.50161931  0.66732841  1
  Al0+  Al54  1  0.50020493  0.00026442  0.00284591  1
  Al0+  Al55  1  0.50088092  0.00180384  0.33609603  1
  Al0+  Al56  1  0.50139229  -0.00251933  0.66548391  1
  Al0+  Al57  1  0.49982373  0.50017213  -0.00148422  1
  Al0+  Al58  1  0.49819166  0.50011426  0.33892393  1
  Al0+  Al59  1  0.50106129  0.49993407  0.66310538  1
  Al0+  Al60  1  0.24838892  0.25064412  0.00325723  1
  Al0+  Al61  1  0.24991811  0.25098298  0.33199561  1
  Al0+  Al62  1  0.25048454  0.25191610  0.66345741  1
  Al0+  Al63  1  0.25158845  0.74940364  -0.00135151  1
  Al0+  Al64  1  0.25154512  0.75153557  0.33591059  1
  Al0+  Al65  1  0.25183574  0.74975762  0.67102087  1
  Al0+  Al66  1  0.74702234  0.25066743  0.00386768  1
  Al0+  Al67  1  0.74815075  0.24871958  0.33932476  1
  Al0+  Al68  1  0.74801201  0.25011707  0.66821716  1
  Al0+  Al69  1  0.75115712  0.74730958  -0.00760172  1
  Al0+  Al70  1  0.74863101  0.74923761  0.32581175  1
  Al0+  Al71  1  0.75036096  0.74769487  0.66366733  1
  Al0+  Al72  1  0.81874404  0.07126889  0.68159376  1
  Al0+  Al73  1  0.82190216  0.07008588  0.01571385  1
  Al0+  Al74  1  0.92493623  0.32055800  0.98470222  1
  Al0+  Al75  1  0.31862360  0.57111331  0.34682935  1
  Al0+  Al76  1  0.07003625  0.17777294  0.65058786  1
  Al0+  Al77  1  0.67931944  0.92609150  0.01376688  1
  Al0+  Al78  1  0.42902173  0.82282027  0.98368592  1
  Al0+  Al79  1  0.67890769  0.43105875  0.01271058  1
  Al0+  Al80  1  0.92698289  0.31860617  0.31922738  1
  Al0+  Al81  1  0.32132841  0.07326050  0.01643550  1
  Al0+  Al82  1  0.57172510  0.67714399  0.98256006  1
  Al0+  Al83  1  0.82151827  0.06899139  0.34842958  1
  Al0+  Al84  1  0.42924816  0.32077097  0.65241412  1
  Al0+  Al85  1  0.17839923  0.92782278  0.68259989  1
  Al0+  Al86  1  0.07135747  0.18012254  0.98453247  1
  Al0+  Al87  1  0.32248145  0.07200996  0.67994684  1
  Al0+  Al88  1  0.92686340  0.32266529  0.65097615  1
  Al0+  Al89  1  0.56892931  0.67817285  0.31927441  1
  Al0+  Al90  1  0.17814138  0.43113331  0.67936963  1
  Al0+  Al91  1  0.92989198  0.82307881  0.31900976  1
  Al0+  Al92  1  0.07376517  0.67871411  0.31965575  1
  Al0+  Al93  1  0.93117466  0.82066479  0.98477704  1
  Al0+  Al94  1  0.17995269  0.92707845  0.01863323  1
  Al0+  Al95  1  0.67999151  0.43005122  0.34956984  1
  Si0+  Si96  1  0.67645432  0.92618747  0.34972140  1
  Si0+  Si97  1  0.67876110  0.43059303  0.68153559  1
  Si0+  Si98  1  0.42837690  0.32167517  0.98736770  1
  Si0+  Si99  1  0.17583729  0.42693800  0.34894265  1
  Si0+  Si100  1  0.18187481  0.93150789  0.34891887  1
  Si0+  Si101  1  0.82329520  0.57372264  0.34863820  1
  Si0+  Si102  1  0.56963961  0.17915742  0.98678841  1
  Si0+  Si103  1  0.17657946  0.42890360  0.01575757  1
  Si0+  Si104  1  0.92935316  0.82000045  0.65267732  1
  Si0+  Si105  1  0.57210075  0.17631035  0.64954565  1
  Si0+  Si106  1  0.32424628  0.07371078  0.34972792  1
  Si0+  Si107  1  0.82396452  0.57234756  0.01716612  1
  Si0+  Si108  1  0.57131935  0.67866738  0.64898085  1
  Si0+  Si109  1  0.57026027  0.17954112  0.31852988  1
  Si0+  Si110  1  0.07444783  0.17832333  0.31612550  1
  Si0+  Si111  1  0.07242129  0.67843801  0.65360918  1
  Si0+  Si112  1  0.42900295  0.82015249  0.65054723  1
  Si0+  Si113  1  0.42886529  0.32058931  0.31783118  1
  Si0+  Si114  1  0.67908141  0.92378743  0.68126679  1
  Si0+  Si115  1  0.42908631  0.82480438  0.31805333  1
  Si0+  Si116  1  0.82083408  0.57257784  0.68044072  1
  Si0+  Si117  1  0.32508989  0.57171636  0.68563366  1
  Si0+  Si118  1  0.07410302  0.67680629  0.98179772  1
  Si0+  Si119  1  0.31958944  0.56875006  0.01351595  1
  O2-  O120  1  0.25224960  -0.00048059  0.06834507  1
  O2-  O121  1  0.25231686  0.00348313  0.39047153  1
  O2-  O122  1  0.24903972  0.00245074  0.73015435  1
  O2-  O123  1  0.24537877  0.50224027  0.05764020  1
  O2-  O124  1  0.24072288  0.49962375  0.39317828  1
  O2-  O125  1  0.25509890  0.50369732  0.72848827  1
  O2-  O126  1  0.75471741  -0.00712510  0.06583433  1
  O2-  O127  1  0.74925625  -0.00969542  0.39432720  1
  O2-  O128  1  0.74417480  -0.00488054  0.72519371  1
  O2-  O129  1  0.75519086  0.50325187  0.06031162  1
  O2-  O130  1  0.75688008  0.50358400  0.39561733  1
  O2-  O131  1  0.75381705  0.49743318  0.72235461  1
  O2-  O132  1  0.00388469  0.24585906  0.27373990  1
  O2-  O133  1  -0.00214006  0.24994559  0.60046722  1
  O2-  O134  1  -0.00303205  0.24955918  0.93470581  1
  O2-  O135  1  -0.00103351  0.74743551  0.27003950  1
  O2-  O136  1  0.00508339  0.75313671  0.61176617  1
  O2-  O137  1  0.00685168  0.74657161  0.93716337  1
  O2-  O138  1  0.49799275  0.24886817  0.27479228  1
  O2-  O139  1  0.50038868  0.24240025  0.60524188  1
  O2-  O140  1  0.49504120  0.24697692  0.94516783  1
  O2-  O141  1  0.49855772  0.75718996  0.27416697  1
  O2-  O142  1  0.49981040  0.74928475  0.60713441  1
  O2-  O143  1  0.50466503  0.75415031  0.93297630  1
  O2-  O144  1  0.07242802  0.18510430  0.09858998  1
  O2-  O145  1  0.07753111  0.17861304  0.42158107  1
  O2-  O146  1  0.06955837  0.17819656  0.76349150  1
  O2-  O147  1  0.07381337  0.67555884  0.08721698  1
  O2-  O148  1  0.07391923  0.68234821  0.43403312  1
  O2-  O149  1  0.06965161  0.67496614  0.75832474  1
  O2-  O150  1  0.57005678  0.18202502  0.09220883  1
  O2-  O151  1  0.56831842  0.18026319  0.42371911  1
  O2-  O152  1  0.57327127  0.17886530  0.75515090  1
  O2-  O153  1  0.56511204  0.67212453  0.09584789  1
  O2-  O154  1  0.56641820  0.67921657  0.43327126  1
  O2-  O155  1  0.57217782  0.67724263  0.75335477  1
  O2-  O156  1  0.18130641  0.42413022  0.24336688  1
  O2-  O157  1  0.17830684  0.43609627  0.56617730  1
  O2-  O158  1  0.17877267  0.42904417  0.91056379  1
  O2-  O159  1  0.18216677  0.93031393  0.24449864  1
  O2-  O160  1  0.18125880  0.92491804  0.56810159  1
  O2-  O161  1  0.18203464  0.92779945  0.90546675  1
  O2-  O162  1  0.67747248  0.43019563  0.23682511  1
  O2-  O163  1  0.67614440  0.43286173  0.57652635  1
  O2-  O164  1  0.67575690  0.43211209  0.89924126  1
  O2-  O165  1  0.67016029  0.93006045  0.24518954  1
  O2-  O166  1  0.68082673  0.92070357  0.57540584  1
  O2-  O167  1  0.68048844  0.93233159  0.89967631  1
  O2-  O168  1  0.43037102  0.32403078  0.09285146  1
  O2-  O169  1  0.42842202  0.31946085  0.42280289  1
  O2-  O170  1  0.43386102  0.32499230  0.76555893  1
  O2-  O171  1  0.42827874  0.81743959  0.09766951  1
  O2-  O172  1  0.43006819  0.82420126  0.42429181  1
  O2-  O173  1  0.43004006  0.81968981  0.75485174  1
  O2-  O174  1  0.92546527  0.31960698  0.09860749  1
  O2-  O175  1  0.92824050  0.31715180  0.43228598  1
  O2-  O176  1  0.92682142  0.32324715  0.76388078  1
  O2-  O177  1  0.93247046  0.81872541  0.09766983  1
  O2-  O178  1  0.93365784  0.82346283  0.43352695  1
  O2-  O179  1  0.92536104  0.81644792  0.75732615  1
  O2-  O180  1  0.32753791  0.07432847  0.24535065  1
  O2-  O181  1  0.32180572  0.06758009  0.56550760  1
  O2-  O182  1  0.32094429  0.07569297  0.90327293  1
  O2-  O183  1  0.31993810  0.56815745  0.23351859  1
  O2-  O184  1  0.32500298  0.57216460  0.57979327  1
  O2-  O185  1  0.32000297  0.56560712  0.90841798  1
  O2-  O186  1  0.81984303  0.06996368  0.23605336  1
  O2-  O187  1  0.81792668  0.06933094  0.56801825  1
  O2-  O188  1  0.81842963  0.07180178  0.90213555  1
  O2-  O189  1  0.82099069  0.57385353  0.24352989  1
  O2-  O190  1  0.81776345  0.57782877  0.57570133  1
  O2-  O191  1  0.82445005  0.57098267  0.91091783  1
  O2-  O192  1  0.04986921  0.08420519  0.27212989  1
  O2-  O193  1  0.04065500  0.07854167  0.59813565  1
  O2-  O194  1  0.04892891  0.07987722  0.93505485  1
  O2-  O195  1  0.05340491  0.57888287  0.26677487  1
  O2-  O196  1  0.04095469  0.58959849  0.60295166  1
  O2-  O197  1  0.04552262  0.58381262  0.93515773  1
  O2-  O198  1  0.54331586  0.08712829  0.27191162  1
  O2-  O199  1  0.55236241  0.08089348  0.60373612  1
  O2-  O200  1  0.54590824  0.08730595  0.93868326  1
  O2-  O201  1  0.53248029  0.58213037  0.26804595  1
  O2-  O202  1  0.54311582  0.58745650  0.60054492  1
  O2-  O203  1  0.53434110  0.58146843  0.92751494  1
  O2-  O204  1  0.16778139  0.20448205  0.26890282  1
  O2-  O205  1  0.16899156  0.20591012  0.59821305  1
  O2-  O206  1  0.16945217  0.21290794  0.93270499  1
  O2-  O207  1  0.17168427  0.71067425  0.26739704  1
  O2-  O208  1  0.16701891  0.70149534  0.60875788  1
  O2-  O209  1  0.16849842  0.69792637  0.93607895  1
  O2-  O210  1  0.66089576  0.20961174  0.27180915  1
  O2-  O211  1  0.66290354  0.20809204  0.60135321  1
  O2-  O212  1  0.65858531  0.21209126  0.93747842  1
  O2-  O213  1  0.66646474  0.70087044  0.26479854  1
  O2-  O214  1  0.66284133  0.70680960  0.60020361  1
  O2-  O215  1  0.67115336  0.69706759  0.92848160  1
  O2-  O216  1  0.08383598  0.45519461  0.06174762  1
  O2-  O217  1  0.08014691  0.44820057  0.39181918  1
  O2-  O218  1  0.08319339  0.46498389  0.73524857  1
  O2-  O219  1  0.08258836  0.95680094  0.07236496  1
  O2-  O220  1  0.09081454  0.95894799  0.39810752  1
  O2-  O221  1  0.07935212  0.95333118  0.73356117  1
  O2-  O222  1  0.58213113  0.46301047  0.06734350  1
  O2-  O223  1  0.58409233  0.46292486  0.40469110  1
  O2-  O224  1  0.58856188  0.46371089  0.72926629  1
  O2-  O225  1  0.58229932  0.95620329  0.06768194  1
  O2-  O226  1  0.58495912  0.95663799  0.40018084  1
  O2-  O227  1  0.58379792  0.94535246  0.72471128  1
  O2-  O228  1  0.20750431  0.34005727  0.06582738  1
  O2-  O229  1  0.20711661  0.33515251  0.39634099  1
  O2-  O230  1  0.21058455  0.33513511  0.73256205  1
  O2-  O231  1  0.20886099  0.82717576  0.06943601  1
  O2-  O232  1  0.21019127  0.84043002  0.39808506  1
  O2-  O233  1  0.20740157  0.82951819  0.73543330  1
  O2-  O234  1  0.70518415  0.33466606  0.06893088  1
  O2-  O235  1  0.70749984  0.33337588  0.40516695  1
  O2-  O236  1  0.70009967  0.33736614  0.72821931  1
  O2-  O237  1  0.70040441  0.82318710  0.05923373  1
  O2-  O238  1  0.69707373  0.82977903  0.39243676  1
  O2-  O239  1  0.70639229  0.83071780  0.72763453  1
  O2-  O240  1  0.45816662  0.41236346  0.27223424  1
  O2-  O241  1  0.46416017  0.41623218  0.59657256  1
  O2-  O242  1  0.45997414  0.41037657  0.93700541  1
  O2-  O243  1  0.45241291  0.91962789  0.27381738  1
  O2-  O244  1  0.45619550  0.91145805  0.60083881  1
  O2-  O245  1  0.45483103  0.92270077  0.93260135  1
  O2-  O246  1  0.95209634  0.41598966  0.26401031  1
  O2-  O247  1  0.95487739  0.42264657  0.59944459  1
  O2-  O248  1  0.95137500  0.42105923  0.93491890  1
  O2-  O249  1  0.96433346  0.91995365  0.26724665  1
  O2-  O250  1  0.95418418  0.91269128  0.60671182  1
  O2-  O251  1  0.96198398  0.91722344  0.93182191  1
  O2-  O252  1  0.33659468  0.29498667  0.26961654  1
  O2-  O253  1  0.33308784  0.29567467  0.59477294  1
  O2-  O254  1  0.33507454  0.29802551  0.94191721  1
  O2-  O255  1  0.33585818  0.79823902  0.27351911  1
  O2-  O256  1  0.33706791  0.79106936  0.60305526  1
  O2-  O257  1  0.33299345  0.78777415  0.92938818  1
  O2-  O258  1  0.82919769  0.28597944  0.26883188  1
  O2-  O259  1  0.82654391  0.29503920  0.60066798  1
  O2-  O260  1  0.82512169  0.29374770  0.93414820  1
  O2-  O261  1  0.83036485  0.79965185  0.26692959  1
  O2-  O262  1  0.83969548  0.78741731  0.60296853  1
  O2-  O263  1  0.83623155  0.78876443  0.92767896  1
  O2-  O264  1  0.42056496  0.04736893  0.06924023  1
  O2-  O265  1  0.41555117  0.04703092  0.39931744  1
  O2-  O266  1  0.42214670  0.04272006  0.73046333  1
  O2-  O267  1  0.40933614  0.53582041  0.06174807  1
  O2-  O268  1  0.41194712  0.53600799  0.40459624  1
  O2-  O269  1  0.41883044  0.54432947  0.72975005  1
  O2-  O270  1  0.92124769  0.04535868  0.06710647  1
  O2-  O271  1  0.91914713  0.04050259  0.40288034  1
  O2-  O272  1  0.91426005  0.04011904  0.73510749  1
  O2-  O273  1  0.91799953  0.54994390  0.06414474  1
  O2-  O274  1  0.91905223  0.55034329  0.39212628  1
  O2-  O275  1  0.91333305  0.55069990  0.72834351  1
  O2-  O276  1  0.29260689  0.17176812  0.07151666  1
  O2-  O277  1  0.29651040  0.16692559  0.39504880  1
  O2-  O278  1  0.30296690  0.17396703  0.72736622  1
  O2-  O279  1  0.29626505  0.66123539  0.06082118  1
  O2-  O280  1  0.29314893  0.66888452  0.40265284  1
  O2-  O281  1  0.30085365  0.66523560  0.73158346  1
  O2-  O282  1  0.78532829  0.16596231  0.06876886  1
  O2-  O283  1  0.78416665  0.16234454  0.40449074  1
  O2-  O284  1  0.78546841  0.16716209  0.73523667  1
  O2-  O285  1  0.79812271  0.66624187  0.06093129  1
  O2-  O286  1  0.79557899  0.66732993  0.39519571  1
  O2-  O287  1  0.78768608  0.66192704  0.73051813  1
