# generated using pymatgen
data_Ca2Al2SiO7
_symmetry_space_group_name_H-M   'P 1'
_cell_length_a   15.45724756
_cell_length_b   15.45673193
_cell_length_c   15.28273666
_cell_angle_alpha   90.00337027
_cell_angle_beta   89.99300059
_cell_angle_gamma   89.99073674
_symmetry_Int_Tables_number   1
_chemical_formula_structural   Ca2Al2SiO7
_chemical_formula_sum   'Ca48 Al48 Si24 O168'
_cell_volume   3651.32892281
_cell_formula_units_Z   24
loop_
 _symmetry_equiv_pos_site_id
 _symmetry_equiv_pos_as_xyz
  1  'x, y, z'
loop_
 _atom_type_symbol
 _atom_type_oxidation_number
  Ca2+  2.0
  Al0+  0.0
  Si0+  0.0
  O2-  -2.0
loop_
 _atom_site_type_symbol
 _atom_site_label
 _atom_site_symmetry_multiplicity
 _atom_site_fract_x
 _atom_site_fract_y
 _atom_site_fract_z
 _atom_site_occupancy
  Ca2+  Ca0  1  0.16994134  0.08607651  0.16783240  1
  Ca2+  Ca1  1  0.17647496  0.09357361  0.50012593  1
  Ca2+  Ca2  1  0.17559824  0.08550932  0.84295432  1
  Ca2+  Ca3  1  0.16807127  0.57456875  0.17156823  1
  Ca2+  Ca4  1  0.17606276  0.58332050  0.50019512  1
  Ca2+  Ca5  1  0.16639898  0.57459768  0.84049890  1
  Ca2+  Ca6  1  0.66234210  0.07293251  0.17432812  1
  Ca2+  Ca7  1  0.65582182  0.07728652  0.49813683  1
  Ca2+  Ca8  1  0.67090947  0.07500757  0.84136100  1
  Ca2+  Ca9  1  0.67072493  0.58604530  0.16503559  1
  Ca2+  Ca10  1  0.67020549  0.57448155  0.51172047  1
  Ca2+  Ca11  1  0.67220914  0.58180233  0.83522530  1
  Ca2+  Ca12  1  0.08107643  0.32533053  0.16018499  1
  Ca2+  Ca13  1  0.07115625  0.33007448  0.49291989  1
  Ca2+  Ca14  1  0.07710590  0.33470317  0.83506141  1
  Ca2+  Ca15  1  0.07867217  0.83452590  0.15704504  1
  Ca2+  Ca16  1  0.07723417  0.83379243  0.49868309  1
  Ca2+  Ca17  1  0.07279186  0.84158623  0.83317394  1
  Ca2+  Ca18  1  0.57751415  0.32710323  0.16786581  1
  Ca2+  Ca19  1  0.57575784  0.33033178  0.49396082  1
  Ca2+  Ca20  1  0.57612460  0.33480135  0.82414773  1
  Ca2+  Ca21  1  0.58017525  0.83520670  0.16180505  1
  Ca2+  Ca22  1  0.57995536  0.82757140  0.49394396  1
  Ca2+  Ca23  1  0.59276536  0.82116206  0.83294204  1
  Ca2+  Ca24  1  0.32954962  0.41940310  0.17211843  1
  Ca2+  Ca25  1  0.34064223  0.41594707  0.50283278  1
  Ca2+  Ca26  1  0.32743859  0.41291493  0.83939553  1
  Ca2+  Ca27  1  0.33279625  0.92693282  0.17377580  1
  Ca2+  Ca28  1  0.33915319  0.92886180  0.50223623  1
  Ca2+  Ca29  1  0.32740162  0.92985339  0.84290746  1
  Ca2+  Ca30  1  0.84200220  0.41949768  0.16827909  1
  Ca2+  Ca31  1  0.82821824  0.41551965  0.51152896  1
  Ca2+  Ca32  1  0.83917363  0.42538161  0.83738100  1
  Ca2+  Ca33  1  0.82212324  0.91142675  0.16861800  1
  Ca2+  Ca34  1  0.82843357  0.91686900  0.50368350  1
  Ca2+  Ca35  1  0.83228589  0.91161024  0.84173016  1
  Ca2+  Ca36  1  0.41442145  0.16224529  0.16817688  1
  Ca2+  Ca37  1  0.41538132  0.17448099  0.49238999  1
  Ca2+  Ca38  1  0.41188697  0.16783227  0.82904081  1
  Ca2+  Ca39  1  0.41964249  0.67127607  0.16314245  1
  Ca2+  Ca40  1  0.42274620  0.66915417  0.49065881  1
  Ca2+  Ca41  1  0.43235943  0.66424638  0.82810586  1
  Ca2+  Ca42  1  0.92710035  0.17659211  0.15915792  1
  Ca2+  Ca43  1  0.91991126  0.17848361  0.48947895  1
  Ca2+  Ca44  1  0.92319371  0.17575931  0.82938544  1
  Ca2+  Ca45  1  0.91541464  0.67067144  0.15709957  1
  Ca2+  Ca46  1  0.91185105  0.66877962  0.50318574  1
  Ca2+  Ca47  1  0.90695265  0.67420019  0.83087576  1
  Al0+  Al48  1  0.00114191  0.00229290  -0.00465720  1
  Al0+  Al49  1  -0.00210464  -0.00046151  0.33055401  1
  Al0+  Al50  1  -0.00005081  -0.00097091  0.66005824  1
  Al0+  Al51  1  0.00069767  0.50103435  0.00619259  1
  Al0+  Al52  1  0.00067471  0.50281564  0.33359817  1
  Al0+  Al53  1  0.00131832  0.50162750  0.66527951  1
  Al0+  Al54  1  0.50034527  0.00038440  0.00506375  1
  Al0+  Al55  1  0.49835241  -0.00240116  0.33640807  1
  Al0+  Al56  1  0.49936209  -0.00160672  0.67485099  1
  Al0+  Al57  1  0.50238477  0.49983785  -0.00346566  1
  Al0+  Al58  1  0.50227777  0.50029856  0.33221739  1
  Al0+  Al59  1  0.50121895  0.49953226  0.66268208  1
  Al0+  Al60  1  0.25006338  0.25187478  0.00513617  1
  Al0+  Al61  1  0.24753805  0.25098189  0.33156079  1
  Al0+  Al62  1  0.25107395  0.25039684  0.66704425  1
  Al0+  Al63  1  0.25114226  0.75180850  -0.00001600  1
  Al0+  Al64  1  0.24972811  0.74939055  0.33417627  1
  Al0+  Al65  1  0.24894427  0.75088951  0.66892541  1
  Al0+  Al66  1  0.74806951  0.25166623  -0.00413725  1
  Al0+  Al67  1  0.74932144  0.25036886  0.32489501  1
  Al0+  Al68  1  0.74838699  0.24699016  0.66747761  1
  Al0+  Al69  1  0.74979050  0.74828064  0.00171630  1
  Al0+  Al70  1  0.74934872  0.74938538  0.33938647  1
  Al0+  Al71  1  0.75033761  0.74861261  0.65944741  1
  Al0+  Al72  1  0.17650678  0.92842057  0.01481308  1
  Al0+  Al73  1  0.42835221  0.81976633  0.32069338  1
  Al0+  Al74  1  0.92848097  0.32128464  0.65377990  1
  Al0+  Al75  1  0.81873575  0.56875895  0.01430101  1
  Al0+  Al76  1  0.42931159  0.31875197  0.65431763  1
  Al0+  Al77  1  0.68247328  0.92906576  0.01304190  1
  Al0+  Al78  1  0.57019169  0.67974885  0.65081246  1
  Al0+  Al79  1  0.07293746  0.18056190  0.98265065  1
  Al0+  Al80  1  0.31957994  0.07074490  0.68091946  1
  Al0+  Al81  1  0.92806305  0.32395240  0.98303697  1
  Al0+  Al82  1  0.67874967  0.92894766  0.34952316  1
  Al0+  Al83  1  0.82138457  0.57005444  0.68214330  1
  Al0+  Al84  1  0.93031173  0.81984045  0.98882648  1
  Al0+  Al85  1  0.31819586  0.07078014  0.34938666  1
  Al0+  Al86  1  0.07061579  0.17762718  0.31763606  1
  Al0+  Al87  1  0.42833573  0.32336194  0.31711409  1
  Al0+  Al88  1  0.56984347  0.67986523  0.98652043  1
  Al0+  Al89  1  0.32070908  0.07156349  0.01811024  1
  Al0+  Al90  1  0.56915556  0.17728999  0.31851749  1
  Al0+  Al91  1  0.92770081  0.32421364  0.31765117  1
  Al0+  Al92  1  0.17984230  0.43162711  0.01435660  1
  Al0+  Al93  1  0.67746399  0.42590749  0.68164279  1
  Al0+  Al94  1  0.32208463  0.57058987  0.34614332  1
  Al0+  Al95  1  0.92968199  0.82059626  0.65118181  1
  Si0+  Si96  1  0.07459968  0.67759493  0.98488595  1
  Si0+  Si97  1  0.57081481  0.17645757  0.98413412  1
  Si0+  Si98  1  0.82198594  0.57113189  0.34988882  1
  Si0+  Si99  1  0.43083443  0.32043641  0.98561950  1
  Si0+  Si100  1  0.17768255  0.42954486  0.35236732  1
  Si0+  Si101  1  0.82128390  0.07213562  0.34862080  1
  Si0+  Si102  1  0.92720864  0.81924538  0.31832750  1
  Si0+  Si103  1  0.68080721  0.92862201  0.68192376  1
  Si0+  Si104  1  0.07191358  0.17871604  0.64945046  1
  Si0+  Si105  1  0.07145799  0.68067821  0.31838955  1
  Si0+  Si106  1  0.57339358  0.67846911  0.31580422  1
  Si0+  Si107  1  0.42768974  0.82452132  0.98231158  1
  Si0+  Si108  1  0.18040909  0.43035034  0.68026159  1
  Si0+  Si109  1  0.82224907  0.07556520  0.01513536  1
  Si0+  Si110  1  0.42676637  0.82189897  0.65208223  1
  Si0+  Si111  1  0.67497823  0.42616665  0.01831447  1
  Si0+  Si112  1  0.32244483  0.57297074  0.68125183  1
  Si0+  Si113  1  0.17570136  0.92690779  0.68302955  1
  Si0+  Si114  1  0.57214251  0.17334174  0.65255226  1
  Si0+  Si115  1  0.32602808  0.57233644  0.01393270  1
  Si0+  Si116  1  0.82352138  0.07042828  0.68048539  1
  Si0+  Si117  1  0.17450505  0.92639338  0.35130710  1
  Si0+  Si118  1  0.07515360  0.67697045  0.64888406  1
  Si0+  Si119  1  0.68040092  0.42775163  0.34688640  1
  O2-  O120  1  0.24941321  -0.00215977  0.06648792  1
  O2-  O121  1  0.24114051  -0.00296846  0.39587621  1
  O2-  O122  1  0.24454308  -0.00433425  0.72592752  1
  O2-  O123  1  0.25319133  0.50908564  0.05882683  1
  O2-  O124  1  0.25153177  0.49323036  0.39656764  1
  O2-  O125  1  0.25193231  0.50141188  0.72295942  1
  O2-  O126  1  0.75530965  0.00541471  0.06020720  1
  O2-  O127  1  0.75147497  0.00596929  0.39622271  1
  O2-  O128  1  0.75242352  -0.00068978  0.72330059  1
  O2-  O129  1  0.74815910  0.49049873  0.06207060  1
  O2-  O130  1  0.75470392  0.49574722  0.38912803  1
  O2-  O131  1  0.75261167  0.49475795  0.73194355  1
  O2-  O132  1  -0.00060656  0.25143633  0.26961006  1
  O2-  O133  1  0.00047040  0.24479933  0.60590448  1
  O2-  O134  1  -0.00154485  0.25043865  0.93285172  1
  O2-  O135  1  0.00048726  0.75130651  0.27617445  1
  O2-  O136  1  0.00578652  0.74615354  0.60585356  1
  O2-  O137  1  0.00892278  0.74923008  0.94096138  1
  O2-  O138  1  0.49596947  0.24742460  0.26672760  1
  O2-  O139  1  0.50559746  0.24470523  0.60989536  1
  O2-  O140  1  0.50045338  0.24839367  0.94254669  1
  O2-  O141  1  0.50323217  0.74571701  0.27264717  1
  O2-  O142  1  0.49250173  0.75189940  0.60554387  1
  O2-  O143  1  0.49420413  0.75345578  0.93832526  1
  O2-  O144  1  0.07209346  0.18229068  0.09583871  1
  O2-  O145  1  0.06805509  0.17990798  0.43213119  1
  O2-  O146  1  0.07217881  0.17910389  0.75470288  1
  O2-  O147  1  0.07252649  0.67701894  0.09079888  1
  O2-  O148  1  0.07104435  0.68016568  0.42367915  1
  O2-  O149  1  0.07936763  0.67558381  0.75393374  1
  O2-  O150  1  0.57129278  0.17595292  0.08884741  1
  O2-  O151  1  0.56898009  0.17999708  0.43259518  1
  O2-  O152  1  0.57098907  0.17075793  0.75834398  1
  O2-  O153  1  0.56791867  0.68005539  0.09961572  1
  O2-  O154  1  0.57341497  0.67912035  0.42151377  1
  O2-  O155  1  0.57102039  0.68171886  0.76406320  1
  O2-  O156  1  0.17533982  0.43436283  0.24706472  1
  O2-  O157  1  0.18072997  0.43124508  0.57525611  1
  O2-  O158  1  0.18230383  0.43229178  0.90034744  1
  O2-  O159  1  0.17457343  0.92384316  0.24621302  1
  O2-  O160  1  0.17582755  0.92470077  0.57744122  1
  O2-  O161  1  0.17896472  0.92908117  0.90081865  1
  O2-  O162  1  0.67834585  0.43044224  0.24185999  1
  O2-  O163  1  0.67766849  0.42764034  0.56741671  1
  O2-  O164  1  0.66986848  0.42816506  0.91321818  1
  O2-  O165  1  0.68215398  0.92545867  0.23660012  1
  O2-  O166  1  0.67927049  0.93038270  0.57683782  1
  O2-  O167  1  0.68447419  0.92946254  0.89926257  1
  O2-  O168  1  0.43319800  0.32335540  0.09026110  1
  O2-  O169  1  0.43252858  0.32377755  0.43091710  1
  O2-  O170  1  0.42695275  0.31761285  0.76788655  1
  O2-  O171  1  0.42894510  0.82378290  0.08796493  1
  O2-  O172  1  0.43059458  0.81794345  0.43429303  1
  O2-  O173  1  0.42800216  0.82060960  0.75757233  1
  O2-  O174  1  0.93075308  0.32261359  0.09630013  1
  O2-  O175  1  0.92790216  0.32417393  0.43196741  1
  O2-  O176  1  0.93278021  0.32157436  0.76630134  1
  O2-  O177  1  0.92834918  0.81549266  0.10218574  1
  O2-  O178  1  0.92728901  0.81740652  0.42357896  1
  O2-  O179  1  0.92925804  0.82111743  0.76406522  1
  O2-  O180  1  0.31881042  0.06753090  0.23712524  1
  O2-  O181  1  0.31995030  0.07090370  0.56795224  1
  O2-  O182  1  0.32111053  0.07130368  0.90391982  1
  O2-  O183  1  0.31784805  0.57133947  0.23309688  1
  O2-  O184  1  0.32069405  0.57425588  0.57614603  1
  O2-  O185  1  0.32734766  0.56796014  0.90785649  1
  O2-  O186  1  0.82151237  0.06762792  0.24335035  1
  O2-  O187  1  0.82406807  0.06935065  0.57546410  1
  O2-  O188  1  0.81855694  0.07489857  0.90884463  1
  O2-  O189  1  0.82088837  0.57525177  0.24491588  1
  O2-  O190  1  0.81931964  0.56917152  0.56794966  1
  O2-  O191  1  0.81697753  0.57133389  0.90166452  1
  O2-  O192  1  0.04236619  0.07879439  0.26526639  1
  O2-  O193  1  0.05063382  0.08434841  0.60324431  1
  O2-  O194  1  0.04742349  0.08194979  0.92848178  1
  O2-  O195  1  0.04282597  0.58956469  0.27039920  1
  O2-  O196  1  0.04932347  0.58489471  0.59975769  1
  O2-  O197  1  0.04589706  0.58510146  0.93913546  1
  O2-  O198  1  0.54232669  0.07774403  0.26823063  1
  O2-  O199  1  0.54324451  0.08001605  0.60707077  1
  O2-  O200  1  0.54248797  0.08478915  0.93615793  1
  O2-  O201  1  0.55010824  0.58487349  0.26984699  1
  O2-  O202  1  0.54056155  0.58339960  0.59633410  1
  O2-  O203  1  0.54010805  0.58348820  0.93028196  1
  O2-  O204  1  0.16846281  0.20545214  0.26524899  1
  O2-  O205  1  0.16396376  0.20983511  0.60361976  1
  O2-  O206  1  0.17135053  0.21388478  0.93159310  1
  O2-  O207  1  0.16266746  0.70646293  0.27003797  1
  O2-  O208  1  0.16826535  0.70467302  0.60095748  1
  O2-  O209  1  0.17006012  0.69684212  0.93886140  1
  O2-  O210  1  0.66658503  0.20469992  0.26297608  1
  O2-  O211  1  0.66669396  0.19302963  0.60621180  1
  O2-  O212  1  0.66247915  0.20215763  0.93512876  1
  O2-  O213  1  0.66707920  0.70720134  0.27156411  1
  O2-  O214  1  0.66443746  0.71223408  0.59421578  1
  O2-  O215  1  0.66514778  0.71369439  0.93246004  1
  O2-  O216  1  0.08554466  0.46246999  0.07190979  1
  O2-  O217  1  0.08640725  0.46331722  0.40014223  1
  O2-  O218  1  0.08983356  0.46017747  0.72863200  1
  O2-  O219  1  0.07704352  0.95575190  0.06635063  1
  O2-  O220  1  0.07901488  0.94964044  0.39604460  1
  O2-  O221  1  0.08113763  0.95307899  0.72683707  1
  O2-  O222  1  0.58389687  0.45822381  0.06651113  1
  O2-  O223  1  0.59012705  0.45871185  0.39574201  1
  O2-  O224  1  0.57958202  0.45898983  0.73414439  1
  O2-  O225  1  0.58573240  0.95859916  0.06668346  1
  O2-  O226  1  0.58263211  0.95776085  0.40520989  1
  O2-  O227  1  0.58980711  0.95439398  0.73206044  1
  O2-  O228  1  0.21353328  0.33801786  0.07037595  1
  O2-  O229  1  0.19652874  0.33419080  0.39634964  1
  O2-  O230  1  0.20909795  0.33946395  0.72857470  1
  O2-  O231  1  0.20025518  0.82721484  0.06597918  1
  O2-  O232  1  0.20114671  0.83312324  0.39814019  1
  O2-  O233  1  0.19863502  0.83294024  0.73029038  1
  O2-  O234  1  0.69516681  0.33023711  0.06171048  1
  O2-  O235  1  0.70465630  0.33433199  0.39289827  1
  O2-  O236  1  0.69758290  0.32442450  0.73217554  1
  O2-  O237  1  0.71411201  0.83407745  0.06877048  1
  O2-  O238  1  0.71282021  0.83360890  0.40554248  1
  O2-  O239  1  0.71116623  0.83646263  0.72605756  1
  O2-  O240  1  0.46115062  0.42041829  0.26334256  1
  O2-  O241  1  0.45763238  0.41558129  0.59988879  1
  O2-  O242  1  0.45923571  0.41131711  0.93602260  1
  O2-  O243  1  0.46020235  0.91500008  0.26670828  1
  O2-  O244  1  0.45696163  0.91520599  0.60771637  1
  O2-  O245  1  0.45669735  0.91753197  0.93694660  1
  O2-  O246  1  0.95728875  0.42377532  0.26777999  1
  O2-  O247  1  0.96083133  0.41779551  0.60010485  1
  O2-  O248  1  0.96151639  0.42273444  0.93350494  1
  O2-  O249  1  0.94970023  0.91208318  0.27189735  1
  O2-  O250  1  0.95936863  0.91632467  0.59339852  1
  O2-  O251  1  0.95497036  0.91740327  0.93337701  1
  O2-  O252  1  0.32730717  0.30163764  0.26873495  1
  O2-  O253  1  0.33322290  0.28864295  0.59867398  1
  O2-  O254  1  0.33833847  0.29386292  0.93973984  1
  O2-  O255  1  0.33177135  0.78911002  0.26673901  1
  O2-  O256  1  0.33150935  0.80060902  0.60753267  1
  O2-  O257  1  0.33299773  0.80250938  0.93649213  1
  O2-  O258  1  0.82987975  0.29927114  0.26325361  1
  O2-  O259  1  0.83046173  0.29063622  0.60197190  1
  O2-  O260  1  0.82727305  0.29993064  0.93203065  1
  O2-  O261  1  0.83605642  0.78665063  0.27272303  1
  O2-  O262  1  0.83520239  0.78847262  0.59397050  1
  O2-  O263  1  0.83547872  0.78428774  0.93425162  1
  O2-  O264  1  0.41942948  0.04320830  0.07024075  1
  O2-  O265  1  0.41393553  0.03725711  0.40388259  1
  O2-  O266  1  0.41532962  0.04005716  0.73784366  1
  O2-  O267  1  0.41733657  0.54179594  0.06156255  1
  O2-  O268  1  0.42069501  0.54381269  0.39911793  1
  O2-  O269  1  0.41433819  0.54476654  0.72709216  1
  O2-  O270  1  0.91701687  0.05216387  0.05772505  1
  O2-  O271  1  0.91384053  0.04382653  0.39654397  1
  O2-  O272  1  0.91582546  0.04212091  0.72670696  1
  O2-  O273  1  0.91604711  0.54368956  0.07002192  1
  O2-  O274  1  0.91582697  0.54952106  0.39654745  1
  O2-  O275  1  0.92280189  0.54818506  0.73225019  1
  O2-  O276  1  0.29376437  0.17005907  0.06989809  1
  O2-  O277  1  0.28873895  0.16953699  0.40164512  1
  O2-  O278  1  0.28828018  0.16739580  0.73507783  1
  O2-  O279  1  0.30705024  0.66867946  0.05616905  1
  O2-  O280  1  0.28707413  0.66537562  0.40262747  1
  O2-  O281  1  0.29510262  0.66439800  0.72999534  1
  O2-  O282  1  0.79490885  0.16889107  0.06051004  1
  O2-  O283  1  0.79770604  0.16795708  0.39144022  1
  O2-  O284  1  0.79589047  0.16093881  0.73017745  1
  O2-  O285  1  0.78358509  0.66286595  0.07085011  1
  O2-  O286  1  0.79049276  0.66061911  0.40004527  1
  O2-  O287  1  0.78880657  0.66936824  0.73121017  1
