# generated using pymatgen
data_Ca2Al2SiO7
_symmetry_space_group_name_H-M   'P 1'
_cell_length_a   15.46176869
_cell_length_b   15.46105938
_cell_length_c   15.28619341
_cell_angle_alpha   90.01595686
_cell_angle_beta   90.01763889
_cell_angle_gamma   90.00063454
_symmetry_Int_Tables_number   1
_chemical_formula_structural   Ca2Al2SiO7
_chemical_formula_sum   'Ca48 Al48 Si24 O168'
_cell_volume   3654.24560206
_cell_formula_units_Z   24
loop_
 _symmetry_equiv_pos_site_id
 _symmetry_equiv_pos_as_xyz
  1  'x, y, z'
loop_
 _atom_type_symbol
 _atom_type_oxidation_number
  Ca2+  2.0
  Al0+  0.0
  Si0+  0.0
  O2-  -2.0
loop_
 _atom_site_type_symbol
 _atom_site_label
 _atom_site_symmetry_multiplicity
 _atom_site_fract_x
 _atom_site_fract_y
 _atom_site_fract_z
 _atom_site_occupancy
  Ca2+  Ca0  1  0.16737211  0.08064122  0.16398129  1
  Ca2+  Ca1  1  0.17346344  0.07619041  0.50747428  1
  Ca2+  Ca2  1  0.16848957  0.07338715  0.84109822  1
  Ca2+  Ca3  1  0.16563627  0.57417396  0.16917183  1
  Ca2+  Ca4  1  0.17641637  0.57951260  0.50649770  1
  Ca2+  Ca5  1  0.17664529  0.58353770  0.84245317  1
  Ca2+  Ca6  1  0.67494736  0.08506034  0.17215538  1
  Ca2+  Ca7  1  0.66716167  0.06864852  0.50230418  1
  Ca2+  Ca8  1  0.66825328  0.07849029  0.84065609  1
  Ca2+  Ca9  1  0.65214048  0.57566642  0.16685082  1
  Ca2+  Ca10  1  0.65150901  0.57799898  0.50408596  1
  Ca2+  Ca11  1  0.65393029  0.57678567  0.83573804  1
  Ca2+  Ca12  1  0.08368250  0.33050784  0.15571077  1
  Ca2+  Ca13  1  0.08251502  0.33305393  0.49256060  1
  Ca2+  Ca14  1  0.09080246  0.32599877  0.83369365  1
  Ca2+  Ca15  1  0.08264600  0.82805081  0.15564757  1
  Ca2+  Ca16  1  0.07957052  0.83739299  0.50263493  1
  Ca2+  Ca17  1  0.08158948  0.83590114  0.82982824  1
  Ca2+  Ca18  1  0.58323067  0.33147033  0.15458631  1
  Ca2+  Ca19  1  0.58018146  0.34188490  0.49905448  1
  Ca2+  Ca20  1  0.58056590  0.33358383  0.83040661  1
  Ca2+  Ca21  1  0.57679855  0.82931129  0.15815928  1
  Ca2+  Ca22  1  0.58086331  0.82746559  0.48930967  1
  Ca2+  Ca23  1  0.57699627  0.82448368  0.82116258  1
  Ca2+  Ca24  1  0.32496599  0.41131172  0.16735323  1
  Ca2+  Ca25  1  0.33301765  0.42307217  0.50917957  1
  Ca2+  Ca26  1  0.33835691  0.42152822  0.83841267  1
  Ca2+  Ca27  1  0.33173238  0.90665887  0.16660521  1
  Ca2+  Ca28  1  0.33136555  0.90749483  0.50803271  1
  Ca2+  Ca29  1  0.32538335  0.90353551  0.83760256  1
  Ca2+  Ca30  1  0.82048343  0.41850470  0.16927592  1
  Ca2+  Ca31  1  0.81962850  0.42143020  0.50348738  1
  Ca2+  Ca32  1  0.82110126  0.41885525  0.83878512  1
  Ca2+  Ca33  1  0.82589673  0.92890082  0.17132045  1
  Ca2+  Ca34  1  0.82323890  0.91470905  0.50501061  1
  Ca2+  Ca35  1  0.82911478  0.91677103  0.83564439  1
  Ca2+  Ca36  1  0.42696541  0.17416688  0.15593632  1
  Ca2+  Ca37  1  0.41758120  0.17327342  0.50013421  1
  Ca2+  Ca38  1  0.41791215  0.17972121  0.83538950  1
  Ca2+  Ca39  1  0.42615471  0.67584237  0.16301684  1
  Ca2+  Ca40  1  0.42363092  0.67347578  0.50074937  1
  Ca2+  Ca41  1  0.42284762  0.67228134  0.82972176  1
  Ca2+  Ca42  1  0.91777336  0.16359864  0.15787281  1
  Ca2+  Ca43  1  0.91568439  0.16476607  0.49629983  1
  Ca2+  Ca44  1  0.92049062  0.16008514  0.83556620  1
  Ca2+  Ca45  1  0.92352699  0.66737448  0.16007374  1
  Ca2+  Ca46  1  0.91418121  0.67441475  0.50017599  1
  Ca2+  Ca47  1  0.92750006  0.66790722  0.82921160  1
  Al0+  Al48  1  0.00060590  0.00090761  0.00479062  1
  Al0+  Al49  1  0.00221743  0.00102271  0.33600427  1
  Al0+  Al50  1  0.00193031  -0.00083418  0.66449655  1
  Al0+  Al51  1  -0.00082701  0.50004459  -0.00156086  1
  Al0+  Al52  1  -0.00164003  0.49787970  0.33757986  1
  Al0+  Al53  1  -0.00085962  0.49703883  0.66487422  1
  Al0+  Al54  1  0.49721083  0.00160754  -0.00769567  1
  Al0+  Al55  1  0.49855056  0.00333389  0.33232677  1
  Al0+  Al56  1  0.49919118  0.00269903  0.66927767  1
  Al0+  Al57  1  0.49774010  0.50261670  0.00045833  1
  Al0+  Al58  1  0.49568946  0.50205064  0.33278634  1
  Al0+  Al59  1  0.49699982  0.49953920  0.66767770  1
  Al0+  Al60  1  0.24905451  0.24836115  -0.00395730  1
  Al0+  Al61  1  0.24795456  0.24781878  0.33732261  1
  Al0+  Al62  1  0.25047990  0.24794350  0.66151367  1
  Al0+  Al63  1  0.24875779  0.74782281  0.00046678  1
  Al0+  Al64  1  0.24945265  0.74841463  0.33142037  1
  Al0+  Al65  1  0.25043074  0.74717360  0.67136098  1
  Al0+  Al66  1  0.75090550  0.25041383  0.00324852  1
  Al0+  Al67  1  0.75160863  0.25280153  0.34183986  1
  Al0+  Al68  1  0.75200250  0.24967020  0.66867769  1
  Al0+  Al69  1  0.75115947  0.74992352  -0.00181675  1
  Al0+  Al70  1  0.75194127  0.74867194  0.32824473  1
  Al0+  Al71  1  0.75311940  0.74838921  0.66353209  1
  Al0+  Al72  1  0.67679278  0.43251245  0.34670799  1
  Al0+  Al73  1  0.43068571  0.31959366  0.65192582  1
  Al0+  Al74  1  0.57290992  0.68045476  0.98334794  1
  Al0+  Al75  1  0.82317659  0.07159259  0.35021465  1
  Al0+  Al76  1  0.17909736  0.42774755  0.01154880  1
  Al0+  Al77  1  0.57536479  0.17924773  0.98553033  1
  Al0+  Al78  1  0.42785205  0.82195302  0.98393953  1
  Al0+  Al79  1  0.42792916  0.82279556  0.65207755  1
  Al0+  Al80  1  0.93109453  0.82093546  0.65306641  1
  Al0+  Al81  1  0.57112782  0.67964492  0.65092368  1
  Al0+  Al82  1  0.17815732  0.42733009  0.34735889  1
  Al0+  Al83  1  0.18087548  0.92856860  0.01489711  1
  Al0+  Al84  1  0.67853571  0.43211236  0.01295904  1
  Al0+  Al85  1  0.31919002  0.56893731  0.68202012  1
  Al0+  Al86  1  0.06986469  0.67682324  0.98757141  1
  Al0+  Al87  1  0.42816821  0.82408049  0.31770879  1
  Al0+  Al88  1  0.67831553  0.92867904  0.34527138  1
  Al0+  Al89  1  0.42856376  0.32154968  0.98686109  1
  Al0+  Al90  1  0.06989406  0.17869682  0.98636251  1
  Al0+  Al91  1  0.18136132  0.93013683  0.68026438  1
  Al0+  Al92  1  0.81936265  0.06985910  0.01243823  1
  Al0+  Al93  1  0.67950073  0.43092920  0.68097554  1
  Al0+  Al94  1  0.67816354  0.92674804  0.68002054  1
  Al0+  Al95  1  0.57245670  0.67829870  0.31630455  1
  Si0+  Si96  1  0.32068203  0.07222833  0.34835781  1
  Si0+  Si97  1  0.92896543  0.32081435  0.31789992  1
  Si0+  Si98  1  0.82380287  0.57341175  0.01617138  1
  Si0+  Si99  1  0.92771638  0.32232212  0.98282134  1
  Si0+  Si100  1  0.32249820  0.07545100  0.68523682  1
  Si0+  Si101  1  0.57601113  0.17832189  0.64837393  1
  Si0+  Si102  1  0.82546411  0.57215983  0.68424656  1
  Si0+  Si103  1  0.82431635  0.57204657  0.34989747  1
  Si0+  Si104  1  0.93011265  0.82314235  0.98493543  1
  Si0+  Si105  1  0.32082567  0.57170919  0.02075718  1
  Si0+  Si106  1  0.92775849  0.32106438  0.64955031  1
  Si0+  Si107  1  0.57228195  0.18232897  0.32076471  1
  Si0+  Si108  1  0.93035130  0.82314823  0.31683362  1
  Si0+  Si109  1  0.07098168  0.17896602  0.31731381  1
  Si0+  Si110  1  0.32177412  0.07313805  0.01693043  1
  Si0+  Si111  1  0.31841124  0.57179915  0.35142281  1
  Si0+  Si112  1  0.42683662  0.32068109  0.31971571  1
  Si0+  Si113  1  0.82250552  0.07014849  0.68378773  1
  Si0+  Si114  1  0.07255104  0.67545879  0.64963660  1
  Si0+  Si115  1  0.06970162  0.17930723  0.64955116  1
  Si0+  Si116  1  0.67538440  0.92722780  0.01375272  1
  Si0+  Si117  1  0.06931264  0.67808290  0.31996442  1
  Si0+  Si118  1  0.17641872  0.42544318  0.68304362  1
  Si0+  Si119  1  0.18106563  0.92744059  0.34847701  1
  O2-  O120  1  0.25853151  -0.00029641  0.06277659  1
  O2-  O121  1  0.25599246  -0.00539367  0.38986028  1
  O2-  O122  1  0.26043433  -0.00026932  0.72720129  1
  O2-  O123  1  0.25288405  0.50036138  0.06292047  1
  O2-  O124  1  0.25191186  0.50056640  0.39580863  1
  O2-  O125  1  0.24225466  0.49519775  0.72753717  1
  O2-  O126  1  0.74079038  -0.00085897  0.05868177  1
  O2-  O127  1  0.75213026  -0.00185820  0.39817531  1
  O2-  O128  1  0.75168538  0.00359447  0.72670210  1
  O2-  O129  1  0.75099369  0.50907551  0.06045187  1
  O2-  O130  1  0.74760503  0.51176614  0.39292266  1
  O2-  O131  1  0.75302009  0.50717605  0.72724051  1
  O2-  O132  1  -0.00135227  0.24857234  0.27537712  1
  O2-  O133  1  0.00063063  0.25179093  0.60655952  1
  O2-  O134  1  -0.00230897  0.25498387  0.93813450  1
  O2-  O135  1  0.00025659  0.75020266  0.27588927  1
  O2-  O136  1  0.00420224  0.74431489  0.60494277  1
  O2-  O137  1  -0.00415934  0.75171442  0.94091255  1
  O2-  O138  1  0.50338239  0.25566903  0.27808012  1
  O2-  O139  1  0.50681119  0.24683660  0.60359531  1
  O2-  O140  1  0.50455787  0.25334081  0.93725022  1
  O2-  O141  1  0.50569354  0.75707164  0.26919468  1
  O2-  O142  1  0.50657737  0.75895576  0.60094652  1
  O2-  O143  1  0.50622876  0.75740020  0.93441924  1
  O2-  O144  1  0.06848932  0.17951713  0.09988006  1
  O2-  O145  1  0.07183281  0.17980532  0.42268795  1
  O2-  O146  1  0.06908993  0.17894236  0.75430538  1
  O2-  O147  1  0.06728163  0.67725846  0.10157432  1
  O2-  O148  1  0.06865004  0.67955246  0.42500297  1
  O2-  O149  1  0.07036099  0.67358353  0.75492799  1
  O2-  O150  1  0.57479615  0.18133558  0.10024715  1
  O2-  O151  1  0.56941099  0.18144673  0.42573840  1
  O2-  O152  1  0.57830456  0.18053358  0.75356574  1
  O2-  O153  1  0.57054532  0.68049807  0.09705373  1
  O2-  O154  1  0.56835800  0.67666759  0.42956802  1
  O2-  O155  1  0.56841649  0.67854897  0.76401885  1
  O2-  O156  1  0.17817136  0.42691252  0.23445454  1
  O2-  O157  1  0.17686126  0.42598074  0.57688148  1
  O2-  O158  1  0.18006449  0.42919187  0.89872556  1
  O2-  O159  1  0.17809348  0.92851004  0.24361448  1
  O2-  O160  1  0.18003748  0.93368143  0.56623854  1
  O2-  O161  1  0.17860145  0.93127088  0.90209119  1
  O2-  O162  1  0.67996984  0.42911850  0.23381899  1
  O2-  O163  1  0.68162209  0.43199002  0.56748965  1
  O2-  O164  1  0.68131335  0.43128579  0.90010626  1
  O2-  O165  1  0.67969166  0.93348366  0.23166862  1
  O2-  O166  1  0.68039539  0.92831964  0.56673114  1
  O2-  O167  1  0.68028158  0.92658598  0.90833724  1
  O2-  O168  1  0.42756723  0.31783283  0.10142694  1
  O2-  O169  1  0.42598773  0.31793116  0.42484635  1
  O2-  O170  1  0.42918820  0.31803273  0.76427981  1
  O2-  O171  1  0.42815040  0.81911180  0.09786560  1
  O2-  O172  1  0.42419136  0.82109626  0.43086766  1
  O2-  O173  1  0.42634201  0.81786091  0.76483425  1
  O2-  O174  1  0.92874474  0.32211865  0.08892358  1
  O2-  O175  1  0.93119256  0.32102603  0.42317285  1
  O2-  O176  1  0.92758045  0.32127617  0.75415781  1
  O2-  O177  1  0.93222755  0.82235258  0.09113779  1
  O2-  O178  1  0.93233437  0.82329572  0.42190885  1
  O2-  O179  1  0.93454406  0.82218665  0.76594199  1
  O2-  O180  1  0.31639302  0.07901241  0.24398843  1
  O2-  O181  1  0.31722232  0.08090872  0.57909455  1
  O2-  O182  1  0.31669044  0.07746351  0.91190940  1
  O2-  O183  1  0.31541327  0.57195386  0.24606517  1
  O2-  O184  1  0.31628632  0.56708457  0.56836610  1
  O2-  O185  1  0.31926074  0.57161973  0.91523337  1
  O2-  O186  1  0.82388807  0.07168685  0.23672698  1
  O2-  O187  1  0.82364058  0.06976804  0.57807829  1
  O2-  O188  1  0.82222822  0.06630863  0.89945154  1
  O2-  O189  1  0.83395603  0.56632756  0.24494434  1
  O2-  O190  1  0.83194195  0.56850551  0.57870627  1
  O2-  O191  1  0.82882557  0.57047950  0.91107458  1
  O2-  O192  1  0.04547267  0.08602628  0.27079186  1
  O2-  O193  1  0.04007251  0.08903523  0.59997348  1
  O2-  O194  1  0.03590084  0.08293109  0.93273181  1
  O2-  O195  1  0.03954200  0.58565351  0.27425667  1
  O2-  O196  1  0.04685121  0.58136138  0.60305165  1
  O2-  O197  1  0.03880410  0.58201084  0.93056625  1
  O2-  O198  1  0.54307094  0.09218361  0.27140101  1
  O2-  O199  1  0.54809988  0.08507911  0.60259211  1
  O2-  O200  1  0.54658652  0.08234699  0.93073577  1
  O2-  O201  1  0.53471268  0.58179717  0.26322779  1
  O2-  O202  1  0.53307361  0.58350089  0.59908321  1
  O2-  O203  1  0.53842634  0.58338874  0.93260749  1
  O2-  O204  1  0.16262679  0.20802195  0.27035536  1
  O2-  O205  1  0.16129040  0.20536747  0.60016290  1
  O2-  O206  1  0.16490519  0.20792913  0.92961215  1
  O2-  O207  1  0.16074796  0.70432167  0.27181728  1
  O2-  O208  1  0.16524639  0.70276863  0.60373030  1
  O2-  O209  1  0.16556727  0.70699483  0.93415107  1
  O2-  O210  1  0.66586378  0.20966076  0.27662319  1
  O2-  O211  1  0.66998078  0.20345373  0.60236242  1
  O2-  O212  1  0.67393849  0.20621595  0.93278580  1
  O2-  O213  1  0.67509978  0.69414344  0.26624514  1
  O2-  O214  1  0.67394348  0.69569464  0.60191259  1
  O2-  O215  1  0.67503074  0.69902519  0.93345363  1
  O2-  O216  1  0.08144818  0.45809053  0.06507634  1
  O2-  O217  1  0.08166120  0.45724067  0.40233835  1
  O2-  O218  1  0.08068723  0.44602256  0.72623158  1
  O2-  O219  1  0.08622432  0.96311050  0.07109684  1
  O2-  O220  1  0.09121483  0.96007664  0.39721668  1
  O2-  O221  1  0.08599277  0.96646068  0.73312793  1
  O2-  O222  1  0.58100498  0.46025673  0.06710104  1
  O2-  O223  1  0.57768043  0.45857886  0.39876077  1
  O2-  O224  1  0.58215905  0.45884013  0.73284585  1
  O2-  O225  1  0.57937197  0.94956754  0.05552371  1
  O2-  O226  1  0.58010017  0.96022283  0.39804536  1
  O2-  O227  1  0.58118866  0.95685670  0.73333374  1
  O2-  O228  1  0.20829103  0.33011542  0.06534318  1
  O2-  O229  1  0.20719927  0.33048057  0.40232789  1
  O2-  O230  1  0.20333264  0.33071030  0.72515936  1
  O2-  O231  1  0.20767958  0.83061687  0.06909966  1
  O2-  O232  1  0.20373938  0.83408248  0.39528326  1
  O2-  O233  1  0.20381580  0.83133932  0.73254864  1
  O2-  O234  1  0.71245430  0.33662880  0.06789599  1
  O2-  O235  1  0.71188085  0.33889122  0.40398594  1
  O2-  O236  1  0.71371223  0.33417247  0.73292308  1
  O2-  O237  1  0.70465230  0.83488135  0.06105771  1
  O2-  O238  1  0.70712841  0.82848920  0.39460487  1
  O2-  O239  1  0.71315647  0.83071981  0.73223444  1
  O2-  O240  1  0.44604930  0.41469986  0.27435332  1
  O2-  O241  1  0.46018358  0.41554645  0.59666569  1
  O2-  O242  1  0.45193441  0.42122572  0.93683806  1
  O2-  O243  1  0.44721656  0.92630838  0.26752635  1
  O2-  O244  1  0.44363030  0.92721665  0.60584319  1
  O2-  O245  1  0.44129574  0.92401821  0.93382148  1
  O2-  O246  1  0.95813105  0.41222839  0.27042686  1
  O2-  O247  1  0.95405671  0.41262966  0.59989964  1
  O2-  O248  1  0.95088078  0.41581951  0.93644596  1
  O2-  O249  1  0.96214630  0.91455686  0.27072225  1
  O2-  O250  1  0.96587526  0.91557882  0.59618103  1
  O2-  O251  1  0.96093905  0.91453398  0.93892923  1
  O2-  O252  1  0.33618021  0.28600631  0.27380697  1
  O2-  O253  1  0.33419482  0.28699354  0.59597924  1
  O2-  O254  1  0.33285543  0.28857079  0.93168844  1
  O2-  O255  1  0.33002073  0.78991222  0.26538326  1
  O2-  O256  1  0.33008565  0.78695395  0.60038611  1
  O2-  O257  1  0.33076284  0.78640124  0.93358187  1
  O2-  O258  1  0.83608215  0.29424092  0.27209979  1
  O2-  O259  1  0.83745757  0.29043318  0.60025552  1
  O2-  O260  1  0.83584265  0.29338497  0.93634215  1
  O2-  O261  1  0.83939219  0.79788065  0.26716332  1
  O2-  O262  1  0.83647799  0.78981356  0.59535924  1
  O2-  O263  1  0.83563609  0.80168837  0.93981795  1
  O2-  O264  1  0.41818030  0.05416435  0.06043232  1
  O2-  O265  1  0.41432700  0.05388200  0.39554917  1
  O2-  O266  1  0.41886094  0.06191555  0.72809488  1
  O2-  O267  1  0.41375340  0.54695898  0.06782176  1
  O2-  O268  1  0.41155081  0.54654868  0.39743309  1
  O2-  O269  1  0.41309156  0.53460024  0.73715005  1
  O2-  O270  1  0.91397949  0.03667407  0.06958925  1
  O2-  O271  1  0.92291742  0.04441910  0.40247702  1
  O2-  O272  1  0.91601438  0.04180116  0.72826162  1
  O2-  O273  1  0.91496167  0.54299463  0.06570689  1
  O2-  O274  1  0.91276560  0.53828938  0.40234639  1
  O2-  O275  1  0.91746077  0.54035467  0.73202093  1
  O2-  O276  1  0.28910941  0.16356444  0.06598331  1
  O2-  O277  1  0.28471651  0.15922012  0.40136910  1
  O2-  O278  1  0.28643453  0.16540437  0.73250012  1
  O2-  O279  1  0.29002091  0.66286269  0.06824989  1
  O2-  O280  1  0.28781791  0.66372980  0.39863624  1
  O2-  O281  1  0.28785970  0.66350525  0.73864724  1
  O2-  O282  1  0.79441969  0.16739462  0.06822959  1
  O2-  O283  1  0.79641501  0.16984700  0.40399850  1
  O2-  O284  1  0.80131611  0.16510205  0.72867490  1
  O2-  O285  1  0.80480446  0.66918386  0.06133634  1
  O2-  O286  1  0.80882135  0.66953203  0.39074435  1
  O2-  O287  1  0.80746528  0.66761049  0.72783824  1
