# generated using pymatgen
data_Ca2Al2SiO7
_symmetry_space_group_name_H-M   'P 1'
_cell_length_a   15.45970373
_cell_length_b   15.45959272
_cell_length_c   15.28375872
_cell_angle_alpha   89.99448159
_cell_angle_beta   89.99398230
_cell_angle_gamma   90.00441473
_symmetry_Int_Tables_number   1
_chemical_formula_structural   Ca2Al2SiO7
_chemical_formula_sum   'Ca48 Al48 Si24 O168'
_cell_volume   3652.82933972
_cell_formula_units_Z   24
loop_
 _symmetry_equiv_pos_site_id
 _symmetry_equiv_pos_as_xyz
  1  'x, y, z'
loop_
 _atom_type_symbol
 _atom_type_oxidation_number
  Ca2+  2.0
  Al0+  0.0
  Si0+  0.0
  O2-  -2.0
loop_
 _atom_site_type_symbol
 _atom_site_label
 _atom_site_symmetry_multiplicity
 _atom_site_fract_x
 _atom_site_fract_y
 _atom_site_fract_z
 _atom_site_occupancy
  Ca2+  Ca0  1  0.17166136  0.08955935  0.16583050  1
  Ca2+  Ca1  1  0.17236229  0.07310429  0.51091227  1
  Ca2+  Ca2  1  0.17307807  0.08451630  0.84062283  1
  Ca2+  Ca3  1  0.15726050  0.58221982  0.16658362  1
  Ca2+  Ca4  1  0.16778240  0.58893891  0.50719498  1
  Ca2+  Ca5  1  0.16434964  0.58169219  0.83732462  1
  Ca2+  Ca6  1  0.66260745  0.07742506  0.16791350  1
  Ca2+  Ca7  1  0.66967319  0.07753514  0.50844811  1
  Ca2+  Ca8  1  0.67426031  0.07447545  0.83443037  1
  Ca2+  Ca9  1  0.67791563  0.58415115  0.17010764  1
  Ca2+  Ca10  1  0.68072280  0.58958546  0.50280274  1
  Ca2+  Ca11  1  0.68197960  0.57964059  0.84251603  1
  Ca2+  Ca12  1  0.07976084  0.33345676  0.15897740  1
  Ca2+  Ca13  1  0.06994327  0.33278392  0.49856079  1
  Ca2+  Ca14  1  0.08351741  0.32966699  0.83218352  1
  Ca2+  Ca15  1  0.07064650  0.82202063  0.15821099  1
  Ca2+  Ca16  1  0.08094857  0.82568614  0.49513470  1
  Ca2+  Ca17  1  0.08209718  0.82323540  0.82852172  1
  Ca2+  Ca18  1  0.58107268  0.32883613  0.15834818  1
  Ca2+  Ca19  1  0.58250067  0.32396671  0.49255478  1
  Ca2+  Ca20  1  0.57863290  0.34155285  0.83260027  1
  Ca2+  Ca21  1  0.58356824  0.82811951  0.15899684  1
  Ca2+  Ca22  1  0.58551230  0.82949648  0.49639188  1
  Ca2+  Ca23  1  0.58062985  0.84434171  0.83471532  1
  Ca2+  Ca24  1  0.32748382  0.41153482  0.16353765  1
  Ca2+  Ca25  1  0.32937597  0.42599253  0.50674024  1
  Ca2+  Ca26  1  0.32990018  0.42294274  0.84296675  1
  Ca2+  Ca27  1  0.33669419  0.91864253  0.16402952  1
  Ca2+  Ca28  1  0.32528181  0.92057573  0.51186781  1
  Ca2+  Ca29  1  0.32720281  0.92411512  0.83790994  1
  Ca2+  Ca30  1  0.83785279  0.42887615  0.17051655  1
  Ca2+  Ca31  1  0.84101049  0.42532021  0.50447873  1
  Ca2+  Ca32  1  0.83617379  0.42569261  0.83830923  1
  Ca2+  Ca33  1  0.83392412  0.90895217  0.16807519  1
  Ca2+  Ca34  1  0.82948733  0.92004069  0.50767260  1
  Ca2+  Ca35  1  0.82450709  0.91146316  0.83947729  1
  Ca2+  Ca36  1  0.42098594  0.16945601  0.15659777  1
  Ca2+  Ca37  1  0.42236930  0.16223157  0.49723635  1
  Ca2+  Ca38  1  0.41062538  0.16819664  0.83369367  1
  Ca2+  Ca39  1  0.42532612  0.67201290  0.15966046  1
  Ca2+  Ca40  1  0.42379365  0.66576496  0.49530112  1
  Ca2+  Ca41  1  0.41445085  0.67212000  0.82872688  1
  Ca2+  Ca42  1  0.92341580  0.17431342  0.16043927  1
  Ca2+  Ca43  1  0.90382450  0.17912062  0.49844026  1
  Ca2+  Ca44  1  0.91722614  0.17215039  0.82737972  1
  Ca2+  Ca45  1  0.91718943  0.67049997  0.16189868  1
  Ca2+  Ca46  1  0.92492558  0.66738967  0.49266065  1
  Ca2+  Ca47  1  0.92253931  0.66258886  0.83163561  1
  Al0+  Al48  1  0.00055100  -0.00062404  -0.00769725  1
  Al0+  Al49  1  0.00017223  0.00082432  0.33256565  1
  Al0+  Al50  1  -0.00035023  -0.00044074  0.67269275  1
  Al0+  Al51  1  0.00105162  0.49971003  0.00463570  1
  Al0+  Al52  1  0.00019350  0.49834493  0.33252491  1
  Al0+  Al53  1  0.00064163  0.49949236  0.66180028  1
  Al0+  Al54  1  0.50099390  0.00026858  0.00394817  1
  Al0+  Al55  1  0.50015578  0.00120680  0.33151874  1
  Al0+  Al56  1  0.49877186  0.00074080  0.67166738  1
  Al0+  Al57  1  0.50055710  0.49914554  -0.00013025  1
  Al0+  Al58  1  0.49905831  0.49903030  0.32967353  1
  Al0+  Al59  1  0.49876811  0.50125359  0.66645407  1
  Al0+  Al60  1  0.25179569  0.25124096  0.00069718  1
  Al0+  Al61  1  0.25019204  0.25057684  0.33954935  1
  Al0+  Al62  1  0.24928963  0.25100905  0.66444083  1
  Al0+  Al63  1  0.25119490  0.75135756  -0.00597968  1
  Al0+  Al64  1  0.24992140  0.75004739  0.33034487  1
  Al0+  Al65  1  0.25095830  0.75022302  0.66925582  1
  Al0+  Al66  1  0.74963883  0.24804365  0.00199527  1
  Al0+  Al67  1  0.74824447  0.24983692  0.32247947  1
  Al0+  Al68  1  0.74699193  0.24946722  0.66603449  1
  Al0+  Al69  1  0.74975350  0.75002341  0.00455789  1
  Al0+  Al70  1  0.74907422  0.74914486  0.33240811  1
  Al0+  Al71  1  0.74949385  0.74847907  0.67505839  1
  Al0+  Al72  1  0.07054117  0.68088214  0.65181155  1
  Al0+  Al73  1  0.18145478  0.43053948  0.01306726  1
  Al0+  Al74  1  0.17713220  0.92689180  0.68258939  1
  Al0+  Al75  1  0.32246549  0.57070480  0.67957101  1
  Al0+  Al76  1  0.31863008  0.06991763  0.01561973  1
  Al0+  Al77  1  0.82144594  0.56935131  0.01739584  1
  Al0+  Al78  1  0.92841911  0.31862494  0.65426127  1
  Al0+  Al79  1  0.57101563  0.67851788  0.32054114  1
  Al0+  Al80  1  0.07292395  0.67861906  0.31823216  1
  Al0+  Al81  1  0.31979792  0.07247053  0.68211783  1
  Al0+  Al82  1  0.67685995  0.42668969  0.01547482  1
  Al0+  Al83  1  0.92640444  0.82018152  0.98228813  1
  Al0+  Al84  1  0.82111072  0.07440365  0.68027223  1
  Al0+  Al85  1  0.92939795  0.32037666  0.31810419  1
  Al0+  Al86  1  0.43101190  0.32051370  0.98570472  1
  Al0+  Al87  1  0.82284525  0.56897486  0.67920172  1
  Al0+  Al88  1  0.92856665  0.82301055  0.32072183  1
  Al0+  Al89  1  0.56951889  0.17840313  0.31882047  1
  Al0+  Al90  1  0.07213198  0.18019522  0.98703400  1
  Al0+  Al91  1  0.68104814  0.93151452  0.01676820  1
  Al0+  Al92  1  0.82020727  0.56999510  0.34999209  1
  Al0+  Al93  1  0.43084129  0.82217901  0.98506683  1
  Al0+  Al94  1  0.07039362  0.67691025  0.98313121  1
  Al0+  Al95  1  0.67999213  0.92764541  0.68126032  1
  Si0+  Si96  1  0.92461774  0.82231019  0.65143603  1
  Si0+  Si97  1  0.57155320  0.67788215  0.98185502  1
  Si0+  Si98  1  0.42737237  0.32378216  0.65023222  1
  Si0+  Si99  1  0.42609317  0.32155379  0.31716973  1
  Si0+  Si100  1  0.43105561  0.82158869  0.65208436  1
  Si0+  Si101  1  0.17905799  0.92899793  0.34643238  1
  Si0+  Si102  1  0.67662781  0.42725610  0.67968341  1
  Si0+  Si103  1  0.57290801  0.17693042  0.98048753  1
  Si0+  Si104  1  0.32294778  0.57501845  0.01734569  1
  Si0+  Si105  1  0.17831542  0.42944742  0.68162433  1
  Si0+  Si106  1  0.42791479  0.82242031  0.31803114  1
  Si0+  Si107  1  0.82565440  0.07250326  0.01822753  1
  Si0+  Si108  1  0.17914691  0.42823104  0.35093870  1
  Si0+  Si109  1  0.57176188  0.67754974  0.65274358  1
  Si0+  Si110  1  0.67835955  0.92984088  0.34794825  1
  Si0+  Si111  1  0.07415077  0.17824078  0.31896410  1
  Si0+  Si112  1  0.56786243  0.17921292  0.65240770  1
  Si0+  Si113  1  0.07337709  0.17602828  0.64956266  1
  Si0+  Si114  1  0.92746060  0.32113972  0.98388493  1
  Si0+  Si115  1  0.32174335  0.07100328  0.34912995  1
  Si0+  Si116  1  0.32197589  0.57174805  0.34685015  1
  Si0+  Si117  1  0.17676916  0.92640076  0.01827729  1
  Si0+  Si118  1  0.82139585  0.07263184  0.34580745  1
  Si0+  Si119  1  0.67632814  0.42643211  0.34963782  1
  O2-  O120  1  0.24405220  -0.00396045  0.06469507  1
  O2-  O121  1  0.25093183  -0.00045081  0.38985063  1
  O2-  O122  1  0.24359892  0.00506610  0.73115089  1
  O2-  O123  1  0.25278942  0.50808999  0.06208699  1
  O2-  O124  1  0.24872923  0.50271946  0.39000290  1
  O2-  O125  1  0.24871134  0.49584571  0.72571453  1
  O2-  O126  1  0.75840077  0.00314700  0.06423621  1
  O2-  O127  1  0.75118511  0.00007721  0.38834571  1
  O2-  O128  1  0.75664250  -0.00441854  0.72974895  1
  O2-  O129  1  0.74943607  0.49641263  0.06707189  1
  O2-  O130  1  0.74430052  0.49449935  0.39611499  1
  O2-  O131  1  0.74739496  0.49363493  0.72290754  1
  O2-  O132  1  0.00578955  0.24632157  0.27416038  1
  O2-  O133  1  -0.00039702  0.23986740  0.60570841  1
  O2-  O134  1  -0.00610207  0.25056597  0.93965065  1
  O2-  O135  1  -0.00133742  0.74913162  0.27098804  1
  O2-  O136  1  -0.00428704  0.75647118  0.60602158  1
  O2-  O137  1  -0.00088374  0.74899362  0.93263233  1
  O2-  O138  1  0.49487693  0.25328339  0.27358039  1
  O2-  O139  1  0.49671877  0.25053668  0.60906769  1
  O2-  O140  1  0.50879995  0.25017751  0.93658672  1
  O2-  O141  1  0.49623562  0.75337437  0.27468160  1
  O2-  O142  1  0.50233651  0.75068364  0.60972671  1
  O2-  O143  1  0.50260365  0.74560522  0.93633423  1
  O2-  O144  1  0.07153029  0.18354628  0.10090155  1
  O2-  O145  1  0.07613483  0.17875934  0.42453576  1
  O2-  O146  1  0.07820229  0.18192322  0.75455639  1
  O2-  O147  1  0.06947642  0.67858416  0.09677424  1
  O2-  O148  1  0.07575656  0.68203463  0.43219330  1
  O2-  O149  1  0.07021451  0.67808890  0.76404321  1
  O2-  O150  1  0.56909033  0.17611886  0.08651086  1
  O2-  O151  1  0.56713519  0.17709252  0.43269053  1
  O2-  O152  1  0.56825793  0.18012473  0.75677801  1
  O2-  O153  1  0.56896750  0.67961284  0.08798510  1
  O2-  O154  1  0.56969428  0.68123537  0.43441547  1
  O2-  O155  1  0.56901212  0.67372904  0.75699878  1
  O2-  O156  1  0.18168950  0.42279359  0.24631310  1
  O2-  O157  1  0.18037705  0.43002995  0.57533579  1
  O2-  O158  1  0.18368013  0.42970479  0.89993024  1
  O2-  O159  1  0.18057119  0.93057438  0.24191798  1
  O2-  O160  1  0.18216984  0.92697231  0.56749863  1
  O2-  O161  1  0.18012705  0.92744655  0.91300530  1
  O2-  O162  1  0.67604446  0.42771531  0.24473211  1
  O2-  O163  1  0.67451135  0.42684266  0.57379873  1
  O2-  O164  1  0.67773846  0.43033389  0.90118963  1
  O2-  O165  1  0.67508029  0.93162148  0.24340790  1
  O2-  O166  1  0.67758703  0.92925994  0.56665660  1
  O2-  O167  1  0.67966650  0.93499753  0.90400328  1
  O2-  O168  1  0.42943282  0.31624086  0.09913278  1
  O2-  O169  1  0.42596963  0.32117330  0.42336610  1
  O2-  O170  1  0.42813789  0.32645256  0.75467528  1
  O2-  O171  1  0.43319827  0.82029090  0.09892140  1
  O2-  O172  1  0.42757050  0.82312550  0.42413351  1
  O2-  O173  1  0.43246142  0.82187387  0.75663029  1
  O2-  O174  1  0.92980820  0.31987803  0.08972646  1
  O2-  O175  1  0.92936723  0.31898502  0.43164135  1
  O2-  O176  1  0.93076826  0.31927552  0.76694323  1
  O2-  O177  1  0.92807414  0.81964768  0.09621134  1
  O2-  O178  1  0.93047870  0.82598764  0.43462824  1
  O2-  O179  1  0.92296669  0.81800824  0.75630220  1
  O2-  O180  1  0.32188011  0.07333435  0.24455318  1
  O2-  O181  1  0.32210884  0.06879024  0.56736536  1
  O2-  O182  1  0.31706464  0.07031153  0.90302124  1
  O2-  O183  1  0.32415343  0.57113093  0.24238366  1
  O2-  O184  1  0.32493254  0.56871541  0.56562512  1
  O2-  O185  1  0.32420731  0.57249970  0.91163472  1
  O2-  O186  1  0.82213688  0.07219700  0.24120804  1
  O2-  O187  1  0.81405341  0.07651737  0.56581356  1
  O2-  O188  1  0.82233128  0.07520188  0.91283848  1
  O2-  O189  1  0.81923967  0.56993999  0.23776290  1
  O2-  O190  1  0.82157236  0.57000985  0.56568578  1
  O2-  O191  1  0.82222714  0.56659606  0.90342435  1
  O2-  O192  1  0.04959092  0.08526569  0.27217492  1
  O2-  O193  1  0.05488497  0.07925958  0.60713105  1
  O2-  O194  1  0.04810887  0.08295167  0.93217820  1
  O2-  O195  1  0.04818152  0.57836629  0.26971089  1
  O2-  O196  1  0.04098592  0.58417559  0.59655270  1
  O2-  O197  1  0.04271752  0.57703633  0.93255339  1
  O2-  O198  1  0.53724137  0.08281635  0.26348557  1
  O2-  O199  1  0.53810527  0.08778043  0.60377917  1
  O2-  O200  1  0.54088954  0.08554078  0.93532546  1
  O2-  O201  1  0.54019256  0.58245864  0.26610479  1
  O2-  O202  1  0.54160449  0.58753780  0.60187414  1
  O2-  O203  1  0.54733641  0.58387034  0.93703902  1
  O2-  O204  1  0.16853907  0.20507407  0.27454361  1
  O2-  O205  1  0.16494709  0.20623263  0.59934562  1
  O2-  O206  1  0.16641059  0.21620026  0.93279469  1
  O2-  O207  1  0.17116755  0.70624597  0.26426926  1
  O2-  O208  1  0.16918150  0.71115539  0.59933424  1
  O2-  O209  1  0.17031127  0.70316762  0.93225364  1
  O2-  O210  1  0.66408484  0.20596018  0.26067430  1
  O2-  O211  1  0.65836914  0.20721919  0.60198014  1
  O2-  O212  1  0.66895833  0.19659356  0.93741502  1
  O2-  O213  1  0.66541345  0.71063905  0.26512965  1
  O2-  O214  1  0.66417409  0.70604144  0.60629905  1
  O2-  O215  1  0.66521169  0.70476520  0.93845583  1
  O2-  O216  1  0.08515908  0.45699580  0.06962792  1
  O2-  O217  1  0.08708898  0.45374865  0.39836591  1
  O2-  O218  1  0.08588188  0.45644408  0.72717930  1
  O2-  O219  1  0.08176769  0.95135115  0.06108215  1
  O2-  O220  1  0.08814500  0.95792787  0.39563755  1
  O2-  O221  1  0.07667680  0.94508699  0.73357223  1
  O2-  O222  1  0.57759324  0.45332333  0.06836750  1
  O2-  O223  1  0.58080358  0.44942795  0.39454083  1
  O2-  O224  1  0.58400015  0.45534219  0.72597951  1
  O2-  O225  1  0.58586058  0.96490542  0.07240728  1
  O2-  O226  1  0.58661287  0.95960869  0.39613241  1
  O2-  O227  1  0.58356649  0.96173967  0.73405587  1
  O2-  O228  1  0.21685085  0.33662045  0.06987945  1
  O2-  O229  1  0.20954835  0.33831981  0.40245281  1
  O2-  O230  1  0.20193338  0.33488914  0.72543449  1
  O2-  O231  1  0.20626931  0.83324476  0.06348923  1
  O2-  O232  1  0.20780764  0.83717798  0.39424334  1
  O2-  O233  1  0.21350604  0.83252267  0.73669635  1
  O2-  O234  1  0.69967233  0.32556826  0.06576765  1
  O2-  O235  1  0.70189540  0.33073917  0.39249859  1
  O2-  O236  1  0.69730298  0.33340795  0.72599622  1
  O2-  O237  1  0.70696303  0.83358539  0.07027276  1
  O2-  O238  1  0.70367309  0.83773012  0.39561330  1
  O2-  O239  1  0.70079118  0.82916289  0.73665771  1
  O2-  O240  1  0.44841713  0.41499626  0.27053009  1
  O2-  O241  1  0.45740010  0.41429169  0.60015608  1
  O2-  O242  1  0.45754404  0.41859006  0.93129341  1
  O2-  O243  1  0.45381421  0.91566392  0.27220647  1
  O2-  O244  1  0.45868110  0.91367203  0.60385867  1
  O2-  O245  1  0.46509537  0.91828665  0.93279325  1
  O2-  O246  1  0.96291572  0.41522290  0.26430608  1
  O2-  O247  1  0.96425891  0.41220811  0.59667074  1
  O2-  O248  1  0.95659078  0.41393496  0.93971201  1
  O2-  O249  1  0.95683992  0.92131129  0.26656667  1
  O2-  O250  1  0.94536722  0.91904865  0.60874028  1
  O2-  O251  1  0.95062849  0.91978899  0.93027486  1
  O2-  O252  1  0.33220022  0.29372769  0.27317100  1
  O2-  O253  1  0.33528290  0.29820248  0.60129659  1
  O2-  O254  1  0.33630143  0.28662539  0.93095222  1
  O2-  O255  1  0.33534034  0.79745240  0.27057094  1
  O2-  O256  1  0.34004522  0.79250930  0.60377208  1
  O2-  O257  1  0.33421999  0.79543504  0.92997486  1
  O2-  O258  1  0.83435705  0.29089165  0.26198900  1
  O2-  O259  1  0.83020584  0.29060140  0.59947904  1
  O2-  O260  1  0.83279081  0.29740608  0.93928264  1
  O2-  O261  1  0.82942018  0.79668773  0.26957509  1
  O2-  O262  1  0.83037064  0.79506926  0.60614728  1
  O2-  O263  1  0.82684960  0.79125591  0.93259038  1
  O2-  O264  1  0.41497342  0.03831056  0.06989397  1
  O2-  O265  1  0.41363398  0.04218611  0.39677479  1
  O2-  O266  1  0.41635083  0.04235830  0.73571913  1
  O2-  O267  1  0.41580340  0.54661679  0.06323822  1
  O2-  O268  1  0.41288695  0.54123170  0.39618250  1
  O2-  O269  1  0.41807445  0.53973270  0.73485979  1
  O2-  O270  1  0.92099007  0.04927393  0.06172524  1
  O2-  O271  1  0.91393406  0.04880764  0.39465206  1
  O2-  O272  1  0.92300321  0.05940073  0.72897640  1
  O2-  O273  1  0.91883328  0.54012643  0.07142004  1
  O2-  O274  1  0.91772354  0.53699706  0.40195066  1
  O2-  O275  1  0.91842958  0.53506252  0.73195910  1
  O2-  O276  1  0.28755850  0.16605736  0.07040969  1
  O2-  O277  1  0.29558897  0.16269539  0.39880107  1
  O2-  O278  1  0.29647800  0.17391197  0.73055789  1
  O2-  O279  1  0.30081505  0.67018629  0.06146858  1
  O2-  O280  1  0.29717011  0.66494485  0.39430255  1
  O2-  O281  1  0.29472039  0.66699780  0.73300630  1
  O2-  O282  1  0.79907804  0.16562499  0.06530765  1
  O2-  O283  1  0.78900696  0.16435493  0.39133767  1
  O2-  O284  1  0.78467465  0.16916158  0.73585015  1
  O2-  O285  1  0.79006264  0.66673604  0.07011118  1
  O2-  O286  1  0.78698869  0.66707479  0.40316787  1
  O2-  O287  1  0.79115316  0.66297891  0.73575591  1
