# generated using pymatgen
data_Ca2Al2SiO7
_symmetry_space_group_name_H-M   'P 1'
_cell_length_a   15.45876116
_cell_length_b   15.45914784
_cell_length_c   15.28512515
_cell_angle_alpha   90.00120824
_cell_angle_beta   90.00111804
_cell_angle_gamma   89.99020634
_symmetry_Int_Tables_number   1
_chemical_formula_structural   Ca2Al2SiO7
_chemical_formula_sum   'Ca48 Al48 Si24 O168'
_cell_volume   3652.82805922
_cell_formula_units_Z   24
loop_
 _symmetry_equiv_pos_site_id
 _symmetry_equiv_pos_as_xyz
  1  'x, y, z'
loop_
 _atom_type_symbol
 _atom_type_oxidation_number
  Ca2+  2.0
  Al0+  0.0
  Si0+  0.0
  O2-  -2.0
loop_
 _atom_site_type_symbol
 _atom_site_label
 _atom_site_symmetry_multiplicity
 _atom_site_fract_x
 _atom_site_fract_y
 _atom_site_fract_z
 _atom_site_occupancy
  Ca2+  Ca0  1  0.17211187  0.08041616  0.16800494  1
  Ca2+  Ca1  1  0.17177280  0.08478659  0.50910087  1
  Ca2+  Ca2  1  0.17730823  0.08786612  0.83764296  1
  Ca2+  Ca3  1  0.16610227  0.58034415  0.17293018  1
  Ca2+  Ca4  1  0.15973579  0.57632383  0.50104822  1
  Ca2+  Ca5  1  0.15333496  0.57413360  0.83617974  1
  Ca2+  Ca6  1  0.66446360  0.07742846  0.16980402  1
  Ca2+  Ca7  1  0.66587736  0.08029151  0.50520761  1
  Ca2+  Ca8  1  0.66780747  0.07029392  0.83755274  1
  Ca2+  Ca9  1  0.67214440  0.58551973  0.17029533  1
  Ca2+  Ca10  1  0.67481504  0.57460169  0.50497754  1
  Ca2+  Ca11  1  0.67926125  0.59056029  0.83924585  1
  Ca2+  Ca12  1  0.08185267  0.34455222  0.16659745  1
  Ca2+  Ca13  1  0.07890326  0.33790089  0.50135075  1
  Ca2+  Ca14  1  0.08337145  0.33368601  0.82370968  1
  Ca2+  Ca15  1  0.07417977  0.82056330  0.15990968  1
  Ca2+  Ca16  1  0.07948940  0.82014415  0.49034560  1
  Ca2+  Ca17  1  0.08223388  0.81867401  0.82753853  1
  Ca2+  Ca18  1  0.58033085  0.33465656  0.16890353  1
  Ca2+  Ca19  1  0.57884034  0.32848148  0.48383102  1
  Ca2+  Ca20  1  0.57868442  0.33053773  0.82891668  1
  Ca2+  Ca21  1  0.57906884  0.82616756  0.15395011  1
  Ca2+  Ca22  1  0.57950236  0.83690688  0.50217009  1
  Ca2+  Ca23  1  0.58005934  0.83646677  0.83394292  1
  Ca2+  Ca24  1  0.32266428  0.42363524  0.17846733  1
  Ca2+  Ca25  1  0.32575245  0.42081087  0.50043003  1
  Ca2+  Ca26  1  0.31738436  0.41674487  0.83936720  1
  Ca2+  Ca27  1  0.34007459  0.92005505  0.16609840  1
  Ca2+  Ca28  1  0.33363614  0.92275503  0.50960020  1
  Ca2+  Ca29  1  0.34131201  0.92421175  0.83726693  1
  Ca2+  Ca30  1  0.83060954  0.42351496  0.17325768  1
  Ca2+  Ca31  1  0.83611777  0.41591990  0.50438472  1
  Ca2+  Ca32  1  0.84202140  0.42862690  0.83468104  1
  Ca2+  Ca33  1  0.83192756  0.90708339  0.16849864  1
  Ca2+  Ca34  1  0.82887830  0.91439446  0.50487216  1
  Ca2+  Ca35  1  0.82295356  0.90670623  0.84035447  1
  Ca2+  Ca36  1  0.41694326  0.17163963  0.16695565  1
  Ca2+  Ca37  1  0.42027656  0.17269860  0.49430440  1
  Ca2+  Ca38  1  0.41294089  0.16134069  0.82922508  1
  Ca2+  Ca39  1  0.42184407  0.66631479  0.15750266  1
  Ca2+  Ca40  1  0.41177333  0.67151398  0.49472576  1
  Ca2+  Ca41  1  0.42153242  0.67872648  0.82939322  1
  Ca2+  Ca42  1  0.91612067  0.17603842  0.16614370  1
  Ca2+  Ca43  1  0.92030633  0.17806194  0.49511592  1
  Ca2+  Ca44  1  0.92673446  0.17581219  0.82284901  1
  Ca2+  Ca45  1  0.92436151  0.66833174  0.15919268  1
  Ca2+  Ca46  1  0.92563522  0.66407045  0.49767469  1
  Ca2+  Ca47  1  0.92046243  0.66279604  0.83302580  1
  Al0+  Al48  1  0.00009755  0.00234653  -0.00371046  1
  Al0+  Al49  1  -0.00112960  0.00049855  0.33103240  1
  Al0+  Al50  1  0.00089097  -0.00052089  0.66439000  1
  Al0+  Al51  1  -0.00313710  0.49988422  0.00628548  1
  Al0+  Al52  1  0.00074317  0.49953147  0.32990278  1
  Al0+  Al53  1  -0.00084432  0.50025240  0.66618584  1
  Al0+  Al54  1  0.50159647  0.00176832  0.00692720  1
  Al0+  Al55  1  0.50145905  0.00030452  0.33112678  1
  Al0+  Al56  1  0.50003374  -0.00028677  0.66965726  1
  Al0+  Al57  1  0.49905488  0.49774762  -0.00814800  1
  Al0+  Al58  1  0.49967035  0.50054147  0.33773181  1
  Al0+  Al59  1  0.50000972  0.50124424  0.66742504  1
  Al0+  Al60  1  0.24973787  0.25013276  0.01078510  1
  Al0+  Al61  1  0.25073916  0.24995909  0.33411471  1
  Al0+  Al62  1  0.25105585  0.25034571  0.67043119  1
  Al0+  Al63  1  0.24959411  0.75000336  -0.00956729  1
  Al0+  Al64  1  0.24969968  0.75226934  0.33133215  1
  Al0+  Al65  1  0.25128054  0.75038089  0.65757117  1
  Al0+  Al66  1  0.74890345  0.24897060  -0.00262332  1
  Al0+  Al67  1  0.75128767  0.24750812  0.32812625  1
  Al0+  Al68  1  0.74915885  0.24887009  0.66572319  1
  Al0+  Al69  1  0.74991880  0.74881702  0.00398949  1
  Al0+  Al70  1  0.74786895  0.75097863  0.33515016  1
  Al0+  Al71  1  0.74862187  0.74831003  0.67304604  1
  Al0+  Al72  1  0.17758022  0.42876058  0.35146152  1
  Al0+  Al73  1  0.81758976  0.56901756  0.01622792  1
  Al0+  Al74  1  0.18210377  0.43289726  0.68025033  1
  Al0+  Al75  1  0.42828529  0.32275112  0.31834501  1
  Al0+  Al76  1  0.57174002  0.67602692  0.98469449  1
  Al0+  Al77  1  0.92849111  0.82253038  0.98384596  1
  Al0+  Al78  1  0.06995863  0.67669795  0.98321808  1
  Al0+  Al79  1  0.17908944  0.43106903  0.01515428  1
  Al0+  Al80  1  0.07145851  0.67885767  0.31665626  1
  Al0+  Al81  1  0.68115461  0.93101104  0.68059787  1
  Al0+  Al82  1  0.31844762  0.06937711  0.67914013  1
  Al0+  Al83  1  0.07443938  0.17783531  0.65285428  1
  Al0+  Al84  1  0.93036348  0.32034578  0.31821368  1
  Al0+  Al85  1  0.32184089  0.57441840  0.34751218  1
  Al0+  Al86  1  0.92687746  0.82194943  0.31954298  1
  Al0+  Al87  1  0.68055076  0.42763155  0.34505147  1
  Al0+  Al88  1  0.43206737  0.82125565  0.65145368  1
  Al0+  Al89  1  0.81961780  0.56758352  0.67973683  1
  Al0+  Al90  1  0.92917321  0.32055120  0.65242533  1
  Al0+  Al91  1  0.06997315  0.67924134  0.65105730  1
  Al0+  Al92  1  0.57170724  0.17776391  0.31701994  1
  Al0+  Al93  1  0.68236135  0.93052696  0.01628035  1
  Al0+  Al94  1  0.42953469  0.82335053  0.98495873  1
  Al0+  Al95  1  0.32062795  0.06934557  0.01729487  1
  Si0+  Si96  1  0.82197796  0.07083882  0.34855047  1
  Si0+  Si97  1  0.67502877  0.42467098  0.68333518  1
  Si0+  Si98  1  0.32489571  0.57576183  0.68488362  1
  Si0+  Si99  1  0.57044073  0.17961651  0.98327382  1
  Si0+  Si100  1  0.17657718  0.92492657  0.68160215  1
  Si0+  Si101  1  0.92837590  0.31977464  0.98562656  1
  Si0+  Si102  1  0.82387517  0.07501374  0.01691446  1
  Si0+  Si103  1  0.17784605  0.93071173  0.34730402  1
  Si0+  Si104  1  0.67828118  0.92916369  0.34979069  1
  Si0+  Si105  1  0.17605536  0.92634921  0.01497104  1
  Si0+  Si106  1  0.57001754  0.67919361  0.32123513  1
  Si0+  Si107  1  0.42942939  0.82240597  0.31889026  1
  Si0+  Si108  1  0.82092798  0.57239406  0.35053284  1
  Si0+  Si109  1  0.82422155  0.07392692  0.68308709  1
  Si0+  Si110  1  0.57383189  0.67754837  0.64810827  1
  Si0+  Si111  1  0.32373294  0.57287529  0.01207143  1
  Si0+  Si112  1  0.42633661  0.31891789  0.98429407  1
  Si0+  Si113  1  0.56913832  0.17944673  0.65389539  1
  Si0+  Si114  1  0.42897979  0.32253379  0.65338848  1
  Si0+  Si115  1  0.67471541  0.42426286  0.01511527  1
  Si0+  Si116  1  0.07334734  0.17646594  0.31566240  1
  Si0+  Si117  1  0.92485976  0.82161974  0.65136911  1
  Si0+  Si118  1  0.07328667  0.18047796  0.98655876  1
  Si0+  Si119  1  0.32209532  0.06920705  0.34952497  1
  O2-  O120  1  0.24800317  -0.00875942  0.06183150  1
  O2-  O121  1  0.24934872  0.00057536  0.39158068  1
  O2-  O122  1  0.24165011  -0.00300027  0.72637478  1
  O2-  O123  1  0.25280577  0.50817917  0.05819720  1
  O2-  O124  1  0.24931668  0.50313824  0.39859142  1
  O2-  O125  1  0.25530486  0.50823474  0.72914190  1
  O2-  O126  1  0.76065468  0.00205014  0.06270435  1
  O2-  O127  1  0.75126248  -0.00111392  0.39057941  1
  O2-  O128  1  0.76047958  0.00102458  0.72759658  1
  O2-  O129  1  0.73934714  0.49595637  0.05959739  1
  O2-  O130  1  0.75575608  0.49999702  0.39448055  1
  O2-  O131  1  0.74422112  0.49251671  0.72686554  1
  O2-  O132  1  0.00893049  0.24921535  0.27119378  1
  O2-  O133  1  -0.00117951  0.24573635  0.60287012  1
  O2-  O134  1  0.00025972  0.24930854  0.94470584  1
  O2-  O135  1  -0.00374951  0.74869444  0.26894369  1
  O2-  O136  1  -0.00229475  0.75814417  0.60667306  1
  O2-  O137  1  0.00150054  0.75240241  0.93317601  1
  O2-  O138  1  0.50126418  0.25157082  0.26737220  1
  O2-  O139  1  0.50548926  0.25680656  0.61194917  1
  O2-  O140  1  0.49918246  0.25005957  0.94048827  1
  O2-  O141  1  0.49605268  0.74701912  0.27877801  1
  O2-  O142  1  0.50272355  0.74341454  0.60292181  1
  O2-  O143  1  0.49980927  0.74907915  0.93571433  1
  O2-  O144  1  0.07289603  0.17973780  0.09169339  1
  O2-  O145  1  0.07059335  0.17184246  0.42076560  1
  O2-  O146  1  0.07509141  0.18168938  0.76700047  1
  O2-  O147  1  0.06910241  0.67653097  0.09648628  1
  O2-  O148  1  0.06984825  0.68082065  0.43051029  1
  O2-  O149  1  0.06768691  0.67805897  0.76380907  1
  O2-  O150  1  0.57203997  0.18089813  0.08789371  1
  O2-  O151  1  0.56849423  0.17487566  0.43130530  1
  O2-  O152  1  0.56740978  0.17921204  0.75924611  1
  O2-  O153  1  0.56924564  0.67614100  0.09916974  1
  O2-  O154  1  0.57298482  0.68298979  0.42624830  1
  O2-  O155  1  0.57371433  0.67827335  0.75325516  1
  O2-  O156  1  0.17984885  0.43003978  0.23775909  1
  O2-  O157  1  0.18335323  0.43193335  0.56786242  1
  O2-  O158  1  0.17956405  0.42739659  0.90175549  1
  O2-  O159  1  0.17963441  0.93270326  0.24222879  1
  O2-  O160  1  0.17967940  0.92581371  0.57557176  1
  O2-  O161  1  0.17480512  0.93108504  0.90964213  1
  O2-  O162  1  0.68110870  0.43127722  0.23191285  1
  O2-  O163  1  0.67315813  0.42441612  0.57780428  1
  O2-  O164  1  0.67720577  0.41978843  0.90948348  1
  O2-  O165  1  0.67640679  0.92905240  0.24521471  1
  O2-  O166  1  0.68042924  0.93417428  0.56687732  1
  O2-  O167  1  0.68078206  0.93475310  0.90314222  1
  O2-  O168  1  0.42760743  0.31873446  0.08888959  1
  O2-  O169  1  0.42970000  0.31873463  0.43258277  1
  O2-  O170  1  0.42929039  0.32027536  0.75888810  1
  O2-  O171  1  0.43211530  0.82243156  0.09923537  1
  O2-  O172  1  0.43245151  0.82676225  0.42387044  1
  O2-  O173  1  0.43532419  0.82394061  0.76391518  1
  O2-  O174  1  0.92662170  0.31758893  0.09068432  1
  O2-  O175  1  0.92792700  0.31702690  0.43089098  1
  O2-  O176  1  0.93087076  0.31989179  0.76663115  1
  O2-  O177  1  0.93055360  0.82059684  0.09733992  1
  O2-  O178  1  0.92792529  0.82303308  0.43350612  1
  O2-  O179  1  0.92411708  0.81991768  0.75662794  1
  O2-  O180  1  0.32282696  0.06700331  0.24442593  1
  O2-  O181  1  0.32091499  0.06827057  0.56579731  1
  O2-  O182  1  0.31940167  0.07200600  0.90415961  1
  O2-  O183  1  0.32332924  0.57467040  0.23355477  1
  O2-  O184  1  0.32753383  0.57295404  0.57953868  1
  O2-  O185  1  0.32620270  0.56783044  0.90666721  1
  O2-  O186  1  0.82239537  0.07112468  0.24347080  1
  O2-  O187  1  0.82030577  0.07609945  0.57734399  1
  O2-  O188  1  0.81946537  0.08030642  0.91165292  1
  O2-  O189  1  0.81697911  0.57393503  0.24510617  1
  O2-  O190  1  0.81759735  0.56711548  0.56645453  1
  O2-  O191  1  0.82016887  0.56538509  0.90303916  1
  O2-  O192  1  0.04292234  0.08535855  0.26662712  1
  O2-  O193  1  0.05236495  0.07699048  0.60080012  1
  O2-  O194  1  0.04946557  0.08883795  0.93708757  1
  O2-  O195  1  0.04590190  0.58013990  0.26503471  1
  O2-  O196  1  0.03373788  0.58492392  0.59716418  1
  O2-  O197  1  0.03348159  0.57882725  0.93308996  1
  O2-  O198  1  0.53943107  0.08069585  0.26279174  1
  O2-  O199  1  0.53552598  0.09057078  0.60517782  1
  O2-  O200  1  0.54082908  0.08814136  0.93741079  1
  O2-  O201  1  0.54640535  0.58684701  0.27421832  1
  O2-  O202  1  0.55158129  0.58178149  0.60398997  1
  O2-  O203  1  0.54756921  0.57745895  0.92875361  1
  O2-  O204  1  0.16902091  0.19673496  0.27206698  1
  O2-  O205  1  0.17202088  0.20913536  0.59994712  1
  O2-  O206  1  0.16503553  0.21155832  0.94124088  1
  O2-  O207  1  0.16904603  0.71152231  0.26394110  1
  O2-  O208  1  0.16713379  0.70597292  0.59628013  1
  O2-  O209  1  0.16936507  0.69902873  0.92907032  1
  O2-  O210  1  0.67016880  0.20132539  0.26327559  1
  O2-  O211  1  0.66319672  0.19909527  0.60710313  1
  O2-  O212  1  0.66186102  0.20669761  0.93357035  1
  O2-  O213  1  0.66012920  0.71062321  0.27253903  1
  O2-  O214  1  0.66626043  0.70687886  0.60179598  1
  O2-  O215  1  0.66964447  0.70718164  0.93423415  1
  O2-  O216  1  0.08231912  0.45923422  0.06886297  1
  O2-  O217  1  0.07775017  0.45657830  0.40215586  1
  O2-  O218  1  0.08455129  0.46208392  0.73303391  1
  O2-  O219  1  0.08406922  0.95749530  0.06234352  1
  O2-  O220  1  0.08612748  0.95870464  0.39486338  1
  O2-  O221  1  0.08081186  0.94429899  0.72599515  1
  O2-  O222  1  0.57830627  0.44537317  0.05708447  1
  O2-  O223  1  0.58495492  0.45786850  0.40118507  1
  O2-  O224  1  0.58120141  0.45010388  0.73012211  1
  O2-  O225  1  0.58808009  0.96579695  0.07206228  1
  O2-  O226  1  0.58727949  0.96047758  0.39789091  1
  O2-  O227  1  0.58750828  0.96836697  0.73542710  1
  O2-  O228  1  0.21149169  0.33664654  0.07195442  1
  O2-  O229  1  0.20615442  0.32864576  0.40180611  1
  O2-  O230  1  0.21466397  0.33690329  0.73529814  1
  O2-  O231  1  0.19864576  0.83057867  0.05774597  1
  O2-  O232  1  0.20566621  0.83934713  0.39492002  1
  O2-  O233  1  0.20646392  0.83217524  0.72630785  1
  O2-  O234  1  0.70357397  0.33161089  0.06190999  1
  O2-  O235  1  0.70877471  0.32874180  0.39630552  1
  O2-  O236  1  0.69775227  0.32987350  0.72905644  1
  O2-  O237  1  0.70834737  0.83323116  0.07061881  1
  O2-  O238  1  0.70361941  0.83751493  0.39939492  1
  O2-  O239  1  0.70599814  0.83342708  0.73482104  1
  O2-  O240  1  0.45687036  0.42171606  0.26696211  1
  O2-  O241  1  0.45088587  0.41645759  0.60744674  1
  O2-  O242  1  0.45063414  0.40974378  0.93315042  1
  O2-  O243  1  0.46247258  0.91161214  0.26972416  1
  O2-  O244  1  0.46770630  0.91702716  0.59707771  1
  O2-  O245  1  0.46301513  0.92236092  0.93558798  1
  O2-  O246  1  0.95661586  0.41735973  0.26364906  1
  O2-  O247  1  0.95986910  0.41697351  0.59869328  1
  O2-  O248  1  0.95716304  0.41145956  0.94044199  1
  O2-  O249  1  0.95453422  0.92043829  0.26623643  1
  O2-  O250  1  0.94311797  0.91809397  0.60775695  1
  O2-  O251  1  0.94972473  0.92420012  0.93294139  1
  O2-  O252  1  0.33094937  0.29075164  0.26508893  1
  O2-  O253  1  0.34027058  0.28853231  0.60558918  1
  O2-  O254  1  0.33489472  0.28624374  0.93904074  1
  O2-  O255  1  0.33603564  0.80242113  0.27218252  1
  O2-  O256  1  0.33532970  0.79559971  0.59503610  1
  O2-  O257  1  0.33058719  0.80170141  0.93042645  1
  O2-  O258  1  0.83648202  0.28500286  0.26175035  1
  O2-  O259  1  0.82868501  0.29437520  0.60094700  1
  O2-  O260  1  0.83688961  0.29201820  0.93713584  1
  O2-  O261  1  0.82615590  0.79653750  0.26980167  1
  O2-  O262  1  0.83202036  0.79190347  0.60557122  1
  O2-  O263  1  0.82991423  0.79111778  0.93459061  1
  O2-  O264  1  0.41715322  0.04184490  0.07274523  1
  O2-  O265  1  0.41368583  0.03830842  0.39609238  1
  O2-  O266  1  0.41391866  0.03657440  0.73448636  1
  O2-  O267  1  0.41711268  0.54390664  0.05789681  1
  O2-  O268  1  0.41960691  0.54715323  0.40340432  1
  O2-  O269  1  0.41903557  0.55055535  0.73098493  1
  O2-  O270  1  0.92026330  0.05693717  0.06033993  1
  O2-  O271  1  0.91370591  0.04415220  0.39715733  1
  O2-  O272  1  0.92053302  0.05482270  0.72630380  1
  O2-  O273  1  0.91093960  0.53372819  0.07314666  1
  O2-  O274  1  0.91576642  0.54817909  0.39290572  1
  O2-  O275  1  0.91460091  0.53529231  0.73544243  1
  O2-  O276  1  0.28617406  0.16315541  0.07443402  1
  O2-  O277  1  0.29741605  0.16202952  0.39561307  1
  O2-  O278  1  0.29120379  0.16564773  0.73602502  1
  O2-  O279  1  0.30352565  0.66942019  0.05417141  1
  O2-  O280  1  0.29645155  0.67503800  0.39897416  1
  O2-  O281  1  0.30083384  0.67142434  0.72621774  1
  O2-  O282  1  0.79121727  0.16638811  0.06493511  1
  O2-  O283  1  0.79214270  0.16134321  0.39676001  1
  O2-  O284  1  0.79380061  0.16550518  0.73157450  1
  O2-  O285  1  0.78879190  0.66481874  0.07191379  1
  O2-  O286  1  0.79057861  0.66443454  0.39786885  1
  O2-  O287  1  0.78852598  0.66303381  0.73575513  1
