# generated using pymatgen
data_Ca2Al2SiO7
_symmetry_space_group_name_H-M   'P 1'
_cell_length_a   15.46073476
_cell_length_b   15.46124306
_cell_length_c   15.28677981
_cell_angle_alpha   89.98725462
_cell_angle_beta   90.00626637
_cell_angle_gamma   90.01464600
_symmetry_Int_Tables_number   1
_chemical_formula_structural   Ca2Al2SiO7
_chemical_formula_sum   'Ca48 Al48 Si24 O168'
_cell_volume   3654.18490790
_cell_formula_units_Z   24
loop_
 _symmetry_equiv_pos_site_id
 _symmetry_equiv_pos_as_xyz
  1  'x, y, z'
loop_
 _atom_type_symbol
 _atom_type_oxidation_number
  Ca2+  2.0
  Al0+  0.0
  Si0+  0.0
  O2-  -2.0
loop_
 _atom_site_type_symbol
 _atom_site_label
 _atom_site_symmetry_multiplicity
 _atom_site_fract_x
 _atom_site_fract_y
 _atom_site_fract_z
 _atom_site_occupancy
  Ca2+  Ca0  1  0.17077325  0.08098586  0.17153570  1
  Ca2+  Ca1  1  0.16726998  0.07941836  0.50434090  1
  Ca2+  Ca2  1  0.16335903  0.07813421  0.84003846  1
  Ca2+  Ca3  1  0.16943638  0.57588000  0.16602106  1
  Ca2+  Ca4  1  0.16181077  0.58378207  0.50604837  1
  Ca2+  Ca5  1  0.16640700  0.57680593  0.84194858  1
  Ca2+  Ca6  1  0.67902835  0.09172803  0.17314315  1
  Ca2+  Ca7  1  0.67394799  0.08353439  0.50350903  1
  Ca2+  Ca8  1  0.67533162  0.07670198  0.83652331  1
  Ca2+  Ca9  1  0.66753595  0.57762284  0.17447180  1
  Ca2+  Ca10  1  0.68059779  0.57900089  0.50137553  1
  Ca2+  Ca11  1  0.67318211  0.58554323  0.83623398  1
  Ca2+  Ca12  1  0.08790682  0.32023804  0.16049114  1
  Ca2+  Ca13  1  0.07768346  0.32081429  0.49993300  1
  Ca2+  Ca14  1  0.08537335  0.32231734  0.82801803  1
  Ca2+  Ca15  1  0.08013350  0.84452095  0.16670743  1
  Ca2+  Ca16  1  0.07649799  0.83830724  0.49645588  1
  Ca2+  Ca17  1  0.08233815  0.83256364  0.82402324  1
  Ca2+  Ca18  1  0.58030878  0.33037558  0.16412356  1
  Ca2+  Ca19  1  0.58142091  0.32813332  0.49100494  1
  Ca2+  Ca20  1  0.57363920  0.33214593  0.83311167  1
  Ca2+  Ca21  1  0.58130477  0.82482979  0.15937317  1
  Ca2+  Ca22  1  0.58423663  0.83856516  0.49726151  1
  Ca2+  Ca23  1  0.58499463  0.83075864  0.82857487  1
  Ca2+  Ca24  1  0.33298522  0.41365667  0.16043545  1
  Ca2+  Ca25  1  0.33110807  0.41836304  0.50203873  1
  Ca2+  Ca26  1  0.32637157  0.41970177  0.84536877  1
  Ca2+  Ca27  1  0.32086961  0.92565447  0.17193950  1
  Ca2+  Ca28  1  0.32104859  0.92750385  0.50621571  1
  Ca2+  Ca29  1  0.31899271  0.92847417  0.83870915  1
  Ca2+  Ca30  1  0.82567921  0.42406752  0.17923432  1
  Ca2+  Ca31  1  0.83864919  0.42378605  0.50470732  1
  Ca2+  Ca32  1  0.84366821  0.42185030  0.83279352  1
  Ca2+  Ca33  1  0.83623961  0.92681014  0.17115828  1
  Ca2+  Ca34  1  0.83391274  0.91561842  0.50149261  1
  Ca2+  Ca35  1  0.83424350  0.91776511  0.83364723  1
  Ca2+  Ca36  1  0.41875950  0.16455982  0.16133519  1
  Ca2+  Ca37  1  0.42191912  0.15628005  0.49335644  1
  Ca2+  Ca38  1  0.40489309  0.16816144  0.83207629  1
  Ca2+  Ca39  1  0.42155265  0.66530526  0.15554943  1
  Ca2+  Ca40  1  0.41793121  0.67277700  0.49453426  1
  Ca2+  Ca41  1  0.42055774  0.66302874  0.83344503  1
  Ca2+  Ca42  1  0.92659277  0.15615122  0.16296979  1
  Ca2+  Ca43  1  0.92776251  0.15965227  0.49352817  1
  Ca2+  Ca44  1  0.92848220  0.16793850  0.82861183  1
  Ca2+  Ca45  1  0.91039432  0.67464219  0.16668228  1
  Ca2+  Ca46  1  0.91477695  0.67461516  0.49968718  1
  Ca2+  Ca47  1  0.92509989  0.67206291  0.81923432  1
  Al0+  Al48  1  -0.00282920  0.00030077  0.00067571  1
  Al0+  Al49  1  -0.00162319  -0.00171053  0.33171808  1
  Al0+  Al50  1  -0.00061612  -0.00062925  0.66292634  1
  Al0+  Al51  1  -0.00055011  0.50143994  0.00757443  1
  Al0+  Al52  1  0.00152653  0.50133222  0.33652493  1
  Al0+  Al53  1  0.00064338  0.49991556  0.66429707  1
  Al0+  Al54  1  0.50074950  -0.00284555  0.00056066  1
  Al0+  Al55  1  0.49926774  -0.00029305  0.32679801  1
  Al0+  Al56  1  0.50054208  -0.00011861  0.67608729  1
  Al0+  Al57  1  0.50157623  0.49921832  -0.00668799  1
  Al0+  Al58  1  0.49961544  0.49966155  0.33767548  1
  Al0+  Al59  1  0.50207139  0.49905926  0.66438918  1
  Al0+  Al60  1  0.25012439  0.24955464  -0.00145682  1
  Al0+  Al61  1  0.25115685  0.25193828  0.33363640  1
  Al0+  Al62  1  0.25092848  0.25368148  0.66296632  1
  Al0+  Al63  1  0.24986673  0.75005555  0.00696190  1
  Al0+  Al64  1  0.24864110  0.74957491  0.33510280  1
  Al0+  Al65  1  0.25354749  0.75114967  0.66640466  1
  Al0+  Al66  1  0.74989971  0.25153987  0.00150762  1
  Al0+  Al67  1  0.74886756  0.25032854  0.33810457  1
  Al0+  Al68  1  0.74645532  0.25216371  0.66621217  1
  Al0+  Al69  1  0.74941091  0.74992565  -0.00481462  1
  Al0+  Al70  1  0.75073092  0.74900823  0.33127146  1
  Al0+  Al71  1  0.75039062  0.74741364  0.67065607  1
  Al0+  Al72  1  0.17657202  0.92917790  0.68183956  1
  Al0+  Al73  1  0.67776135  0.42844919  0.34938845  1
  Al0+  Al74  1  0.68007557  0.92894096  0.67957951  1
  Al0+  Al75  1  0.92920090  0.81846216  0.31719260  1
  Al0+  Al76  1  0.57057293  0.67916225  0.98458395  1
  Al0+  Al77  1  0.17732250  0.42798985  0.01515204  1
  Al0+  Al78  1  0.92765657  0.82058850  0.65151578  1
  Al0+  Al79  1  0.32302744  0.57005782  0.01364688  1
  Al0+  Al80  1  0.82023333  0.07014963  0.34707899  1
  Al0+  Al81  1  0.81811147  0.07119218  0.01222141  1
  Al0+  Al82  1  0.07149369  0.17859824  0.65083869  1
  Al0+  Al83  1  0.17619868  0.92879106  0.01589644  1
  Al0+  Al84  1  0.07018917  0.17984329  0.31805795  1
  Al0+  Al85  1  0.17805491  0.92929635  0.35038432  1
  Al0+  Al86  1  0.82224536  0.57240167  0.34927031  1
  Al0+  Al87  1  0.07491310  0.67941493  0.65334555  1
  Al0+  Al88  1  0.06903239  0.17957967  0.98708007  1
  Al0+  Al89  1  0.32050436  0.07314056  0.68239843  1
  Al0+  Al90  1  0.32226835  0.07267467  0.34777309  1
  Al0+  Al91  1  0.82091417  0.56754370  0.68217839  1
  Al0+  Al92  1  0.92695989  0.32119835  0.65265749  1
  Al0+  Al93  1  0.32195105  0.07228941  0.01588119  1
  Al0+  Al94  1  0.57166269  0.17838042  0.31996644  1
  Al0+  Al95  1  0.43075697  0.31732953  0.98615549  1
  Si0+  Si96  1  0.56871531  0.67944240  0.31979720  1
  Si0+  Si97  1  0.82201343  0.07475405  0.68231872  1
  Si0+  Si98  1  0.57532893  0.17592387  0.98213410  1
  Si0+  Si99  1  0.07096132  0.67732258  0.98781310  1
  Si0+  Si100  1  0.57116383  0.67786081  0.64911590  1
  Si0+  Si101  1  0.43206983  0.82188946  0.65193327  1
  Si0+  Si102  1  0.17931099  0.42863596  0.35043171  1
  Si0+  Si103  1  0.92960649  0.81986077  0.98411955  1
  Si0+  Si104  1  0.32498708  0.57184402  0.68007235  1
  Si0+  Si105  1  0.67890569  0.92551515  0.01680628  1
  Si0+  Si106  1  0.92594957  0.32544576  0.98675683  1
  Si0+  Si107  1  0.82091403  0.57259760  0.01509990  1
  Si0+  Si108  1  0.67722093  0.92684371  0.34564253  1
  Si0+  Si109  1  0.67531794  0.42726928  0.68693837  1
  Si0+  Si110  1  0.32103003  0.57123409  0.34890059  1
  Si0+  Si111  1  0.92835564  0.32385109  0.31726563  1
  Si0+  Si112  1  0.42992446  0.32251248  0.65005176  1
  Si0+  Si113  1  0.56904859  0.17760471  0.65346828  1
  Si0+  Si114  1  0.18073877  0.43202519  0.68020202  1
  Si0+  Si115  1  0.42605419  0.82175636  0.98166872  1
  Si0+  Si116  1  0.07443979  0.67595359  0.31356323  1
  Si0+  Si117  1  0.42859653  0.32470937  0.31586028  1
  Si0+  Si118  1  0.42671443  0.82036774  0.31734782  1
  Si0+  Si119  1  0.67921289  0.43038280  0.01356497  1
  O2-  O120  1  0.24894335  0.00093358  0.06444968  1
  O2-  O121  1  0.24842818  0.00370024  0.39858356  1
  O2-  O122  1  0.24306482  0.00659699  0.73124803  1
  O2-  O123  1  0.25056638  0.49965443  0.06507597  1
  O2-  O124  1  0.24895539  0.50219243  0.39185963  1
  O2-  O125  1  0.24979489  0.50574454  0.72135508  1
  O2-  O126  1  0.74066739  -0.00040235  0.06073890  1
  O2-  O127  1  0.74206392  -0.00228097  0.39130554  1
  O2-  O128  1  0.75685622  0.00176208  0.72572695  1
  O2-  O129  1  0.75216779  0.49919825  0.05600092  1
  O2-  O130  1  0.75434050  0.49591480  0.39843277  1
  O2-  O131  1  0.74833926  0.49126827  0.73100770  1
  O2-  O132  1  -0.00535691  0.25465193  0.27087232  1
  O2-  O133  1  -0.00732414  0.24441520  0.60146983  1
  O2-  O134  1  -0.00444513  0.25762942  0.94344659  1
  O2-  O135  1  0.00498093  0.74414398  0.26986711  1
  O2-  O136  1  0.00505667  0.75312731  0.60279135  1
  O2-  O137  1  0.00265970  0.74995896  0.94434767  1
  O2-  O138  1  0.49572878  0.25311420  0.27451458  1
  O2-  O139  1  0.49778131  0.24806361  0.60993009  1
  O2-  O140  1  0.50073852  0.23822834  0.93763384  1
  O2-  O141  1  0.49806627  0.74906710  0.27536296  1
  O2-  O142  1  0.50169158  0.75007011  0.60673504  1
  O2-  O143  1  0.49552604  0.75321939  0.93697345  1
  O2-  O144  1  0.06750101  0.17913235  0.10022388  1
  O2-  O145  1  0.07022656  0.18174550  0.43092816  1
  O2-  O146  1  0.07281996  0.18152937  0.76465437  1
  O2-  O147  1  0.06695913  0.67368438  0.09258693  1
  O2-  O148  1  0.07672358  0.67576106  0.41883442  1
  O2-  O149  1  0.07319290  0.67703481  0.76763693  1
  O2-  O150  1  0.57889245  0.18103582  0.08742274  1
  O2-  O151  1  0.56942294  0.17742501  0.43361587  1
  O2-  O152  1  0.57028350  0.17982655  0.75847824  1
  O2-  O153  1  0.57158492  0.68021226  0.09829342  1
  O2-  O154  1  0.56658137  0.68049510  0.42503915  1
  O2-  O155  1  0.56897028  0.67604854  0.75414899  1
  O2-  O156  1  0.18010483  0.42878929  0.24561406  1
  O2-  O157  1  0.18431090  0.43172617  0.57474936  1
  O2-  O158  1  0.17670106  0.43135020  0.90118411  1
  O2-  O159  1  0.18100948  0.92907795  0.23698188  1
  O2-  O160  1  0.18064543  0.92681683  0.56873660  1
  O2-  O161  1  0.17532415  0.92737654  0.90243698  1
  O2-  O162  1  0.67522643  0.43307154  0.23510838  1
  O2-  O163  1  0.66904456  0.43083977  0.58206717  1
  O2-  O164  1  0.67932810  0.43074591  0.90855353  1
  O2-  O165  1  0.67892829  0.92407519  0.24011453  1
  O2-  O166  1  0.67644765  0.93224527  0.56644425  1
  O2-  O167  1  0.68247632  0.92305271  0.91116100  1
  O2-  O168  1  0.43646478  0.32084440  0.09894067  1
  O2-  O169  1  0.43011222  0.32966686  0.42169614  1
  O2-  O170  1  0.43129551  0.32677341  0.75481886  1
  O2-  O171  1  0.42935789  0.81974746  0.08753469  1
  O2-  O172  1  0.42858742  0.81836956  0.42281235  1
  O2-  O173  1  0.43359071  0.81836362  0.75667207  1
  O2-  O174  1  0.92333306  0.32696052  0.09210209  1
  O2-  O175  1  0.93216930  0.32459274  0.42263867  1
  O2-  O176  1  0.93180426  0.32148788  0.76676162  1
  O2-  O177  1  0.92597800  0.81780929  0.08915964  1
  O2-  O178  1  0.92610551  0.81641401  0.42960755  1
  O2-  O179  1  0.92613523  0.81693519  0.76575500  1
  O2-  O180  1  0.32316962  0.07037317  0.23460939  1
  O2-  O181  1  0.32564881  0.06871894  0.56921476  1
  O2-  O182  1  0.31918305  0.07066823  0.90245075  1
  O2-  O183  1  0.32419532  0.57077937  0.24437858  1
  O2-  O184  1  0.32867232  0.56866464  0.57457623  1
  O2-  O185  1  0.32155921  0.56833480  0.89965159  1
  O2-  O186  1  0.81956688  0.06867730  0.23378206  1
  O2-  O187  1  0.81807281  0.07659888  0.57688085  1
  O2-  O188  1  0.81798716  0.06885213  0.89899709  1
  O2-  O189  1  0.81668664  0.57299259  0.23485625  1
  O2-  O190  1  0.81753395  0.56831656  0.56970683  1
  O2-  O191  1  0.82191322  0.57257746  0.91015757  1
  O2-  O192  1  0.03775885  0.08351349  0.26545771  1
  O2-  O193  1  0.04770249  0.07927379  0.59869140  1
  O2-  O194  1  0.03273768  0.08464672  0.93260355  1
  O2-  O195  1  0.04972923  0.58120835  0.26869775  1
  O2-  O196  1  0.04415671  0.58219565  0.59952779  1
  O2-  O197  1  0.04068436  0.58596425  0.93987212  1
  O2-  O198  1  0.54463945  0.08204026  0.26251975  1
  O2-  O199  1  0.54128346  0.08518342  0.60767662  1
  O2-  O200  1  0.55805123  0.07837996  0.94103305  1
  O2-  O201  1  0.53960275  0.58731274  0.27347488  1
  O2-  O202  1  0.54072856  0.58703143  0.60091458  1
  O2-  O203  1  0.54157911  0.58393070  0.92738609  1
  O2-  O204  1  0.16754217  0.21390009  0.26668387  1
  O2-  O205  1  0.16749740  0.21575504  0.59719640  1
  O2-  O206  1  0.16530649  0.20930749  0.93291003  1
  O2-  O207  1  0.16891737  0.70055646  0.26801210  1
  O2-  O208  1  0.17633358  0.70000258  0.60168235  1
  O2-  O209  1  0.16534046  0.70041323  0.94369728  1
  O2-  O210  1  0.66814591  0.21155208  0.26601931  1
  O2-  O211  1  0.66037013  0.20520854  0.60489125  1
  O2-  O212  1  0.66590632  0.20928621  0.93351523  1
  O2-  O213  1  0.65985071  0.70648250  0.27124692  1
  O2-  O214  1  0.66304485  0.70544330  0.60353607  1
  O2-  O215  1  0.66627553  0.71178327  0.92848457  1
  O2-  O216  1  0.08087294  0.45801304  0.07212747  1
  O2-  O217  1  0.08792129  0.45567554  0.39849710  1
  O2-  O218  1  0.08909694  0.45721808  0.72769531  1
  O2-  O219  1  0.07776623  0.95775280  0.06740020  1
  O2-  O220  1  0.07860270  0.95551065  0.39966511  1
  O2-  O221  1  0.07533735  0.95103576  0.73213411  1
  O2-  O222  1  0.58915585  0.46199338  0.06081968  1
  O2-  O223  1  0.58108732  0.46120001  0.40455563  1
  O2-  O224  1  0.58376182  0.46010846  0.73455855  1
  O2-  O225  1  0.58239164  0.94148554  0.05958824  1
  O2-  O226  1  0.58186410  0.94840728  0.38911723  1
  O2-  O227  1  0.58669871  0.96091356  0.73948341  1
  O2-  O228  1  0.20883798  0.33128264  0.06780035  1
  O2-  O229  1  0.21080974  0.33947322  0.40017398  1
  O2-  O230  1  0.21242439  0.34196274  0.72806829  1
  O2-  O231  1  0.20296631  0.83043432  0.07006166  1
  O2-  O232  1  0.20774067  0.82989006  0.40133046  1
  O2-  O233  1  0.21164355  0.83128151  0.73399388  1
  O2-  O234  1  0.70366142  0.33839685  0.06205805  1
  O2-  O235  1  0.70003037  0.32962361  0.40260013  1
  O2-  O236  1  0.69368667  0.33167426  0.73180154  1
  O2-  O237  1  0.71001883  0.83343069  0.06357438  1
  O2-  O238  1  0.70450295  0.83443956  0.39335626  1
  O2-  O239  1  0.70686096  0.83150634  0.73418533  1
  O2-  O240  1  0.45743260  0.41776233  0.26920407  1
  O2-  O241  1  0.46204944  0.41258349  0.60008769  1
  O2-  O242  1  0.46577579  0.41176627  0.92905023  1
  O2-  O243  1  0.45433013  0.91024971  0.26701518  1
  O2-  O244  1  0.46384459  0.91317808  0.60629983  1
  O2-  O245  1  0.45258548  0.91496043  0.93498870  1
  O2-  O246  1  0.95419965  0.41847281  0.27211117  1
  O2-  O247  1  0.96138199  0.41677639  0.59799134  1
  O2-  O248  1  0.95157199  0.42029330  0.94219926  1
  O2-  O249  1  0.95933432  0.91462338  0.26199146  1
  O2-  O250  1  0.94762013  0.92080903  0.59959322  1
  O2-  O251  1  0.95504842  0.91178662  0.93695266  1
  O2-  O252  1  0.33413308  0.30301369  0.27103638  1
  O2-  O253  1  0.33765561  0.30122030  0.60119297  1
  O2-  O254  1  0.33305733  0.29326463  0.93093544  1
  O2-  O255  1  0.33587342  0.78958050  0.27041534  1
  O2-  O256  1  0.34152850  0.79390733  0.60225312  1
  O2-  O257  1  0.33221383  0.79424709  0.93738673  1
  O2-  O258  1  0.83215669  0.30208958  0.27560766  1
  O2-  O259  1  0.82379965  0.30448455  0.60427663  1
  O2-  O260  1  0.83261699  0.30075012  0.93894587  1
  O2-  O261  1  0.83274501  0.78596617  0.26123994  1
  O2-  O262  1  0.82994278  0.78612079  0.59984592  1
  O2-  O263  1  0.83876320  0.79018052  0.93570228  1
  O2-  O264  1  0.42287757  0.04477782  0.06539943  1
  O2-  O265  1  0.42117869  0.03944634  0.39804149  1
  O2-  O266  1  0.41641608  0.04092667  0.73848020  1
  O2-  O267  1  0.42211757  0.53937613  0.06439798  1
  O2-  O268  1  0.41146150  0.54268536  0.39934303  1
  O2-  O269  1  0.41515565  0.53868120  0.72780634  1
  O2-  O270  1  0.91171299  0.03556530  0.06755334  1
  O2-  O271  1  0.91433007  0.03496050  0.40101366  1
  O2-  O272  1  0.91656027  0.05158251  0.72625942  1
  O2-  O273  1  0.91178895  0.54908059  0.06564045  1
  O2-  O274  1  0.92259780  0.54966921  0.40024389  1
  O2-  O275  1  0.91858671  0.53789073  0.73571057  1
  O2-  O276  1  0.29742591  0.17171216  0.06663308  1
  O2-  O277  1  0.30115404  0.17401834  0.39807674  1
  O2-  O278  1  0.29893131  0.17618459  0.72848127  1
  O2-  O279  1  0.29795654  0.66783608  0.06845425  1
  O2-  O280  1  0.29513821  0.66299136  0.39740785  1
  O2-  O281  1  0.30566480  0.66559884  0.72593300  1
  O2-  O282  1  0.79056545  0.16879855  0.06656048  1
  O2-  O283  1  0.79249719  0.16662801  0.40181381  1
  O2-  O284  1  0.79130503  0.16674966  0.72939336  1
  O2-  O285  1  0.78848743  0.66368278  0.06112000  1
  O2-  O286  1  0.78599843  0.66821503  0.40208681  1
  O2-  O287  1  0.78672340  0.66213086  0.73787657  1
