# generated using pymatgen
data_Ca2Al2SiO7
_symmetry_space_group_name_H-M   'P 1'
_cell_length_a   15.45922052
_cell_length_b   15.46061618
_cell_length_c   15.28402682
_cell_angle_alpha   89.97235451
_cell_angle_beta   90.00986119
_cell_angle_gamma   89.99083738
_symmetry_Int_Tables_number   1
_chemical_formula_structural   Ca2Al2SiO7
_chemical_formula_sum   'Ca48 Al48 Si24 O168'
_cell_volume   3653.02058567
_cell_formula_units_Z   24
loop_
 _symmetry_equiv_pos_site_id
 _symmetry_equiv_pos_as_xyz
  1  'x, y, z'
loop_
 _atom_type_symbol
 _atom_type_oxidation_number
  Ca2+  2.0
  Al0+  0.0
  Si0+  0.0
  O2-  -2.0
loop_
 _atom_site_type_symbol
 _atom_site_label
 _atom_site_symmetry_multiplicity
 _atom_site_fract_x
 _atom_site_fract_y
 _atom_site_fract_z
 _atom_site_occupancy
  Ca2+  Ca0  1  0.17097783  0.08970607  0.16899036  1
  Ca2+  Ca1  1  0.17009352  0.07685934  0.51415719  1
  Ca2+  Ca2  1  0.17510834  0.08469084  0.83747044  1
  Ca2+  Ca3  1  0.17175743  0.58952264  0.17007150  1
  Ca2+  Ca4  1  0.17274102  0.59079878  0.50060395  1
  Ca2+  Ca5  1  0.17165051  0.57707364  0.84713691  1
  Ca2+  Ca6  1  0.65901441  0.07792185  0.16817546  1
  Ca2+  Ca7  1  0.67044480  0.08764464  0.50907649  1
  Ca2+  Ca8  1  0.66783337  0.08183292  0.84011310  1
  Ca2+  Ca9  1  0.67302691  0.58896861  0.17134138  1
  Ca2+  Ca10  1  0.66613181  0.58184209  0.51137996  1
  Ca2+  Ca11  1  0.67212763  0.58445835  0.83594196  1
  Ca2+  Ca12  1  0.09123446  0.32580203  0.16008068  1
  Ca2+  Ca13  1  0.08435891  0.31969827  0.49794602  1
  Ca2+  Ca14  1  0.09002940  0.32443306  0.83199589  1
  Ca2+  Ca15  1  0.07721534  0.82219863  0.15961353  1
  Ca2+  Ca16  1  0.08324112  0.83221395  0.49579524  1
  Ca2+  Ca17  1  0.08160439  0.83146480  0.83266394  1
  Ca2+  Ca18  1  0.58222016  0.32122668  0.16244993  1
  Ca2+  Ca19  1  0.58835974  0.32583851  0.49986193  1
  Ca2+  Ca20  1  0.58597641  0.32478200  0.82706535  1
  Ca2+  Ca21  1  0.57848003  0.83199005  0.16409370  1
  Ca2+  Ca22  1  0.57195065  0.82561411  0.49731803  1
  Ca2+  Ca23  1  0.57862997  0.83085854  0.82640593  1
  Ca2+  Ca24  1  0.32837177  0.42815134  0.16571695  1
  Ca2+  Ca25  1  0.33654203  0.42397088  0.49998677  1
  Ca2+  Ca26  1  0.32905817  0.42309643  0.84296451  1
  Ca2+  Ca27  1  0.33549504  0.92008145  0.16854760  1
  Ca2+  Ca28  1  0.33066717  0.91620063  0.50786126  1
  Ca2+  Ca29  1  0.33285892  0.92382682  0.83202550  1
  Ca2+  Ca30  1  0.83612285  0.42211693  0.16563223  1
  Ca2+  Ca31  1  0.82510084  0.42385550  0.51146818  1
  Ca2+  Ca32  1  0.82861297  0.42582813  0.83356781  1
  Ca2+  Ca33  1  0.82858560  0.91079101  0.16284886  1
  Ca2+  Ca34  1  0.82994563  0.92401222  0.50829758  1
  Ca2+  Ca35  1  0.82780498  0.91882525  0.83968429  1
  Ca2+  Ca36  1  0.42453741  0.16213240  0.15834401  1
  Ca2+  Ca37  1  0.42788987  0.16023641  0.49921515  1
  Ca2+  Ca38  1  0.42367262  0.15867783  0.82886860  1
  Ca2+  Ca39  1  0.41452828  0.66691160  0.16608155  1
  Ca2+  Ca40  1  0.42198485  0.67547389  0.49139178  1
  Ca2+  Ca41  1  0.41945397  0.67216179  0.82279387  1
  Ca2+  Ca42  1  0.93015708  0.16882097  0.15997890  1
  Ca2+  Ca43  1  0.92704246  0.15970052  0.49854051  1
  Ca2+  Ca44  1  0.92818712  0.16071588  0.82696561  1
  Ca2+  Ca45  1  0.92551836  0.66735719  0.15446731  1
  Ca2+  Ca46  1  0.92126094  0.66509424  0.49662968  1
  Ca2+  Ca47  1  0.91422152  0.66578518  0.83462234  1
  Al0+  Al48  1  -0.00073292  -0.00061968  -0.00618868  1
  Al0+  Al49  1  -0.00019601  0.00100329  0.32801266  1
  Al0+  Al50  1  -0.00027893  -0.00274569  0.67003911  1
  Al0+  Al51  1  -0.00089818  0.49740971  0.00388442  1
  Al0+  Al52  1  -0.00009566  0.49823557  0.33288143  1
  Al0+  Al53  1  -0.00019650  0.49953846  0.66878398  1
  Al0+  Al54  1  0.50049452  -0.00164235  0.00356663  1
  Al0+  Al55  1  0.49992593  -0.00144896  0.32879506  1
  Al0+  Al56  1  0.49898792  -0.00038686  0.66049570  1
  Al0+  Al57  1  0.49995515  0.49834830  0.00493917  1
  Al0+  Al58  1  0.50048309  0.49962993  0.33411090  1
  Al0+  Al59  1  0.50071492  0.49742793  0.66809211  1
  Al0+  Al60  1  0.25270075  0.25121744  0.00447728  1
  Al0+  Al61  1  0.25190154  0.25151459  0.33233935  1
  Al0+  Al62  1  0.25140446  0.25018233  0.66383054  1
  Al0+  Al63  1  0.24998424  0.75230961  -0.00095681  1
  Al0+  Al64  1  0.24876375  0.75180167  0.33069552  1
  Al0+  Al65  1  0.24823570  0.75096313  0.66806265  1
  Al0+  Al66  1  0.75178847  0.24896562  -0.00247180  1
  Al0+  Al67  1  0.75108680  0.25018653  0.32900232  1
  Al0+  Al68  1  0.75183341  0.25234498  0.67177348  1
  Al0+  Al69  1  0.74889497  0.75067149  0.00534997  1
  Al0+  Al70  1  0.74813739  0.75208239  0.33472665  1
  Al0+  Al71  1  0.75188000  0.75077172  0.66504817  1
  Al0+  Al72  1  0.57107423  0.18013025  0.31938921  1
  Al0+  Al73  1  0.82220268  0.57347596  0.68166609  1
  Al0+  Al74  1  0.07096233  0.17795153  0.65367194  1
  Al0+  Al75  1  0.32199194  0.57490499  0.01448545  1
  Al0+  Al76  1  0.82124204  0.07171624  0.67980267  1
  Al0+  Al77  1  0.81804001  0.56972988  0.01543134  1
  Al0+  Al78  1  0.17868215  0.42891903  0.01508043  1
  Al0+  Al79  1  0.57016753  0.17763145  0.98534776  1
  Al0+  Al80  1  0.31997233  0.06889716  0.01445079  1
  Al0+  Al81  1  0.07173822  0.67765068  0.98380316  1
  Al0+  Al82  1  0.17777629  0.92660670  0.68285114  1
  Al0+  Al83  1  0.06861071  0.67901664  0.32125902  1
  Al0+  Al84  1  0.67944876  0.93040286  0.01388394  1
  Al0+  Al85  1  0.42814331  0.82025877  0.31555847  1
  Al0+  Al86  1  0.07203092  0.17912812  0.31994722  1
  Al0+  Al87  1  0.32201828  0.07186555  0.67997094  1
  Al0+  Al88  1  0.57212861  0.67761857  0.65394304  1
  Al0+  Al89  1  0.67673021  0.42907635  0.68286590  1
  Al0+  Al90  1  0.57217406  0.18019807  0.65431591  1
  Al0+  Al91  1  0.42682652  0.82041763  0.65167183  1
  Al0+  Al92  1  0.31914415  0.57192850  0.34899917  1
  Al0+  Al93  1  0.92656763  0.81915506  0.98330436  1
  Al0+  Al94  1  0.07306995  0.18069199  0.98501524  1
  Al0+  Al95  1  0.57165787  0.67737884  0.31736754  1
  Si0+  Si96  1  0.32229048  0.07198870  0.34825351  1
  Si0+  Si97  1  0.67730843  0.92974815  0.35108689  1
  Si0+  Si98  1  0.92671549  0.32229537  0.98087015  1
  Si0+  Si99  1  0.67768266  0.42491716  0.01929725  1
  Si0+  Si100  1  0.82394480  0.07282549  0.01792319  1
  Si0+  Si101  1  0.92659048  0.82343791  0.31760669  1
  Si0+  Si102  1  0.67804737  0.92942098  0.68056889  1
  Si0+  Si103  1  0.07012375  0.67700054  0.65251371  1
  Si0+  Si104  1  0.17531336  0.92895367  0.01843055  1
  Si0+  Si105  1  0.42929273  0.82114536  0.98428099  1
  Si0+  Si106  1  0.93006995  0.32319270  0.65031812  1
  Si0+  Si107  1  0.82148088  0.57195207  0.34838280  1
  Si0+  Si108  1  0.68068401  0.42767132  0.34754781  1
  Si0+  Si109  1  0.42786792  0.32359967  0.31503844  1
  Si0+  Si110  1  0.92891583  0.82111887  0.65084826  1
  Si0+  Si111  1  0.17696383  0.42664511  0.35324216  1
  Si0+  Si112  1  0.32024772  0.57078266  0.67944875  1
  Si0+  Si113  1  0.43030117  0.32222175  0.98353538  1
  Si0+  Si114  1  0.82075277  0.07084521  0.34656391  1
  Si0+  Si115  1  0.57027878  0.67761235  0.98703252  1
  Si0+  Si116  1  0.92804599  0.32129735  0.31662709  1
  Si0+  Si117  1  0.42670944  0.32309693  0.64905944  1
  Si0+  Si118  1  0.17788177  0.93209159  0.34624961  1
  Si0+  Si119  1  0.17925870  0.42883855  0.67954369  1
  O2-  O120  1  0.24200003  -0.00104565  0.06391603  1
  O2-  O121  1  0.24767509  0.00422829  0.38910780  1
  O2-  O122  1  0.24846949  0.00143139  0.73009003  1
  O2-  O123  1  0.24451857  0.50761204  0.06376676  1
  O2-  O124  1  0.24344315  0.49788307  0.39739350  1
  O2-  O125  1  0.25031019  0.49939540  0.72160851  1
  O2-  O126  1  0.75372454  0.00579036  0.06239215  1
  O2-  O127  1  0.74899409  0.00152268  0.39108857  1
  O2-  O128  1  0.74268961  0.00107880  0.72583843  1
  O2-  O129  1  0.74394120  0.49535384  0.06464529  1
  O2-  O130  1  0.74767244  0.50327567  0.38971691  1
  O2-  O131  1  0.74553440  0.50556874  0.73015632  1
  O2-  O132  1  0.00028476  0.25621982  0.27301118  1
  O2-  O133  1  -0.00505546  0.25100526  0.60527606  1
  O2-  O134  1  -0.00315251  0.25404270  0.93832547  1
  O2-  O135  1  -0.01017289  0.74929659  0.27517709  1
  O2-  O136  1  -0.00061090  0.74858397  0.60995464  1
  O2-  O137  1  -0.00088485  0.74816598  0.93221554  1
  O2-  O138  1  0.49406939  0.25177015  0.27204109  1
  O2-  O139  1  0.49626192  0.25369919  0.60667247  1
  O2-  O140  1  0.49870022  0.25438297  0.93794698  1
  O2-  O141  1  0.49910348  0.74724893  0.26525207  1
  O2-  O142  1  0.49772402  0.74639677  0.60310896  1
  O2-  O143  1  0.49453374  0.74339529  0.94464503  1
  O2-  O144  1  0.07141919  0.18220375  0.09868735  1
  O2-  O145  1  0.06943632  0.17672971  0.43307347  1
  O2-  O146  1  0.07219019  0.18136346  0.76630876  1
  O2-  O147  1  0.07033271  0.68082215  0.09777816  1
  O2-  O148  1  0.06753501  0.68177568  0.43512590  1
  O2-  O149  1  0.07067062  0.67497298  0.75683740  1
  O2-  O150  1  0.56788432  0.17877942  0.09885740  1
  O2-  O151  1  0.57344189  0.18187689  0.43253991  1
  O2-  O152  1  0.57086539  0.17974785  0.76707707  1
  O2-  O153  1  0.57099249  0.67980918  0.09206758  1
  O2-  O154  1  0.57258536  0.67915868  0.43074784  1
  O2-  O155  1  0.57022806  0.68010692  0.76812096  1
  O2-  O156  1  0.17763337  0.42514598  0.24827832  1
  O2-  O157  1  0.17864834  0.43004992  0.57424466  1
  O2-  O158  1  0.18365389  0.42776037  0.90077698  1
  O2-  O159  1  0.17618137  0.93371917  0.24143182  1
  O2-  O160  1  0.17655801  0.92699689  0.56820054  1
  O2-  O161  1  0.17731455  0.92872564  0.91315530  1
  O2-  O162  1  0.68447226  0.42504325  0.24265469  1
  O2-  O163  1  0.68026224  0.42754758  0.56840882  1
  O2-  O164  1  0.67787585  0.42551864  0.91413577  1
  O2-  O165  1  0.67780062  0.92926079  0.24606785  1
  O2-  O166  1  0.68172199  0.92970500  0.57450033  1
  O2-  O167  1  0.67851320  0.93149277  0.90071658  1
  O2-  O168  1  0.43256614  0.32173371  0.08928758  1
  O2-  O169  1  0.42821843  0.32379536  0.42081622  1
  O2-  O170  1  0.42447617  0.32552543  0.75423978  1
  O2-  O171  1  0.43133730  0.82333327  0.08929824  1
  O2-  O172  1  0.42914388  0.82089652  0.42893606  1
  O2-  O173  1  0.42824288  0.81894878  0.76571673  1
  O2-  O174  1  0.92417171  0.31935484  0.08695841  1
  O2-  O175  1  0.92562300  0.31990712  0.42212842  1
  O2-  O176  1  0.93427371  0.32607371  0.75535335  1
  O2-  O177  1  0.92759768  0.81680405  0.09764008  1
  O2-  O178  1  0.92842482  0.82667062  0.42350432  1
  O2-  O179  1  0.92662882  0.82184830  0.75509409  1
  O2-  O180  1  0.32202230  0.07092638  0.24307365  1
  O2-  O181  1  0.32058817  0.07147183  0.56567741  1
  O2-  O182  1  0.32184787  0.06664454  0.90179327  1
  O2-  O183  1  0.31732440  0.57052226  0.23652897  1
  O2-  O184  1  0.31837912  0.57080214  0.57410575  1
  O2-  O185  1  0.32447450  0.57146312  0.90023477  1
  O2-  O186  1  0.82150058  0.06964512  0.24182442  1
  O2-  O187  1  0.82189324  0.06854162  0.56556185  1
  O2-  O188  1  0.82308424  0.07223613  0.91239162  1
  O2-  O189  1  0.82212285  0.57040259  0.24350771  1
  O2-  O190  1  0.82510984  0.57008648  0.56726729  1
  O2-  O191  1  0.81497904  0.57005722  0.90276552  1
  O2-  O192  1  0.03862118  0.08481699  0.26322981  1
  O2-  O193  1  0.03895368  0.08052958  0.60133131  1
  O2-  O194  1  0.04351177  0.08370154  0.93222446  1
  O2-  O195  1  0.04321153  0.58026500  0.26937297  1
  O2-  O196  1  0.04221870  0.58578571  0.60319376  1
  O2-  O197  1  0.04489726  0.57675129  0.93598122  1
  O2-  O198  1  0.54138538  0.08340263  0.26629295  1
  O2-  O199  1  0.54327617  0.08429110  0.59737015  1
  O2-  O200  1  0.53687895  0.08105671  0.93379864  1
  O2-  O201  1  0.54802201  0.57712358  0.26667489  1
  O2-  O202  1  0.54740873  0.57716537  0.60354561  1
  O2-  O203  1  0.54880203  0.58276106  0.94296771  1
  O2-  O204  1  0.16988619  0.20825159  0.26787264  1
  O2-  O205  1  0.16655249  0.21078802  0.59821218  1
  O2-  O206  1  0.17044988  0.21359192  0.93408817  1
  O2-  O207  1  0.16265819  0.71372984  0.26679282  1
  O2-  O208  1  0.16149577  0.70599468  0.60468628  1
  O2-  O209  1  0.17076005  0.70676251  0.93181833  1
  O2-  O210  1  0.66695686  0.21172126  0.26423320  1
  O2-  O211  1  0.66982410  0.21239461  0.60167418  1
  O2-  O212  1  0.66923659  0.20452746  0.93486534  1
  O2-  O213  1  0.67055955  0.70879677  0.26603893  1
  O2-  O214  1  0.67048266  0.70669781  0.60047665  1
  O2-  O215  1  0.66010849  0.71089878  0.94049990  1
  O2-  O216  1  0.07778507  0.44568497  0.06706425  1
  O2-  O217  1  0.08148882  0.44835061  0.39791301  1
  O2-  O218  1  0.08835482  0.45630178  0.72785691  1
  O2-  O219  1  0.08012986  0.95203925  0.06230321  1
  O2-  O220  1  0.08503707  0.95886142  0.39377059  1
  O2-  O221  1  0.07925120  0.95151177  0.73542711  1
  O2-  O222  1  0.58356545  0.44715390  0.06550397  1
  O2-  O223  1  0.58722765  0.44936880  0.39395305  1
  O2-  O224  1  0.57720108  0.45082960  0.73685680  1
  O2-  O225  1  0.58508473  0.96243603  0.07158899  1
  O2-  O226  1  0.58542082  0.95863718  0.39729238  1
  O2-  O227  1  0.58281780  0.95066596  0.72363667  1
  O2-  O228  1  0.21497844  0.33465635  0.07205249  1
  O2-  O229  1  0.20704588  0.33385644  0.40033587  1
  O2-  O230  1  0.20742488  0.33726130  0.72644145  1
  O2-  O231  1  0.20373586  0.83608231  0.06445386  1
  O2-  O232  1  0.20570387  0.84056773  0.39403656  1
  O2-  O233  1  0.20669622  0.82906940  0.73771693  1
  O2-  O234  1  0.70726341  0.33168197  0.06513291  1
  O2-  O235  1  0.71364595  0.33716454  0.39587956  1
  O2-  O236  1  0.71028747  0.33388307  0.73872024  1
  O2-  O237  1  0.71066340  0.83575460  0.07187564  1
  O2-  O238  1  0.70554134  0.83839467  0.39989628  1
  O2-  O239  1  0.70740474  0.83725553  0.72678816  1
  O2-  O240  1  0.45680807  0.41532957  0.26807016  1
  O2-  O241  1  0.45394110  0.41563953  0.60083151  1
  O2-  O242  1  0.45514641  0.41646861  0.93745171  1
  O2-  O243  1  0.45955324  0.91747473  0.26182864  1
  O2-  O244  1  0.45563326  0.91720369  0.59582286  1
  O2-  O245  1  0.46514739  0.90969341  0.93653007  1
  O2-  O246  1  0.95039374  0.41577081  0.27086318  1
  O2-  O247  1  0.95952800  0.41494622  0.60091791  1
  O2-  O248  1  0.95025040  0.41647829  0.93642600  1
  O2-  O249  1  0.95624039  0.91399137  0.26801944  1
  O2-  O250  1  0.95834751  0.91149410  0.60087830  1
  O2-  O251  1  0.95191785  0.91836943  0.93106309  1
  O2-  O252  1  0.33353495  0.30113699  0.26959817  1
  O2-  O253  1  0.33418901  0.29903265  0.59949201  1
  O2-  O254  1  0.33671339  0.29681546  0.93865271  1
  O2-  O255  1  0.32921398  0.79482111  0.26326210  1
  O2-  O256  1  0.32762276  0.79226979  0.59933115  1
  O2-  O257  1  0.33567412  0.80098144  0.93786710  1
  O2-  O258  1  0.83735798  0.29247328  0.26648118  1
  O2-  O259  1  0.83507078  0.30095815  0.60619386  1
  O2-  O260  1  0.83380863  0.29668763  0.93357444  1
  O2-  O261  1  0.83097931  0.80293780  0.27463064  1
  O2-  O262  1  0.83802347  0.79521908  0.59978654  1
  O2-  O263  1  0.82731624  0.78972644  0.93265764  1
  O2-  O264  1  0.41437612  0.03350654  0.07011825  1
  O2-  O265  1  0.41368477  0.04041718  0.39451650  1
  O2-  O266  1  0.42061304  0.04118293  0.73153674  1
  O2-  O267  1  0.41848371  0.54135020  0.06982769  1
  O2-  O268  1  0.41648785  0.53909697  0.40171993  1
  O2-  O269  1  0.41207129  0.54398383  0.72629958  1
  O2-  O270  1  0.91728141  0.04458052  0.06364055  1
  O2-  O271  1  0.91265203  0.04069096  0.39384170  1
  O2-  O272  1  0.91498862  0.03637973  0.73486176  1
  O2-  O273  1  0.91437733  0.53824523  0.06995007  1
  O2-  O274  1  0.91275311  0.54192678  0.39635926  1
  O2-  O275  1  0.91888627  0.53989106  0.73554652  1
  O2-  O276  1  0.29430020  0.16643948  0.06904727  1
  O2-  O277  1  0.30011791  0.16614820  0.39336656  1
  O2-  O278  1  0.29608288  0.17164649  0.73143019  1
  O2-  O279  1  0.29791047  0.67486518  0.06619671  1
  O2-  O280  1  0.28605837  0.66901317  0.40187455  1
  O2-  O281  1  0.29189781  0.66171461  0.72703683  1
  O2-  O282  1  0.80087422  0.16752229  0.06301329  1
  O2-  O283  1  0.79443202  0.16367468  0.39295508  1
  O2-  O284  1  0.79828986  0.16929424  0.73372930  1
  O2-  O285  1  0.78689433  0.66510985  0.07142957  1
  O2-  O286  1  0.79794449  0.66590671  0.39420861  1
  O2-  O287  1  0.79842184  0.67343615  0.73278647  1
