# generated using pymatgen
data_Ca2Al2SiO7
_symmetry_space_group_name_H-M   'P 1'
_cell_length_a   15.45784304
_cell_length_b   15.45861357
_cell_length_c   15.28374531
_cell_angle_alpha   89.98707596
_cell_angle_beta   89.99029195
_cell_angle_gamma   89.98023038
_symmetry_Int_Tables_number   1
_chemical_formula_structural   Ca2Al2SiO7
_chemical_formula_sum   'Ca48 Al48 Si24 O168'
_cell_volume   3652.15484864
_cell_formula_units_Z   24
loop_
 _symmetry_equiv_pos_site_id
 _symmetry_equiv_pos_as_xyz
  1  'x, y, z'
loop_
 _atom_type_symbol
 _atom_type_oxidation_number
  Ca2+  2.0
  Al0+  0.0
  Si0+  0.0
  O2-  -2.0
loop_
 _atom_site_type_symbol
 _atom_site_label
 _atom_site_symmetry_multiplicity
 _atom_site_fract_x
 _atom_site_fract_y
 _atom_site_fract_z
 _atom_site_occupancy
  Ca2+  Ca0  1  0.17123203  0.07628639  0.17060646  1
  Ca2+  Ca1  1  0.16801871  0.07720399  0.50600815  1
  Ca2+  Ca2  1  0.17934360  0.08782764  0.83690599  1
  Ca2+  Ca3  1  0.17629212  0.58946381  0.16922044  1
  Ca2+  Ca4  1  0.17180584  0.58565838  0.49944520  1
  Ca2+  Ca5  1  0.17471358  0.57553033  0.84770259  1
  Ca2+  Ca6  1  0.67027134  0.08345508  0.17214323  1
  Ca2+  Ca7  1  0.67207653  0.08774840  0.50476145  1
  Ca2+  Ca8  1  0.65794869  0.08376065  0.83884890  1
  Ca2+  Ca9  1  0.66942430  0.59057318  0.16923830  1
  Ca2+  Ca10  1  0.67028031  0.58843083  0.50585299  1
  Ca2+  Ca11  1  0.67351214  0.59431624  0.83773102  1
  Ca2+  Ca12  1  0.07911355  0.34000541  0.16396905  1
  Ca2+  Ca13  1  0.07836377  0.32565585  0.49679357  1
  Ca2+  Ca14  1  0.08857512  0.33109298  0.82995254  1
  Ca2+  Ca15  1  0.07971264  0.82791460  0.16585331  1
  Ca2+  Ca16  1  0.08036003  0.82930852  0.48791388  1
  Ca2+  Ca17  1  0.07990661  0.82855199  0.83604301  1
  Ca2+  Ca18  1  0.57083540  0.32878416  0.16025512  1
  Ca2+  Ca19  1  0.57266421  0.33200065  0.49733838  1
  Ca2+  Ca20  1  0.57053795  0.32432538  0.83033841  1
  Ca2+  Ca21  1  0.58571663  0.82141475  0.16280638  1
  Ca2+  Ca22  1  0.57676226  0.82442675  0.50101263  1
  Ca2+  Ca23  1  0.57661735  0.82375025  0.82962358  1
  Ca2+  Ca24  1  0.33382138  0.42184503  0.16681267  1
  Ca2+  Ca25  1  0.34149445  0.41842949  0.49945292  1
  Ca2+  Ca26  1  0.33075556  0.41428751  0.84306145  1
  Ca2+  Ca27  1  0.33052070  0.92315220  0.17282640  1
  Ca2+  Ca28  1  0.32818664  0.91692930  0.50767419  1
  Ca2+  Ca29  1  0.34570984  0.92864035  0.83527313  1
  Ca2+  Ca30  1  0.83266168  0.42189937  0.17082157  1
  Ca2+  Ca31  1  0.83263773  0.42204675  0.50664341  1
  Ca2+  Ca32  1  0.82924428  0.43000426  0.83963964  1
  Ca2+  Ca33  1  0.83979140  0.91864693  0.17284897  1
  Ca2+  Ca34  1  0.83569662  0.91899173  0.49920150  1
  Ca2+  Ca35  1  0.83095924  0.91565574  0.83994429  1
  Ca2+  Ca36  1  0.41542174  0.17539868  0.15667782  1
  Ca2+  Ca37  1  0.41361155  0.17551787  0.50062881  1
  Ca2+  Ca38  1  0.41549281  0.17281763  0.82564571  1
  Ca2+  Ca39  1  0.42420871  0.65744591  0.16148014  1
  Ca2+  Ca40  1  0.42580753  0.66352256  0.49229750  1
  Ca2+  Ca41  1  0.42556725  0.66403353  0.82763975  1
  Ca2+  Ca42  1  0.91295870  0.17129522  0.16719452  1
  Ca2+  Ca43  1  0.92013757  0.16864876  0.49122985  1
  Ca2+  Ca44  1  0.92760289  0.16968771  0.82713837  1
  Ca2+  Ca45  1  0.92772535  0.67392418  0.15635878  1
  Ca2+  Ca46  1  0.92292230  0.67073589  0.49013546  1
  Ca2+  Ca47  1  0.91700428  0.66414136  0.83455067  1
  Al0+  Al48  1  -0.00121501  0.00060544  -0.00407180  1
  Al0+  Al49  1  0.00082879  0.00047664  0.33849343  1
  Al0+  Al50  1  0.00032445  -0.00103778  0.66509437  1
  Al0+  Al51  1  -0.00145131  0.50113130  0.00324473  1
  Al0+  Al52  1  0.00187737  0.49896796  0.32783101  1
  Al0+  Al53  1  -0.00012600  0.50097949  0.67145678  1
  Al0+  Al54  1  0.50224413  -0.00160227  0.00664255  1
  Al0+  Al55  1  0.50159660  -0.00035414  0.33689058  1
  Al0+  Al56  1  0.50069771  -0.00083593  0.66195072  1
  Al0+  Al57  1  0.50102844  0.49716374  -0.00670230  1
  Al0+  Al58  1  0.50075369  0.49810934  0.32914822  1
  Al0+  Al59  1  0.50216707  0.49822847  0.66117893  1
  Al0+  Al60  1  0.24816855  0.24971171  0.00764161  1
  Al0+  Al61  1  0.24893115  0.25118456  0.32987026  1
  Al0+  Al62  1  0.24787081  0.24848604  0.66014269  1
  Al0+  Al63  1  0.24859665  0.75140466  -0.00118392  1
  Al0+  Al64  1  0.25187030  0.75046146  0.33959480  1
  Al0+  Al65  1  0.24743347  0.74958089  0.66729381  1
  Al0+  Al66  1  0.75022943  0.25065236  -0.00414299  1
  Al0+  Al67  1  0.75036640  0.25035993  0.33512202  1
  Al0+  Al68  1  0.74981326  0.25218667  0.66805097  1
  Al0+  Al69  1  0.74951948  0.75221263  -0.00218483  1
  Al0+  Al70  1  0.74937110  0.75206727  0.32899757  1
  Al0+  Al71  1  0.75081640  0.75232257  0.66760668  1
  Al0+  Al72  1  0.81789389  0.57279814  0.01631097  1
  Al0+  Al73  1  0.92937354  0.82172624  0.98317450  1
  Al0+  Al74  1  0.57285601  0.17743985  0.65033194  1
  Al0+  Al75  1  0.18136192  0.92997879  0.34728370  1
  Al0+  Al76  1  0.92786426  0.32062811  0.32038197  1
  Al0+  Al77  1  0.42850075  0.31943025  0.31658469  1
  Al0+  Al78  1  0.32196021  0.56813655  0.34773705  1
  Al0+  Al79  1  0.17795439  0.42806348  0.01620921  1
  Al0+  Al80  1  0.07426252  0.67822150  0.31848026  1
  Al0+  Al81  1  0.07250149  0.67760117  0.98304224  1
  Al0+  Al82  1  0.56972487  0.67973626  0.31871021  1
  Al0+  Al83  1  0.42634134  0.31837666  0.98441533  1
  Al0+  Al84  1  0.56923823  0.67847780  0.98602384  1
  Al0+  Al85  1  0.32214047  0.06936138  0.01416366  1
  Al0+  Al86  1  0.42660680  0.82042281  0.65232396  1
  Al0+  Al87  1  0.57159938  0.17680648  0.98706732  1
  Al0+  Al88  1  0.92989152  0.82223785  0.31927236  1
  Al0+  Al89  1  0.06963456  0.17843140  0.65301856  1
  Al0+  Al90  1  0.82007513  0.57187152  0.67983312  1
  Al0+  Al91  1  0.31917376  0.06899027  0.67868726  1
  Al0+  Al92  1  0.32364849  0.57224582  0.01259152  1
  Al0+  Al93  1  0.57196726  0.67932890  0.65123662  1
  Al0+  Al94  1  0.81892060  0.07078746  0.34728410  1
  Al0+  Al95  1  0.42693537  0.32039847  0.65012331  1
  Si0+  Si96  1  0.07082662  0.17782002  0.31546596  1
  Si0+  Si97  1  0.82170028  0.57179185  0.34615153  1
  Si0+  Si98  1  0.68070208  0.93108493  0.68231521  1
  Si0+  Si99  1  0.67698496  0.92553008  0.35309579  1
  Si0+  Si100  1  0.17585136  0.42695070  0.35254004  1
  Si0+  Si101  1  0.17954969  0.42988669  0.67919116  1
  Si0+  Si102  1  0.06992805  0.67694511  0.65220976  1
  Si0+  Si103  1  0.92770625  0.32264420  0.98396939  1
  Si0+  Si104  1  0.06901222  0.17933342  0.98678617  1
  Si0+  Si105  1  0.17519819  0.92578774  0.68640093  1
  Si0+  Si106  1  0.42780842  0.82353414  0.31736503  1
  Si0+  Si107  1  0.17491207  0.92943343  0.01576810  1
  Si0+  Si108  1  0.68030648  0.92963670  0.01610984  1
  Si0+  Si109  1  0.82228110  0.07243782  0.01306798  1
  Si0+  Si110  1  0.82285283  0.07258765  0.68262554  1
  Si0+  Si111  1  0.67969822  0.42597871  0.01699617  1
  Si0+  Si112  1  0.92944441  0.82081145  0.65081209  1
  Si0+  Si113  1  0.92916514  0.32341088  0.65280891  1
  Si0+  Si114  1  0.67643057  0.42713867  0.68515271  1
  Si0+  Si115  1  0.42662694  0.82333387  0.98682350  1
  Si0+  Si116  1  0.32313980  0.07440264  0.35104266  1
  Si0+  Si117  1  0.68016924  0.42972113  0.34815581  1
  Si0+  Si118  1  0.32254566  0.57087696  0.67958135  1
  Si0+  Si119  1  0.57239361  0.17742754  0.31785139  1
  O2-  O120  1  0.24861039  -0.00715369  0.05979766  1
  O2-  O121  1  0.25686485  0.00358231  0.39494626  1
  O2-  O122  1  0.24705367  -0.00775105  0.72872426  1
  O2-  O123  1  0.24917883  0.50257496  0.06333360  1
  O2-  O124  1  0.24558984  0.49489437  0.39637239  1
  O2-  O125  1  0.25309835  0.49815937  0.72112400  1
  O2-  O126  1  0.75008214  0.00338619  0.05560583  1
  O2-  O127  1  0.74465867  -0.00349696  0.39592226  1
  O2-  O128  1  0.74837107  0.00594251  0.72558382  1
  O2-  O129  1  0.74328859  0.49830369  0.06380336  1
  O2-  O130  1  0.75139236  0.50120215  0.39048797  1
  O2-  O131  1  0.74314426  0.49930272  0.72717758  1
  O2-  O132  1  0.00326673  0.24768886  0.27140649  1
  O2-  O133  1  -0.00867753  0.24989433  0.60723320  1
  O2-  O134  1  0.00163530  0.25370732  0.94362389  1
  O2-  O135  1  -0.00066500  0.74810133  0.26987750  1
  O2-  O136  1  0.00101371  0.75006452  0.60997382  1
  O2-  O137  1  -0.00095045  0.74829149  0.93202748  1
  O2-  O138  1  0.49841118  0.23882775  0.27274164  1
  O2-  O139  1  0.50086632  0.24924736  0.60084979  1
  O2-  O140  1  0.49566437  0.24298940  0.93583363  1
  O2-  O141  1  0.49549525  0.75488860  0.27203289  1
  O2-  O142  1  0.49352308  0.74404627  0.60123086  1
  O2-  O143  1  0.48781663  0.74774441  0.94257070  1
  O2-  O144  1  0.06440392  0.17562685  0.09161621  1
  O2-  O145  1  0.06927400  0.17873882  0.42134917  1
  O2-  O146  1  0.07020905  0.18120707  0.76659683  1
  O2-  O147  1  0.07247402  0.68040107  0.09617333  1
  O2-  O148  1  0.07045794  0.67836837  0.43325562  1
  O2-  O149  1  0.06926416  0.67557338  0.75674301  1
  O2-  O150  1  0.57414136  0.17932051  0.10076927  1
  O2-  O151  1  0.57471532  0.18055821  0.42324052  1
  O2-  O152  1  0.57175506  0.17832211  0.76362202  1
  O2-  O153  1  0.57162746  0.68213707  0.09910480  1
  O2-  O154  1  0.57113695  0.68020329  0.43170003  1
  O2-  O155  1  0.57288221  0.68300059  0.76471938  1
  O2-  O156  1  0.17527780  0.42588712  0.24761790  1
  O2-  O157  1  0.17456636  0.43295864  0.57440767  1
  O2-  O158  1  0.17933023  0.42592323  0.90153525  1
  O2-  O159  1  0.18220733  0.93301015  0.23397736  1
  O2-  O160  1  0.17245993  0.92693306  0.58088930  1
  O2-  O161  1  0.17141772  0.93403600  0.91020050  1
  O2-  O162  1  0.68172133  0.42859063  0.24314099  1
  O2-  O163  1  0.67944771  0.42495911  0.57921997  1
  O2-  O164  1  0.68529693  0.42289342  0.91168228  1
  O2-  O165  1  0.67555658  0.92596512  0.24747068  1
  O2-  O166  1  0.68541860  0.92875419  0.57749689  1
  O2-  O167  1  0.67989106  0.92953097  0.91082049  1
  O2-  O168  1  0.42889270  0.31784234  0.09805094  1
  O2-  O169  1  0.43132412  0.31931447  0.42961246  1
  O2-  O170  1  0.42407005  0.31931631  0.76320418  1
  O2-  O171  1  0.43089900  0.82719774  0.09235601  1
  O2-  O172  1  0.42964746  0.82308607  0.42291217  1
  O2-  O173  1  0.43059756  0.82094123  0.76618570  1
  O2-  O174  1  0.92426435  0.31938409  0.08905840  1
  O2-  O175  1  0.92861371  0.31964507  0.43389583  1
  O2-  O176  1  0.93259752  0.32350074  0.75852502  1
  O2-  O177  1  0.93203748  0.82521070  0.09615630  1
  O2-  O178  1  0.92998186  0.81968920  0.43365292  1
  O2-  O179  1  0.92906718  0.82268565  0.75559905  1
  O2-  O180  1  0.32234856  0.07308137  0.24523609  1
  O2-  O181  1  0.31443612  0.06848279  0.56574025  1
  O2-  O182  1  0.32154690  0.06981597  0.90075235  1
  O2-  O183  1  0.32362031  0.56705188  0.23520155  1
  O2-  O184  1  0.32018386  0.57119493  0.57444848  1
  O2-  O185  1  0.32318999  0.56998200  0.89818954  1
  O2-  O186  1  0.81681086  0.07199750  0.23375909  1
  O2-  O187  1  0.82425302  0.07019989  0.57770127  1
  O2-  O188  1  0.82414413  0.07150032  0.90783762  1
  O2-  O189  1  0.81930095  0.57053216  0.24141492  1
  O2-  O190  1  0.82243193  0.56956575  0.56611220  1
  O2-  O191  1  0.81665403  0.57105462  0.90277537  1
  O2-  O192  1  0.04265538  0.08517390  0.27042100  1
  O2-  O193  1  0.03991827  0.08141371  0.59916974  1
  O2-  O194  1  0.03787195  0.09081559  0.93498287  1
  O2-  O195  1  0.05020466  0.57927163  0.26648914  1
  O2-  O196  1  0.03975028  0.58598886  0.60437530  1
  O2-  O197  1  0.04227414  0.57848507  0.93195353  1
  O2-  O198  1  0.55497800  0.08013584  0.27579016  1
  O2-  O199  1  0.54889065  0.07887857  0.59697613  1
  O2-  O200  1  0.54926374  0.07508839  0.93888666  1
  O2-  O201  1  0.54096126  0.58315788  0.26491922  1
  O2-  O202  1  0.55227376  0.57872399  0.59999020  1
  O2-  O203  1  0.54808446  0.58053977  0.93097258  1
  O2-  O204  1  0.16467279  0.20123469  0.26964800  1
  O2-  O205  1  0.16187894  0.21172236  0.59417346  1
  O2-  O206  1  0.16169995  0.20569263  0.94150747  1
  O2-  O207  1  0.17267258  0.71017165  0.26893507  1
  O2-  O208  1  0.16229279  0.70249985  0.60501582  1
  O2-  O209  1  0.17055936  0.70697600  0.92847343  1
  O2-  O210  1  0.66407481  0.20829247  0.27139908  1
  O2-  O211  1  0.67328406  0.20621487  0.59987224  1
  O2-  O212  1  0.66930973  0.20647571  0.93211002  1
  O2-  O213  1  0.66563002  0.71186793  0.26424569  1
  O2-  O214  1  0.66890566  0.71513401  0.59902723  1
  O2-  O215  1  0.66275846  0.71814255  0.93196740  1
  O2-  O216  1  0.07787276  0.45260454  0.06714469  1
  O2-  O217  1  0.08188817  0.45278242  0.39920082  1
  O2-  O218  1  0.08937628  0.45863760  0.73016322  1
  O2-  O219  1  0.08380461  0.96283363  0.06312983  1
  O2-  O220  1  0.08592474  0.96195573  0.40395516  1
  O2-  O221  1  0.08212570  0.95478482  0.73241159  1
  O2-  O222  1  0.58377797  0.44718259  0.05861598  1
  O2-  O223  1  0.58910436  0.45864513  0.39565516  1
  O2-  O224  1  0.58155447  0.44971008  0.72960689  1
  O2-  O225  1  0.59017760  0.95417941  0.06860593  1
  O2-  O226  1  0.58306488  0.94915343  0.40023380  1
  O2-  O227  1  0.58781887  0.95540016  0.72886584  1
  O2-  O228  1  0.20346545  0.33070328  0.07280583  1
  O2-  O229  1  0.20049144  0.33176811  0.39713384  1
  O2-  O230  1  0.20487574  0.33646691  0.72430324  1
  O2-  O231  1  0.19428777  0.83396220  0.05922749  1
  O2-  O232  1  0.20992014  0.83449758  0.40522041  1
  O2-  O233  1  0.19642246  0.83057825  0.73151969  1
  O2-  O234  1  0.71091767  0.33410143  0.06479764  1
  O2-  O235  1  0.70893617  0.33908405  0.39759220  1
  O2-  O236  1  0.70506986  0.33516140  0.73386370  1
  O2-  O237  1  0.71160229  0.83997312  0.06499612  1
  O2-  O238  1  0.70597004  0.83313919  0.40026497  1
  O2-  O239  1  0.71333501  0.84170955  0.73219162  1
  O2-  O240  1  0.46605207  0.41278115  0.26225733  1
  O2-  O241  1  0.45699845  0.41798854  0.59600871  1
  O2-  O242  1  0.45719500  0.41452591  0.92894882  1
  O2-  O243  1  0.45334390  0.91834794  0.27247859  1
  O2-  O244  1  0.45938158  0.91578460  0.59667662  1
  O2-  O245  1  0.46294890  0.91319930  0.93931626  1
  O2-  O246  1  0.95683641  0.41618427  0.26421153  1
  O2-  O247  1  0.96019764  0.41509395  0.60566008  1
  O2-  O248  1  0.95295075  0.41484765  0.93734556  1
  O2-  O249  1  0.95995879  0.92110321  0.26871955  1
  O2-  O250  1  0.95655982  0.91264538  0.60303957  1
  O2-  O251  1  0.95818081  0.92012149  0.92812684  1
  O2-  O252  1  0.32969882  0.29451501  0.26469089  1
  O2-  O253  1  0.33008570  0.29100015  0.59465458  1
  O2-  O254  1  0.32576740  0.29078724  0.93564934  1
  O2-  O255  1  0.33365672  0.80014186  0.27350298  1
  O2-  O256  1  0.32497289  0.79839829  0.60277212  1
  O2-  O257  1  0.33037087  0.81058557  0.94249191  1
  O2-  O258  1  0.83231588  0.28783740  0.26532961  1
  O2-  O259  1  0.83349959  0.30434059  0.60929637  1
  O2-  O260  1  0.83874423  0.29138274  0.93328603  1
  O2-  O261  1  0.83023073  0.79981056  0.26749171  1
  O2-  O262  1  0.83807839  0.79352843  0.60329767  1
  O2-  O263  1  0.83067386  0.79488698  0.93047127  1
  O2-  O264  1  0.41797122  0.03947656  0.07090418  1
  O2-  O265  1  0.41860195  0.05271260  0.39522434  1
  O2-  O266  1  0.41783905  0.03986417  0.73040286  1
  O2-  O267  1  0.42279758  0.54147242  0.06331508  1
  O2-  O268  1  0.41850105  0.53349955  0.40117864  1
  O2-  O269  1  0.41662683  0.54606940  0.72344925  1
  O2-  O270  1  0.91320004  0.04334677  0.06158078  1
  O2-  O271  1  0.91535164  0.04163037  0.40279708  1
  O2-  O272  1  0.91359152  0.04043543  0.73052098  1
  O2-  O273  1  0.91418566  0.54109559  0.06896376  1
  O2-  O274  1  0.91449189  0.54373288  0.39194141  1
  O2-  O275  1  0.91520802  0.53817270  0.73637236  1
  O2-  O276  1  0.28733562  0.16293605  0.07059723  1
  O2-  O277  1  0.29384142  0.16772986  0.39545741  1
  O2-  O278  1  0.28354986  0.16559654  0.73098005  1
  O2-  O279  1  0.29858731  0.67303401  0.06381866  1
  O2-  O280  1  0.29470310  0.66526028  0.40318449  1
  O2-  O281  1  0.29328470  0.66214489  0.72720733  1
  O2-  O282  1  0.79595362  0.16512241  0.05982875  1
  O2-  O283  1  0.78863141  0.16722488  0.40340878  1
  O2-  O284  1  0.80211886  0.16714974  0.72821493  1
  O2-  O285  1  0.78730743  0.67030360  0.06801587  1
  O2-  O286  1  0.79352864  0.66436333  0.39235673  1
  O2-  O287  1  0.79146418  0.66941474  0.73365709  1
