# generated using pymatgen
data_Ca2Al2SiO7
_symmetry_space_group_name_H-M   'P 1'
_cell_length_a   15.45996872
_cell_length_b   15.45982736
_cell_length_c   15.28394063
_cell_angle_alpha   90.01677780
_cell_angle_beta   89.98478087
_cell_angle_gamma   89.96941153
_symmetry_Int_Tables_number   1
_chemical_formula_structural   Ca2Al2SiO7
_chemical_formula_sum   'Ca48 Al48 Si24 O168'
_cell_volume   3652.99011257
_cell_formula_units_Z   24
loop_
 _symmetry_equiv_pos_site_id
 _symmetry_equiv_pos_as_xyz
  1  'x, y, z'
loop_
 _atom_type_symbol
 _atom_type_oxidation_number
  Ca2+  2.0
  Al0+  0.0
  Si0+  0.0
  O2-  -2.0
loop_
 _atom_site_type_symbol
 _atom_site_label
 _atom_site_symmetry_multiplicity
 _atom_site_fract_x
 _atom_site_fract_y
 _atom_site_fract_z
 _atom_site_occupancy
  Ca2+  Ca0  1  0.17285455  0.09270030  0.16548541  1
  Ca2+  Ca1  1  0.17646623  0.08113090  0.50744090  1
  Ca2+  Ca2  1  0.17679250  0.08607622  0.84244968  1
  Ca2+  Ca3  1  0.16579876  0.57962238  0.17127715  1
  Ca2+  Ca4  1  0.16751024  0.57808455  0.49983841  1
  Ca2+  Ca5  1  0.16395749  0.58457974  0.83939097  1
  Ca2+  Ca6  1  0.66729785  0.08441804  0.16895485  1
  Ca2+  Ca7  1  0.66237398  0.07873312  0.49762936  1
  Ca2+  Ca8  1  0.67203179  0.08247797  0.84277437  1
  Ca2+  Ca9  1  0.66865605  0.57397097  0.17400532  1
  Ca2+  Ca10  1  0.66727260  0.57155432  0.51041165  1
  Ca2+  Ca11  1  0.66745037  0.58145979  0.83078528  1
  Ca2+  Ca12  1  0.07406617  0.33345630  0.16111643  1
  Ca2+  Ca13  1  0.07237769  0.33942742  0.49488776  1
  Ca2+  Ca14  1  0.07246840  0.32765901  0.83389179  1
  Ca2+  Ca15  1  0.07389871  0.82844311  0.15905895  1
  Ca2+  Ca16  1  0.07017619  0.83296866  0.49585634  1
  Ca2+  Ca17  1  0.07336112  0.83255540  0.83377367  1
  Ca2+  Ca18  1  0.58099515  0.32520085  0.16210136  1
  Ca2+  Ca19  1  0.58421803  0.32931227  0.48943574  1
  Ca2+  Ca20  1  0.58372468  0.32819164  0.83264576  1
  Ca2+  Ca21  1  0.57544573  0.84247933  0.16630614  1
  Ca2+  Ca22  1  0.57822671  0.83021509  0.49491277  1
  Ca2+  Ca23  1  0.57402784  0.83155606  0.82691127  1
  Ca2+  Ca24  1  0.32875472  0.40894515  0.17390568  1
  Ca2+  Ca25  1  0.32677457  0.40906105  0.50139112  1
  Ca2+  Ca26  1  0.33314475  0.41736499  0.84228057  1
  Ca2+  Ca27  1  0.33982925  0.92108541  0.16928147  1
  Ca2+  Ca28  1  0.33978643  0.92077006  0.50713944  1
  Ca2+  Ca29  1  0.33984492  0.92427930  0.84025377  1
  Ca2+  Ca30  1  0.83241930  0.41399684  0.17467961  1
  Ca2+  Ca31  1  0.82449032  0.41639150  0.50885692  1
  Ca2+  Ca32  1  0.83301831  0.41522989  0.83371369  1
  Ca2+  Ca33  1  0.83424115  0.92205945  0.17310439  1
  Ca2+  Ca34  1  0.82855818  0.91044093  0.50327980  1
  Ca2+  Ca35  1  0.83614404  0.91909066  0.84300903  1
  Ca2+  Ca36  1  0.42696650  0.17373430  0.16068532  1
  Ca2+  Ca37  1  0.42293555  0.16951718  0.49218723  1
  Ca2+  Ca38  1  0.41730563  0.16422330  0.83497665  1
  Ca2+  Ca39  1  0.41580992  0.67872867  0.16164137  1
  Ca2+  Ca40  1  0.42120318  0.67589066  0.49748738  1
  Ca2+  Ca41  1  0.42202436  0.67854383  0.82656878  1
  Ca2+  Ca42  1  0.91791252  0.17694570  0.15667354  1
  Ca2+  Ca43  1  0.91460817  0.17968317  0.49517828  1
  Ca2+  Ca44  1  0.91283091  0.17411350  0.83287322  1
  Ca2+  Ca45  1  0.91993901  0.67680197  0.16125127  1
  Ca2+  Ca46  1  0.90515520  0.67427129  0.50065483  1
  Ca2+  Ca47  1  0.91626799  0.67323520  0.82927528  1
  Al0+  Al48  1  0.00150156  0.00076565  -0.00052876  1
  Al0+  Al49  1  0.00207955  0.00118827  0.33222615  1
  Al0+  Al50  1  0.00176446  -0.00096390  0.66213341  1
  Al0+  Al51  1  -0.00059427  0.50081717  -0.00531682  1
  Al0+  Al52  1  0.00185667  0.50147385  0.33557404  1
  Al0+  Al53  1  -0.00080218  0.49951313  0.66692119  1
  Al0+  Al54  1  0.50005342  0.00130564  -0.00232482  1
  Al0+  Al55  1  0.50263728  0.00043540  0.33129443  1
  Al0+  Al56  1  0.50052613  0.00186090  0.66822105  1
  Al0+  Al57  1  0.49922794  0.50046680  -0.00011909  1
  Al0+  Al58  1  0.49914444  0.50182237  0.33538231  1
  Al0+  Al59  1  0.49800246  0.49845013  0.66831156  1
  Al0+  Al60  1  0.24930218  0.25086818  -0.00071519  1
  Al0+  Al61  1  0.25027194  0.25036984  0.33862081  1
  Al0+  Al62  1  0.25017823  0.24790325  0.67249875  1
  Al0+  Al63  1  0.24994185  0.75031500  -0.00645074  1
  Al0+  Al64  1  0.25006041  0.75091395  0.33162585  1
  Al0+  Al65  1  0.24764711  0.75035455  0.66304524  1
  Al0+  Al66  1  0.74828393  0.24884619  -0.00246943  1
  Al0+  Al67  1  0.75162646  0.24946169  0.33036816  1
  Al0+  Al68  1  0.74933219  0.24877033  0.66586623  1
  Al0+  Al69  1  0.74852000  0.74785739  0.00064135  1
  Al0+  Al70  1  0.74928064  0.75157641  0.33204807  1
  Al0+  Al71  1  0.74848639  0.74705986  0.66465297  1
  Al0+  Al72  1  0.67937135  0.42791624  0.34533946  1
  Al0+  Al73  1  0.82046352  0.57080506  0.68348178  1
  Al0+  Al74  1  0.07052068  0.67904652  0.98531059  1
  Al0+  Al75  1  0.92674915  0.82169938  0.98657362  1
  Al0+  Al76  1  0.07207810  0.17876548  0.98604213  1
  Al0+  Al77  1  0.57018513  0.67682574  0.65096389  1
  Al0+  Al78  1  0.32134980  0.06905580  0.68190621  1
  Al0+  Al79  1  0.18009762  0.42947957  0.34719636  1
  Al0+  Al80  1  0.93060659  0.32186927  0.32114796  1
  Al0+  Al81  1  0.67667605  0.42575063  0.68399783  1
  Al0+  Al82  1  0.68019612  0.93035716  0.34728936  1
  Al0+  Al83  1  0.92741523  0.82181478  0.31924672  1
  Al0+  Al84  1  0.42940372  0.82301351  0.65116088  1
  Al0+  Al85  1  0.42960892  0.82062140  0.31917195  1
  Al0+  Al86  1  0.92965611  0.31940816  0.65130383  1
  Al0+  Al87  1  0.82242523  0.07072272  0.01321656  1
  Al0+  Al88  1  0.32125002  0.07123552  0.01713998  1
  Al0+  Al89  1  0.57179588  0.17943866  0.31800992  1
  Al0+  Al90  1  0.57026293  0.17923088  0.98269271  1
  Al0+  Al91  1  0.42716226  0.32284992  0.32107063  1
  Al0+  Al92  1  0.42848049  0.32211803  0.98515921  1
  Al0+  Al93  1  0.92898264  0.82111712  0.65249465  1
  Al0+  Al94  1  0.43107602  0.82096946  0.98639632  1
  Al0+  Al95  1  0.92668261  0.32136726  0.98450367  1
  Si0+  Si96  1  0.17869009  0.43095132  0.01450698  1
  Si0+  Si97  1  0.57132979  0.17987485  0.65098436  1
  Si0+  Si98  1  0.82213802  0.57221085  0.34897433  1
  Si0+  Si99  1  0.17881729  0.42885319  0.68415791  1
  Si0+  Si100  1  0.57247457  0.67751744  0.31599604  1
  Si0+  Si101  1  0.67972664  0.92869600  0.68086170  1
  Si0+  Si102  1  0.32072759  0.06877098  0.34821996  1
  Si0+  Si103  1  0.42656089  0.32024872  0.65274196  1
  Si0+  Si104  1  0.32131985  0.57279408  0.01449146  1
  Si0+  Si105  1  0.17628925  0.92681455  0.68385319  1
  Si0+  Si106  1  0.31933978  0.57194239  0.68206514  1
  Si0+  Si107  1  0.82221545  0.06943783  0.67920732  1
  Si0+  Si108  1  0.67855740  0.92667626  0.01551998  1
  Si0+  Si109  1  0.07371066  0.17798810  0.31879613  1
  Si0+  Si110  1  0.17914104  0.92662698  0.01781388  1
  Si0+  Si111  1  0.57219921  0.67485841  0.98402104  1
  Si0+  Si112  1  0.07205152  0.67621978  0.64734079  1
  Si0+  Si113  1  0.07413396  0.17855622  0.64908712  1
  Si0+  Si114  1  0.82509415  0.07195429  0.35090553  1
  Si0+  Si115  1  0.67866587  0.42956275  0.01555222  1
  Si0+  Si116  1  0.17787309  0.92700766  0.34867739  1
  Si0+  Si117  1  0.82222438  0.57092011  0.01642113  1
  Si0+  Si118  1  0.32196339  0.57570857  0.35072236  1
  Si0+  Si119  1  0.07241723  0.67948926  0.31751558  1
  O2-  O120  1  0.24680642  -0.00427805  0.06417016  1
  O2-  O121  1  0.25034035  -0.00310455  0.39077645  1
  O2-  O122  1  0.24812119  -0.00785557  0.72762136  1
  O2-  O123  1  0.25116927  0.50098706  0.05671965  1
  O2-  O124  1  0.25781254  0.50175544  0.39434359  1
  O2-  O125  1  0.24893295  0.50093784  0.72605989  1
  O2-  O126  1  0.75139564  -0.00842976  0.05889063  1
  O2-  O127  1  0.75789260  0.00164616  0.39557796  1
  O2-  O128  1  0.75540466  -0.00512557  0.72210080  1
  O2-  O129  1  0.75181184  0.49885507  0.05790590  1
  O2-  O130  1  0.75447895  0.50219434  0.39237098  1
  O2-  O131  1  0.74904618  0.49796575  0.73379171  1
  O2-  O132  1  0.00440974  0.24611095  0.27561989  1
  O2-  O133  1  0.00504437  0.24563441  0.60360365  1
  O2-  O134  1  -0.00407174  0.24583072  0.93552856  1
  O2-  O135  1  0.00302815  0.74759517  0.27437987  1
  O2-  O136  1  0.00199130  0.74445080  0.60487445  1
  O2-  O137  1  -0.00229220  0.74965202  0.93529818  1
  O2-  O138  1  0.50259405  0.25557334  0.27060478  1
  O2-  O139  1  0.50100236  0.25285608  0.61084773  1
  O2-  O140  1  0.49804765  0.25044753  0.93173990  1
  O2-  O141  1  0.50326635  0.74555817  0.27139818  1
  O2-  O142  1  0.50002211  0.75046297  0.60041377  1
  O2-  O143  1  0.50668204  0.74699457  0.94106328  1
  O2-  O144  1  0.07307121  0.18503279  0.09993079  1
  O2-  O145  1  0.07397322  0.17728233  0.42467622  1
  O2-  O146  1  0.07471625  0.17989222  0.75418446  1
  O2-  O147  1  0.06952357  0.67832515  0.09924352  1
  O2-  O148  1  0.07493688  0.68053784  0.42301158  1
  O2-  O149  1  0.07407333  0.67694142  0.75259354  1
  O2-  O150  1  0.57094282  0.18110371  0.09594508  1
  O2-  O151  1  0.56836259  0.17748703  0.43241355  1
  O2-  O152  1  0.57208912  0.17813785  0.75562864  1
  O2-  O153  1  0.57005644  0.67117850  0.08963392  1
  O2-  O154  1  0.57151980  0.67844718  0.42132538  1
  O2-  O155  1  0.56754332  0.67981598  0.76493235  1
  O2-  O156  1  0.17869535  0.43172379  0.23409859  1
  O2-  O157  1  0.18045722  0.42849960  0.57882034  1
  O2-  O158  1  0.17963263  0.43281064  0.90909387  1
  O2-  O159  1  0.17707839  0.92591371  0.24404437  1
  O2-  O160  1  0.17468222  0.92958457  0.57774858  1
  O2-  O161  1  0.18134264  0.92598201  0.91217576  1
  O2-  O162  1  0.68100608  0.43020793  0.23184774  1
  O2-  O163  1  0.67788643  0.42421513  0.57011487  1
  O2-  O164  1  0.67699931  0.43202054  0.91072934  1
  O2-  O165  1  0.67996552  0.93186877  0.23442370  1
  O2-  O166  1  0.67813895  0.93153512  0.57565933  1
  O2-  O167  1  0.67858118  0.92691101  0.90945688  1
  O2-  O168  1  0.43025591  0.32355086  0.09850791  1
  O2-  O169  1  0.42505880  0.31691079  0.43523611  1
  O2-  O170  1  0.42424519  0.31921156  0.75748961  1
  O2-  O171  1  0.43147539  0.81976227  0.09978322  1
  O2-  O172  1  0.42963840  0.82041413  0.43196248  1
  O2-  O173  1  0.43152146  0.82243160  0.76465462  1
  O2-  O174  1  0.92940111  0.32385773  0.09832488  1
  O2-  O175  1  0.93112786  0.32126051  0.43447778  1
  O2-  O176  1  0.93034850  0.31675189  0.76392134  1
  O2-  O177  1  0.92775541  0.81922701  0.10032535  1
  O2-  O178  1  0.92857316  0.81975311  0.43256422  1
  O2-  O179  1  0.93129104  0.82363009  0.76502350  1
  O2-  O180  1  0.31920255  0.06931321  0.24339120  1
  O2-  O181  1  0.32029547  0.07015137  0.56801583  1
  O2-  O182  1  0.32041398  0.06857778  0.90400378  1
  O2-  O183  1  0.31816357  0.58064112  0.24526094  1
  O2-  O184  1  0.31758381  0.57083141  0.57691793  1
  O2-  O185  1  0.32096803  0.57181144  0.90918361  1
  O2-  O186  1  0.82658135  0.07123630  0.24555594  1
  O2-  O187  1  0.82013697  0.07059386  0.57406887  1
  O2-  O188  1  0.81917829  0.06997181  0.89929109  1
  O2-  O189  1  0.82201482  0.57155982  0.24288802  1
  O2-  O190  1  0.81933792  0.56892081  0.56948241  1
  O2-  O191  1  0.82158270  0.57295290  0.91181677  1
  O2-  O192  1  0.05222417  0.08415613  0.27185299  1
  O2-  O193  1  0.05140835  0.08430762  0.60295668  1
  O2-  O194  1  0.05258574  0.07837800  0.93470112  1
  O2-  O195  1  0.04715235  0.58602879  0.27167308  1
  O2-  O196  1  0.04839137  0.58195084  0.60204329  1
  O2-  O197  1  0.04333670  0.58194342  0.93006194  1
  O2-  O198  1  0.54010528  0.08313610  0.26425773  1
  O2-  O199  1  0.54086837  0.08902255  0.60329797  1
  O2-  O200  1  0.54275098  0.08122730  0.92938105  1
  O2-  O201  1  0.54729392  0.58396550  0.26974574  1
  O2-  O202  1  0.53907343  0.57818083  0.59926867  1
  O2-  O203  1  0.54284559  0.58416957  0.93508430  1
  O2-  O204  1  0.16701727  0.20522939  0.27408752  1
  O2-  O205  1  0.16780731  0.20632722  0.60351818  1
  O2-  O206  1  0.16756772  0.21220728  0.93062470  1
  O2-  O207  1  0.16498281  0.70539388  0.26970420  1
  O2-  O208  1  0.16466452  0.70251886  0.59908441  1
  O2-  O209  1  0.16797862  0.70621307  0.92986686  1
  O2-  O210  1  0.67111222  0.20331572  0.26610533  1
  O2-  O211  1  0.66274378  0.20517307  0.60196692  1
  O2-  O212  1  0.66736789  0.20865447  0.92861592  1
  O2-  O213  1  0.66554134  0.70305836  0.26923661  1
  O2-  O214  1  0.66850248  0.70231448  0.59783301  1
  O2-  O215  1  0.66681862  0.69666873  0.93926999  1
  O2-  O216  1  0.08682470  0.46088955  0.06126880  1
  O2-  O217  1  0.08561088  0.46464174  0.40441977  1
  O2-  O218  1  0.08701199  0.45615374  0.73084420  1
  O2-  O219  1  0.08493640  0.95019525  0.06347267  1
  O2-  O220  1  0.08720414  0.95712060  0.39832164  1
  O2-  O221  1  0.08363009  0.95573911  0.73046099  1
  O2-  O222  1  0.58748414  0.46027525  0.06352744  1
  O2-  O223  1  0.58166511  0.45702062  0.39937115  1
  O2-  O224  1  0.57697838  0.45307683  0.73580522  1
  O2-  O225  1  0.58665932  0.95787063  0.06168386  1
  O2-  O226  1  0.58443845  0.96376584  0.40297922  1
  O2-  O227  1  0.59041727  0.96198524  0.72989082  1
  O2-  O228  1  0.20527730  0.33949644  0.06237447  1
  O2-  O229  1  0.20838380  0.33335449  0.40527422  1
  O2-  O230  1  0.20785608  0.33762766  0.73157886  1
  O2-  O231  1  0.20615119  0.83231736  0.06273869  1
  O2-  O232  1  0.20397993  0.83498723  0.39665702  1
  O2-  O233  1  0.19690748  0.83097320  0.72720778  1
  O2-  O234  1  0.70469665  0.33691395  0.06107785  1
  O2-  O235  1  0.70960949  0.33070569  0.39876691  1
  O2-  O236  1  0.70753833  0.32719590  0.73592221  1
  O2-  O237  1  0.69676325  0.83086198  0.06124085  1
  O2-  O238  1  0.70838211  0.83251391  0.40123324  1
  O2-  O239  1  0.70159155  0.83505643  0.72619258  1
  O2-  O240  1  0.44544154  0.42515851  0.27267935  1
  O2-  O241  1  0.44765503  0.41380688  0.60673860  1
  O2-  O242  1  0.45605625  0.42130197  0.93278435  1
  O2-  O243  1  0.46248357  0.91615194  0.26560062  1
  O2-  O244  1  0.46067075  0.92132215  0.59952497  1
  O2-  O245  1  0.46197724  0.91635268  0.93204925  1
  O2-  O246  1  0.96202820  0.41898639  0.26869077  1
  O2-  O247  1  0.96121284  0.41641734  0.59911799  1
  O2-  O248  1  0.95863387  0.41768545  0.93051878  1
  O2-  O249  1  0.95949653  0.91899820  0.26786814  1
  O2-  O250  1  0.96098699  0.91666492  0.59568121  1
  O2-  O251  1  0.95580233  0.91956373  0.93432174  1
  O2-  O252  1  0.32927993  0.29070324  0.26926204  1
  O2-  O253  1  0.33536420  0.28840300  0.60575613  1
  O2-  O254  1  0.32948476  0.29670952  0.93345493  1
  O2-  O255  1  0.33226772  0.79160290  0.26559445  1
  O2-  O256  1  0.32913543  0.79661541  0.60052400  1
  O2-  O257  1  0.33576996  0.78991893  0.93142260  1
  O2-  O258  1  0.83539677  0.29156348  0.26594102  1
  O2-  O259  1  0.83316359  0.28597828  0.59838175  1
  O2-  O260  1  0.82876393  0.29433832  0.93178871  1
  O2-  O261  1  0.83137194  0.79202117  0.26467409  1
  O2-  O262  1  0.83190218  0.79082538  0.59951191  1
  O2-  O263  1  0.82750188  0.79378651  0.93521530  1
  O2-  O264  1  0.41858724  0.03944457  0.06925976  1
  O2-  O265  1  0.41248257  0.04021281  0.39490680  1
  O2-  O266  1  0.41853225  0.04052905  0.73615982  1
  O2-  O267  1  0.41349532  0.54767751  0.06281723  1
  O2-  O268  1  0.41692188  0.55657903  0.39606240  1
  O2-  O269  1  0.41045275  0.54456449  0.73042625  1
  O2-  O270  1  0.92071046  0.04568496  0.06725109  1
  O2-  O271  1  0.91983883  0.04931811  0.39717634  1
  O2-  O272  1  0.91629030  0.04573789  0.72398355  1
  O2-  O273  1  0.91461483  0.54336550  0.06309811  1
  O2-  O274  1  0.91660848  0.55081026  0.39484683  1
  O2-  O275  1  0.92046896  0.54404136  0.73456823  1
  O2-  O276  1  0.28856070  0.16856503  0.06961299  1
  O2-  O277  1  0.29197882  0.15928238  0.39823368  1
  O2-  O278  1  0.28885773  0.16462781  0.73760670  1
  O2-  O279  1  0.29160930  0.66439129  0.06168336  1
  O2-  O280  1  0.28954544  0.66654048  0.40013497  1
  O2-  O281  1  0.29097392  0.66453127  0.72846624  1
  O2-  O282  1  0.78817569  0.16693815  0.06701227  1
  O2-  O283  1  0.79618405  0.16467722  0.39714448  1
  O2-  O284  1  0.79020063  0.15928637  0.72741074  1
  O2-  O285  1  0.79311259  0.66202260  0.06591421  1
  O2-  O286  1  0.79457500  0.66570570  0.39401015  1
  O2-  O287  1  0.79097338  0.66954866  0.73653468  1
